MODEL 1
REMARK VINA RESULT:    -4.093      0.000      0.000
REMARK INTER + INTRA:          -8.488
REMARK INTER:                  -7.443
REMARK INTRA:                  -1.044
REMARK UNBOUND:                -1.044
REMARK SMILES CCCCCCCCCCCCCCCC(=O)[O-]
REMARK SMILES IDX 9 1 10 2 11 3 12 4 13 5 14 6 15 7 16 8 17 9 18 10 8 11 7 12
REMARK SMILES IDX 6 13 5 14 4 15 3 16 2 17 1 18
REMARK H PARENT
REMARK Flexibility Score: inf
ROOT
ATOM      1  C   UNL     1      24.060 -52.649 156.645  1.00  0.00     0.000 C 
ENDROOT
BRANCH   1   2
ATOM      2  C   UNL     1      24.890 -53.031 155.410  1.00  0.00     0.000 C 
BRANCH   2   3
ATOM      3  C   UNL     1      24.194 -54.085 154.531  1.00  0.00     0.000 C 
BRANCH   3   4
ATOM      4  C   UNL     1      24.507 -53.911 153.034  1.00  0.00     0.000 C 
BRANCH   4   5
ATOM      5  C   UNL     1      25.426 -52.720 152.695  1.00  0.00     0.000 C 
BRANCH   5   6
ATOM      6  C   UNL     1      25.776 -52.567 151.201  1.00  0.00     0.006 C 
BRANCH   6   7
ATOM      7  C   UNL     1      25.985 -51.115 150.744  1.00  0.00     0.053 C 
BRANCH   7   8
ATOM      8  C   UNL     1      25.455 -50.883 149.361  1.00  0.00     0.041 C 
ATOM      9  O   UNL     1      24.949 -49.772 149.055  1.00  0.00    -0.550 OA
ATOM     10  O   UNL     1      25.551 -51.883 148.403  1.00  0.00    -0.550 OA
ENDBRANCH   7   8
ENDBRANCH   6   7
ENDBRANCH   5   6
ENDBRANCH   4   5
ENDBRANCH   3   4
ENDBRANCH   2   3
ENDBRANCH   1   2
BRANCH   1  11
ATOM     11  C   UNL     1      22.545 -52.753 156.392  1.00  0.00     0.000 C 
BRANCH  11  12
ATOM     12  C   UNL     1      21.803 -51.446 156.722  1.00  0.00    -0.000 C 
BRANCH  12  13
ATOM     13  C   UNL     1      21.099 -51.498 158.089  1.00  0.00    -0.000 C 
BRANCH  13  14
ATOM     14  C   UNL     1      20.430 -50.164 158.469  1.00  0.00    -0.000 C 
BRANCH  14  15
ATOM     15  C   UNL     1      20.805 -49.622 159.860  1.00  0.00    -0.000 C 
BRANCH  15  16
ATOM     16  C   UNL     1      22.325 -49.477 160.056  1.00  0.00    -0.000 C 
BRANCH  16  17
ATOM     17  C   UNL     1      22.939 -48.412 159.135  1.00  0.00    -0.003 C 
ATOM     18  C   UNL     1      24.058 -48.967 158.255  1.00  0.00     0.004 C 
ENDBRANCH  16  17
ENDBRANCH  15  16
ENDBRANCH  14  15
ENDBRANCH  13  14
ENDBRANCH  12  13
ENDBRANCH  11  12
ENDBRANCH   1  11
TORSDOF 14
ENDMDL
MODEL 2
REMARK VINA RESULT:    -4.042     13.998     16.695
REMARK INTER + INTRA:          -8.394
REMARK INTER:                  -5.714
REMARK INTRA:                  -2.680
REMARK UNBOUND:                -1.044
REMARK SMILES CCCCCCCCCCCCCCCC(=O)[O-]
REMARK SMILES IDX 9 1 10 2 11 3 12 4 13 5 14 6 15 7 16 8 17 9 18 10 8 11 7 12
REMARK SMILES IDX 6 13 5 14 4 15 3 16 2 17 1 18
REMARK H PARENT
REMARK Flexibility Score: inf
ROOT
ATOM      1  C   UNL     1      20.764 -40.058 159.761  1.00  0.00     0.000 C 
ENDROOT
BRANCH   1   2
ATOM      2  C   UNL     1      21.706 -39.123 160.536  1.00  0.00     0.000 C 
BRANCH   2   3
ATOM      3  C   UNL     1      20.960 -38.231 161.543  1.00  0.00     0.000 C 
BRANCH   3   4
ATOM      4  C   UNL     1      21.340 -36.745 161.417  1.00  0.00     0.000 C 
BRANCH   4   5
ATOM      5  C   UNL     1      20.200 -35.820 160.944  1.00  0.00     0.000 C 
BRANCH   5   6
ATOM      6  C   UNL     1      18.794 -36.204 161.448  1.00  0.00     0.006 C 
BRANCH   6   7
ATOM      7  C   UNL     1      17.651 -35.396 160.815  1.00  0.00     0.053 C 
BRANCH   7   8
ATOM      8  C   UNL     1      16.505 -36.272 160.410  1.00  0.00     0.041 C 
ATOM      9  O   UNL     1      16.573 -37.519 160.570  1.00  0.00    -0.550 OA
ATOM     10  O   UNL     1      15.350 -35.708 159.885  1.00  0.00    -0.550 OA
ENDBRANCH   7   8
ENDBRANCH   6   7
ENDBRANCH   5   6
ENDBRANCH   4   5
ENDBRANCH   3   4
ENDBRANCH   2   3
ENDBRANCH   1   2
BRANCH   1  11
ATOM     11  C   UNL     1      19.363 -39.452 159.566  1.00  0.00     0.000 C 
BRANCH  11  12
ATOM     12  C   UNL     1      19.131 -38.958 158.128  1.00  0.00    -0.000 C 
BRANCH  12  13
ATOM     13  C   UNL     1      19.126 -37.423 158.027  1.00  0.00    -0.000 C 
BRANCH  13  14
ATOM     14  C   UNL     1      20.207 -36.882 157.072  1.00  0.00    -0.000 C 
BRANCH  14  15
ATOM     15  C   UNL     1      21.544 -37.643 157.106  1.00  0.00    -0.000 C 
BRANCH  15  16
ATOM     16  C   UNL     1      22.644 -36.890 157.875  1.00  0.00    -0.000 C 
BRANCH  16  17
ATOM     17  C   UNL     1      22.418 -35.370 157.886  1.00  0.00    -0.003 C 
ATOM     18  C   UNL     1      23.391 -34.636 158.809  1.00  0.00     0.004 C 
ENDBRANCH  16  17
ENDBRANCH  15  16
ENDBRANCH  14  15
ENDBRANCH  13  14
ENDBRANCH  12  13
ENDBRANCH  11  12
ENDBRANCH   1  11
TORSDOF 14
ENDMDL
MODEL 3
REMARK VINA RESULT:    -4.041     13.371     16.257
REMARK INTER + INTRA:          -8.393
REMARK INTER:                  -5.766
REMARK INTRA:                  -2.627
REMARK UNBOUND:                -1.044
REMARK SMILES CCCCCCCCCCCCCCCC(=O)[O-]
REMARK SMILES IDX 9 1 10 2 11 3 12 4 13 5 14 6 15 7 16 8 17 9 18 10 8 11 7 12
REMARK SMILES IDX 6 13 5 14 4 15 3 16 2 17 1 18
REMARK H PARENT
REMARK Flexibility Score: inf
ROOT
ATOM      1  C   UNL     1      23.060 -36.029 158.126  1.00  0.00     0.000 C 
ENDROOT
BRANCH   1   2
ATOM      2  C   UNL     1      22.168 -36.758 157.109  1.00  0.00     0.000 C 
BRANCH   2   3
ATOM      3  C   UNL     1      21.326 -37.874 157.751  1.00  0.00     0.000 C 
BRANCH   3   4
ATOM      4  C   UNL     1      21.979 -38.459 159.016  1.00  0.00     0.000 C 
BRANCH   4   5
ATOM      5  C   UNL     1      21.039 -38.591 160.231  1.00  0.00     0.000 C 
BRANCH   5   6
ATOM      6  C   UNL     1      19.536 -38.461 159.914  1.00  0.00     0.006 C 
BRANCH   6   7
ATOM      7  C   UNL     1      18.754 -39.782 159.987  1.00  0.00     0.053 C 
BRANCH   7   8
ATOM      8  C   UNL     1      18.548 -40.385 158.631  1.00  0.00     0.041 C 
ATOM      9  O   UNL     1      18.597 -41.634 158.479  1.00  0.00    -0.550 OA
ATOM     10  O   UNL     1      18.267 -39.570 157.543  1.00  0.00    -0.550 OA
ENDBRANCH   7   8
ENDBRANCH   6   7
ENDBRANCH   5   6
ENDBRANCH   4   5
ENDBRANCH   3   4
ENDBRANCH   2   3
ENDBRANCH   1   2
BRANCH   1  11
ATOM     11  C   UNL     1      23.024 -34.500 157.952  1.00  0.00     0.000 C 
BRANCH  11  12
ATOM     12  C   UNL     1      21.736 -33.875 158.512  1.00  0.00    -0.000 C 
BRANCH  12  13
ATOM     13  C   UNL     1      21.288 -34.531 159.830  1.00  0.00    -0.000 C 
BRANCH  13  14
ATOM     14  C   UNL     1      19.778 -34.830 159.868  1.00  0.00    -0.000 C 
BRANCH  14  15
ATOM     15  C   UNL     1      19.002 -34.419 158.605  1.00  0.00    -0.000 C 
BRANCH  15  16
ATOM     16  C   UNL     1      18.339 -35.612 157.893  1.00  0.00    -0.000 C 
BRANCH  16  17
ATOM     17  C   UNL     1      18.716 -35.694 156.407  1.00  0.00    -0.003 C 
ATOM     18  C   UNL     1      19.043 -34.327 155.805  1.00  0.00     0.004 C 
ENDBRANCH  16  17
ENDBRANCH  15  16
ENDBRANCH  14  15
ENDBRANCH  13  14
ENDBRANCH  12  13
ENDBRANCH  11  12
ENDBRANCH   1  11
TORSDOF 14
ENDMDL
MODEL 4
REMARK VINA RESULT:    -4.011      5.575      7.804
REMARK INTER + INTRA:          -8.337
REMARK INTER:                  -5.769
REMARK INTRA:                  -2.568
REMARK UNBOUND:                -1.044
REMARK SMILES CCCCCCCCCCCCCCCC(=O)[O-]
REMARK SMILES IDX 9 1 10 2 11 3 12 4 13 5 14 6 15 7 16 8 17 9 18 10 8 11 7 12
REMARK SMILES IDX 6 13 5 14 4 15 3 16 2 17 1 18
REMARK H PARENT
REMARK Flexibility Score: inf
ROOT
ATOM      1  C   UNL     1      21.020 -49.855 159.530  1.00  0.00     0.000 C 
ENDROOT
BRANCH   1   2
ATOM      2  C   UNL     1      21.876 -48.588 159.379  1.00  0.00     0.000 C 
BRANCH   2   3
ATOM      3  C   UNL     1      23.370 -48.846 159.641  1.00  0.00     0.000 C 
BRANCH   3   4
ATOM      4  C   UNL     1      23.608 -49.856 160.778  1.00  0.00     0.000 C 
BRANCH   4   5
ATOM      5  C   UNL     1      24.905 -50.681 160.653  1.00  0.00     0.000 C 
BRANCH   5   6
ATOM      6  C   UNL     1      25.389 -51.341 161.960  1.00  0.00     0.006 C 
BRANCH   6   7
ATOM      7  C   UNL     1      25.568 -52.864 161.874  1.00  0.00     0.053 C 
BRANCH   7   8
ATOM      8  C   UNL     1      26.735 -53.242 161.013  1.00  0.00     0.041 C 
ATOM      9  O   UNL     1      27.909 -53.144 161.457  1.00  0.00    -0.550 OA
ATOM     10  O   UNL     1      26.523 -53.733 159.732  1.00  0.00    -0.550 OA
ENDBRANCH   7   8
ENDBRANCH   6   7
ENDBRANCH   5   6
ENDBRANCH   4   5
ENDBRANCH   3   4
ENDBRANCH   2   3
ENDBRANCH   1   2
BRANCH   1  11
ATOM     11  C   UNL     1      20.476 -50.363 158.183  1.00  0.00     0.000 C 
BRANCH  11  12
ATOM     12  C   UNL     1      21.593 -50.857 157.248  1.00  0.00    -0.000 C 
BRANCH  12  13
ATOM     13  C   UNL     1      21.863 -52.364 157.399  1.00  0.00    -0.000 C 
BRANCH  13  14
ATOM     14  C   UNL     1      23.161 -52.666 158.172  1.00  0.00    -0.000 C 
BRANCH  14  15
ATOM     15  C   UNL     1      22.993 -53.599 159.384  1.00  0.00    -0.000 C 
BRANCH  15  16
ATOM     16  C   UNL     1      21.649 -53.404 160.109  1.00  0.00    -0.000 C 
BRANCH  16  17
ATOM     17  C   UNL     1      21.816 -53.254 161.628  1.00  0.00    -0.003 C 
ATOM     18  C   UNL     1      20.910 -52.173 162.217  1.00  0.00     0.004 C 
ENDBRANCH  16  17
ENDBRANCH  15  16
ENDBRANCH  14  15
ENDBRANCH  13  14
ENDBRANCH  12  13
ENDBRANCH  11  12
ENDBRANCH   1  11
TORSDOF 14
ENDMDL
MODEL 5
REMARK VINA RESULT:    -4.005      6.310      7.865
REMARK INTER + INTRA:          -8.327
REMARK INTER:                  -6.188
REMARK INTRA:                  -2.139
REMARK UNBOUND:                -1.044
REMARK SMILES CCCCCCCCCCCCCCCC(=O)[O-]
REMARK SMILES IDX 9 1 10 2 11 3 12 4 13 5 14 6 15 7 16 8 17 9 18 10 8 11 7 12
REMARK SMILES IDX 6 13 5 14 4 15 3 16 2 17 1 18
REMARK H PARENT
REMARK Flexibility Score: inf
ROOT
ATOM      1  C   UNL     1      20.743 -49.431 159.364  1.00  0.00     0.000 C 
ENDROOT
BRANCH   1   2
ATOM      2  C   UNL     1      21.861 -48.381 159.465  1.00  0.00     0.000 C 
BRANCH   2   3
ATOM      3  C   UNL     1      23.267 -49.000 159.385  1.00  0.00     0.000 C 
BRANCH   3   4
ATOM      4  C   UNL     1      23.686 -49.696 160.693  1.00  0.00     0.000 C 
BRANCH   4   5
ATOM      5  C   UNL     1      24.777 -50.774 160.535  1.00  0.00     0.000 C 
BRANCH   5   6
ATOM      6  C   UNL     1      25.777 -50.869 161.705  1.00  0.00     0.006 C 
BRANCH   6   7
ATOM      7  C   UNL     1      27.216 -51.205 161.284  1.00  0.00     0.053 C 
BRANCH   7   8
ATOM      8  C   UNL     1      27.452 -52.684 161.230  1.00  0.00     0.041 C 
ATOM      9  O   UNL     1      27.589 -53.264 160.121  1.00  0.00    -0.550 OA
ATOM     10  O   UNL     1      27.555 -53.414 162.406  1.00  0.00    -0.550 OA
ENDBRANCH   7   8
ENDBRANCH   6   7
ENDBRANCH   5   6
ENDBRANCH   4   5
ENDBRANCH   3   4
ENDBRANCH   2   3
ENDBRANCH   1   2
BRANCH   1  11
ATOM     11  C   UNL     1      20.956 -50.405 158.191  1.00  0.00     0.000 C 
BRANCH  11  12
ATOM     12  C   UNL     1      20.642 -51.861 158.572  1.00  0.00    -0.000 C 
BRANCH  12  13
ATOM     13  C   UNL     1      21.888 -52.625 159.053  1.00  0.00    -0.000 C 
BRANCH  13  14
ATOM     14  C   UNL     1      21.642 -53.417 160.351  1.00  0.00    -0.000 C 
BRANCH  14  15
ATOM     15  C   UNL     1      21.865 -52.622 161.650  1.00  0.00    -0.000 C 
BRANCH  15  16
ATOM     16  C   UNL     1      20.574 -51.976 162.185  1.00  0.00    -0.000 C 
BRANCH  16  17
ATOM     17  C   UNL     1      20.843 -50.669 162.945  1.00  0.00    -0.003 C 
ATOM     18  C   UNL     1      19.687 -49.675 162.836  1.00  0.00     0.004 C 
ENDBRANCH  16  17
ENDBRANCH  15  16
ENDBRANCH  14  15
ENDBRANCH  13  14
ENDBRANCH  12  13
ENDBRANCH  11  12
ENDBRANCH   1  11
TORSDOF 14
ENDMDL
MODEL 6
REMARK VINA RESULT:    -3.984     14.375     17.221
REMARK INTER + INTRA:          -8.290
REMARK INTER:                  -6.162
REMARK INTRA:                  -2.128
REMARK UNBOUND:                -1.044
REMARK SMILES CCCCCCCCCCCCCCCC(=O)[O-]
REMARK SMILES IDX 9 1 10 2 11 3 12 4 13 5 14 6 15 7 16 8 17 9 18 10 8 11 7 12
REMARK SMILES IDX 6 13 5 14 4 15 3 16 2 17 1 18
REMARK H PARENT
REMARK Flexibility Score: inf
ROOT
ATOM      1  C   UNL     1      19.339 -36.090 156.891  1.00  0.00     0.000 C 
ENDROOT
BRANCH   1   2
ATOM      2  C   UNL     1      18.390 -35.854 158.077  1.00  0.00     0.000 C 
BRANCH   2   3
ATOM      3  C   UNL     1      19.140 -35.617 159.399  1.00  0.00     0.000 C 
BRANCH   3   4
ATOM      4  C   UNL     1      18.332 -36.061 160.631  1.00  0.00     0.000 C 
BRANCH   4   5
ATOM      5  C   UNL     1      16.808 -36.155 160.409  1.00  0.00     0.000 C 
BRANCH   5   6
ATOM      6  C   UNL     1      16.228 -37.583 160.448  1.00  0.00     0.006 C 
BRANCH   6   7
ATOM      7  C   UNL     1      14.697 -37.643 160.565  1.00  0.00     0.053 C 
BRANCH   7   8
ATOM      8  C   UNL     1      14.258 -38.157 161.902  1.00  0.00     0.041 C 
ATOM      9  O   UNL     1      13.068 -38.529 162.079  1.00  0.00    -0.550 OA
ATOM     10  O   UNL     1      15.171 -38.255 162.943  1.00  0.00    -0.550 OA
ENDBRANCH   7   8
ENDBRANCH   6   7
ENDBRANCH   5   6
ENDBRANCH   4   5
ENDBRANCH   3   4
ENDBRANCH   2   3
ENDBRANCH   1   2
BRANCH   1  11
ATOM     11  C   UNL     1      20.706 -35.411 157.087  1.00  0.00     0.000 C 
BRANCH  11  12
ATOM     12  C   UNL     1      21.880 -36.384 156.886  1.00  0.00    -0.000 C 
BRANCH  12  13
ATOM     13  C   UNL     1      21.531 -37.822 157.308  1.00  0.00    -0.000 C 
BRANCH  13  14
ATOM     14  C   UNL     1      22.116 -38.203 158.681  1.00  0.00    -0.000 C 
BRANCH  14  15
ATOM     15  C   UNL     1      21.073 -38.525 159.765  1.00  0.00    -0.000 C 
BRANCH  15  16
ATOM     16  C   UNL     1      20.465 -39.931 159.613  1.00  0.00    -0.000 C 
BRANCH  16  17
ATOM     17  C   UNL     1      18.933 -39.902 159.509  1.00  0.00    -0.003 C 
ATOM     18  C   UNL     1      18.443 -39.612 158.090  1.00  0.00     0.004 C 
ENDBRANCH  16  17
ENDBRANCH  15  16
ENDBRANCH  14  15
ENDBRANCH  13  14
ENDBRANCH  12  13
ENDBRANCH  11  12
ENDBRANCH   1  11
TORSDOF 14
ENDMDL
MODEL 7
REMARK VINA RESULT:    -3.979     13.597     16.737
REMARK INTER + INTRA:          -8.279
REMARK INTER:                  -6.118
REMARK INTRA:                  -2.161
REMARK UNBOUND:                -1.044
REMARK SMILES CCCCCCCCCCCCCCCC(=O)[O-]
REMARK SMILES IDX 9 1 10 2 11 3 12 4 13 5 14 6 15 7 16 8 17 9 18 10 8 11 7 12
REMARK SMILES IDX 6 13 5 14 4 15 3 16 2 17 1 18
REMARK H PARENT
REMARK Flexibility Score: inf
ROOT
ATOM      1  C   UNL     1      21.717 -39.042 160.910  1.00  0.00     0.000 C 
ENDROOT
BRANCH   1   2
ATOM      2  C   UNL     1      20.593 -38.058 161.268  1.00  0.00     0.000 C 
BRANCH   2   3
ATOM      3  C   UNL     1      19.538 -38.676 162.202  1.00  0.00     0.000 C 
BRANCH   3   4
ATOM      4  C   UNL     1      18.255 -37.830 162.293  1.00  0.00     0.000 C 
BRANCH   4   5
ATOM      5  C   UNL     1      16.940 -38.633 162.213  1.00  0.00     0.000 C 
BRANCH   5   6
ATOM      6  C   UNL     1      15.680 -37.796 161.911  1.00  0.00     0.006 C 
BRANCH   6   7
ATOM      7  C   UNL     1      15.646 -37.186 160.502  1.00  0.00     0.053 C 
BRANCH   7   8
ATOM      8  C   UNL     1      14.753 -35.984 160.435  1.00  0.00     0.041 C 
ATOM      9  O   UNL     1      14.426 -35.378 161.489  1.00  0.00    -0.550 OA
ATOM     10  O   UNL     1      14.310 -35.515 159.206  1.00  0.00    -0.550 OA
ENDBRANCH   7   8
ENDBRANCH   6   7
ENDBRANCH   5   6
ENDBRANCH   4   5
ENDBRANCH   3   4
ENDBRANCH   2   3
ENDBRANCH   1   2
BRANCH   1  11
ATOM     11  C   UNL     1      21.958 -39.135 159.392  1.00  0.00     0.000 C 
BRANCH  11  12
ATOM     12  C   UNL     1      22.066 -37.752 158.729  1.00  0.00    -0.000 C 
BRANCH  12  13
ATOM     13  C   UNL     1      21.221 -37.646 157.448  1.00  0.00    -0.000 C 
BRANCH  13  14
ATOM     14  C   UNL     1      19.966 -36.772 157.628  1.00  0.00    -0.000 C 
BRANCH  14  15
ATOM     15  C   UNL     1      18.749 -37.498 158.228  1.00  0.00    -0.000 C 
BRANCH  15  16
ATOM     16  C   UNL     1      18.640 -38.963 157.769  1.00  0.00    -0.000 C 
BRANCH  16  17
ATOM     17  C   UNL     1      18.395 -39.929 158.938  1.00  0.00    -0.003 C 
ATOM     18  C   UNL     1      18.752 -41.375 158.594  1.00  0.00     0.004 C 
ENDBRANCH  16  17
ENDBRANCH  15  16
ENDBRANCH  14  15
ENDBRANCH  13  14
ENDBRANCH  12  13
ENDBRANCH  11  12
ENDBRANCH   1  11
TORSDOF 14
ENDMDL
MODEL 8
REMARK VINA RESULT:    -3.952     14.481     16.648
REMARK INTER + INTRA:          -8.231
REMARK INTER:                  -5.919
REMARK INTRA:                  -2.311
REMARK UNBOUND:                -1.044
REMARK SMILES CCCCCCCCCCCCCCCC(=O)[O-]
REMARK SMILES IDX 9 1 10 2 11 3 12 4 13 5 14 6 15 7 16 8 17 9 18 10 8 11 7 12
REMARK SMILES IDX 6 13 5 14 4 15 3 16 2 17 1 18
REMARK H PARENT
REMARK Flexibility Score: inf
ROOT
ATOM      1  C   UNL     1      18.766 -38.936 157.851  1.00  0.00     0.000 C 
ENDROOT
BRANCH   1   2
ATOM      2  C   UNL     1      19.037 -39.957 158.967  1.00  0.00     0.000 C 
BRANCH   2   3
ATOM      3  C   UNL     1      20.231 -39.564 159.854  1.00  0.00     0.000 C 
BRANCH   3   4
ATOM      4  C   UNL     1      19.812 -39.208 161.292  1.00  0.00     0.000 C 
BRANCH   4   5
ATOM      5  C   UNL     1      18.301 -39.326 161.577  1.00  0.00     0.000 C 
BRANCH   5   6
ATOM      6  C   UNL     1      17.572 -37.987 161.805  1.00  0.00     0.006 C 
BRANCH   6   7
ATOM      7  C   UNL     1      16.699 -37.531 160.626  1.00  0.00     0.053 C 
BRANCH   7   8
ATOM      8  C   UNL     1      15.250 -37.451 161.001  1.00  0.00     0.041 C 
ATOM      9  O   UNL     1      14.455 -36.754 160.317  1.00  0.00    -0.550 OA
ATOM     10  O   UNL     1      14.773 -38.173 162.087  1.00  0.00    -0.550 OA
ENDBRANCH   7   8
ENDBRANCH   6   7
ENDBRANCH   5   6
ENDBRANCH   4   5
ENDBRANCH   3   4
ENDBRANCH   2   3
ENDBRANCH   1   2
BRANCH   1  11
ATOM     11  C   UNL     1      19.283 -37.529 158.203  1.00  0.00     0.000 C 
BRANCH  11  12
ATOM     12  C   UNL     1      20.179 -36.940 157.100  1.00  0.00    -0.000 C 
BRANCH  12  13
ATOM     13  C   UNL     1      21.554 -37.626 157.031  1.00  0.00    -0.000 C 
BRANCH  13  14
ATOM     14  C   UNL     1      22.574 -37.026 158.018  1.00  0.00    -0.000 C 
BRANCH  14  15
ATOM     15  C   UNL     1      22.573 -35.490 158.099  1.00  0.00    -0.000 C 
BRANCH  15  16
ATOM     16  C   UNL     1      22.287 -34.965 159.517  1.00  0.00    -0.000 C 
BRANCH  16  17
ATOM     17  C   UNL     1      21.681 -36.040 160.431  1.00  0.00    -0.003 C 
ATOM     18  C   UNL     1      20.406 -35.570 161.131  1.00  0.00     0.004 C 
ENDBRANCH  16  17
ENDBRANCH  15  16
ENDBRANCH  14  15
ENDBRANCH  13  14
ENDBRANCH  12  13
ENDBRANCH  11  12
ENDBRANCH   1  11
TORSDOF 14
ENDMDL
MODEL 9
REMARK VINA RESULT:    -3.945      1.960      2.219
REMARK INTER + INTRA:          -8.218
REMARK INTER:                  -7.266
REMARK INTRA:                  -0.953
REMARK UNBOUND:                -1.044
REMARK SMILES CCCCCCCCCCCCCCCC(=O)[O-]
REMARK SMILES IDX 9 1 10 2 11 3 12 4 13 5 14 6 15 7 16 8 17 9 18 10 8 11 7 12
REMARK SMILES IDX 6 13 5 14 4 15 3 16 2 17 1 18
REMARK H PARENT
REMARK Flexibility Score: inf
ROOT
ATOM      1  C   UNL     1      24.489 -53.024 155.914  1.00  0.00     0.000 C 
ENDROOT
BRANCH   1   2
ATOM      2  C   UNL     1      24.379 -53.745 154.561  1.00  0.00     0.000 C 
BRANCH   2   3
ATOM      3  C   UNL     1      25.082 -52.983 153.424  1.00  0.00     0.000 C 
BRANCH   3   4
ATOM      4  C   UNL     1      24.947 -53.688 152.062  1.00  0.00     0.000 C 
BRANCH   4   5
ATOM      5  C   UNL     1      25.360 -52.836 150.845  1.00  0.00     0.000 C 
BRANCH   5   6
ATOM      6  C   UNL     1      25.980 -51.465 151.186  1.00  0.00     0.006 C 
BRANCH   6   7
ATOM      7  C   UNL     1      27.498 -51.383 150.965  1.00  0.00     0.053 C 
BRANCH   7   8
ATOM      8  C   UNL     1      28.187 -50.662 152.083  1.00  0.00     0.041 C 
ATOM      9  O   UNL     1      27.757 -50.762 153.263  1.00  0.00    -0.550 OA
ATOM     10  O   UNL     1      29.322 -49.905 151.827  1.00  0.00    -0.550 OA
ENDBRANCH   7   8
ENDBRANCH   6   7
ENDBRANCH   5   6
ENDBRANCH   4   5
ENDBRANCH   3   4
ENDBRANCH   2   3
ENDBRANCH   1   2
BRANCH   1  11
ATOM     11  C   UNL     1      23.249 -53.243 156.800  1.00  0.00     0.000 C 
BRANCH  11  12
ATOM     12  C   UNL     1      22.277 -52.053 156.752  1.00  0.00    -0.000 C 
BRANCH  12  13
ATOM     13  C   UNL     1      21.537 -51.844 158.085  1.00  0.00    -0.000 C 
BRANCH  13  14
ATOM     14  C   UNL     1      20.460 -50.746 158.007  1.00  0.00    -0.000 C 
BRANCH  14  15
ATOM     15  C   UNL     1      20.649 -49.579 158.992  1.00  0.00    -0.000 C 
BRANCH  15  16
ATOM     16  C   UNL     1      22.002 -49.626 159.724  1.00  0.00    -0.000 C 
BRANCH  16  17
ATOM     17  C   UNL     1      22.952 -48.505 159.277  1.00  0.00    -0.003 C 
ATOM     18  C   UNL     1      23.952 -48.966 158.218  1.00  0.00     0.004 C 
ENDBRANCH  16  17
ENDBRANCH  15  16
ENDBRANCH  14  15
ENDBRANCH  13  14
ENDBRANCH  12  13
ENDBRANCH  11  12
ENDBRANCH   1  11
TORSDOF 14
ENDMDL
