MODEL 1
REMARK VINA RESULT:    -7.711      0.000      0.000
REMARK INTER + INTRA:          -9.160
REMARK INTER:                  -9.289
REMARK INTRA:                   0.129
REMARK UNBOUND:                 0.129
REMARK SMILES Oc1cc(O)c2c(c1)O[C@@H](c1ccc(O)c(O)c1)[C@@H](O)C2
REMARK SMILES IDX 21 1 19 2 10 3 9 4 7 5 8 6 2 7 3 8 4 9 6 10 20 11 11 13
REMARK SMILES IDX 18 14 12 15 16 16 13 17 14 18 17 19 15 21 5 23 1 25
REMARK H PARENT 20 12 17 20 15 22 5 24 1 26
REMARK Flexibility Score: inf
ROOT
ATOM      1  C   UNL     1      33.677  25.317  16.478  1.00  0.00     0.079 C 
ATOM      2  C   UNL     1      33.650  23.971  17.227  1.00  0.00     0.164 C 
ATOM      3  C   UNL     1      34.549  24.014  18.487  1.00  0.00     0.232 C 
ATOM      4  O   UNL     1      34.266  25.170  19.272  1.00  0.00    -0.482 OA
ATOM      5  C   UNL     1      33.766  26.369  18.756  1.00  0.00     0.131 A 
ATOM      6  C   UNL     1      33.531  27.426  19.638  1.00  0.00     0.093 A 
ATOM      7  C   UNL     1      32.978  28.619  19.176  1.00  0.00     0.122 A 
ATOM      8  C   UNL     1      32.675  28.761  17.821  1.00  0.00     0.092 A 
ATOM      9  C   UNL     1      32.933  27.726  16.916  1.00  0.00     0.126 A 
ATOM     10  C   UNL     1      33.441  26.492  17.391  1.00  0.00     0.039 A 
ENDROOT
BRANCH   2  11
ATOM     11  O   UNL     1      32.335  23.588  17.536  1.00  0.00    -0.389 OA
ATOM     12  H   UNL     1      32.138  22.751  17.042  1.00  0.00     0.211 HD
ENDBRANCH   2  11
BRANCH   3  13
ATOM     13  C   UNL     1      34.414  22.758  19.341  1.00  0.00    -0.001 A 
ATOM     14  C   UNL     1      33.916  21.571  18.775  1.00  0.00     0.057 A 
ATOM     15  C   UNL     1      34.790  22.747  20.700  1.00  0.00     0.012 A 
ATOM     16  C   UNL     1      33.682  20.434  19.572  1.00  0.00     0.157 A 
ATOM     17  C   UNL     1      34.582  21.611  21.488  1.00  0.00     0.050 A 
ATOM     18  C   UNL     1      34.000  20.461  20.940  1.00  0.00     0.157 A 
BRANCH  16  19
ATOM     19  O   UNL     1      33.148  19.274  19.007  1.00  0.00    -0.504 OA
ATOM     20  H   UNL     1      33.749  18.533  18.644  1.00  0.00     0.293 HD
ENDBRANCH  16  19
BRANCH  18  21
ATOM     21  O   UNL     1      33.761  19.356  21.758  1.00  0.00    -0.504 OA
ATOM     22  H   UNL     1      32.960  19.299  22.374  1.00  0.00     0.293 HD
ENDBRANCH  18  21
ENDBRANCH   3  13
BRANCH   9  23
ATOM     23  O   UNL     1      32.653  27.951  15.570  1.00  0.00    -0.507 OA
ATOM     24  H   UNL     1      32.549  28.870  15.168  1.00  0.00     0.293 HD
ENDBRANCH   9  23
BRANCH   7  25
ATOM     25  O   UNL     1      32.693  29.644  20.078  1.00  0.00    -0.508 OA
ATOM     26  H   UNL     1      33.398  30.011  20.700  1.00  0.00     0.293 HD
ENDBRANCH   7  25
TORSDOF 6
ENDMDL
MODEL 2
REMARK VINA RESULT:    -7.480      1.001      1.668
REMARK INTER + INTRA:          -8.882
REMARK INTER:                  -8.957
REMARK INTRA:                   0.075
REMARK UNBOUND:                 0.129
REMARK SMILES Oc1cc(O)c2c(c1)O[C@@H](c1ccc(O)c(O)c1)[C@@H](O)C2
REMARK SMILES IDX 21 1 19 2 10 3 9 4 7 5 8 6 2 7 3 8 4 9 6 10 20 11 11 13
REMARK SMILES IDX 18 14 12 15 16 16 13 17 14 18 17 19 15 21 5 23 1 25
REMARK H PARENT 20 12 17 20 15 22 5 24 1 26
REMARK Flexibility Score: inf
ROOT
ATOM      1  C   UNL     1      33.280  26.293  16.267  1.00  0.00     0.079 C 
ATOM      2  C   UNL     1      33.182  24.836  16.757  1.00  0.00     0.164 C 
ATOM      3  C   UNL     1      34.193  24.559  17.896  1.00  0.00     0.232 C 
ATOM      4  O   UNL     1      34.106  25.564  18.905  1.00  0.00    -0.482 OA
ATOM      5  C   UNL     1      33.689  26.878  18.674  1.00  0.00     0.131 A 
ATOM      6  C   UNL     1      33.647  27.762  19.754  1.00  0.00     0.093 A 
ATOM      7  C   UNL     1      33.181  29.064  19.580  1.00  0.00     0.122 A 
ATOM      8  C   UNL     1      32.770  29.488  18.316  1.00  0.00     0.092 A 
ATOM      9  C   UNL     1      32.834  28.627  17.215  1.00  0.00     0.126 A 
ATOM     10  C   UNL     1      33.253  27.287  17.399  1.00  0.00     0.039 A 
ENDROOT
BRANCH   2  11
ATOM     11  O   UNL     1      31.868  24.513  17.135  1.00  0.00    -0.389 OA
ATOM     12  H   UNL     1      31.913  23.992  17.977  1.00  0.00     0.211 HD
ENDBRANCH   2  11
BRANCH   3  13
ATOM     13  C   UNL     1      34.008  23.179  18.517  1.00  0.00    -0.001 A 
ATOM     14  C   UNL     1      34.470  22.925  19.821  1.00  0.00     0.057 A 
ATOM     15  C   UNL     1      33.369  22.136  17.815  1.00  0.00     0.012 A 
ATOM     16  C   UNL     1      34.406  21.630  20.368  1.00  0.00     0.157 A 
ATOM     17  C   UNL     1      33.283  20.855  18.368  1.00  0.00     0.050 A 
ATOM     18  C   UNL     1      33.825  20.585  19.630  1.00  0.00     0.157 A 
BRANCH  16  19
ATOM     19  O   UNL     1      34.905  21.380  21.649  1.00  0.00    -0.504 OA
ATOM     20  H   UNL     1      34.643  20.542  22.169  1.00  0.00     0.293 HD
ENDBRANCH  16  19
BRANCH  18  21
ATOM     21  O   UNL     1      33.766  19.287  20.140  1.00  0.00    -0.504 OA
ATOM     22  H   UNL     1      34.550  18.852  20.610  1.00  0.00     0.293 HD
ENDBRANCH  18  21
ENDBRANCH   3  13
BRANCH   9  23
ATOM     23  O   UNL     1      32.455  29.129  15.972  1.00  0.00    -0.507 OA
ATOM     24  H   UNL     1      32.892  28.857  15.104  1.00  0.00     0.293 HD
ENDBRANCH   9  23
BRANCH   7  25
ATOM     25  O   UNL     1      33.089  29.917  20.680  1.00  0.00    -0.508 OA
ATOM     26  H   UNL     1      32.565  29.662  21.504  1.00  0.00     0.293 HD
ENDBRANCH   7  25
TORSDOF 6
ENDMDL
MODEL 3
REMARK VINA RESULT:    -6.512      3.212      6.279
REMARK INTER + INTRA:          -7.715
REMARK INTER:                  -7.468
REMARK INTRA:                  -0.247
REMARK UNBOUND:                 0.129
REMARK SMILES Oc1cc(O)c2c(c1)O[C@@H](c1ccc(O)c(O)c1)[C@@H](O)C2
REMARK SMILES IDX 21 1 19 2 10 3 9 4 7 5 8 6 2 7 3 8 4 9 6 10 20 11 11 13
REMARK SMILES IDX 18 14 12 15 16 16 13 17 14 18 17 19 15 21 5 23 1 25
REMARK H PARENT 20 12 17 20 15 22 5 24 1 26
REMARK Flexibility Score: inf
ROOT
ATOM      1  C   UNL     1      34.659  24.952  21.635  1.00  0.00     0.079 C 
ATOM      2  C   UNL     1      34.528  25.069  20.104  1.00  0.00     0.164 C 
ATOM      3  C   UNL     1      33.344  25.987  19.713  1.00  0.00     0.232 C 
ATOM      4  O   UNL     1      33.399  27.218  20.430  1.00  0.00    -0.482 OA
ATOM      5  C   UNL     1      33.985  27.369  21.690  1.00  0.00     0.131 A 
ATOM      6  C   UNL     1      33.973  28.634  22.282  1.00  0.00     0.093 A 
ATOM      7  C   UNL     1      34.597  28.843  23.510  1.00  0.00     0.122 A 
ATOM      8  C   UNL     1      35.223  27.777  24.157  1.00  0.00     0.092 A 
ATOM      9  C   UNL     1      35.219  26.496  23.596  1.00  0.00     0.126 A 
ATOM     10  C   UNL     1      34.636  26.292  22.322  1.00  0.00     0.039 A 
ENDROOT
BRANCH   2  11
ATOM     11  O   UNL     1      35.733  25.494  19.522  1.00  0.00    -0.389 OA
ATOM     12  H   UNL     1      35.695  25.282  18.554  1.00  0.00     0.211 HD
ENDBRANCH   2  11
BRANCH   3  13
ATOM     13  C   UNL     1      33.290  26.259  18.213  1.00  0.00    -0.001 A 
ATOM     14  C   UNL     1      33.068  27.565  17.741  1.00  0.00     0.057 A 
ATOM     15  C   UNL     1      33.468  25.225  17.271  1.00  0.00     0.012 A 
ATOM     16  C   UNL     1      32.906  27.816  16.366  1.00  0.00     0.157 A 
ATOM     17  C   UNL     1      33.332  25.478  15.903  1.00  0.00     0.050 A 
ATOM     18  C   UNL     1      33.021  26.764  15.443  1.00  0.00     0.157 A 
BRANCH  16  19
ATOM     19  O   UNL     1      32.646  29.111  15.911  1.00  0.00    -0.504 OA
ATOM     20  H   UNL     1      32.858  29.393  14.954  1.00  0.00     0.293 HD
ENDBRANCH  16  19
BRANCH  18  21
ATOM     21  O   UNL     1      32.846  26.981  14.075  1.00  0.00    -0.504 OA
ATOM     22  H   UNL     1      32.859  26.227  13.400  1.00  0.00     0.293 HD
ENDBRANCH  18  21
ENDBRANCH   3  13
BRANCH   9  23
ATOM     23  O   UNL     1      35.820  25.466  24.317  1.00  0.00    -0.507 OA
ATOM     24  H   UNL     1      35.358  24.596  24.537  1.00  0.00     0.293 HD
ENDBRANCH   9  23
BRANCH   7  25
ATOM     25  O   UNL     1      34.628  30.125  24.060  1.00  0.00    -0.508 OA
ATOM     26  H   UNL     1      33.780  30.626  24.280  1.00  0.00     0.293 HD
ENDBRANCH   7  25
TORSDOF 6
ENDMDL
MODEL 4
REMARK VINA RESULT:    -6.183      1.416      7.162
REMARK INTER + INTRA:          -7.319
REMARK INTER:                  -7.651
REMARK INTRA:                   0.332
REMARK UNBOUND:                 0.129
REMARK SMILES Oc1cc(O)c2c(c1)O[C@@H](c1ccc(O)c(O)c1)[C@@H](O)C2
REMARK SMILES IDX 21 1 19 2 10 3 9 4 7 5 8 6 2 7 3 8 4 9 6 10 20 11 11 13
REMARK SMILES IDX 18 14 12 15 16 16 13 17 14 18 17 19 15 21 5 23 1 25
REMARK H PARENT 20 12 17 20 15 22 5 24 1 26
REMARK Flexibility Score: inf
ROOT
ATOM      1  C   UNL     1      35.148  24.386  20.163  1.00  0.00     0.079 C 
ATOM      2  C   UNL     1      34.493  25.617  19.510  1.00  0.00     0.164 C 
ATOM      3  C   UNL     1      34.386  25.447  17.975  1.00  0.00     0.232 C 
ATOM      4  O   UNL     1      33.810  24.185  17.644  1.00  0.00    -0.482 OA
ATOM      5  C   UNL     1      33.898  23.045  18.447  1.00  0.00     0.131 A 
ATOM      6  C   UNL     1      33.285  21.871  18.005  1.00  0.00     0.093 A 
ATOM      7  C   UNL     1      33.298  20.726  18.802  1.00  0.00     0.122 A 
ATOM      8  C   UNL     1      33.942  20.754  20.039  1.00  0.00     0.092 A 
ATOM      9  C   UNL     1      34.589  21.910  20.486  1.00  0.00     0.126 A 
ATOM     10  C   UNL     1      34.529  23.090  19.706  1.00  0.00     0.039 A 
ENDROOT
BRANCH   2  11
ATOM     11  O   UNL     1      33.246  25.898  20.092  1.00  0.00    -0.389 OA
ATOM     12  H   UNL     1      32.985  26.817  19.824  1.00  0.00     0.211 HD
ENDBRANCH   2  11
BRANCH   3  13
ATOM     13  C   UNL     1      33.593  26.571  17.318  1.00  0.00    -0.001 A 
ATOM     14  C   UNL     1      33.215  27.699  18.068  1.00  0.00     0.057 A 
ATOM     15  C   UNL     1      33.229  26.517  15.957  1.00  0.00     0.012 A 
ATOM     16  C   UNL     1      32.391  28.694  17.509  1.00  0.00     0.157 A 
ATOM     17  C   UNL     1      32.430  27.517  15.393  1.00  0.00     0.050 A 
ATOM     18  C   UNL     1      31.982  28.593  16.169  1.00  0.00     0.157 A 
BRANCH  16  19
ATOM     19  O   UNL     1      31.989  29.790  18.276  1.00  0.00    -0.504 OA
ATOM     20  H   UNL     1      32.528  30.101  19.085  1.00  0.00     0.293 HD
ENDBRANCH  16  19
BRANCH  18  21
ATOM     21  O   UNL     1      31.148  29.554  15.595  1.00  0.00    -0.504 OA
ATOM     22  H   UNL     1      30.502  29.336  14.848  1.00  0.00     0.293 HD
ENDBRANCH  18  21
ENDBRANCH   3  13
BRANCH   9  23
ATOM     23  O   UNL     1      35.255  21.854  21.709  1.00  0.00    -0.507 OA
ATOM     24  H   UNL     1      34.835  22.126  22.585  1.00  0.00     0.293 HD
ENDBRANCH   9  23
BRANCH   7  25
ATOM     25  O   UNL     1      32.630  19.580  18.373  1.00  0.00    -0.508 OA
ATOM     26  H   UNL     1      32.287  19.490  17.428  1.00  0.00     0.293 HD
ENDBRANCH   7  25
TORSDOF 6
ENDMDL
MODEL 5
REMARK VINA RESULT:    -6.075      4.158      5.992
REMARK INTER + INTRA:          -7.189
REMARK INTER:                  -7.363
REMARK INTRA:                   0.174
REMARK UNBOUND:                 0.129
REMARK SMILES Oc1cc(O)c2c(c1)O[C@@H](c1ccc(O)c(O)c1)[C@@H](O)C2
REMARK SMILES IDX 21 1 19 2 10 3 9 4 7 5 8 6 2 7 3 8 4 9 6 10 20 11 11 13
REMARK SMILES IDX 18 14 12 15 16 16 13 17 14 18 17 19 15 21 5 23 1 25
REMARK H PARENT 20 12 17 20 15 22 5 24 1 26
REMARK Flexibility Score: inf
ROOT
ATOM      1  C   UNL     1      32.169  29.546  19.118  1.00  0.00     0.079 C 
ATOM      2  C   UNL     1      33.315  29.398  20.136  1.00  0.00     0.164 C 
ATOM      3  C   UNL     1      33.648  27.908  20.393  1.00  0.00     0.232 C 
ATOM      4  O   UNL     1      33.811  27.207  19.162  1.00  0.00    -0.482 OA
ATOM      5  C   UNL     1      33.189  27.565  17.963  1.00  0.00     0.131 A 
ATOM      6  C   UNL     1      33.438  26.791  16.828  1.00  0.00     0.093 A 
ATOM      7  C   UNL     1      32.886  27.146  15.598  1.00  0.00     0.122 A 
ATOM      8  C   UNL     1      32.067  28.273  15.509  1.00  0.00     0.092 A 
ATOM      9  C   UNL     1      31.780  29.042  16.640  1.00  0.00     0.126 A 
ATOM     10  C   UNL     1      32.385  28.717  17.879  1.00  0.00     0.039 A 
ENDROOT
BRANCH   2  11
ATOM     11  O   UNL     1      34.449  30.124  19.734  1.00  0.00    -0.389 OA
ATOM     12  H   UNL     1      35.125  29.476  19.408  1.00  0.00     0.211 HD
ENDBRANCH   2  11
BRANCH   3  13
ATOM     13  C   UNL     1      34.886  27.729  21.264  1.00  0.00    -0.001 A 
ATOM     14  C   UNL     1      35.358  28.799  22.046  1.00  0.00     0.057 A 
ATOM     15  C   UNL     1      35.577  26.501  21.319  1.00  0.00     0.012 A 
ATOM     16  C   UNL     1      36.560  28.687  22.770  1.00  0.00     0.157 A 
ATOM     17  C   UNL     1      36.757  26.380  22.058  1.00  0.00     0.050 A 
ATOM     18  C   UNL     1      37.272  27.476  22.762  1.00  0.00     0.157 A 
BRANCH  16  19
ATOM     19  O   UNL     1      37.041  29.769  23.511  1.00  0.00    -0.504 OA
ATOM     20  H   UNL     1      37.461  30.581  23.057  1.00  0.00     0.293 HD
ENDBRANCH  16  19
BRANCH  18  21
ATOM     21  O   UNL     1      38.476  27.342  23.456  1.00  0.00    -0.504 OA
ATOM     22  H   UNL     1      39.342  27.090  22.997  1.00  0.00     0.293 HD
ENDBRANCH  18  21
ENDBRANCH   3  13
BRANCH   9  23
ATOM     23  O   UNL     1      30.915  30.125  16.491  1.00  0.00    -0.507 OA
ATOM     24  H   UNL     1      30.738  30.579  15.608  1.00  0.00     0.293 HD
ENDBRANCH   9  23
BRANCH   7  25
ATOM     25  O   UNL     1      33.192  26.398  14.461  1.00  0.00    -0.508 OA
ATOM     26  H   UNL     1      34.140  26.309  14.127  1.00  0.00     0.293 HD
ENDBRANCH   7  25
TORSDOF 6
ENDMDL
MODEL 6
REMARK VINA RESULT:    -5.732      2.669      3.912
REMARK INTER + INTRA:          -6.775
REMARK INTER:                  -6.748
REMARK INTRA:                  -0.028
REMARK UNBOUND:                 0.129
REMARK SMILES Oc1cc(O)c2c(c1)O[C@@H](c1ccc(O)c(O)c1)[C@@H](O)C2
REMARK SMILES IDX 21 1 19 2 10 3 9 4 7 5 8 6 2 7 3 8 4 9 6 10 20 11 11 13
REMARK SMILES IDX 18 14 12 15 16 16 13 17 14 18 17 19 15 21 5 23 1 25
REMARK H PARENT 20 12 17 20 15 22 5 24 1 26
REMARK Flexibility Score: inf
ROOT
ATOM      1  C   UNL     1      35.019  26.936  20.134  1.00  0.00     0.079 C 
ATOM      2  C   UNL     1      34.587  25.558  19.600  1.00  0.00     0.164 C 
ATOM      3  C   UNL     1      35.158  24.414  20.475  1.00  0.00     0.232 C 
ATOM      4  O   UNL     1      34.900  24.658  21.856  1.00  0.00    -0.482 OA
ATOM      5  C   UNL     1      34.749  25.928  22.418  1.00  0.00     0.131 A 
ATOM      6  C   UNL     1      34.497  26.025  23.787  1.00  0.00     0.093 A 
ATOM      7  C   UNL     1      34.281  27.269  24.378  1.00  0.00     0.122 A 
ATOM      8  C   UNL     1      34.334  28.423  23.596  1.00  0.00     0.092 A 
ATOM      9  C   UNL     1      34.616  28.350  22.228  1.00  0.00     0.126 A 
ATOM     10  C   UNL     1      34.779  27.085  21.614  1.00  0.00     0.039 A 
ENDROOT
BRANCH   2  11
ATOM     11  O   UNL     1      33.190  25.475  19.479  1.00  0.00    -0.389 OA
ATOM     12  H   UNL     1      32.945  24.515  19.436  1.00  0.00     0.211 HD
ENDBRANCH   2  11
BRANCH   3  13
ATOM     13  C   UNL     1      34.613  23.048  20.075  1.00  0.00    -0.001 A 
ATOM     14  C   UNL     1      34.490  22.029  21.036  1.00  0.00     0.057 A 
ATOM     15  C   UNL     1      34.213  22.773  18.751  1.00  0.00     0.012 A 
ATOM     16  C   UNL     1      34.093  20.731  20.664  1.00  0.00     0.157 A 
ATOM     17  C   UNL     1      33.795  21.491  18.384  1.00  0.00     0.050 A 
ATOM     18  C   UNL     1      33.761  20.456  19.327  1.00  0.00     0.157 A 
BRANCH  16  19
ATOM     19  O   UNL     1      34.013  19.716  21.621  1.00  0.00    -0.504 OA
ATOM     20  H   UNL     1      34.641  18.912  21.599  1.00  0.00     0.293 HD
ENDBRANCH  16  19
BRANCH  18  21
ATOM     21  O   UNL     1      33.383  19.173  18.926  1.00  0.00    -0.504 OA
ATOM     22  H   UNL     1      33.304  18.910  17.953  1.00  0.00     0.293 HD
ENDBRANCH  18  21
ENDBRANCH   3  13
BRANCH   9  23
ATOM     23  O   UNL     1      34.703  29.544  21.515  1.00  0.00    -0.507 OA
ATOM     24  H   UNL     1      34.755  29.591  20.509  1.00  0.00     0.293 HD
ENDBRANCH   9  23
BRANCH   7  25
ATOM     25  O   UNL     1      33.971  27.344  25.736  1.00  0.00    -0.508 OA
ATOM     26  H   UNL     1      34.018  26.532  26.334  1.00  0.00     0.293 HD
ENDBRANCH   7  25
TORSDOF 6
ENDMDL
MODEL 7
REMARK VINA RESULT:    -5.684      3.437      6.593
REMARK INTER + INTRA:          -6.718
REMARK INTER:                  -6.518
REMARK INTRA:                  -0.199
REMARK UNBOUND:                 0.129
REMARK SMILES Oc1cc(O)c2c(c1)O[C@@H](c1ccc(O)c(O)c1)[C@@H](O)C2
REMARK SMILES IDX 21 1 19 2 10 3 9 4 7 5 8 6 2 7 3 8 4 9 6 10 20 11 11 13
REMARK SMILES IDX 18 14 12 15 16 16 13 17 14 18 17 19 15 21 5 23 1 25
REMARK H PARENT 20 12 17 20 15 22 5 24 1 26
REMARK Flexibility Score: inf
ROOT
ATOM      1  C   UNL     1      33.575  29.327  21.595  1.00  0.00     0.079 C 
ATOM      2  C   UNL     1      33.049  29.118  20.163  1.00  0.00     0.164 C 
ATOM      3  C   UNL     1      34.013  28.231  19.337  1.00  0.00     0.232 C 
ATOM      4  O   UNL     1      34.354  27.048  20.056  1.00  0.00    -0.482 OA
ATOM      5  C   UNL     1      34.372  26.951  21.450  1.00  0.00     0.131 A 
ATOM      6  C   UNL     1      34.723  25.730  22.028  1.00  0.00     0.093 A 
ATOM      7  C   UNL     1      34.698  25.572  23.413  1.00  0.00     0.122 A 
ATOM      8  C   UNL     1      34.336  26.649  24.223  1.00  0.00     0.092 A 
ATOM      9  C   UNL     1      34.012  27.889  23.666  1.00  0.00     0.126 A 
ATOM     10  C   UNL     1      33.981  28.037  22.258  1.00  0.00     0.039 A 
ENDROOT
BRANCH   2  11
ATOM     11  O   UNL     1      31.743  28.602  20.172  1.00  0.00    -0.389 OA
ATOM     12  H   UNL     1      31.764  27.712  19.734  1.00  0.00     0.211 HD
ENDBRANCH   2  11
BRANCH   3  13
ATOM     13  C   UNL     1      33.441  27.865  17.971  1.00  0.00    -0.001 A 
ATOM     14  C   UNL     1      33.602  26.563  17.465  1.00  0.00     0.057 A 
ATOM     15  C   UNL     1      32.735  28.806  17.193  1.00  0.00     0.012 A 
ATOM     16  C   UNL     1      33.178  26.238  16.163  1.00  0.00     0.157 A 
ATOM     17  C   UNL     1      32.291  28.477  15.909  1.00  0.00     0.050 A 
ATOM     18  C   UNL     1      32.535  27.206  15.374  1.00  0.00     0.157 A 
BRANCH  16  19
ATOM     19  O   UNL     1      33.380  24.952  15.656  1.00  0.00    -0.504 OA
ATOM     20  H   UNL     1      33.009  24.128  16.129  1.00  0.00     0.293 HD
ENDBRANCH  16  19
BRANCH  18  21
ATOM     21  O   UNL     1      32.121  26.917  14.072  1.00  0.00    -0.504 OA
ATOM     22  H   UNL     1      31.149  26.774  13.831  1.00  0.00     0.293 HD
ENDBRANCH  18  21
ENDBRANCH   3  13
BRANCH   9  23
ATOM     23  O   UNL     1      33.707  28.936  24.534  1.00  0.00    -0.507 OA
ATOM     24  H   UNL     1      34.306  29.735  24.677  1.00  0.00     0.293 HD
ENDBRANCH   9  23
BRANCH   7  25
ATOM     25  O   UNL     1      34.993  24.329  23.972  1.00  0.00    -0.508 OA
ATOM     26  H   UNL     1      34.645  23.472  23.567  1.00  0.00     0.293 HD
ENDBRANCH   7  25
TORSDOF 6
ENDMDL
MODEL 8
REMARK VINA RESULT:    -5.543      3.818      5.777
REMARK INTER + INTRA:          -6.548
REMARK INTER:                  -6.903
REMARK INTRA:                   0.354
REMARK UNBOUND:                 0.129
REMARK SMILES Oc1cc(O)c2c(c1)O[C@@H](c1ccc(O)c(O)c1)[C@@H](O)C2
REMARK SMILES IDX 21 1 19 2 10 3 9 4 7 5 8 6 2 7 3 8 4 9 6 10 20 11 11 13
REMARK SMILES IDX 18 14 12 15 16 16 13 17 14 18 17 19 15 21 5 23 1 25
REMARK H PARENT 20 12 17 20 15 22 5 24 1 26
REMARK Flexibility Score: inf
ROOT
ATOM      1  C   UNL     1      33.783  28.412  23.079  1.00  0.00     0.079 C 
ATOM      2  C   UNL     1      33.610  27.147  22.218  1.00  0.00     0.164 C 
ATOM      3  C   UNL     1      34.254  27.328  20.821  1.00  0.00     0.232 C 
ATOM      4  O   UNL     1      35.585  27.826  20.939  1.00  0.00    -0.482 OA
ATOM      5  C   UNL     1      36.042  28.610  22.002  1.00  0.00     0.131 A 
ATOM      6  C   UNL     1      37.373  29.030  21.995  1.00  0.00     0.093 A 
ATOM      7  C   UNL     1      37.886  29.764  23.064  1.00  0.00     0.122 A 
ATOM      8  C   UNL     1      37.057  30.092  24.137  1.00  0.00     0.092 A 
ATOM      9  C   UNL     1      35.713  29.708  24.148  1.00  0.00     0.126 A 
ATOM     10  C   UNL     1      35.203  28.914  23.092  1.00  0.00     0.039 A 
ENDROOT
BRANCH   2  11
ATOM     11  O   UNL     1      34.106  26.011  22.878  1.00  0.00    -0.389 OA
ATOM     12  H   UNL     1      34.347  25.339  22.189  1.00  0.00     0.211 HD
ENDBRANCH   2  11
BRANCH   3  13
ATOM     13  C   UNL     1      34.249  26.040  20.006  1.00  0.00    -0.001 A 
ATOM     14  C   UNL     1      33.742  26.037  18.695  1.00  0.00     0.057 A 
ATOM     15  C   UNL     1      34.755  24.833  20.533  1.00  0.00     0.012 A 
ATOM     16  C   UNL     1      33.628  24.837  17.968  1.00  0.00     0.157 A 
ATOM     17  C   UNL     1      34.666  23.645  19.802  1.00  0.00     0.050 A 
ATOM     18  C   UNL     1      34.077  23.632  18.532  1.00  0.00     0.157 A 
BRANCH  16  19
ATOM     19  O   UNL     1      33.085  24.841  16.681  1.00  0.00    -0.504 OA
ATOM     20  H   UNL     1      32.910  25.712  16.178  1.00  0.00     0.293 HD
ENDBRANCH  16  19
BRANCH  18  21
ATOM     21  O   UNL     1      33.958  22.424  17.841  1.00  0.00    -0.504 OA
ATOM     22  H   UNL     1      34.164  22.341  16.854  1.00  0.00     0.293 HD
ENDBRANCH  18  21
ENDBRANCH   3  13
BRANCH   9  23
ATOM     23  O   UNL     1      34.928  30.110  25.227  1.00  0.00    -0.507 OA
ATOM     24  H   UNL     1      33.973  30.422  25.136  1.00  0.00     0.293 HD
ENDBRANCH   9  23
BRANCH   7  25
ATOM     25  O   UNL     1      39.233  30.125  23.070  1.00  0.00    -0.508 OA
ATOM     26  H   UNL     1      39.967  29.431  23.044  1.00  0.00     0.293 HD
ENDBRANCH   7  25
TORSDOF 6
ENDMDL
MODEL 9
REMARK VINA RESULT:    -5.534      3.446      6.560
REMARK INTER + INTRA:          -6.537
REMARK INTER:                  -7.050
REMARK INTRA:                   0.513
REMARK UNBOUND:                 0.129
REMARK SMILES Oc1cc(O)c2c(c1)O[C@@H](c1ccc(O)c(O)c1)[C@@H](O)C2
REMARK SMILES IDX 21 1 19 2 10 3 9 4 7 5 8 6 2 7 3 8 4 9 6 10 20 11 11 13
REMARK SMILES IDX 18 14 12 15 16 16 13 17 14 18 17 19 15 21 5 23 1 25
REMARK H PARENT 20 12 17 20 15 22 5 24 1 26
REMARK Flexibility Score: inf
ROOT
ATOM      1  C   UNL     1      32.375  29.217  18.197  1.00  0.00     0.079 C 
ATOM      2  C   UNL     1      33.150  29.669  19.450  1.00  0.00     0.164 C 
ATOM      3  C   UNL     1      33.195  28.547  20.515  1.00  0.00     0.232 C 
ATOM      4  O   UNL     1      33.614  27.314  19.934  1.00  0.00    -0.482 OA
ATOM      5  C   UNL     1      33.417  26.968  18.594  1.00  0.00     0.131 A 
ATOM      6  C   UNL     1      33.880  25.727  18.153  1.00  0.00     0.093 A 
ATOM      7  C   UNL     1      33.757  25.365  16.812  1.00  0.00     0.122 A 
ATOM      8  C   UNL     1      33.154  26.244  15.912  1.00  0.00     0.092 A 
ATOM      9  C   UNL     1      32.655  27.479  16.341  1.00  0.00     0.126 A 
ATOM     10  C   UNL     1      32.829  27.873  17.690  1.00  0.00     0.039 A 
ENDROOT
BRANCH   2  11
ATOM     11  O   UNL     1      34.436  30.125  19.115  1.00  0.00    -0.389 OA
ATOM     12  H   UNL     1      34.545  31.034  19.495  1.00  0.00     0.211 HD
ENDBRANCH   2  11
BRANCH   3  13
ATOM     13  C   UNL     1      34.095  28.900  21.694  1.00  0.00    -0.001 A 
ATOM     14  C   UNL     1      33.743  28.497  22.995  1.00  0.00     0.057 A 
ATOM     15  C   UNL     1      35.293  29.621  21.516  1.00  0.00     0.012 A 
ATOM     16  C   UNL     1      34.502  28.907  24.107  1.00  0.00     0.157 A 
ATOM     17  C   UNL     1      36.062  30.008  22.618  1.00  0.00     0.050 A 
ATOM     18  C   UNL     1      35.659  29.681  23.918  1.00  0.00     0.157 A 
BRANCH  16  19
ATOM     19  O   UNL     1      34.120  28.535  25.398  1.00  0.00    -0.504 OA
ATOM     20  H   UNL     1      33.176  28.204  25.600  1.00  0.00     0.293 HD
ENDBRANCH  16  19
BRANCH  18  21
ATOM     21  O   UNL     1      36.420  30.118  25.004  1.00  0.00    -0.504 OA
ATOM     22  H   UNL     1      36.066  30.778  25.685  1.00  0.00     0.293 HD
ENDBRANCH  18  21
ENDBRANCH   3  13
BRANCH   9  23
ATOM     23  O   UNL     1      32.020  28.288  15.401  1.00  0.00    -0.507 OA
ATOM     24  H   UNL     1      32.208  28.246  14.411  1.00  0.00     0.293 HD
ENDBRANCH   9  23
BRANCH   7  25
ATOM     25  O   UNL     1      34.278  24.147  16.375  1.00  0.00    -0.508 OA
ATOM     26  H   UNL     1      34.982  23.654  16.903  1.00  0.00     0.293 HD
ENDBRANCH   7  25
TORSDOF 6
ENDMDL
