MODEL 1
REMARK VINA RESULT:    -2.814      0.000      0.000
REMARK INTER + INTRA:          -2.995
REMARK INTER:                  -2.979
REMARK INTRA:                  -0.016
REMARK UNBOUND:                -0.016
REMARK SMILES O=C([O-])c1cccnc1
REMARK SMILES IDX 4 1 5 2 9 3 6 4 8 5 7 6 2 7 1 8 3 9
REMARK H PARENT
REMARK Flexibility Score: inf
ROOT
ATOM      1  C   UNL     1      60.740   6.948  31.440  1.00  0.00     0.016 A 
ATOM      2  C   UNL     1      59.741   6.496  30.564  1.00  0.00     0.013 A 
ATOM      3  C   UNL     1      60.348   7.540  32.653  1.00  0.00     0.120 A 
ATOM      4  C   UNL     1      58.394   6.638  30.905  1.00  0.00     0.021 A 
ATOM      5  N   UNL     1      59.029   7.667  32.961  1.00  0.00    -0.264 NA
ATOM      6  C   UNL     1      58.054   7.232  32.120  1.00  0.00     0.111 A 
ENDROOT
BRANCH   1   7
ATOM      7  C   UNL     1      62.170   6.804  31.092  1.00  0.00     0.073 C 
ATOM      8  O   UNL     1      62.840   7.799  30.709  1.00  0.00    -0.545 OA
ATOM      9  O   UNL     1      62.795   5.565  31.183  1.00  0.00    -0.545 OA
ENDBRANCH   1   7
TORSDOF 1
ENDMDL
MODEL 2
REMARK VINA RESULT:    -2.809      2.853      3.916
REMARK INTER + INTRA:          -2.990
REMARK INTER:                  -2.972
REMARK INTRA:                  -0.018
REMARK UNBOUND:                -0.016
REMARK SMILES O=C([O-])c1cccnc1
REMARK SMILES IDX 4 1 5 2 9 3 6 4 8 5 7 6 2 7 1 8 3 9
REMARK H PARENT
REMARK Flexibility Score: inf
ROOT
ATOM      1  C   UNL     1      60.325   6.427  31.451  1.00  0.00     0.016 A 
ATOM      2  C   UNL     1      61.444   7.274  31.403  1.00  0.00     0.013 A 
ATOM      3  C   UNL     1      60.537   5.037  31.431  1.00  0.00     0.120 A 
ATOM      4  C   UNL     1      62.730   6.732  31.339  1.00  0.00     0.021 A 
ATOM      5  N   UNL     1      61.799   4.536  31.368  1.00  0.00    -0.264 NA
ATOM      6  C   UNL     1      62.890   5.347  31.322  1.00  0.00     0.111 A 
ENDROOT
BRANCH   1   7
ATOM      7  C   UNL     1      58.959   6.987  31.519  1.00  0.00     0.073 C 
ATOM      8  O   UNL     1      58.091   6.666  30.666  1.00  0.00    -0.545 OA
ATOM      9  O   UNL     1      58.614   7.879  32.529  1.00  0.00    -0.545 OA
ENDBRANCH   1   7
TORSDOF 1
ENDMDL
MODEL 3
REMARK VINA RESULT:    -2.765     22.307     23.256
REMARK INTER + INTRA:          -2.943
REMARK INTER:                  -2.927
REMARK INTRA:                  -0.016
REMARK UNBOUND:                -0.016
REMARK SMILES O=C([O-])c1cccnc1
REMARK SMILES IDX 4 1 5 2 9 3 6 4 8 5 7 6 2 7 1 8 3 9
REMARK H PARENT
REMARK Flexibility Score: inf
ROOT
ATOM      1  C   UNL     1      76.566  11.214  47.200  1.00  0.00     0.016 A 
ATOM      2  C   UNL     1      77.797  11.066  47.859  1.00  0.00     0.013 A 
ATOM      3  C   UNL     1      75.394  11.255  47.975  1.00  0.00     0.120 A 
ATOM      4  C   UNL     1      77.839  10.965  49.251  1.00  0.00     0.021 A 
ATOM      5  N   UNL     1      75.462  11.155  49.329  1.00  0.00    -0.264 NA
ATOM      6  C   UNL     1      76.649  11.012  49.977  1.00  0.00     0.111 A 
ENDROOT
BRANCH   1   7
ATOM      7  C   UNL     1      76.509  11.322  45.727  1.00  0.00     0.073 C 
ATOM      8  O   UNL     1      76.622  10.297  45.004  1.00  0.00    -0.545 OA
ATOM      9  O   UNL     1      76.327  12.560  45.118  1.00  0.00    -0.545 OA
ENDBRANCH   1   7
TORSDOF 1
ENDMDL
MODEL 4
REMARK VINA RESULT:    -2.723      2.102      2.526
REMARK INTER + INTRA:          -2.898
REMARK INTER:                  -2.882
REMARK INTRA:                  -0.016
REMARK UNBOUND:                -0.016
REMARK SMILES O=C([O-])c1cccnc1
REMARK SMILES IDX 4 1 5 2 9 3 6 4 8 5 7 6 2 7 1 8 3 9
REMARK H PARENT
REMARK Flexibility Score: inf
ROOT
ATOM      1  C   UNL     1      61.186   6.288  31.265  1.00  0.00     0.016 A 
ATOM      2  C   UNL     1      59.866   6.490  30.833  1.00  0.00     0.013 A 
ATOM      3  C   UNL     1      61.652   4.968  31.395  1.00  0.00     0.120 A 
ATOM      4  C   UNL     1      59.048   5.396  30.542  1.00  0.00     0.021 A 
ATOM      5  N   UNL     1      60.836   3.920  31.105  1.00  0.00    -0.264 NA
ATOM      6  C   UNL     1      59.556   4.105  30.686  1.00  0.00     0.111 A 
ENDROOT
BRANCH   1   7
ATOM      7  C   UNL     1      62.061   7.438  31.576  1.00  0.00     0.073 C 
ATOM      8  O   UNL     1      62.801   7.940  30.689  1.00  0.00    -0.545 OA
ATOM      9  O   UNL     1      62.079   7.983  32.856  1.00  0.00    -0.545 OA
ENDBRANCH   1   7
TORSDOF 1
ENDMDL
MODEL 5
REMARK VINA RESULT:    -2.691     15.964     16.511
REMARK INTER + INTRA:          -2.865
REMARK INTER:                  -2.845
REMARK INTRA:                  -0.020
REMARK UNBOUND:                -0.016
REMARK SMILES O=C([O-])c1cccnc1
REMARK SMILES IDX 4 1 5 2 9 3 6 4 8 5 7 6 2 7 1 8 3 9
REMARK H PARENT
REMARK Flexibility Score: inf
ROOT
ATOM      1  C   UNL     1      59.186   2.545  47.083  1.00  0.00     0.016 A 
ATOM      2  C   UNL     1      58.092   1.773  47.508  1.00  0.00     0.013 A 
ATOM      3  C   UNL     1      60.149   1.940  46.257  1.00  0.00     0.120 A 
ATOM      4  C   UNL     1      57.979   0.440  47.109  1.00  0.00     0.021 A 
ATOM      5  N   UNL     1      60.015   0.640  45.883  1.00  0.00    -0.264 NA
ATOM      6  C   UNL     1      58.960  -0.115  46.288  1.00  0.00     0.111 A 
ENDROOT
BRANCH   1   7
ATOM      7  C   UNL     1      59.317   3.958  47.498  1.00  0.00     0.073 C 
ATOM      8  O   UNL     1      60.429   4.415  47.871  1.00  0.00    -0.545 OA
ATOM      9  O   UNL     1      58.212   4.802  47.481  1.00  0.00    -0.545 OA
ENDBRANCH   1   7
TORSDOF 1
ENDMDL
MODEL 6
REMARK VINA RESULT:    -2.632      1.864      2.410
REMARK INTER + INTRA:          -2.803
REMARK INTER:                  -2.780
REMARK INTRA:                  -0.023
REMARK UNBOUND:                -0.016
REMARK SMILES O=C([O-])c1cccnc1
REMARK SMILES IDX 4 1 5 2 9 3 6 4 8 5 7 6 2 7 1 8 3 9
REMARK H PARENT
REMARK Flexibility Score: inf
ROOT
ATOM      1  C   UNL     1      61.058   5.636  31.191  1.00  0.00     0.016 A 
ATOM      2  C   UNL     1      60.057   6.617  31.266  1.00  0.00     0.013 A 
ATOM      3  C   UNL     1      60.668   4.293  31.048  1.00  0.00     0.120 A 
ATOM      4  C   UNL     1      58.711   6.251  31.197  1.00  0.00     0.021 A 
ATOM      5  N   UNL     1      59.350   3.963  30.983  1.00  0.00    -0.264 NA
ATOM      6  C   UNL     1      58.373   4.906  31.055  1.00  0.00     0.111 A 
ENDROOT
BRANCH   1   7
ATOM      7  C   UNL     1      62.486   6.010  31.263  1.00  0.00     0.073 C 
ATOM      8  O   UNL     1      63.372   5.129  31.423  1.00  0.00    -0.545 OA
ATOM      9  O   UNL     1      62.871   7.342  31.153  1.00  0.00    -0.545 OA
ENDBRANCH   1   7
TORSDOF 1
ENDMDL
MODEL 7
REMARK VINA RESULT:    -2.591     14.308     15.206
REMARK INTER + INTRA:          -2.759
REMARK INTER:                  -2.741
REMARK INTRA:                  -0.018
REMARK UNBOUND:                -0.016
REMARK SMILES O=C([O-])c1cccnc1
REMARK SMILES IDX 4 1 5 2 9 3 6 4 8 5 7 6 2 7 1 8 3 9
REMARK H PARENT
REMARK Flexibility Score: inf
ROOT
ATOM      1  C   UNL     1      62.316  14.716  43.919  1.00  0.00     0.016 A 
ATOM      2  C   UNL     1      62.934  14.886  42.669  1.00  0.00     0.013 A 
ATOM      3  C   UNL     1      63.105  14.833  45.076  1.00  0.00     0.120 A 
ATOM      4  C   UNL     1      64.301  15.165  42.597  1.00  0.00     0.021 A 
ATOM      5  N   UNL     1      64.433  15.105  44.977  1.00  0.00    -0.264 NA
ATOM      6  C   UNL     1      65.042  15.272  43.773  1.00  0.00     0.111 A 
ENDROOT
BRANCH   1   7
ATOM      7  C   UNL     1      60.870  14.420  44.009  1.00  0.00     0.073 C 
ATOM      8  O   UNL     1      60.105  15.161  44.681  1.00  0.00    -0.545 OA
ATOM      9  O   UNL     1      60.335  13.317  43.352  1.00  0.00    -0.545 OA
ENDBRANCH   1   7
TORSDOF 1
ENDMDL
MODEL 8
REMARK VINA RESULT:    -2.579     15.957     16.480
REMARK INTER + INTRA:          -2.747
REMARK INTER:                  -2.722
REMARK INTRA:                  -0.024
REMARK UNBOUND:                -0.016
REMARK SMILES O=C([O-])c1cccnc1
REMARK SMILES IDX 4 1 5 2 9 3 6 4 8 5 7 6 2 7 1 8 3 9
REMARK H PARENT
REMARK Flexibility Score: inf
ROOT
ATOM      1  C   UNL     1      59.958   1.893  46.995  1.00  0.00     0.016 A 
ATOM      2  C   UNL     1      60.051   0.847  46.063  1.00  0.00     0.013 A 
ATOM      3  C   UNL     1      58.849   1.924  47.858  1.00  0.00     0.120 A 
ATOM      4  C   UNL     1      59.056  -0.132  46.008  1.00  0.00     0.021 A 
ATOM      5  N   UNL     1      57.895   0.958  47.784  1.00  0.00    -0.264 NA
ATOM      6  C   UNL     1      57.974  -0.059  46.886  1.00  0.00     0.111 A 
ENDROOT
BRANCH   1   7
ATOM      7  C   UNL     1      61.004   2.935  47.063  1.00  0.00     0.073 C 
ATOM      8  O   UNL     1      62.041   2.851  46.353  1.00  0.00    -0.545 OA
ATOM      9  O   UNL     1      60.857   4.026  47.914  1.00  0.00    -0.545 OA
ENDBRANCH   1   7
TORSDOF 1
ENDMDL
MODEL 9
REMARK VINA RESULT:    -2.569      2.989      3.829
REMARK INTER + INTRA:          -2.735
REMARK INTER:                  -2.712
REMARK INTRA:                  -0.024
REMARK UNBOUND:                -0.016
REMARK SMILES O=C([O-])c1cccnc1
REMARK SMILES IDX 4 1 5 2 9 3 6 4 8 5 7 6 2 7 1 8 3 9
REMARK H PARENT
REMARK Flexibility Score: inf
ROOT
ATOM      1  C   UNL     1      60.804   5.224  31.151  1.00  0.00     0.016 A 
ATOM      2  C   UNL     1      60.433   6.570  31.295  1.00  0.00     0.013 A 
ATOM      3  C   UNL     1      62.148   4.874  31.371  1.00  0.00     0.120 A 
ATOM      4  C   UNL     1      61.387   7.526  31.649  1.00  0.00     0.021 A 
ATOM      5  N   UNL     1      63.057   5.824  31.715  1.00  0.00    -0.264 NA
ATOM      6  C   UNL     1      62.709   7.130  31.857  1.00  0.00     0.111 A 
ENDROOT
BRANCH   1   7
ATOM      7  C   UNL     1      59.803   4.202  30.777  1.00  0.00     0.073 C 
ATOM      8  O   UNL     1      60.159   3.024  30.510  1.00  0.00    -0.545 OA
ATOM      9  O   UNL     1      58.453   4.529  30.715  1.00  0.00    -0.545 OA
ENDBRANCH   1   7
TORSDOF 1
ENDMDL
