MODEL 1
REMARK VINA RESULT:    -1.663      0.000      0.000
REMARK INTER + INTRA:          -2.763
REMARK INTER:                  -2.441
REMARK INTRA:                  -0.322
REMARK UNBOUND:                -0.322
REMARK SMILES O=C([O-])CCCCCCCC(=O)[O-]
REMARK SMILES IDX 7 1 6 2 5 3 4 4 2 5 1 6 3 7 8 8 9 9 10 10 11 11 12 12 13 13
REMARK H PARENT
REMARK Flexibility Score: inf
ROOT
ATOM      1  C   UNL     1     -18.908   3.899 -14.622  1.00  0.00     0.000 C 
ENDROOT
BRANCH   1   2
ATOM      2  C   UNL     1     -20.124   3.308 -13.892  1.00  0.00     0.000 C 
BRANCH   2   3
ATOM      3  C   UNL     1     -20.125   1.768 -13.875  1.00  0.00     0.006 C 
BRANCH   3   4
ATOM      4  C   UNL     1     -19.806   1.127 -15.237  1.00  0.00     0.053 C 
BRANCH   4   5
ATOM      5  C   UNL     1     -19.643  -0.362 -15.149  1.00  0.00     0.041 C 
ATOM      6  O   UNL     1     -19.907  -1.087 -16.144  1.00  0.00    -0.550 OA
ATOM      7  O   UNL     1     -19.164  -0.946 -13.983  1.00  0.00    -0.550 OA
ENDBRANCH   4   5
ENDBRANCH   3   4
ENDBRANCH   2   3
ENDBRANCH   1   2
BRANCH   1   8
ATOM      8  C   UNL     1     -18.446   5.204 -13.959  1.00  0.00     0.000 C 
BRANCH   8   9
ATOM      9  C   UNL     1     -17.917   6.240 -14.968  1.00  0.00     0.006 C 
BRANCH   9  10
ATOM     10  C   UNL     1     -18.954   6.671 -16.021  1.00  0.00     0.053 C 
BRANCH  10  11
ATOM     11  C   UNL     1     -18.533   6.327 -17.418  1.00  0.00     0.041 C 
ATOM     12  O   UNL     1     -19.005   5.308 -17.987  1.00  0.00    -0.550 OA
ATOM     13  O   UNL     1     -17.593   7.107 -18.079  1.00  0.00    -0.550 OA
ENDBRANCH  10  11
ENDBRANCH   9  10
ENDBRANCH   8   9
ENDBRANCH   1   8
TORSDOF 8
ENDMDL
MODEL 2
REMARK VINA RESULT:    -0.407      4.589      7.438
REMARK INTER + INTRA:          -0.920
REMARK INTER:                  -0.659
REMARK INTRA:                  -0.261
REMARK UNBOUND:                -0.322
REMARK SMILES O=C([O-])CCCCCCCC(=O)[O-]
REMARK SMILES IDX 7 1 6 2 5 3 4 4 2 5 1 6 3 7 8 8 9 9 10 10 11 11 12 12 13 13
REMARK H PARENT
REMARK Flexibility Score: inf
ROOT
ATOM      1  C   UNL     1     -15.102   6.371 -14.702  1.00  0.00     0.000 C 
ENDROOT
BRANCH   1   2
ATOM      2  C   UNL     1     -13.828   6.133 -13.877  1.00  0.00     0.000 C 
BRANCH   2   3
ATOM      3  C   UNL     1     -12.698   7.123 -14.217  1.00  0.00     0.006 C 
BRANCH   3   4
ATOM      4  C   UNL     1     -11.375   6.449 -14.621  1.00  0.00     0.053 C 
BRANCH   4   5
ATOM      5  C   UNL     1     -11.035   6.667 -16.065  1.00  0.00     0.041 C 
ATOM      6  O   UNL     1     -11.921   7.052 -16.873  1.00  0.00    -0.550 OA
ATOM      7  O   UNL     1      -9.733   6.484 -16.512  1.00  0.00    -0.550 OA
ENDBRANCH   4   5
ENDBRANCH   3   4
ENDBRANCH   2   3
ENDBRANCH   1   2
BRANCH   1   8
ATOM      8  C   UNL     1     -16.161   7.118 -13.879  1.00  0.00     0.000 C 
BRANCH   8   9
ATOM      9  C   UNL     1     -17.601   6.809 -14.328  1.00  0.00     0.006 C 
BRANCH   9  10
ATOM     10  C   UNL     1     -18.090   5.404 -13.935  1.00  0.00     0.053 C 
BRANCH  10  11
ATOM     11  C   UNL     1     -19.286   4.967 -14.727  1.00  0.00     0.041 C 
ATOM     12  O   UNL     1     -19.973   5.816 -15.354  1.00  0.00    -0.550 OA
ATOM     13  O   UNL     1     -19.666   3.631 -14.743  1.00  0.00    -0.550 OA
ENDBRANCH  10  11
ENDBRANCH   9  10
ENDBRANCH   8   9
ENDBRANCH   1   8
TORSDOF 8
ENDMDL
MODEL 3
REMARK VINA RESULT:     0.663      4.573      6.585
REMARK INTER + INTRA:           0.650
REMARK INTER:                   0.782
REMARK INTRA:                  -0.132
REMARK UNBOUND:                -0.322
REMARK SMILES O=C([O-])CCCCCCCC(=O)[O-]
REMARK SMILES IDX 7 1 6 2 5 3 4 4 2 5 1 6 3 7 8 8 9 9 10 10 11 11 12 12 13 13
REMARK H PARENT
REMARK Flexibility Score: inf
ROOT
ATOM      1  C   UNL     1     -15.405   6.206 -15.111  1.00  0.00     0.000 C 
ENDROOT
BRANCH   1   2
ATOM      2  C   UNL     1     -16.634   7.123 -15.020  1.00  0.00     0.000 C 
BRANCH   2   3
ATOM      3  C   UNL     1     -17.854   6.432 -14.385  1.00  0.00     0.006 C 
BRANCH   3   4
ATOM      4  C   UNL     1     -19.178   6.696 -15.122  1.00  0.00     0.053 C 
BRANCH   4   5
ATOM      5  C   UNL     1     -19.271   5.954 -16.422  1.00  0.00     0.041 C 
ATOM      6  O   UNL     1     -20.013   4.941 -16.521  1.00  0.00    -0.550 OA
ATOM      7  O   UNL     1     -18.571   6.401 -17.535  1.00  0.00    -0.550 OA
ENDBRANCH   4   5
ENDBRANCH   3   4
ENDBRANCH   2   3
ENDBRANCH   1   2
BRANCH   1   8
ATOM      8  C   UNL     1     -14.449   6.445 -13.934  1.00  0.00     0.000 C 
BRANCH   8   9
ATOM      9  C   UNL     1     -13.132   7.125 -14.355  1.00  0.00     0.006 C 
BRANCH   9  10
ATOM     10  C   UNL     1     -11.868   6.388 -13.876  1.00  0.00     0.053 C 
BRANCH  10  11
ATOM     11  C   UNL     1     -10.727   6.516 -14.839  1.00  0.00     0.041 C 
ATOM     12  O   UNL     1     -10.896   6.253 -16.059  1.00  0.00    -0.550 OA
ATOM     13  O   UNL     1      -9.466   6.887 -14.387  1.00  0.00    -0.550 OA
ENDBRANCH  10  11
ENDBRANCH   9  10
ENDBRANCH   8   9
ENDBRANCH   1   8
TORSDOF 8
ENDMDL
