MODEL 1
REMARK VINA RESULT:    -3.605      0.000      0.000
REMARK INTER + INTRA:          -4.208
REMARK INTER:                  -5.080
REMARK INTRA:                   0.873
REMARK UNBOUND:                 0.873
REMARK SMILES CC1=CCC(=C(C)C)C(=O)CC(C)=CCC1
REMARK SMILES IDX 12 1 14 2 13 3 15 4 16 5 2 6 1 7 3 8 11 10 9 11 10 12 5 13
REMARK SMILES IDX 6 14 7 15 8 16 4 17
REMARK H PARENT
REMARK Flexibility Score: 60.00
ROOT
ATOM      1  C   UNL     1      19.597  -0.746  22.480  1.00  0.00    -0.070 C 
ATOM      2  C   UNL     1      20.055  -0.670  23.751  1.00  0.00    -0.027 C 
ATOM      3  C   UNL     1      20.049  -1.920  21.646  1.00  0.00     0.039 C 
ENDROOT
BRANCH   2   4
ATOM      4  C   UNL     1      19.818   0.464  24.720  1.00  0.00     0.032 C 
BRANCH   4   5
ATOM      5  C   UNL     1      20.651   1.715  24.381  1.00  0.00     0.034 C 
BRANCH   5   6
ATOM      6  C   UNL     1      19.778   2.906  24.034  1.00  0.00    -0.077 C 
ATOM      7  C   UNL     1      18.929   3.512  25.123  1.00  0.00     0.039 C 
ATOM      8  C   UNL     1      19.735   3.474  22.807  1.00  0.00    -0.023 CG0
ATOM      9  G   UNL     1      20.533   3.034  21.604  1.00  0.00     0.000 G0
ENDBRANCH   5   6
ENDBRANCH   4   5
ENDBRANCH   2   4
BRANCH   1  10
ATOM     10  C   UNL     1      18.715   0.310  21.834  1.00  0.00     0.111 C 
BRANCH  10  11
ATOM     11  C   UNL     1      19.389   0.940  20.639  1.00  0.00     0.163 C 
ATOM     12  O   UNL     1      19.727   0.189  19.684  1.00  0.00    -0.294 OA
BRANCH  11  13
ATOM     13  C   UNL     1      19.613   2.416  20.543  1.00  0.00    -0.002 C 
ATOM     14  C   UNL     1      19.075   3.160  19.529  1.00  0.00    -0.069 C 
ATOM     15  C   UNL     1      19.274   4.658  19.461  1.00  0.00     0.039 C 
ATOM     16  C   UNL     1      18.285   2.521  18.409  1.00  0.00     0.039 C 
BRANCH  13  17
ATOM     17  C   UNL     1      20.528   3.044  21.579  1.00  0.00     0.066 CG0
ATOM     18  G   UNL     1      19.723   3.464  22.784  1.00  0.00     0.000 G0
ENDBRANCH  13  17
ENDBRANCH  11  13
ENDBRANCH  10  11
ENDBRANCH   1  10
TORSDOF 0
ENDMDL
MODEL 2
REMARK VINA RESULT:    -2.712      1.759      4.282
REMARK INTER + INTRA:          -2.950
REMARK INTER:                  -4.279
REMARK INTRA:                   1.329
REMARK UNBOUND:                 0.873
REMARK SMILES CC1=CCC(=C(C)C)C(=O)CC(C)=CCC1
REMARK SMILES IDX 12 1 14 2 13 3 15 4 16 5 2 6 1 7 3 8 11 10 9 11 10 12 5 13
REMARK SMILES IDX 6 14 7 15 8 16 4 17
REMARK H PARENT
REMARK Flexibility Score: 60.00
ROOT
ATOM      1  C   UNL     1      19.202   2.594  20.659  1.00  0.00    -0.070 C 
ATOM      2  C   UNL     1      19.627   3.605  21.452  1.00  0.00    -0.027 C 
ATOM      3  C   UNL     1      18.252   2.941  19.539  1.00  0.00     0.039 C 
ENDROOT
BRANCH   2   4
ATOM      4  C   UNL     1      20.488   3.472  22.686  1.00  0.00     0.032 C 
BRANCH   4   5
ATOM      5  C   UNL     1      19.789   2.686  23.812  1.00  0.00     0.034 C 
BRANCH   5   6
ATOM      6  C   UNL     1      20.749   1.775  24.554  1.00  0.00    -0.077 C 
ATOM      7  C   UNL     1      22.033   2.365  25.080  1.00  0.00     0.039 C 
ATOM      8  C   UNL     1      20.508   0.466  24.794  1.00  0.00    -0.023 CG0
ATOM      9  G   UNL     1      19.271  -0.293  24.380  1.00  0.00     0.000 G0
ENDBRANCH   5   6
ENDBRANCH   4   5
ENDBRANCH   2   4
BRANCH   1  10
ATOM     10  C   UNL     1      19.574   1.136  20.875  1.00  0.00     0.111 C 
BRANCH  10  11
ATOM     11  C   UNL     1      18.758   0.513  21.981  1.00  0.00     0.163 C 
ATOM     12  O   UNL     1      17.563   0.892  22.121  1.00  0.00    -0.294 OA
BRANCH  11  13
ATOM     13  C   UNL     1      19.309  -0.561  22.863  1.00  0.00    -0.002 C 
ATOM     14  C   UNL     1      19.780  -1.741  22.353  1.00  0.00    -0.069 C 
ATOM     15  C   UNL     1      20.371  -2.806  23.250  1.00  0.00     0.039 C 
ATOM     16  C   UNL     1      19.701  -2.052  20.876  1.00  0.00     0.039 C 
BRANCH  13  17
ATOM     17  C   UNL     1      19.256  -0.319  24.361  1.00  0.00     0.066 CG0
ATOM     18  G   UNL     1      20.474   0.457  24.798  1.00  0.00     0.000 G0
ENDBRANCH  13  17
ENDBRANCH  11  13
ENDBRANCH  10  11
ENDBRANCH   1  10
TORSDOF 0
ENDMDL
MODEL 3
REMARK VINA RESULT:    -2.522      1.817      4.065
REMARK INTER + INTRA:          -2.681
REMARK INTER:                  -5.401
REMARK INTRA:                   2.720
REMARK UNBOUND:                 0.873
REMARK SMILES CC1=CCC(=C(C)C)C(=O)CC(C)=CCC1
REMARK SMILES IDX 12 1 14 2 13 3 15 4 16 5 2 6 1 7 3 8 11 10 9 11 10 12 5 13
REMARK SMILES IDX 6 14 7 15 8 16 4 17
REMARK H PARENT
REMARK Flexibility Score: 60.00
ROOT
ATOM      1  C   UNL     1      19.556   2.798  21.408  1.00  0.00    -0.070 C 
ATOM      2  C   UNL     1      20.151   3.127  22.578  1.00  0.00    -0.027 C 
ATOM      3  C   UNL     1      19.799   3.703  20.225  1.00  0.00     0.039 C 
ENDROOT
BRANCH   2   4
ATOM      4  C   UNL     1      19.962   2.430  23.904  1.00  0.00     0.032 C 
BRANCH   4   5
ATOM      5  C   UNL     1      18.516   2.534  24.426  1.00  0.00     0.034 C 
BRANCH   5   6
ATOM      6  C   UNL     1      17.818   1.188  24.449  1.00  0.00    -0.077 C 
ATOM      7  C   UNL     1      16.398   1.125  24.952  1.00  0.00     0.039 C 
ATOM      8  C   UNL     1      18.390   0.039  24.019  1.00  0.00    -0.023 CG0
ATOM      9  G   UNL     1      19.782  -0.095  23.451  1.00  0.00     0.000 G0
ENDBRANCH   5   6
ENDBRANCH   4   5
ENDBRANCH   2   4
BRANCH   1  10
ATOM     10  C   UNL     1      18.614   1.617  21.241  1.00  0.00     0.111 C 
BRANCH  10  11
ATOM     11  C   UNL     1      19.368   0.343  20.945  1.00  0.00     0.163 C 
ATOM     12  O   UNL     1      19.750   0.142  19.760  1.00  0.00    -0.294 OA
BRANCH  11  13
ATOM     13  C   UNL     1      19.712  -0.641  22.018  1.00  0.00    -0.002 C 
ATOM     14  C   UNL     1      19.892  -1.969  21.744  1.00  0.00    -0.069 C 
ATOM     15  C   UNL     1      20.277  -2.951  22.829  1.00  0.00     0.039 C 
ATOM     16  C   UNL     1      19.684  -2.528  20.354  1.00  0.00     0.039 C 
BRANCH  13  17
ATOM     17  C   UNL     1      19.776  -0.116  23.441  1.00  0.00     0.066 CG0
ATOM     18  G   UNL     1      18.381   0.027  23.997  1.00  0.00     0.000 G0
ENDBRANCH  13  17
ENDBRANCH  11  13
ENDBRANCH  10  11
ENDBRANCH   1  10
TORSDOF 0
ENDMDL
MODEL 4
REMARK VINA RESULT:    -2.395      1.729      3.434
REMARK INTER + INTRA:          -2.502
REMARK INTER:                  -3.646
REMARK INTRA:                   1.144
REMARK UNBOUND:                 0.873
REMARK SMILES CC1=CCC(=C(C)C)C(=O)CC(C)=CCC1
REMARK SMILES IDX 12 1 14 2 13 3 15 4 16 5 2 6 1 7 3 8 11 10 9 11 10 12 5 13
REMARK SMILES IDX 6 14 7 15 8 16 4 17
REMARK H PARENT
REMARK Flexibility Score: 60.00
ROOT
ATOM      1  C   UNL     1      19.863   2.018  24.447  1.00  0.00    -0.070 C 
ATOM      2  C   UNL     1      19.295   0.869  24.882  1.00  0.00    -0.027 C 
ATOM      3  C   UNL     1      21.162   2.439  25.089  1.00  0.00     0.039 C 
ENDROOT
BRANCH   2   4
ATOM      4  C   UNL     1      17.954   0.319  24.459  1.00  0.00     0.032 C 
BRANCH   4   5
ATOM      5  C   UNL     1      18.082  -0.942  23.582  1.00  0.00     0.034 C 
BRANCH   5   6
ATOM      6  C   UNL     1      19.380  -0.962  22.797  1.00  0.00    -0.077 C 
ATOM      7  C   UNL     1      20.450  -1.940  23.209  1.00  0.00     0.039 C 
ATOM      8  C   UNL     1      19.623  -0.167  21.729  1.00  0.00    -0.023 CG0
ATOM      9  G   UNL     1      18.667   0.845  21.147  1.00  0.00     0.000 G0
ENDBRANCH   5   6
ENDBRANCH   4   5
ENDBRANCH   2   4
BRANCH   1  10
ATOM     10  C   UNL     1      19.234   2.931  23.407  1.00  0.00     0.111 C 
BRANCH  10  11
ATOM     11  C   UNL     1      19.966   2.856  22.089  1.00  0.00     0.163 C 
ATOM     12  O   UNL     1      21.120   3.358  22.022  1.00  0.00    -0.294 OA
BRANCH  11  13
ATOM     13  C   UNL     1      19.381   2.166  20.897  1.00  0.00    -0.002 C 
ATOM     14  C   UNL     1      19.429   2.723  19.648  1.00  0.00    -0.069 C 
ATOM     15  C   UNL     1      18.869   2.001  18.443  1.00  0.00     0.039 C 
ATOM     16  C   UNL     1      20.010   4.100  19.416  1.00  0.00     0.039 C 
BRANCH  13  17
ATOM     17  C   UNL     1      18.663   0.852  21.144  1.00  0.00     0.066 CG0
ATOM     18  G   UNL     1      19.629  -0.160  21.712  1.00  0.00     0.000 G0
ENDBRANCH  13  17
ENDBRANCH  11  13
ENDBRANCH  10  11
ENDBRANCH   1  10
TORSDOF 0
ENDMDL
MODEL 5
REMARK VINA RESULT:    -2.333      1.518      3.856
REMARK INTER + INTRA:          -2.414
REMARK INTER:                  -2.945
REMARK INTRA:                   0.530
REMARK UNBOUND:                 0.873
REMARK SMILES CC1=CCC(=C(C)C)C(=O)CC(C)=CCC1
REMARK SMILES IDX 12 1 14 2 13 3 15 4 16 5 2 6 1 7 3 8 11 10 9 11 10 12 5 13
REMARK SMILES IDX 6 14 7 15 8 16 4 17
REMARK H PARENT
REMARK Flexibility Score: 60.00
ROOT
ATOM      1  C   UNL     1      19.312  -0.688  20.897  1.00  0.00    -0.070 C 
ATOM      2  C   UNL     1      19.518  -0.432  19.585  1.00  0.00    -0.027 C 
ATOM      3  C   UNL     1      19.787  -2.018  21.430  1.00  0.00     0.039 C 
ENDROOT
BRANCH   2   4
ATOM      4  C   UNL     1      19.034   0.778  18.823  1.00  0.00     0.032 C 
BRANCH   4   5
ATOM      5  C   UNL     1      19.941   2.007  19.027  1.00  0.00     0.034 C 
BRANCH   5   6
ATOM      6  C   UNL     1      19.197   3.168  19.659  1.00  0.00    -0.077 C 
ATOM      7  C   UNL     1      18.124   3.854  18.853  1.00  0.00     0.039 C 
ATOM      8  C   UNL     1      19.424   3.609  20.918  1.00  0.00    -0.023 CG0
ATOM      9  G   UNL     1      20.427   3.032  21.887  1.00  0.00     0.000 G0
ENDBRANCH   5   6
ENDBRANCH   4   5
ENDBRANCH   2   4
BRANCH   1  10
ATOM     10  C   UNL     1      18.576   0.254  21.837  1.00  0.00     0.111 C 
BRANCH  10  11
ATOM     11  C   UNL     1      19.504   0.841  22.872  1.00  0.00     0.163 C 
ATOM     12  O   UNL     1      20.166   0.048  23.594  1.00  0.00    -0.294 OA
BRANCH  11  13
ATOM     13  C   UNL     1      19.691   2.318  23.020  1.00  0.00    -0.002 C 
ATOM     14  C   UNL     1      19.169   3.007  24.081  1.00  0.00    -0.069 C 
ATOM     15  C   UNL     1      19.395   4.494  24.242  1.00  0.00     0.039 C 
ATOM     16  C   UNL     1      18.312   2.325  25.124  1.00  0.00     0.039 C 
BRANCH  13  17
ATOM     17  C   UNL     1      20.422   3.037  21.900  1.00  0.00     0.066 CG0
ATOM     18  G   UNL     1      19.425   3.623  20.931  1.00  0.00     0.000 G0
ENDBRANCH  13  17
ENDBRANCH  11  13
ENDBRANCH  10  11
ENDBRANCH   1  10
TORSDOF 0
ENDMDL
MODEL 6
REMARK VINA RESULT:    -2.318      1.817      4.539
REMARK INTER + INTRA:          -2.393
REMARK INTER:                  -4.281
REMARK INTRA:                   1.888
REMARK UNBOUND:                 0.873
REMARK SMILES CC1=CCC(=C(C)C)C(=O)CC(C)=CCC1
REMARK SMILES IDX 12 1 14 2 13 3 15 4 16 5 2 6 1 7 3 8 11 10 9 11 10 12 5 13
REMARK SMILES IDX 6 14 7 15 8 16 4 17
REMARK H PARENT
REMARK Flexibility Score: 60.00
ROOT
ATOM      1  C   UNL     1      19.022   2.173  18.898  1.00  0.00    -0.070 C 
ATOM      2  C   UNL     1      19.244   0.851  18.711  1.00  0.00    -0.027 C 
ATOM      3  C   UNL     1      19.456   3.113  17.800  1.00  0.00     0.039 C 
ENDROOT
BRANCH   2   4
ATOM      4  C   UNL     1      18.990  -0.248  19.715  1.00  0.00     0.032 C 
BRANCH   4   5
ATOM      5  C   UNL     1      20.079  -0.319  20.803  1.00  0.00     0.034 C 
BRANCH   5   6
ATOM      6  C   UNL     1      19.555  -0.909  22.099  1.00  0.00    -0.077 C 
ATOM      7  C   UNL     1      20.083  -2.250  22.540  1.00  0.00     0.039 C 
ATOM      8  C   UNL     1      18.657  -0.287  22.897  1.00  0.00    -0.023 CG0
ATOM      9  G   UNL     1      18.043   1.069  22.644  1.00  0.00     0.000 G0
ENDBRANCH   5   6
ENDBRANCH   4   5
ENDBRANCH   2   4
BRANCH   1  10
ATOM     10  C   UNL     1      18.427   2.760  20.168  1.00  0.00     0.111 C 
BRANCH  10  11
ATOM     11  C   UNL     1      19.419   2.742  21.305  1.00  0.00     0.163 C 
ATOM     12  O   UNL     1      20.543   3.284  21.121  1.00  0.00    -0.294 OA
BRANCH  11  13
ATOM     13  C   UNL     1      19.085   2.150  22.638  1.00  0.00    -0.002 C 
ATOM     14  C   UNL     1      19.754   2.513  23.775  1.00  0.00    -0.069 C 
ATOM     15  C   UNL     1      19.384   1.939  25.124  1.00  0.00     0.039 C 
ATOM     16  C   UNL     1      20.917   3.479  23.735  1.00  0.00     0.039 C 
BRANCH  13  17
ATOM     17  C   UNL     1      18.019   1.069  22.665  1.00  0.00     0.066 CG0
ATOM     18  G   UNL     1      18.661  -0.277  22.898  1.00  0.00     0.000 G0
ENDBRANCH  13  17
ENDBRANCH  11  13
ENDBRANCH  10  11
ENDBRANCH   1  10
TORSDOF 0
ENDMDL
MODEL 7
REMARK VINA RESULT:    -2.230      1.745      3.682
REMARK INTER + INTRA:          -2.269
REMARK INTER:                  -3.054
REMARK INTRA:                   0.785
REMARK UNBOUND:                 0.873
REMARK SMILES CC1=CCC(=C(C)C)C(=O)CC(C)=CCC1
REMARK SMILES IDX 12 1 14 2 13 3 15 4 16 5 2 6 1 7 3 8 11 10 9 11 10 12 5 13
REMARK SMILES IDX 6 14 7 15 8 16 4 17
REMARK H PARENT
REMARK Flexibility Score: 60.00
ROOT
ATOM      1  C   UNL     1      20.206   2.164  24.441  1.00  0.00    -0.070 C 
ATOM      2  C   UNL     1      20.012   0.975  25.059  1.00  0.00    -0.027 C 
ATOM      3  C   UNL     1      19.622   3.392  25.096  1.00  0.00     0.039 C 
ENDROOT
BRANCH   2   4
ATOM      4  C   UNL     1      20.413  -0.382  24.532  1.00  0.00     0.032 C 
BRANCH   4   5
ATOM      5  C   UNL     1      19.298  -1.045  23.699  1.00  0.00     0.034 C 
BRANCH   5   6
ATOM      6  C   UNL     1      19.703  -1.231  22.249  1.00  0.00    -0.077 C 
ATOM      7  C   UNL     1      20.492  -2.461  21.878  1.00  0.00     0.039 C 
ATOM      8  C   UNL     1      19.373  -0.367  21.262  1.00  0.00    -0.023 CG0
ATOM      9  G   UNL     1      18.562   0.896  21.429  1.00  0.00     0.000 G0
ENDBRANCH   5   6
ENDBRANCH   4   5
ENDBRANCH   2   4
BRANCH   1  10
ATOM     10  C   UNL     1      20.913   2.316  23.104  1.00  0.00     0.111 C 
BRANCH  10  11
ATOM     11  C   UNL     1      20.007   2.929  22.064  1.00  0.00     0.163 C 
ATOM     12  O   UNL     1      19.832   4.177  22.091  1.00  0.00    -0.294 OA
BRANCH  11  13
ATOM     13  C   UNL     1      19.366   2.107  20.991  1.00  0.00    -0.002 C 
ATOM     14  C   UNL     1      19.438   2.465  19.672  1.00  0.00    -0.069 C 
ATOM     15  C   UNL     1      18.820   1.608  18.589  1.00  0.00     0.039 C 
ATOM     16  C   UNL     1      20.108   3.747  19.234  1.00  0.00     0.039 C 
BRANCH  13  17
ATOM     17  C   UNL     1      18.564   0.897  21.434  1.00  0.00     0.066 CG0
ATOM     18  G   UNL     1      19.387  -0.355  21.256  1.00  0.00     0.000 G0
ENDBRANCH  13  17
ENDBRANCH  11  13
ENDBRANCH  10  11
ENDBRANCH   1  10
TORSDOF 0
ENDMDL
MODEL 8
REMARK VINA RESULT:    -1.276      1.755      4.655
REMARK INTER + INTRA:          -0.926
REMARK INTER:                  -1.790
REMARK INTRA:                   0.864
REMARK UNBOUND:                 0.873
REMARK SMILES CC1=CCC(=C(C)C)C(=O)CC(C)=CCC1
REMARK SMILES IDX 12 1 14 2 13 3 15 4 16 5 2 6 1 7 3 8 11 10 9 11 10 12 5 13
REMARK SMILES IDX 6 14 7 15 8 16 4 17
REMARK H PARENT
REMARK Flexibility Score: 60.00
ROOT
ATOM      1  C   UNL     1      20.177   2.509  23.922  1.00  0.00    -0.070 C 
ATOM      2  C   UNL     1      20.521   3.251  22.843  1.00  0.00    -0.027 C 
ATOM      3  C   UNL     1      21.282   2.104  24.867  1.00  0.00     0.039 C 
ENDROOT
BRANCH   2   4
ATOM      4  C   UNL     1      19.603   3.674  21.720  1.00  0.00     0.032 C 
BRANCH   4   5
ATOM      5  C   UNL     1      20.118   3.231  20.337  1.00  0.00     0.034 C 
BRANCH   5   6
ATOM      6  C   UNL     1      19.291   2.100  19.755  1.00  0.00    -0.077 C 
ATOM      7  C   UNL     1      18.442   2.385  18.543  1.00  0.00     0.039 C 
ATOM      8  C   UNL     1      19.291   0.840  20.248  1.00  0.00    -0.023 CG0
ATOM      9  G   UNL     1      20.098   0.354  21.428  1.00  0.00     0.000 G0
ENDBRANCH   5   6
ENDBRANCH   4   5
ENDBRANCH   2   4
BRANCH   1  10
ATOM     10  C   UNL     1      18.766   2.013  24.193  1.00  0.00     0.111 C 
BRANCH  10  11
ATOM     11  C   UNL     1      18.302   1.053  23.125  1.00  0.00     0.163 C 
ATOM     12  O   UNL     1      17.144   1.207  22.651  1.00  0.00    -0.294 OA
BRANCH  11  13
ATOM     13  C   UNL     1      19.190  -0.026  22.590  1.00  0.00    -0.002 C 
ATOM     14  C   UNL     1      19.233  -1.270  23.159  1.00  0.00    -0.069 C 
ATOM     15  C   UNL     1      20.105  -2.366  22.588  1.00  0.00     0.039 C 
ATOM     16  C   UNL     1      18.440  -1.600  24.403  1.00  0.00     0.039 C 
BRANCH  13  17
ATOM     17  C   UNL     1      20.101   0.341  21.432  1.00  0.00     0.066 CG0
ATOM     18  G   UNL     1      19.276   0.830  20.267  1.00  0.00     0.000 G0
ENDBRANCH  13  17
ENDBRANCH  11  13
ENDBRANCH  10  11
ENDBRANCH   1  10
TORSDOF 0
ENDMDL
MODEL 9
REMARK VINA RESULT:    -1.040      1.830      3.042
REMARK INTER + INTRA:          -0.593
REMARK INTER:                  -1.613
REMARK INTRA:                   1.020
REMARK UNBOUND:                 0.873
REMARK SMILES CC1=CCC(=C(C)C)C(=O)CC(C)=CCC1
REMARK SMILES IDX 12 1 14 2 13 3 15 4 16 5 2 6 1 7 3 8 11 10 9 11 10 12 5 13
REMARK SMILES IDX 6 14 7 15 8 16 4 17
REMARK H PARENT
REMARK Flexibility Score: 60.00
ROOT
ATOM      1  C   UNL     1      19.640   0.153  24.678  1.00  0.00    -0.070 C 
ATOM      2  C   UNL     1      19.824   1.422  25.112  1.00  0.00    -0.027 C 
ATOM      3  C   UNL     1      20.847  -0.753  24.647  1.00  0.00     0.039 C 
ENDROOT
BRANCH   2   4
ATOM      4  C   UNL     1      18.788   2.521  25.125  1.00  0.00     0.032 C 
BRANCH   4   5
ATOM      5  C   UNL     1      19.028   3.572  24.024  1.00  0.00     0.034 C 
BRANCH   5   6
ATOM      6  C   UNL     1      20.234   3.237  23.167  1.00  0.00    -0.077 C 
ATOM      7  C   UNL     1      21.599   3.639  23.664  1.00  0.00     0.039 C 
ATOM      8  C   UNL     1      20.157   2.574  21.990  1.00  0.00    -0.023 CG0
ATOM      9  G   UNL     1      18.891   2.061  21.348  1.00  0.00     0.000 G0
ENDBRANCH   5   6
ENDBRANCH   4   5
ENDBRANCH   2   4
BRANCH   1  10
ATOM     10  C   UNL     1      18.313  -0.381  24.164  1.00  0.00     0.111 C 
BRANCH  10  11
ATOM     11  C   UNL     1      17.805   0.428  22.995  1.00  0.00     0.163 C 
ATOM     12  O   UNL     1      16.676   0.979  23.101  1.00  0.00    -0.294 OA
BRANCH  11  13
ATOM     13  C   UNL     1      18.621   0.629  21.758  1.00  0.00    -0.002 C 
ATOM     14  C   UNL     1      19.164  -0.426  21.075  1.00  0.00    -0.069 C 
ATOM     15  C   UNL     1      19.956  -0.216  19.803  1.00  0.00     0.039 C 
ATOM     16  C   UNL     1      19.030  -1.846  21.575  1.00  0.00     0.039 C 
BRANCH  13  17
ATOM     17  C   UNL     1      18.887   2.061  21.331  1.00  0.00     0.066 CG0
ATOM     18  G   UNL     1      20.163   2.556  21.967  1.00  0.00     0.000 G0
ENDBRANCH  13  17
ENDBRANCH  11  13
ENDBRANCH  10  11
ENDBRANCH   1  10
TORSDOF 0
ENDMDL
