MODEL 1
REMARK VINA RESULT:    -4.108      0.000      0.000
REMARK INTER + INTRA:          -4.488
REMARK INTER:                  -4.469
REMARK INTRA:                  -0.019
REMARK UNBOUND:                -0.019
REMARK SMILES OCc1ccccc1
REMARK SMILES IDX 2 1 3 2 6 3 5 4 7 5 4 6 8 7 1 8
REMARK H PARENT 1 9
REMARK Flexibility Score: inf
ROOT
ATOM      1  C   UNL     1      22.709 -38.495  -5.393  1.00  0.00     0.191 C 
ENDROOT
BRANCH   1   2
ATOM      2  C   UNL     1      23.750 -38.454  -4.309  1.00  0.00    -0.023 A 
ATOM      3  C   UNL     1      25.748 -38.384  -2.340  1.00  0.00     0.000 A 
ATOM      4  C   UNL     1      25.193 -39.606  -2.729  1.00  0.00     0.000 A 
ATOM      5  C   UNL     1      25.315 -37.198  -2.939  1.00  0.00     0.000 A 
ATOM      6  C   UNL     1      24.201 -39.644  -3.714  1.00  0.00     0.006 A 
ATOM      7  C   UNL     1      24.324 -37.231  -3.924  1.00  0.00     0.006 A 
ENDBRANCH   1   2
BRANCH   1   8
ATOM      8  O   UNL     1      22.730 -37.300  -6.125  1.00  0.00    -0.392 OA
ATOM      9  H   UNL     1      23.659 -36.952  -6.074  1.00  0.00     0.211 HD
ENDBRANCH   1   8
TORSDOF 2
ENDMDL
MODEL 2
REMARK VINA RESULT:    -3.976     16.421     17.004
REMARK INTER + INTRA:          -4.343
REMARK INTER:                  -4.329
REMARK INTRA:                  -0.015
REMARK UNBOUND:                -0.019
REMARK SMILES OCc1ccccc1
REMARK SMILES IDX 2 1 3 2 6 3 5 4 7 5 4 6 8 7 1 8
REMARK H PARENT 1 9
REMARK Flexibility Score: inf
ROOT
ATOM      1  C   UNL     1      15.527 -42.685  10.529  1.00  0.00     0.191 C 
ENDROOT
BRANCH   1   2
ATOM      2  C   UNL     1      16.992 -42.464  10.787  1.00  0.00    -0.023 A 
ATOM      3  C   UNL     1      19.716 -41.974  11.250  1.00  0.00     0.000 A 
ATOM      4  C   UNL     1      19.281 -42.356   9.978  1.00  0.00     0.000 A 
ATOM      5  C   UNL     1      18.793 -41.827  12.289  1.00  0.00     0.000 A 
ATOM      6  C   UNL     1      17.923 -42.595   9.743  1.00  0.00     0.006 A 
ATOM      7  C   UNL     1      17.434 -42.065  12.059  1.00  0.00     0.006 A 
ENDBRANCH   1   2
BRANCH   1   8
ATOM      8  O   UNL     1      14.952 -43.386  11.597  1.00  0.00    -0.392 OA
ATOM      9  H   UNL     1      14.072 -43.717  11.278  1.00  0.00     0.211 HD
ENDBRANCH   1   8
TORSDOF 2
ENDMDL
MODEL 3
REMARK VINA RESULT:    -3.973     16.377     16.971
REMARK INTER + INTRA:          -4.340
REMARK INTER:                  -4.324
REMARK INTRA:                  -0.016
REMARK UNBOUND:                -0.019
REMARK SMILES OCc1ccccc1
REMARK SMILES IDX 2 1 3 2 6 3 5 4 7 5 4 6 8 7 1 8
REMARK H PARENT 1 9
REMARK Flexibility Score: inf
ROOT
ATOM      1  C   UNL     1      15.531 -42.694  10.496  1.00  0.00     0.191 C 
ENDROOT
BRANCH   1   2
ATOM      2  C   UNL     1      16.992 -42.428  10.732  1.00  0.00    -0.023 A 
ATOM      3  C   UNL     1      19.728 -42.007  11.188  1.00  0.00     0.000 A 
ATOM      4  C   UNL     1      18.817 -41.883  12.241  1.00  0.00     0.000 A 
ATOM      5  C   UNL     1      19.277 -42.350   9.911  1.00  0.00     0.000 A 
ATOM      6  C   UNL     1      17.453 -42.098  12.017  1.00  0.00     0.006 A 
ATOM      7  C   UNL     1      17.915 -42.566   9.682  1.00  0.00     0.006 A 
ENDBRANCH   1   2
BRANCH   1   8
ATOM      8  O   UNL     1      14.987 -43.389  11.584  1.00  0.00    -0.392 OA
ATOM      9  H   UNL     1      14.093 -42.993  11.755  1.00  0.00     0.211 HD
ENDBRANCH   1   8
TORSDOF 2
ENDMDL
MODEL 4
REMARK VINA RESULT:    -3.960     15.941     16.738
REMARK INTER + INTRA:          -4.326
REMARK INTER:                  -4.308
REMARK INTRA:                  -0.018
REMARK UNBOUND:                -0.019
REMARK SMILES OCc1ccccc1
REMARK SMILES IDX 2 1 3 2 6 3 5 4 7 5 4 6 8 7 1 8
REMARK H PARENT 1 9
REMARK Flexibility Score: inf
ROOT
ATOM      1  C   UNL     1      20.490 -40.743  11.858  1.00  0.00     0.191 C 
ENDROOT
BRANCH   1   2
ATOM      2  C   UNL     1      19.339 -41.616  11.443  1.00  0.00    -0.023 A 
ATOM      3  C   UNL     1      17.157 -43.185  10.634  1.00  0.00     0.000 A 
ATOM      4  C   UNL     1      17.141 -42.556  11.882  1.00  0.00     0.000 A 
ATOM      5  C   UNL     1      18.256 -43.025   9.785  1.00  0.00     0.000 A 
ATOM      6  C   UNL     1      18.226 -41.769  12.286  1.00  0.00     0.006 A 
ATOM      7  C   UNL     1      19.341 -42.239  10.184  1.00  0.00     0.006 A 
ENDBRANCH   1   2
BRANCH   1   8
ATOM      8  O   UNL     1      21.636 -41.077  11.124  1.00  0.00    -0.392 OA
ATOM      9  H   UNL     1      21.693 -42.068  11.123  1.00  0.00     0.211 HD
ENDBRANCH   1   8
TORSDOF 2
ENDMDL
MODEL 5
REMARK VINA RESULT:    -3.890     20.082     20.807
REMARK INTER + INTRA:          -4.250
REMARK INTER:                  -4.238
REMARK INTRA:                  -0.013
REMARK UNBOUND:                -0.019
REMARK SMILES OCc1ccccc1
REMARK SMILES IDX 2 1 3 2 6 3 5 4 7 5 4 6 8 7 1 8
REMARK H PARENT 1 9
REMARK Flexibility Score: inf
ROOT
ATOM      1  C   UNL     1      20.066 -25.063  10.873  1.00  0.00     0.191 C 
ENDROOT
BRANCH   1   2
ATOM      2  C   UNL     1      18.598 -25.237  10.599  1.00  0.00    -0.023 A 
ATOM      3  C   UNL     1      15.871 -25.638  10.073  1.00  0.00     0.000 A 
ATOM      4  C   UNL     1      16.734 -25.262   9.040  1.00  0.00     0.000 A 
ATOM      5  C   UNL     1      16.368 -25.823  11.366  1.00  0.00     0.000 A 
ATOM      6  C   UNL     1      18.095 -25.067   9.299  1.00  0.00     0.006 A 
ATOM      7  C   UNL     1      17.727 -25.630  11.629  1.00  0.00     0.006 A 
ENDBRANCH   1   2
BRANCH   1   8
ATOM      8  O   UNL     1      20.253 -24.193  11.956  1.00  0.00    -0.392 OA
ATOM      9  H   UNL     1      19.584 -24.448  12.644  1.00  0.00     0.211 HD
ENDBRANCH   1   8
TORSDOF 2
ENDMDL
MODEL 6
REMARK VINA RESULT:    -3.772      2.487      3.930
REMARK INTER + INTRA:          -4.122
REMARK INTER:                  -4.111
REMARK INTRA:                  -0.011
REMARK UNBOUND:                -0.019
REMARK SMILES OCc1ccccc1
REMARK SMILES IDX 2 1 3 2 6 3 5 4 7 5 4 6 8 7 1 8
REMARK H PARENT 1 9
REMARK Flexibility Score: inf
ROOT
ATOM      1  C   UNL     1      27.906 -37.629  -2.429  1.00  0.00     0.191 C 
ENDROOT
BRANCH   1   2
ATOM      2  C   UNL     1      26.570 -38.189  -2.831  1.00  0.00    -0.023 A 
ATOM      3  C   UNL     1      24.099 -39.234  -3.656  1.00  0.00     0.000 A 
ATOM      4  C   UNL     1      24.271 -37.851  -3.543  1.00  0.00     0.000 A 
ATOM      5  C   UNL     1      25.161 -40.095  -3.367  1.00  0.00     0.000 A 
ATOM      6  C   UNL     1      25.503 -37.328  -3.137  1.00  0.00     0.006 A 
ATOM      7  C   UNL     1      26.394 -39.577  -2.962  1.00  0.00     0.006 A 
ENDBRANCH   1   2
BRANCH   1   8
ATOM      8  O   UNL     1      28.521 -37.016  -3.529  1.00  0.00    -0.392 OA
ATOM      9  H   UNL     1      28.740 -37.740  -4.172  1.00  0.00     0.211 HD
ENDBRANCH   1   8
TORSDOF 2
ENDMDL
MODEL 7
REMARK VINA RESULT:    -3.743     17.258     17.804
REMARK INTER + INTRA:          -4.090
REMARK INTER:                  -4.074
REMARK INTRA:                  -0.016
REMARK UNBOUND:                -0.019
REMARK SMILES OCc1ccccc1
REMARK SMILES IDX 2 1 3 2 6 3 5 4 7 5 4 6 8 7 1 8
REMARK H PARENT 1 9
REMARK Flexibility Score: inf
ROOT
ATOM      1  C   UNL     1      14.137 -42.266  10.664  1.00  0.00     0.191 C 
ENDROOT
BRANCH   1   2
ATOM      2  C   UNL     1      15.603 -42.210  10.989  1.00  0.00    -0.023 A 
ATOM      3  C   UNL     1      18.329 -42.151  11.656  1.00  0.00     0.000 A 
ATOM      4  C   UNL     1      17.463 -41.179  12.166  1.00  0.00     0.000 A 
ATOM      5  C   UNL     1      17.835 -43.157  10.821  1.00  0.00     0.000 A 
ATOM      6  C   UNL     1      16.103 -41.210  11.839  1.00  0.00     0.006 A 
ATOM      7  C   UNL     1      16.476 -43.192  10.493  1.00  0.00     0.006 A 
ENDBRANCH   1   2
BRANCH   1   8
ATOM      8  O   UNL     1      13.380 -41.983  11.809  1.00  0.00    -0.392 OA
ATOM      9  H   UNL     1      12.467 -42.335  11.640  1.00  0.00     0.211 HD
ENDBRANCH   1   8
TORSDOF 2
ENDMDL
MODEL 8
REMARK VINA RESULT:    -3.701     20.627     21.090
REMARK INTER + INTRA:          -4.045
REMARK INTER:                  -4.028
REMARK INTRA:                  -0.017
REMARK UNBOUND:                -0.019
REMARK SMILES OCc1ccccc1
REMARK SMILES IDX 2 1 3 2 6 3 5 4 7 5 4 6 8 7 1 8
REMARK H PARENT 1 9
REMARK Flexibility Score: inf
ROOT
ATOM      1  C   UNL     1      15.317 -27.318  11.967  1.00  0.00     0.191 C 
ENDROOT
BRANCH   1   2
ATOM      2  C   UNL     1      16.251 -26.351  11.294  1.00  0.00    -0.023 A 
ATOM      3  C   UNL     1      18.030 -24.606  10.004  1.00  0.00     0.000 A 
ATOM      4  C   UNL     1      18.333 -25.097  11.277  1.00  0.00     0.000 A 
ATOM      5  C   UNL     1      16.846 -24.992   9.370  1.00  0.00     0.000 A 
ATOM      6  C   UNL     1      17.450 -25.972  11.920  1.00  0.00     0.006 A 
ATOM      7  C   UNL     1      15.961 -25.866  10.008  1.00  0.00     0.006 A 
ENDBRANCH   1   2
BRANCH   1   8
ATOM      8  O   UNL     1      15.472 -27.248  13.358  1.00  0.00    -0.392 OA
ATOM      9  H   UNL     1      15.286 -26.308  13.617  1.00  0.00     0.211 HD
ENDBRANCH   1   8
TORSDOF 2
ENDMDL
MODEL 9
REMARK VINA RESULT:    -3.657     20.536     21.061
REMARK INTER + INTRA:          -3.997
REMARK INTER:                  -3.977
REMARK INTRA:                  -0.020
REMARK UNBOUND:                -0.019
REMARK SMILES OCc1ccccc1
REMARK SMILES IDX 2 1 3 2 6 3 5 4 7 5 4 6 8 7 1 8
REMARK H PARENT 1 9
REMARK Flexibility Score: inf
ROOT
ATOM      1  C   UNL     1      15.325 -27.199  11.990  1.00  0.00     0.191 C 
ENDROOT
BRANCH   1   2
ATOM      2  C   UNL     1      16.285 -26.306  11.255  1.00  0.00    -0.023 A 
ATOM      3  C   UNL     1      18.041 -24.576   9.914  1.00  0.00     0.000 A 
ATOM      4  C   UNL     1      16.869 -25.006   9.287  1.00  0.00     0.000 A 
ATOM      5  C   UNL     1      18.334 -25.001  11.213  1.00  0.00     0.000 A 
ATOM      6  C   UNL     1      15.989 -25.864   9.955  1.00  0.00     0.006 A 
ATOM      7  C   UNL     1      17.458 -25.858  11.885  1.00  0.00     0.006 A 
ENDBRANCH   1   2
BRANCH   1   8
ATOM      8  O   UNL     1      15.774 -27.414  13.300  1.00  0.00    -0.392 OA
ATOM      9  H   UNL     1      14.969 -27.400  13.881  1.00  0.00     0.211 HD
ENDBRANCH   1   8
TORSDOF 2
ENDMDL
