MODEL 1
REMARK VINA RESULT:    -5.988      0.000      0.000
REMARK INTER + INTRA:          -9.692
REMARK INTER:                  -8.088
REMARK INTRA:                  -1.604
REMARK UNBOUND:                -1.604
REMARK SMILES CC(=O)CCC=C(C)CCC=C(C)C
REMARK SMILES IDX 7 1 6 2 8 3 9 4 10 5 11 6 13 7 12 8 14 9 5 10 4 11 2 12 3 13
REMARK SMILES IDX 1 14
REMARK H PARENT
REMARK Flexibility Score: inf
ROOT
ATOM      1  C   UNL     1       0.152   9.594  22.629  1.00  0.00    -0.077 C 
ATOM      2  C   UNL     1      -0.709  10.492  22.099  1.00  0.00    -0.028 C 
ATOM      3  C   UNL     1      -0.001   8.144  22.247  1.00  0.00     0.039 C 
ENDROOT
BRANCH   1   4
ATOM      4  C   UNL     1       1.216   9.966  23.644  1.00  0.00     0.034 C 
BRANCH   4   5
ATOM      5  C   UNL     1       2.616   9.726  23.070  1.00  0.00     0.032 C 
BRANCH   5   6
ATOM      6  C   UNL     1       3.091  10.933  22.299  1.00  0.00    -0.028 C 
ATOM      7  C   UNL     1       3.679  12.246  20.285  1.00  0.00     0.039 C 
ATOM      8  C   UNL     1       3.222  10.975  20.954  1.00  0.00    -0.080 C 
ATOM      9  C   UNL     1       2.968   9.768  20.085  1.00  0.00     0.039 C 
ENDBRANCH   5   6
ENDBRANCH   4   5
ENDBRANCH   1   4
BRANCH   2  10
ATOM     10  C   UNL     1      -0.684  11.975  22.375  1.00  0.00     0.035 C 
BRANCH  10  11
ATOM     11  C   UNL     1      -0.007  12.731  21.226  1.00  0.00     0.079 C 
BRANCH  11  12
ATOM     12  C   UNL     1       0.361  14.127  21.653  1.00  0.00     0.130 C 
ATOM     13  O   UNL     1      -0.363  15.061  21.342  1.00  0.00    -0.300 OA
ATOM     14  C   UNL     1       1.593  14.398  22.464  1.00  0.00     0.087 C 
ENDBRANCH  11  12
ENDBRANCH  10  11
ENDBRANCH   2  10
TORSDOF 6
ENDMDL
MODEL 2
REMARK VINA RESULT:    -5.973      2.562      4.820
REMARK INTER + INTRA:          -9.672
REMARK INTER:                  -8.167
REMARK INTRA:                  -1.505
REMARK UNBOUND:                -1.604
REMARK SMILES CC(=O)CCC=C(C)CCC=C(C)C
REMARK SMILES IDX 7 1 6 2 8 3 9 4 10 5 11 6 13 7 12 8 14 9 5 10 4 11 2 12 3 13
REMARK SMILES IDX 1 14
REMARK H PARENT
REMARK Flexibility Score: inf
ROOT
ATOM      1  C   UNL     1      -2.981  14.547  21.051  1.00  0.00    -0.077 C 
ATOM      2  C   UNL     1      -2.309  15.484  21.759  1.00  0.00    -0.028 C 
ATOM      3  C   UNL     1      -3.032  14.684  19.551  1.00  0.00     0.039 C 
ENDROOT
BRANCH   1   4
ATOM      4  C   UNL     1      -3.744  13.409  21.701  1.00  0.00     0.034 C 
BRANCH   4   5
ATOM      5  C   UNL     1      -3.223  12.056  21.202  1.00  0.00     0.032 C 
BRANCH   5   6
ATOM      6  C   UNL     1      -2.075  11.578  22.055  1.00  0.00    -0.028 C 
ATOM      7  C   UNL     1       0.292  11.126  22.621  1.00  0.00     0.039 C 
ATOM      8  C   UNL     1      -0.778  11.604  21.673  1.00  0.00    -0.080 C 
ATOM      9  C   UNL     1      -0.356  12.059  20.299  1.00  0.00     0.039 C 
ENDBRANCH   5   6
ENDBRANCH   4   5
ENDBRANCH   1   4
BRANCH   2  10
ATOM     10  C   UNL     1      -2.159  15.485  23.260  1.00  0.00     0.035 C 
BRANCH  10  11
ATOM     11  C   UNL     1      -0.880  14.752  23.680  1.00  0.00     0.079 C 
BRANCH  11  12
ATOM     12  C   UNL     1       0.328  15.381  23.038  1.00  0.00     0.130 C 
ATOM     13  O   UNL     1       1.000  14.729  22.253  1.00  0.00    -0.300 OA
ATOM     14  C   UNL     1       0.721  16.799  23.331  1.00  0.00     0.087 C 
ENDBRANCH  11  12
ENDBRANCH  10  11
ENDBRANCH   2  10
TORSDOF 6
ENDMDL
MODEL 3
REMARK VINA RESULT:    -5.967      1.658      4.183
REMARK INTER + INTRA:          -9.663
REMARK INTER:                  -8.154
REMARK INTRA:                  -1.510
REMARK UNBOUND:                -1.604
REMARK SMILES CC(=O)CCC=C(C)CCC=C(C)C
REMARK SMILES IDX 7 1 6 2 8 3 9 4 10 5 11 6 13 7 12 8 14 9 5 10 4 11 2 12 3 13
REMARK SMILES IDX 1 14
REMARK H PARENT
REMARK Flexibility Score: inf
ROOT
ATOM      1  C   UNL     1       3.038  10.473  21.096  1.00  0.00    -0.077 C 
ATOM      2  C   UNL     1       2.331   9.579  21.825  1.00  0.00    -0.028 C 
ATOM      3  C   UNL     1       3.121  10.272  19.604  1.00  0.00     0.039 C 
ENDROOT
BRANCH   1   4
ATOM      4  C   UNL     1       3.809  11.621  21.716  1.00  0.00     0.034 C 
BRANCH   4   5
ATOM      5  C   UNL     1       3.292  12.964  21.188  1.00  0.00     0.032 C 
BRANCH   5   6
ATOM      6  C   UNL     1       2.126  13.449  22.012  1.00  0.00    -0.028 C 
ATOM      7  C   UNL     1      -0.254  13.898  22.525  1.00  0.00     0.039 C 
ATOM      8  C   UNL     1       0.837  13.411  21.605  1.00  0.00    -0.080 C 
ATOM      9  C   UNL     1       0.444  12.935  20.229  1.00  0.00     0.039 C 
ENDBRANCH   5   6
ENDBRANCH   4   5
ENDBRANCH   1   4
BRANCH   2  10
ATOM     10  C   UNL     1       2.146   9.642  23.320  1.00  0.00     0.035 C 
BRANCH  10  11
ATOM     11  C   UNL     1       0.845  10.369  23.678  1.00  0.00     0.079 C 
BRANCH  11  12
ATOM     12  C   UNL     1      -0.333   9.706  23.013  1.00  0.00     0.130 C 
ATOM     13  O   UNL     1      -1.021  10.345  22.232  1.00  0.00    -0.300 OA
ATOM     14  C   UNL     1      -0.674   8.269  23.279  1.00  0.00     0.087 C 
ENDBRANCH  11  12
ENDBRANCH  10  11
ENDBRANCH   2  10
TORSDOF 6
ENDMDL
MODEL 4
REMARK VINA RESULT:    -5.965      2.822      5.987
REMARK INTER + INTRA:          -9.661
REMARK INTER:                  -8.037
REMARK INTRA:                  -1.624
REMARK UNBOUND:                -1.604
REMARK SMILES CC(=O)CCC=C(C)CCC=C(C)C
REMARK SMILES IDX 7 1 6 2 8 3 9 4 10 5 11 6 13 7 12 8 14 9 5 10 4 11 2 12 3 13
REMARK SMILES IDX 1 14
REMARK H PARENT
REMARK Flexibility Score: inf
ROOT
ATOM      1  C   UNL     1      -0.148  15.467  22.568  1.00  0.00    -0.077 C 
ATOM      2  C   UNL     1       0.683  14.561  22.004  1.00  0.00    -0.028 C 
ATOM      3  C   UNL     1      -0.024  16.909  22.150  1.00  0.00     0.039 C 
ENDROOT
BRANCH   1   4
ATOM      4  C   UNL     1      -1.147  15.111  23.652  1.00  0.00     0.034 C 
BRANCH   4   5
ATOM      5  C   UNL     1      -2.581  15.301  23.147  1.00  0.00     0.032 C 
BRANCH   5   6
ATOM      6  C   UNL     1      -3.020  14.116  22.324  1.00  0.00    -0.028 C 
ATOM      7  C   UNL     1      -3.572  12.876  20.254  1.00  0.00     0.039 C 
ATOM      8  C   UNL     1      -3.153  14.130  20.979  1.00  0.00    -0.080 C 
ATOM      9  C   UNL     1      -2.939  15.381  20.164  1.00  0.00     0.039 C 
ENDBRANCH   5   6
ENDBRANCH   4   5
ENDBRANCH   1   4
BRANCH   2  10
ATOM     10  C   UNL     1       0.681  13.083  22.308  1.00  0.00     0.035 C 
BRANCH  10  11
ATOM     11  C   UNL     1       0.095  12.287  21.136  1.00  0.00     0.079 C 
BRANCH  11  12
ATOM     12  C   UNL     1      -0.306  10.906  21.581  1.00  0.00     0.130 C 
ATOM     13  O   UNL     1       0.368   9.946  21.240  1.00  0.00    -0.300 OA
ATOM     14  C   UNL     1      -1.511  10.681  22.446  1.00  0.00     0.087 C 
ENDBRANCH  11  12
ENDBRANCH  10  11
ENDBRANCH   2  10
TORSDOF 6
ENDMDL
MODEL 5
REMARK VINA RESULT:    -5.921      2.937      5.847
REMARK INTER + INTRA:          -9.602
REMARK INTER:                  -7.928
REMARK INTRA:                  -1.674
REMARK UNBOUND:                -1.604
REMARK SMILES CC(=O)CCC=C(C)CCC=C(C)C
REMARK SMILES IDX 7 1 6 2 8 3 9 4 10 5 11 6 13 7 12 8 14 9 5 10 4 11 2 12 3 13
REMARK SMILES IDX 1 14
REMARK H PARENT
REMARK Flexibility Score: inf
ROOT
ATOM      1  C   UNL     1      -0.049  15.398  22.547  1.00  0.00    -0.077 C 
ATOM      2  C   UNL     1       0.790  14.516  21.955  1.00  0.00    -0.028 C 
ATOM      3  C   UNL     1       0.026  16.844  22.130  1.00  0.00     0.039 C 
ENDROOT
BRANCH   1   4
ATOM      4  C   UNL     1      -1.005  15.013  23.658  1.00  0.00     0.034 C 
BRANCH   4   5
ATOM      5  C   UNL     1      -2.455  15.267  23.233  1.00  0.00     0.032 C 
BRANCH   5   6
ATOM      6  C   UNL     1      -3.001  14.089  22.464  1.00  0.00    -0.028 C 
ATOM      7  C   UNL     1      -3.717  12.831  20.457  1.00  0.00     0.039 C 
ATOM      8  C   UNL     1      -3.192  14.075  21.126  1.00  0.00    -0.080 C 
ATOM      9  C   UNL     1      -2.939  15.289  20.267  1.00  0.00     0.039 C 
ENDBRANCH   5   6
ENDBRANCH   4   5
ENDBRANCH   1   4
BRANCH   2  10
ATOM     10  C   UNL     1       0.834  13.038  22.255  1.00  0.00     0.035 C 
BRANCH  10  11
ATOM     11  C   UNL     1      -0.043  12.256  21.270  1.00  0.00     0.079 C 
BRANCH  11  12
ATOM     12  C   UNL     1       0.477  12.401  19.865  1.00  0.00     0.130 C 
ATOM     13  O   UNL     1       1.609  12.025  19.601  1.00  0.00    -0.300 OA
ATOM     14  C   UNL     1      -0.370  12.987  18.773  1.00  0.00     0.087 C 
ENDBRANCH  11  12
ENDBRANCH  10  11
ENDBRANCH   2  10
TORSDOF 6
ENDMDL
MODEL 6
REMARK VINA RESULT:    -5.903      2.601      5.513
REMARK INTER + INTRA:          -9.577
REMARK INTER:                  -7.844
REMARK INTRA:                  -1.733
REMARK UNBOUND:                -1.604
REMARK SMILES CC(=O)CCC=C(C)CCC=C(C)C
REMARK SMILES IDX 7 1 6 2 8 3 9 4 10 5 11 6 13 7 12 8 14 9 5 10 4 11 2 12 3 13
REMARK SMILES IDX 1 14
REMARK H PARENT
REMARK Flexibility Score: inf
ROOT
ATOM      1  C   UNL     1      -2.498  14.843  20.684  1.00  0.00    -0.077 C 
ATOM      2  C   UNL     1      -1.682  14.146  19.860  1.00  0.00    -0.028 C 
ATOM      3  C   UNL     1      -3.003  16.186  20.222  1.00  0.00     0.039 C 
ENDROOT
BRANCH   1   4
ATOM      4  C   UNL     1      -2.869  14.370  22.076  1.00  0.00     0.034 C 
BRANCH   4   5
ATOM      5  C   UNL     1      -2.283  15.308  23.137  1.00  0.00     0.032 C 
BRANCH   5   6
ATOM      6  C   UNL     1      -0.828  14.994  23.384  1.00  0.00    -0.028 C 
ATOM      7  C   UNL     1       1.616  15.379  23.308  1.00  0.00     0.039 C 
ATOM      8  C   UNL     1       0.199  15.777  22.982  1.00  0.00    -0.080 C 
ATOM      9  C   UNL     1      -0.017  17.029  22.170  1.00  0.00     0.039 C 
ENDBRANCH   5   6
ENDBRANCH   4   5
ENDBRANCH   1   4
BRANCH   2  10
ATOM     10  C   UNL     1      -1.100  12.790  20.171  1.00  0.00     0.035 C 
BRANCH  10  11
ATOM     11  C   UNL     1       0.406  12.892  20.439  1.00  0.00     0.079 C 
BRANCH  11  12
ATOM     12  C   UNL     1       0.780  12.117  21.674  1.00  0.00     0.130 C 
ATOM     13  O   UNL     1       1.956  12.018  21.989  1.00  0.00    -0.300 OA
ATOM     14  C   UNL     1      -0.263  11.473  22.539  1.00  0.00     0.087 C 
ENDBRANCH  11  12
ENDBRANCH  10  11
ENDBRANCH   2  10
TORSDOF 6
ENDMDL
MODEL 7
REMARK VINA RESULT:    -5.832      1.344      3.325
REMARK INTER + INTRA:          -9.481
REMARK INTER:                  -7.877
REMARK INTRA:                  -1.604
REMARK UNBOUND:                -1.604
REMARK SMILES CC(=O)CCC=C(C)CCC=C(C)C
REMARK SMILES IDX 7 1 6 2 8 3 9 4 10 5 11 6 13 7 12 8 14 9 5 10 4 11 2 12 3 13
REMARK SMILES IDX 1 14
REMARK H PARENT
REMARK Flexibility Score: inf
ROOT
ATOM      1  C   UNL     1       2.587  10.196  20.645  1.00  0.00    -0.077 C 
ATOM      2  C   UNL     1       1.812  10.905  19.792  1.00  0.00    -0.028 C 
ATOM      3  C   UNL     1       3.045   8.824  20.221  1.00  0.00     0.039 C 
ENDROOT
BRANCH   1   4
ATOM      4  C   UNL     1       2.952  10.685  22.032  1.00  0.00     0.034 C 
BRANCH   4   5
ATOM      5  C   UNL     1       2.360   9.762  23.103  1.00  0.00     0.032 C 
BRANCH   5   6
ATOM      6  C   UNL     1       0.912  10.099  23.357  1.00  0.00    -0.028 C 
ATOM      7  C   UNL     1      -1.537   9.741  23.316  1.00  0.00     0.039 C 
ATOM      8  C   UNL     1      -0.128   9.319  22.984  1.00  0.00    -0.080 C 
ATOM      9  C   UNL     1       0.064   8.046  22.199  1.00  0.00     0.039 C 
ENDBRANCH   5   6
ENDBRANCH   4   5
ENDBRANCH   1   4
BRANCH   2  10
ATOM     10  C   UNL     1       1.279  12.290  20.062  1.00  0.00     0.035 C 
BRANCH  10  11
ATOM     11  C   UNL     1      -0.211  12.239  20.420  1.00  0.00     0.079 C 
BRANCH  11  12
ATOM     12  C   UNL     1      -0.486  13.044  21.662  1.00  0.00     0.130 C 
ATOM     13  O   UNL     1       0.448  13.522  22.288  1.00  0.00    -0.300 OA
ATOM     14  C   UNL     1      -1.886  13.285  22.144  1.00  0.00     0.087 C 
ENDBRANCH  11  12
ENDBRANCH  10  11
ENDBRANCH   2  10
TORSDOF 6
ENDMDL
MODEL 8
REMARK VINA RESULT:    -5.816      2.524      4.341
REMARK INTER + INTRA:          -9.460
REMARK INTER:                  -7.725
REMARK INTRA:                  -1.735
REMARK UNBOUND:                -1.604
REMARK SMILES CC(=O)CCC=C(C)CCC=C(C)C
REMARK SMILES IDX 7 1 6 2 8 3 9 4 10 5 11 6 13 7 12 8 14 9 5 10 4 11 2 12 3 13
REMARK SMILES IDX 1 14
REMARK H PARENT
REMARK Flexibility Score: inf
ROOT
ATOM      1  C   UNL     1      -2.914  13.796  21.106  1.00  0.00    -0.077 C 
ATOM      2  C   UNL     1      -3.010  14.197  22.395  1.00  0.00    -0.028 C 
ATOM      3  C   UNL     1      -3.694  12.580  20.676  1.00  0.00     0.039 C 
ENDROOT
BRANCH   1   4
ATOM      4  C   UNL     1      -2.004  14.467  20.096  1.00  0.00     0.034 C 
BRANCH   4   5
ATOM      5  C   UNL     1      -0.984  13.467  19.541  1.00  0.00     0.032 C 
BRANCH   5   6
ATOM      6  C   UNL     1       0.275  13.471  20.372  1.00  0.00    -0.028 C 
ATOM      7  C   UNL     1       1.927  12.579  21.985  1.00  0.00     0.039 C 
ATOM      8  C   UNL     1       0.629  12.484  21.225  1.00  0.00    -0.080 C 
ATOM      9  C   UNL     1      -0.258  11.291  21.484  1.00  0.00     0.039 C 
ENDBRANCH   5   6
ENDBRANCH   4   5
ENDBRANCH   1   4
BRANCH   2  10
ATOM     10  C   UNL     1      -2.301  15.394  22.978  1.00  0.00     0.035 C 
BRANCH  10  11
ATOM     11  C   UNL     1      -0.953  14.987  23.583  1.00  0.00     0.079 C 
BRANCH  11  12
ATOM     12  C   UNL     1       0.145  15.895  23.095  1.00  0.00     0.130 C 
ATOM     13  O   UNL     1       1.277  15.759  23.532  1.00  0.00    -0.300 OA
ATOM     14  C   UNL     1      -0.119  16.959  22.071  1.00  0.00     0.087 C 
ENDBRANCH  11  12
ENDBRANCH  10  11
ENDBRANCH   2  10
TORSDOF 6
ENDMDL
MODEL 9
REMARK VINA RESULT:    -5.773      3.406      5.815
REMARK INTER + INTRA:          -9.402
REMARK INTER:                  -8.124
REMARK INTRA:                  -1.278
REMARK UNBOUND:                -1.604
REMARK SMILES CC(=O)CCC=C(C)CCC=C(C)C
REMARK SMILES IDX 7 1 6 2 8 3 9 4 10 5 11 6 13 7 12 8 14 9 5 10 4 11 2 12 3 13
REMARK SMILES IDX 1 14
REMARK H PARENT
REMARK Flexibility Score: inf
ROOT
ATOM      1  C   UNL     1       0.748  14.304  22.619  1.00  0.00    -0.077 C 
ATOM      2  C   UNL     1       0.944  13.686  21.431  1.00  0.00    -0.028 C 
ATOM      3  C   UNL     1       1.809  15.251  23.116  1.00  0.00     0.039 C 
ENDROOT
BRANCH   1   4
ATOM      4  C   UNL     1      -0.452  14.031  23.505  1.00  0.00     0.034 C 
BRANCH   4   5
ATOM      5  C   UNL     1      -1.325  15.284  23.630  1.00  0.00     0.032 C 
BRANCH   5   6
ATOM      6  C   UNL     1      -2.238  15.420  22.437  1.00  0.00    -0.028 C 
ATOM      7  C   UNL     1      -2.984  16.296  20.245  1.00  0.00     0.039 C 
ATOM      8  C   UNL     1      -2.019  16.263  21.402  1.00  0.00    -0.080 C 
ATOM      9  C   UNL     1      -0.852  17.219  21.379  1.00  0.00     0.039 C 
ENDBRANCH   5   6
ENDBRANCH   4   5
ENDBRANCH   1   4
BRANCH   2  10
ATOM     10  C   UNL     1      -0.022  12.719  20.794  1.00  0.00     0.035 C 
BRANCH  10  11
ATOM     11  C   UNL     1      -0.439  13.204  19.401  1.00  0.00     0.079 C 
BRANCH  11  12
ATOM     12  C   UNL     1       0.242  12.393  18.330  1.00  0.00     0.130 C 
ATOM     13  O   UNL     1       1.034  11.519  18.650  1.00  0.00    -0.300 OA
ATOM     14  C   UNL     1      -0.040  12.624  16.875  1.00  0.00     0.087 C 
ENDBRANCH  11  12
ENDBRANCH  10  11
ENDBRANCH   2  10
TORSDOF 6
ENDMDL
