MODEL 1
REMARK VINA RESULT:    -2.912      0.000      0.000
REMARK INTER + INTRA:          -3.730
REMARK INTER:                  -3.507
REMARK INTRA:                  -0.223
REMARK UNBOUND:                -0.223
REMARK SMILES OCC(O)CO
REMARK SMILES IDX 3 1 5 2 6 3 2 5 1 6 4 8
REMARK H PARENT 6 4 1 7 4 9
REMARK Flexibility Score: inf
ROOT
ATOM      1  C   UNL     1     -22.867  12.504 -32.620  1.00  0.00     0.165 C 
ENDROOT
BRANCH   1   2
ATOM      2  C   UNL     1     -23.134  13.104 -31.228  1.00  0.00     0.190 C 
BRANCH   2   3
ATOM      3  O   UNL     1     -23.523  12.111 -30.316  1.00  0.00    -0.394 OA
ATOM      4  H   UNL     1     -24.364  12.422 -29.890  1.00  0.00     0.210 HD
ENDBRANCH   2   3
ENDBRANCH   1   2
BRANCH   1   5
ATOM      5  C   UNL     1     -24.146  12.396 -33.460  1.00  0.00     0.190 C 
BRANCH   5   6
ATOM      6  O   UNL     1     -25.268  12.231 -32.636  1.00  0.00    -0.394 OA
ATOM      7  H   UNL     1     -25.018  11.546 -31.963  1.00  0.00     0.210 HD
ENDBRANCH   5   6
ENDBRANCH   1   5
BRANCH   1   8
ATOM      8  O   UNL     1     -22.272  11.237 -32.502  1.00  0.00    -0.388 OA
ATOM      9  H   UNL     1     -21.999  11.136 -31.553  1.00  0.00     0.211 HD
ENDBRANCH   1   8
TORSDOF 5
ENDMDL
MODEL 2
REMARK VINA RESULT:    -2.885     12.397     13.320
REMARK INTER + INTRA:          -3.698
REMARK INTER:                  -3.485
REMARK INTRA:                  -0.213
REMARK UNBOUND:                -0.223
REMARK SMILES OCC(O)CO
REMARK SMILES IDX 3 1 5 2 6 3 2 5 1 6 4 8
REMARK H PARENT 6 4 1 7 4 9
REMARK Flexibility Score: inf
ROOT
ATOM      1  C   UNL     1     -25.597  23.803 -25.537  1.00  0.00     0.165 C 
ENDROOT
BRANCH   1   2
ATOM      2  C   UNL     1     -25.139  22.396 -25.958  1.00  0.00     0.190 C 
BRANCH   2   3
ATOM      3  O   UNL     1     -24.722  22.380 -27.298  1.00  0.00    -0.394 OA
ATOM      4  H   UNL     1     -25.441  22.810 -27.831  1.00  0.00     0.210 HD
ENDBRANCH   2   3
ENDBRANCH   1   2
BRANCH   1   5
ATOM      5  C   UNL     1     -25.822  24.725 -26.742  1.00  0.00     0.190 C 
BRANCH   5   6
ATOM      6  O   UNL     1     -24.646  25.417 -27.063  1.00  0.00    -0.394 OA
ATOM      7  H   UNL     1     -24.595  25.429 -28.054  1.00  0.00     0.210 HD
ENDBRANCH   5   6
ENDBRANCH   1   5
BRANCH   1   8
ATOM      8  O   UNL     1     -24.659  24.384 -24.668  1.00  0.00    -0.388 OA
ATOM      9  H   UNL     1     -23.990  24.849 -25.235  1.00  0.00     0.211 HD
ENDBRANCH   1   8
TORSDOF 5
ENDMDL
MODEL 3
REMARK VINA RESULT:    -2.839     10.302     11.507
REMARK INTER + INTRA:          -3.643
REMARK INTER:                  -3.422
REMARK INTRA:                  -0.221
REMARK UNBOUND:                -0.223
REMARK SMILES OCC(O)CO
REMARK SMILES IDX 3 1 5 2 6 3 2 5 1 6 4 8
REMARK H PARENT 6 4 1 7 4 9
REMARK Flexibility Score: inf
ROOT
ATOM      1  C   UNL     1     -24.364  20.817 -24.087  1.00  0.00     0.165 C 
ENDROOT
BRANCH   1   2
ATOM      2  C   UNL     1     -25.597  20.229 -23.378  1.00  0.00     0.190 C 
BRANCH   2   3
ATOM      3  O   UNL     1     -25.219  19.432 -22.286  1.00  0.00    -0.394 OA
ATOM      4  H   UNL     1     -24.888  20.047 -21.580  1.00  0.00     0.210 HD
ENDBRANCH   2   3
ENDBRANCH   1   2
BRANCH   1   5
ATOM      5  C   UNL     1     -23.862  19.916 -25.222  1.00  0.00     0.190 C 
BRANCH   5   6
ATOM      6  O   UNL     1     -23.982  18.564 -24.871  1.00  0.00    -0.394 OA
ATOM      7  H   UNL     1     -23.118  18.139 -25.111  1.00  0.00     0.210 HD
ENDBRANCH   5   6
ENDBRANCH   1   5
BRANCH   1   8
ATOM      8  O   UNL     1     -23.328  21.038 -23.166  1.00  0.00    -0.388 OA
ATOM      9  H   UNL     1     -22.806  20.195 -23.112  1.00  0.00     0.211 HD
ENDBRANCH   1   8
TORSDOF 5
ENDMDL
MODEL 4
REMARK VINA RESULT:    -2.819     10.492     11.877
REMARK INTER + INTRA:          -3.619
REMARK INTER:                  -3.494
REMARK INTRA:                  -0.125
REMARK UNBOUND:                -0.223
REMARK SMILES OCC(O)CO
REMARK SMILES IDX 3 1 5 2 6 3 2 5 1 6 4 8
REMARK H PARENT 6 4 1 7 4 9
REMARK Flexibility Score: inf
ROOT
ATOM      1  C   UNL     1     -25.250  20.262 -23.560  1.00  0.00     0.165 C 
ENDROOT
BRANCH   1   2
ATOM      2  C   UNL     1     -25.018  19.457 -24.851  1.00  0.00     0.190 C 
BRANCH   2   3
ATOM      3  O   UNL     1     -23.916  18.597 -24.720  1.00  0.00    -0.394 OA
ATOM      4  H   UNL     1     -24.277  17.680 -24.601  1.00  0.00     0.210 HD
ENDBRANCH   2   3
ENDBRANCH   1   2
BRANCH   1   5
ATOM      5  C   UNL     1     -24.259  21.424 -23.415  1.00  0.00     0.190 C 
BRANCH   5   6
ATOM      6  O   UNL     1     -23.138  21.030 -22.671  1.00  0.00    -0.394 OA
ATOM      7  H   UNL     1     -22.350  21.197 -23.251  1.00  0.00     0.210 HD
ENDBRANCH   5   6
ENDBRANCH   1   5
BRANCH   1   8
ATOM      8  O   UNL     1     -25.160  19.423 -22.437  1.00  0.00    -0.388 OA
ATOM      9  H   UNL     1     -25.582  19.910 -21.680  1.00  0.00     0.211 HD
ENDBRANCH   1   8
TORSDOF 5
ENDMDL
MODEL 5
REMARK VINA RESULT:    -2.814     12.759     13.699
REMARK INTER + INTRA:          -3.613
REMARK INTER:                  -3.390
REMARK INTRA:                  -0.223
REMARK UNBOUND:                -0.223
REMARK SMILES OCC(O)CO
REMARK SMILES IDX 3 1 5 2 6 3 2 5 1 6 4 8
REMARK H PARENT 6 4 1 7 4 9
REMARK Flexibility Score: inf
ROOT
ATOM      1  C   UNL     1     -25.884  23.567 -26.196  1.00  0.00     0.165 C 
ENDROOT
BRANCH   1   2
ATOM      2  C   UNL     1     -25.947  25.036 -26.653  1.00  0.00     0.190 C 
BRANCH   2   3
ATOM      3  O   UNL     1     -24.688  25.487 -27.078  1.00  0.00    -0.394 OA
ATOM      4  H   UNL     1     -24.806  26.423 -27.387  1.00  0.00     0.210 HD
ENDBRANCH   2   3
ENDBRANCH   1   2
BRANCH   1   5
ATOM      5  C   UNL     1     -25.482  23.435 -24.722  1.00  0.00     0.190 C 
BRANCH   5   6
ATOM      6  O   UNL     1     -24.613  24.469 -24.350  1.00  0.00    -0.394 OA
ATOM      7  H   UNL     1     -24.480  25.023 -25.163  1.00  0.00     0.210 HD
ENDBRANCH   5   6
ENDBRANCH   1   5
BRANCH   1   8
ATOM      8  O   UNL     1     -24.985  22.843 -26.997  1.00  0.00    -0.388 OA
ATOM      9  H   UNL     1     -25.398  22.767 -27.896  1.00  0.00     0.211 HD
ENDBRANCH   1   8
TORSDOF 5
ENDMDL
MODEL 6
REMARK VINA RESULT:    -2.802     12.887     13.764
REMARK INTER + INTRA:          -3.598
REMARK INTER:                  -3.374
REMARK INTRA:                  -0.224
REMARK UNBOUND:                -0.223
REMARK SMILES OCC(O)CO
REMARK SMILES IDX 3 1 5 2 6 3 2 5 1 6 4 8
REMARK H PARENT 6 4 1 7 4 9
REMARK Flexibility Score: inf
ROOT
ATOM      1  C   UNL     1     -26.520  24.780 -26.502  1.00  0.00     0.165 C 
ENDROOT
BRANCH   1   2
ATOM      2  C   UNL     1     -25.931  25.722 -27.567  1.00  0.00     0.190 C 
BRANCH   2   3
ATOM      3  O   UNL     1     -24.536  25.813 -27.447  1.00  0.00    -0.394 OA
ATOM      4  H   UNL     1     -24.244  26.570 -28.018  1.00  0.00     0.210 HD
ENDBRANCH   2   3
ENDBRANCH   1   2
BRANCH   1   5
ATOM      5  C   UNL     1     -25.486  23.772 -25.985  1.00  0.00     0.190 C 
BRANCH   5   6
ATOM      6  O   UNL     1     -25.023  22.957 -27.027  1.00  0.00    -0.394 OA
ATOM      7  H   UNL     1     -24.033  23.016 -27.004  1.00  0.00     0.210 HD
ENDBRANCH   5   6
ENDBRANCH   1   5
BRANCH   1   8
ATOM      8  O   UNL     1     -27.632  24.093 -27.016  1.00  0.00    -0.388 OA
ATOM      9  H   UNL     1     -27.690  24.321 -27.981  1.00  0.00     0.211 HD
ENDBRANCH   1   8
TORSDOF 5
ENDMDL
MODEL 7
REMARK VINA RESULT:    -2.794      9.973     10.713
REMARK INTER + INTRA:          -3.588
REMARK INTER:                  -3.370
REMARK INTRA:                  -0.218
REMARK UNBOUND:                -0.223
REMARK SMILES OCC(O)CO
REMARK SMILES IDX 3 1 5 2 6 3 2 5 1 6 4 8
REMARK H PARENT 6 4 1 7 4 9
REMARK Flexibility Score: inf
ROOT
ATOM      1  C   UNL     1     -24.650  19.756 -24.906  1.00  0.00     0.165 C 
ENDROOT
BRANCH   1   2
ATOM      2  C   UNL     1     -24.825  20.437 -23.537  1.00  0.00     0.190 C 
BRANCH   2   3
ATOM      3  O   UNL     1     -25.011  19.488 -22.520  1.00  0.00    -0.394 OA
ATOM      4  H   UNL     1     -25.847  18.996 -22.734  1.00  0.00     0.210 HD
ENDBRANCH   2   3
ENDBRANCH   1   2
BRANCH   1   5
ATOM      5  C   UNL     1     -25.989  19.549 -25.626  1.00  0.00     0.190 C 
BRANCH   5   6
ATOM      6  O   UNL     1     -26.898  18.876 -24.797  1.00  0.00    -0.394 OA
ATOM      7  H   UNL     1     -26.463  18.812 -23.907  1.00  0.00     0.210 HD
ENDBRANCH   5   6
ENDBRANCH   1   5
BRANCH   1   8
ATOM      8  O   UNL     1     -23.997  18.522 -24.760  1.00  0.00    -0.388 OA
ATOM      9  H   UNL     1     -23.183  18.690 -24.216  1.00  0.00     0.211 HD
ENDBRANCH   1   8
TORSDOF 5
ENDMDL
MODEL 8
REMARK VINA RESULT:    -2.780     13.234     14.106
REMARK INTER + INTRA:          -3.571
REMARK INTER:                  -3.349
REMARK INTRA:                  -0.223
REMARK UNBOUND:                -0.223
REMARK SMILES OCC(O)CO
REMARK SMILES IDX 3 1 5 2 6 3 2 5 1 6 4 8
REMARK H PARENT 6 4 1 7 4 9
REMARK Flexibility Score: inf
ROOT
ATOM      1  C   UNL     1     -26.377  24.866 -26.167  1.00  0.00     0.165 C 
ENDROOT
BRANCH   1   2
ATOM      2  C   UNL     1     -25.508  23.637 -25.849  1.00  0.00     0.190 C 
BRANCH   2   3
ATOM      3  O   UNL     1     -25.018  23.045 -27.024  1.00  0.00    -0.394 OA
ATOM      4  H   UNL     1     -25.623  23.322 -27.761  1.00  0.00     0.210 HD
ENDBRANCH   2   3
ENDBRANCH   1   2
BRANCH   1   5
ATOM      5  C   UNL     1     -25.950  25.557 -27.469  1.00  0.00     0.190 C 
BRANCH   5   6
ATOM      6  O   UNL     1     -24.587  25.880 -27.434  1.00  0.00    -0.394 OA
ATOM      7  H   UNL     1     -24.128  25.202 -27.995  1.00  0.00     0.210 HD
ENDBRANCH   5   6
ENDBRANCH   1   5
BRANCH   1   8
ATOM      8  O   UNL     1     -26.331  25.787 -25.108  1.00  0.00    -0.388 OA
ATOM      9  H   UNL     1     -26.356  25.259 -24.267  1.00  0.00     0.211 HD
ENDBRANCH   1   8
TORSDOF 5
ENDMDL
MODEL 9
REMARK VINA RESULT:    -2.726      1.250      1.728
REMARK INTER + INTRA:          -3.506
REMARK INTER:                  -3.300
REMARK INTRA:                  -0.207
REMARK UNBOUND:                -0.223
REMARK SMILES OCC(O)CO
REMARK SMILES IDX 3 1 5 2 6 3 2 5 1 6 4 8
REMARK H PARENT 6 4 1 7 4 9
REMARK Flexibility Score: inf
ROOT
ATOM      1  C   UNL     1     -23.140  12.889 -31.409  1.00  0.00     0.165 C 
ENDROOT
BRANCH   1   2
ATOM      2  C   UNL     1     -23.533  14.351 -31.128  1.00  0.00     0.190 C 
BRANCH   2   3
ATOM      3  O   UNL     1     -24.744  14.422 -30.422  1.00  0.00    -0.394 OA
ATOM      4  H   UNL     1     -24.537  14.221 -29.472  1.00  0.00     0.210 HD
ENDBRANCH   2   3
ENDBRANCH   1   2
BRANCH   1   5
ATOM      5  C   UNL     1     -23.764  12.360 -32.706  1.00  0.00     0.190 C 
BRANCH   5   6
ATOM      6  O   UNL     1     -25.157  12.264 -32.582  1.00  0.00    -0.394 OA
ATOM      7  H   UNL     1     -25.430  11.486 -33.134  1.00  0.00     0.210 HD
ENDBRANCH   5   6
ENDBRANCH   1   5
BRANCH   1   8
ATOM      8  O   UNL     1     -23.514  12.066 -30.334  1.00  0.00    -0.388 OA
ATOM      9  H   UNL     1     -24.223  12.550 -29.834  1.00  0.00     0.211 HD
ENDBRANCH   1   8
TORSDOF 5
ENDMDL
