MODEL 1
REMARK VINA RESULT:    -3.770      0.000      0.000
REMARK INTER + INTRA:          -4.438
REMARK INTER:                  -4.100
REMARK INTRA:                  -0.338
REMARK UNBOUND:                -0.338
REMARK SMILES CC1(C)CC[C@]2(C(=O)[O-])CC[C@]3(C)C(=CC[C@H]4[C@]5(C)CC[C@@H](O)C(C)(C)[C@@H]5CC[C@@]43C)[C@@H]2C1
REMARK SMILES IDX 6 1 5 2 10 3 32 4 4 5 11 6 14 7 33 8 2 9 12 10 15 11 1 12
REMARK SMILES IDX 3 13 13 14 30 15 16 16 17 17 29 18 31 19 18 20 28 21 27 22
REMARK SMILES IDX 20 23 19 24 24 25 21 26 22 27 25 28 26 29 7 30 8 31 9 32
REMARK SMILES IDX 23 33
REMARK H PARENT 23 34
REMARK Flexibility Score: inf
ROOT
ATOM      1  C   UNL     1     -41.329 -27.431  44.712  1.00  0.00     0.017 C 
ATOM      2  C   UNL     1     -40.143 -27.948  45.601  1.00  0.00     0.014 C 
ATOM      3  C   UNL     1     -40.750 -26.368  43.723  1.00  0.00     0.014 C 
ATOM      4  C   UNL     1     -42.478 -26.876  45.636  1.00  0.00     0.028 C 
ATOM      5  C   UNL     1     -40.627 -28.621  46.897  1.00  0.00     0.007 C 
ATOM      6  C   UNL     1     -41.783 -25.413  43.081  1.00  0.00     0.013 C 
ATOM      7  C   UNL     1     -43.368 -25.840  44.947  1.00  0.00    -0.064 C 
ATOM      8  C   UNL     1     -41.996 -26.434  47.035  1.00  0.00     0.015 C 
ATOM      9  C   UNL     1     -41.385 -27.626  47.837  1.00  0.00    -0.035 C 
ATOM     10  C   UNL     1     -42.733 -24.710  44.104  1.00  0.00    -0.006 C 
ATOM     11  C   UNL     1     -44.709 -26.075  44.966  1.00  0.00    -0.027 C 
ATOM     12  C   UNL     1     -40.412 -27.070  48.901  1.00  0.00     0.011 C 
ATOM     13  C   UNL     1     -42.503 -28.390  48.581  1.00  0.00     0.011 C 
ATOM     14  C   UNL     1     -41.856 -23.796  45.027  1.00  0.00     0.017 C 
ATOM     15  C   UNL     1     -43.883 -23.817  43.398  1.00  0.00    -0.020 C 
ATOM     16  C   UNL     1     -45.701 -25.484  43.993  1.00  0.00     0.032 C 
ATOM     17  C   UNL     1     -44.984 -24.793  42.818  1.00  0.00     0.006 C 
ATOM     18  C   UNL     1     -43.335 -22.879  42.263  1.00  0.00     0.008 C 
ATOM     19  C   UNL     1     -44.497 -22.875  44.507  1.00  0.00     0.012 C 
ATOM     20  C   UNL     1     -45.869 -24.216  41.630  1.00  0.00    -0.025 C 
ATOM     21  C   UNL     1     -43.468 -23.434  40.839  1.00  0.00     0.005 C 
ATOM     22  C   UNL     1     -44.903 -23.894  40.394  1.00  0.00     0.003 C 
ATOM     23  C   UNL     1     -47.055 -25.181  41.241  1.00  0.00     0.010 C 
ATOM     24  C   UNL     1     -46.606 -22.903  42.045  1.00  0.00     0.012 C 
ATOM     25  C   UNL     1     -44.816 -24.963  39.203  1.00  0.00    -0.006 C 
ATOM     26  C   UNL     1     -46.701 -26.281  40.258  1.00  0.00     0.033 C 
ATOM     27  C   UNL     1     -46.184 -25.655  38.958  1.00  0.00     0.120 C 
ATOM     28  C   UNL     1     -43.751 -26.084  39.417  1.00  0.00     0.014 C 
ATOM     29  C   UNL     1     -44.414 -24.227  37.895  1.00  0.00     0.014 C 
ENDROOT
BRANCH   1  30
ATOM     30  C   UNL     1     -41.908 -28.577  43.877  1.00  0.00     0.048 C 
ATOM     31  O   UNL     1     -41.326 -28.996  42.839  1.00  0.00    -0.550 OA
ATOM     32  O   UNL     1     -43.092 -29.190  44.269  1.00  0.00    -0.550 OA
ENDBRANCH   1  30
BRANCH  27  33
ATOM     33  O   UNL     1     -47.120 -24.733  38.450  1.00  0.00    -0.393 OA
ATOM     34  H   UNL     1     -47.790 -25.253  37.927  1.00  0.00     0.210 HD
ENDBRANCH  27  33
TORSDOF 2
ENDMDL
MODEL 2
REMARK VINA RESULT:    -3.677     13.196     14.960
REMARK INTER + INTRA:          -4.338
REMARK INTER:                  -3.986
REMARK INTRA:                  -0.351
REMARK UNBOUND:                -0.338
REMARK SMILES CC1(C)CC[C@]2(C(=O)[O-])CC[C@]3(C)C(=CC[C@H]4[C@]5(C)CC[C@@H](O)C(C)(C)[C@@H]5CC[C@@]43C)[C@@H]2C1
REMARK SMILES IDX 6 1 5 2 10 3 32 4 4 5 11 6 14 7 33 8 2 9 12 10 15 11 1 12
REMARK SMILES IDX 3 13 13 14 30 15 16 16 17 17 29 18 31 19 18 20 28 21 27 22
REMARK SMILES IDX 20 23 19 24 24 25 21 26 22 27 25 28 26 29 7 30 8 31 9 32
REMARK SMILES IDX 23 33
REMARK H PARENT 23 34
REMARK Flexibility Score: inf
ROOT
ATOM      1  C   UNL     1     -28.255 -27.752  44.422  1.00  0.00     0.017 C 
ATOM      2  C   UNL     1     -27.794 -28.236  45.843  1.00  0.00     0.014 C 
ATOM      3  C   UNL     1     -26.971 -27.539  43.555  1.00  0.00     0.014 C 
ATOM      4  C   UNL     1     -29.143 -26.459  44.568  1.00  0.00     0.028 C 
ATOM      5  C   UNL     1     -28.876 -28.033  46.916  1.00  0.00     0.007 C 
ATOM      6  C   UNL     1     -27.147 -26.649  42.303  1.00  0.00     0.013 C 
ATOM      7  C   UNL     1     -29.146 -25.577  43.318  1.00  0.00    -0.064 C 
ATOM      8  C   UNL     1     -28.887 -25.670  45.871  1.00  0.00     0.015 C 
ATOM      9  C   UNL     1     -29.221 -26.523  47.135  1.00  0.00    -0.035 C 
ATOM     10  C   UNL     1     -27.821 -25.267  42.583  1.00  0.00    -0.006 C 
ATOM     11  C   UNL     1     -30.363 -25.251  42.802  1.00  0.00    -0.027 C 
ATOM     12  C   UNL     1     -28.420 -25.974  48.338  1.00  0.00     0.011 C 
ATOM     13  C   UNL     1     -30.723 -26.394  47.478  1.00  0.00     0.011 C 
ATOM     14  C   UNL     1     -26.875 -24.452  43.531  1.00  0.00     0.017 C 
ATOM     15  C   UNL     1     -28.106 -24.411  41.241  1.00  0.00    -0.020 C 
ATOM     16  C   UNL     1     -30.607 -24.817  41.376  1.00  0.00     0.032 C 
ATOM     17  C   UNL     1     -29.357 -25.041  40.506  1.00  0.00     0.006 C 
ATOM     18  C   UNL     1     -26.875 -24.352  40.266  1.00  0.00     0.008 C 
ATOM     19  C   UNL     1     -28.405 -22.925  41.683  1.00  0.00     0.012 C 
ATOM     20  C   UNL     1     -29.465 -24.754  38.946  1.00  0.00    -0.025 C 
ATOM     21  C   UNL     1     -26.898 -25.376  39.125  1.00  0.00     0.005 C 
ATOM     22  C   UNL     1     -28.187 -25.400  38.227  1.00  0.00     0.003 C 
ATOM     23  C   UNL     1     -30.828 -25.259  38.335  1.00  0.00     0.010 C 
ATOM     24  C   UNL     1     -29.489 -23.222  38.642  1.00  0.00     0.012 C 
ATOM     25  C   UNL     1     -28.360 -26.824  37.514  1.00  0.00    -0.006 C 
ATOM     26  C   UNL     1     -30.855 -26.720  37.926  1.00  0.00     0.033 C 
ATOM     27  C   UNL     1     -29.769 -26.975  36.877  1.00  0.00     0.120 C 
ATOM     28  C   UNL     1     -28.134 -28.050  38.455  1.00  0.00     0.014 C 
ATOM     29  C   UNL     1     -27.308 -26.951  36.378  1.00  0.00     0.014 C 
ENDROOT
BRANCH   1  30
ATOM     30  C   UNL     1     -29.103 -28.831  43.741  1.00  0.00     0.048 C 
ATOM     31  O   UNL     1     -28.572 -29.792  43.121  1.00  0.00    -0.550 OA
ATOM     32  O   UNL     1     -30.489 -28.772  43.816  1.00  0.00    -0.550 OA
ENDBRANCH   1  30
BRANCH  27  33
ATOM     33  O   UNL     1     -29.916 -26.090  35.790  1.00  0.00    -0.393 OA
ATOM     34  H   UNL     1     -29.082 -26.148  35.250  1.00  0.00     0.210 HD
ENDBRANCH  27  33
TORSDOF 2
ENDMDL
MODEL 3
REMARK VINA RESULT:    -3.546     11.753     14.295
REMARK INTER + INTRA:          -4.195
REMARK INTER:                  -3.850
REMARK INTRA:                  -0.345
REMARK UNBOUND:                -0.338
REMARK SMILES CC1(C)CC[C@]2(C(=O)[O-])CC[C@]3(C)C(=CC[C@H]4[C@]5(C)CC[C@@H](O)C(C)(C)[C@@H]5CC[C@@]43C)[C@@H]2C1
REMARK SMILES IDX 6 1 5 2 10 3 32 4 4 5 11 6 14 7 33 8 2 9 12 10 15 11 1 12
REMARK SMILES IDX 3 13 13 14 30 15 16 16 17 17 29 18 31 19 18 20 28 21 27 22
REMARK SMILES IDX 20 23 19 24 24 25 21 26 22 27 25 28 26 29 7 30 8 31 9 32
REMARK SMILES IDX 23 33
REMARK H PARENT 23 34
REMARK Flexibility Score: inf
ROOT
ATOM      1  C   UNL     1     -31.463 -28.767  45.032  1.00  0.00     0.017 C 
ATOM      2  C   UNL     1     -31.996 -29.949  45.917  1.00  0.00     0.014 C 
ATOM      3  C   UNL     1     -30.392 -29.353  44.055  1.00  0.00     0.014 C 
ATOM      4  C   UNL     1     -30.913 -27.619  45.960  1.00  0.00     0.028 C 
ATOM      5  C   UNL     1     -32.681 -29.460  47.204  1.00  0.00     0.007 C 
ATOM      6  C   UNL     1     -29.425 -28.325  43.423  1.00  0.00     0.013 C 
ATOM      7  C   UNL     1     -29.865 -26.736  45.281  1.00  0.00    -0.064 C 
ATOM      8  C   UNL     1     -30.489 -28.101  47.364  1.00  0.00     0.015 C 
ATOM      9  C   UNL     1     -31.693 -28.705  48.154  1.00  0.00    -0.035 C 
ATOM     10  C   UNL     1     -28.729 -27.377  44.452  1.00  0.00    -0.006 C 
ATOM     11  C   UNL     1     -30.094 -25.393  45.296  1.00  0.00    -0.027 C 
ATOM     12  C   UNL     1     -31.153 -29.679  49.226  1.00  0.00     0.011 C 
ATOM     13  C   UNL     1     -32.459 -27.582  48.889  1.00  0.00     0.011 C 
ATOM     14  C   UNL     1     -27.830 -28.257  45.387  1.00  0.00     0.017 C 
ATOM     15  C   UNL     1     -27.823 -26.233  43.755  1.00  0.00    -0.020 C 
ATOM     16  C   UNL     1     -29.487 -24.405  44.328  1.00  0.00     0.032 C 
ATOM     17  C   UNL     1     -28.787 -25.127  43.162  1.00  0.00     0.006 C 
ATOM     18  C   UNL     1     -26.875 -26.787  42.631  1.00  0.00     0.008 C 
ATOM     19  C   UNL     1     -26.890 -25.622  44.873  1.00  0.00     0.012 C 
ATOM     20  C   UNL     1     -28.192 -24.247  41.980  1.00  0.00    -0.025 C 
ATOM     21  C   UNL     1     -27.413 -26.654  41.200  1.00  0.00     0.005 C 
ATOM     22  C   UNL     1     -27.861 -25.217  40.749  1.00  0.00     0.003 C 
ATOM     23  C   UNL     1     -29.147 -23.058  41.578  1.00  0.00     0.010 C 
ATOM     24  C   UNL     1     -26.881 -23.517  42.408  1.00  0.00     0.012 C 
ATOM     25  C   UNL     1     -28.917 -25.301  39.546  1.00  0.00    -0.006 C 
ATOM     26  C   UNL     1     -30.237 -23.407  40.583  1.00  0.00     0.033 C 
ATOM     27  C   UNL     1     -29.600 -23.929  39.291  1.00  0.00     0.120 C 
ATOM     28  C   UNL     1     -30.046 -26.360  39.748  1.00  0.00     0.014 C 
ATOM     29  C   UNL     1     -28.169 -25.708  38.246  1.00  0.00     0.014 C 
ENDROOT
BRANCH   1  30
ATOM     30  C   UNL     1     -32.597 -28.183  44.183  1.00  0.00     0.048 C 
ATOM     31  O   UNL     1     -33.260 -27.181  44.567  1.00  0.00    -0.550 OA
ATOM     32  O   UNL     1     -32.902 -28.750  42.952  1.00  0.00    -0.550 OA
ENDBRANCH   1  30
BRANCH  27  33
ATOM     33  O   UNL     1     -28.668 -22.998  38.792  1.00  0.00    -0.393 OA
ATOM     34  H   UNL     1     -28.580 -22.277  39.473  1.00  0.00     0.210 HD
ENDBRANCH  27  33
TORSDOF 2
ENDMDL
MODEL 4
REMARK VINA RESULT:    -3.522      1.900      3.076
REMARK INTER + INTRA:          -4.168
REMARK INTER:                  -3.819
REMARK INTRA:                  -0.349
REMARK UNBOUND:                -0.338
REMARK SMILES CC1(C)CC[C@]2(C(=O)[O-])CC[C@]3(C)C(=CC[C@H]4[C@]5(C)CC[C@@H](O)C(C)(C)[C@@H]5CC[C@@]43C)[C@@H]2C1
REMARK SMILES IDX 6 1 5 2 10 3 32 4 4 5 11 6 14 7 33 8 2 9 12 10 15 11 1 12
REMARK SMILES IDX 3 13 13 14 30 15 16 16 17 17 29 18 31 19 18 20 28 21 27 22
REMARK SMILES IDX 20 23 19 24 24 25 21 26 22 27 25 28 26 29 7 30 8 31 9 32
REMARK SMILES IDX 23 33
REMARK H PARENT 23 34
REMARK Flexibility Score: inf
ROOT
ATOM      1  C   UNL     1     -42.481 -25.758  44.474  1.00  0.00     0.017 C 
ATOM      2  C   UNL     1     -41.584 -25.341  45.693  1.00  0.00     0.014 C 
ATOM      3  C   UNL     1     -41.743 -25.313  43.169  1.00  0.00     0.014 C 
ATOM      4  C   UNL     1     -43.916 -25.128  44.635  1.00  0.00     0.028 C 
ATOM      5  C   UNL     1     -42.371 -25.282  47.012  1.00  0.00     0.007 C 
ATOM      6  C   UNL     1     -42.623 -25.208  41.902  1.00  0.00     0.013 C 
ATOM      7  C   UNL     1     -44.654 -24.945  43.308  1.00  0.00    -0.064 C 
ATOM      8  C   UNL     1     -43.949 -23.871  45.531  1.00  0.00     0.015 C 
ATOM      9  C   UNL     1     -43.492 -24.190  46.989  1.00  0.00    -0.035 C 
ATOM     10  C   UNL     1     -43.917 -24.352  42.085  1.00  0.00    -0.006 C 
ATOM     11  C   UNL     1     -45.899 -25.491  43.219  1.00  0.00    -0.027 C 
ATOM     12  C   UNL     1     -42.970 -22.893  47.648  1.00  0.00     0.011 C 
ATOM     13  C   UNL     1     -44.695 -24.685  47.823  1.00  0.00     0.011 C 
ATOM     14  C   UNL     1     -43.482 -22.879  42.400  1.00  0.00     0.017 C 
ATOM     15  C   UNL     1     -44.880 -24.363  40.785  1.00  0.00    -0.020 C 
ATOM     16  C   UNL     1     -46.595 -25.843  41.926  1.00  0.00     0.032 C 
ATOM     17  C   UNL     1     -45.628 -25.756  40.732  1.00  0.00     0.006 C 
ATOM     18  C   UNL     1     -44.111 -24.106  39.439  1.00  0.00     0.008 C 
ATOM     19  C   UNL     1     -45.911 -23.179  40.950  1.00  0.00     0.012 C 
ATOM     20  C   UNL     1     -46.154 -26.209  39.302  1.00  0.00    -0.025 C 
ATOM     21  C   UNL     1     -43.728 -25.369  38.656  1.00  0.00     0.005 C 
ATOM     22  C   UNL     1     -44.891 -26.375  38.331  1.00  0.00     0.003 C 
ATOM     23  C   UNL     1     -47.042 -27.509  39.374  1.00  0.00     0.010 C 
ATOM     24  C   UNL     1     -47.125 -25.153  38.684  1.00  0.00     0.012 C 
ATOM     25  C   UNL     1     -44.316 -27.850  38.082  1.00  0.00    -0.006 C 
ATOM     26  C   UNL     1     -46.278 -28.820  39.353  1.00  0.00     0.033 C 
ATOM     27  C   UNL     1     -45.453 -28.908  38.065  1.00  0.00     0.120 C 
ATOM     28  C   UNL     1     -43.254 -28.315  39.128  1.00  0.00     0.014 C 
ATOM     29  C   UNL     1     -43.609 -27.889  36.700  1.00  0.00     0.014 C 
ENDROOT
BRANCH   1  30
ATOM     30  C   UNL     1     -42.638 -27.281  44.424  1.00  0.00     0.048 C 
ATOM     31  O   UNL     1     -41.791 -28.012  43.840  1.00  0.00    -0.550 OA
ATOM     32  O   UNL     1     -43.722 -27.886  45.047  1.00  0.00    -0.550 OA
ENDBRANCH   1  30
BRANCH  27  33
ATOM     33  O   UNL     1     -46.279 -28.727  36.938  1.00  0.00    -0.393 OA
ATOM     34  H   UNL     1     -47.033 -28.141  37.219  1.00  0.00     0.210 HD
ENDBRANCH  27  33
TORSDOF 2
ENDMDL
MODEL 5
REMARK VINA RESULT:    -3.454      1.853      2.931
REMARK INTER + INTRA:          -4.094
REMARK INTER:                  -3.748
REMARK INTRA:                  -0.346
REMARK UNBOUND:                -0.338
REMARK SMILES CC1(C)CC[C@]2(C(=O)[O-])CC[C@]3(C)C(=CC[C@H]4[C@]5(C)CC[C@@H](O)C(C)(C)[C@@H]5CC[C@@]43C)[C@@H]2C1
REMARK SMILES IDX 6 1 5 2 10 3 32 4 4 5 11 6 14 7 33 8 2 9 12 10 15 11 1 12
REMARK SMILES IDX 3 13 13 14 30 15 16 16 17 17 29 18 31 19 18 20 28 21 27 22
REMARK SMILES IDX 20 23 19 24 24 25 21 26 22 27 25 28 26 29 7 30 8 31 9 32
REMARK SMILES IDX 23 33
REMARK H PARENT 23 34
REMARK Flexibility Score: inf
ROOT
ATOM      1  C   UNL     1     -42.624 -26.273  46.481  1.00  0.00     0.017 C 
ATOM      2  C   UNL     1     -41.887 -26.783  47.770  1.00  0.00     0.014 C 
ATOM      3  C   UNL     1     -42.118 -27.131  45.276  1.00  0.00     0.014 C 
ATOM      4  C   UNL     1     -42.374 -24.727  46.307  1.00  0.00     0.028 C 
ATOM      5  C   UNL     1     -41.920 -25.756  48.914  1.00  0.00     0.007 C 
ATOM      6  C   UNL     1     -42.352 -26.524  43.873  1.00  0.00     0.013 C 
ATOM      7  C   UNL     1     -42.502 -24.248  44.860  1.00  0.00    -0.064 C 
ATOM      8  C   UNL     1     -41.095 -24.219  47.008  1.00  0.00     0.015 C 
ATOM      9  C   UNL     1     -41.159 -24.437  48.553  1.00  0.00    -0.035 C 
ATOM     10  C   UNL     1     -41.846 -25.054  43.715  1.00  0.00    -0.006 C 
ATOM     11  C   UNL     1     -43.355 -23.212  44.632  1.00  0.00    -0.027 C 
ATOM     12  C   UNL     1     -39.720 -24.495  49.113  1.00  0.00     0.011 C 
ATOM     13  C   UNL     1     -41.874 -23.244  49.225  1.00  0.00     0.011 C 
ATOM     14  C   UNL     1     -40.289 -25.057  43.900  1.00  0.00     0.017 C 
ATOM     15  C   UNL     1     -42.216 -24.402  42.282  1.00  0.00    -0.020 C 
ATOM     16  C   UNL     1     -43.985 -22.892  43.296  1.00  0.00     0.032 C 
ATOM     17  C   UNL     1     -43.754 -24.031  42.286  1.00  0.00     0.006 C 
ATOM     18  C   UNL     1     -41.887 -25.341  41.066  1.00  0.00     0.008 C 
ATOM     19  C   UNL     1     -41.328 -23.108  42.107  1.00  0.00     0.012 C 
ATOM     20  C   UNL     1     -44.448 -23.924  40.860  1.00  0.00    -0.025 C 
ATOM     21  C   UNL     1     -43.071 -26.161  40.537  1.00  0.00     0.005 C 
ATOM     22  C   UNL     1     -44.366 -25.358  40.153  1.00  0.00     0.003 C 
ATOM     23  C   UNL     1     -45.923 -23.372  40.950  1.00  0.00     0.010 C 
ATOM     24  C   UNL     1     -43.735 -22.875  39.949  1.00  0.00     0.012 C 
ATOM     25  C   UNL     1     -45.659 -26.303  40.206  1.00  0.00    -0.006 C 
ATOM     26  C   UNL     1     -46.989 -24.413  41.236  1.00  0.00     0.033 C 
ATOM     27  C   UNL     1     -46.972 -25.476  40.134  1.00  0.00     0.120 C 
ATOM     28  C   UNL     1     -45.744 -27.214  41.471  1.00  0.00     0.014 C 
ATOM     29  C   UNL     1     -45.634 -27.262  38.983  1.00  0.00     0.014 C 
ENDROOT
BRANCH   1  30
ATOM     30  C   UNL     1     -44.135 -26.494  46.609  1.00  0.00     0.048 C 
ATOM     31  O   UNL     1     -44.655 -27.625  46.402  1.00  0.00    -0.550 OA
ATOM     32  O   UNL     1     -44.960 -25.439  46.977  1.00  0.00    -0.550 OA
ENDBRANCH   1  30
BRANCH  27  33
ATOM     33  O   UNL     1     -47.108 -24.874  38.867  1.00  0.00    -0.393 OA
ATOM     34  H   UNL     1     -47.992 -24.417  38.853  1.00  0.00     0.210 HD
ENDBRANCH  27  33
TORSDOF 2
ENDMDL
MODEL 6
REMARK VINA RESULT:    -3.442      2.214      7.314
REMARK INTER + INTRA:          -4.082
REMARK INTER:                  -3.744
REMARK INTRA:                  -0.338
REMARK UNBOUND:                -0.338
REMARK SMILES CC1(C)CC[C@]2(C(=O)[O-])CC[C@]3(C)C(=CC[C@H]4[C@]5(C)CC[C@@H](O)C(C)(C)[C@@H]5CC[C@@]43C)[C@@H]2C1
REMARK SMILES IDX 6 1 5 2 10 3 32 4 4 5 11 6 14 7 33 8 2 9 12 10 15 11 1 12
REMARK SMILES IDX 3 13 13 14 30 15 16 16 17 17 29 18 31 19 18 20 28 21 27 22
REMARK SMILES IDX 20 23 19 24 24 25 21 26 22 27 25 28 26 29 7 30 8 31 9 32
REMARK SMILES IDX 23 33
REMARK H PARENT 23 34
REMARK Flexibility Score: inf
ROOT
ATOM      1  C   UNL     1     -45.220 -24.275  40.609  1.00  0.00     0.017 C 
ATOM      2  C   UNL     1     -45.674 -23.812  39.179  1.00  0.00     0.014 C 
ATOM      3  C   UNL     1     -44.392 -23.109  41.242  1.00  0.00     0.014 C 
ATOM      4  C   UNL     1     -44.424 -25.630  40.497  1.00  0.00     0.028 C 
ATOM      5  C   UNL     1     -46.075 -24.990  38.277  1.00  0.00     0.007 C 
ATOM      6  C   UNL     1     -43.478 -23.501  42.427  1.00  0.00     0.013 C 
ATOM      7  C   UNL     1     -43.450 -25.862  41.653  1.00  0.00    -0.064 C 
ATOM      8  C   UNL     1     -43.792 -25.869  39.108  1.00  0.00     0.015 C 
ATOM      9  C   UNL     1     -44.876 -25.954  37.988  1.00  0.00    -0.035 C 
ATOM     10  C   UNL     1     -42.537 -24.715  42.141  1.00  0.00    -0.006 C 
ATOM     11  C   UNL     1     -43.568 -27.041  42.325  1.00  0.00    -0.027 C 
ATOM     12  C   UNL     1     -44.229 -25.590  36.633  1.00  0.00     0.011 C 
ATOM     13  C   UNL     1     -45.408 -27.400  37.877  1.00  0.00     0.011 C 
ATOM     14  C   UNL     1     -41.554 -24.303  40.991  1.00  0.00     0.017 C 
ATOM     15  C   UNL     1     -41.685 -25.182  43.435  1.00  0.00    -0.020 C 
ATOM     16  C   UNL     1     -43.072 -27.286  43.730  1.00  0.00     0.032 C 
ATOM     17  C   UNL     1     -42.652 -25.969  44.408  1.00  0.00     0.006 C 
ATOM     18  C   UNL     1     -41.002 -23.988  44.195  1.00  0.00     0.008 C 
ATOM     19  C   UNL     1     -40.521 -26.118  42.923  1.00  0.00     0.012 C 
ATOM     20  C   UNL     1     -42.214 -26.016  45.936  1.00  0.00    -0.025 C 
ATOM     21  C   UNL     1     -41.777 -23.459  45.408  1.00  0.00     0.005 C 
ATOM     22  C   UNL     1     -42.187 -24.515  46.496  1.00  0.00     0.003 C 
ATOM     23  C   UNL     1     -43.131 -26.970  46.794  1.00  0.00     0.010 C 
ATOM     24  C   UNL     1     -40.794 -26.641  46.110  1.00  0.00     0.012 C 
ATOM     25  C   UNL     1     -43.446 -24.002  47.345  1.00  0.00    -0.006 C 
ATOM     26  C   UNL     1     -44.407 -26.343  47.323  1.00  0.00     0.033 C 
ATOM     27  C   UNL     1     -44.055 -25.142  48.206  1.00  0.00     0.120 C 
ATOM     28  C   UNL     1     -44.599 -23.391  46.487  1.00  0.00     0.014 C 
ATOM     29  C   UNL     1     -42.979 -22.875  48.308  1.00  0.00     0.014 C 
ENDROOT
BRANCH   1  30
ATOM     30  C   UNL     1     -46.440 -24.518  41.503  1.00  0.00     0.048 C 
ATOM     31  O   UNL     1     -47.074 -23.561  42.027  1.00  0.00    -0.550 OA
ATOM     32  O   UNL     1     -46.880 -25.815  41.736  1.00  0.00    -0.550 OA
ENDBRANCH   1  30
BRANCH  27  33
ATOM     33  O   UNL     1     -43.159 -25.524  49.224  1.00  0.00    -0.393 OA
ATOM     34  H   UNL     1     -42.860 -26.451  49.018  1.00  0.00     0.210 HD
ENDBRANCH  27  33
TORSDOF 2
ENDMDL
