MODEL 1
REMARK VINA RESULT:    -2.380      0.000      0.000
REMARK INTER + INTRA:          -6.364
REMARK INTER:                  -5.442
REMARK INTRA:                  -0.923
REMARK UNBOUND:                -0.923
REMARK SMILES CCCCCCCCCCCCCCCCCCCCCCCC(=O)[O-]
REMARK SMILES IDX 13 1 14 2 15 3 16 4 17 5 18 6 19 7 20 8 21 9 22 10 23 11
REMARK SMILES IDX 24 12 25 13 26 14 12 15 11 16 10 17 9 18 8 19 7 20 6 21 5 22
REMARK SMILES IDX 4 23 3 24 2 25 1 26
REMARK H PARENT
REMARK Flexibility Score: inf
ROOT
ATOM      1  C   UNL     1      46.407  11.995 -28.803  1.00  0.00     0.000 C 
ENDROOT
BRANCH   1   2
ATOM      2  C   UNL     1      45.537  11.875 -27.546  1.00  0.00     0.000 C 
BRANCH   2   3
ATOM      3  C   UNL     1      46.385  12.019 -26.273  1.00  0.00     0.000 C 
BRANCH   3   4
ATOM      4  C   UNL     1      45.545  11.915 -24.983  1.00  0.00     0.000 C 
BRANCH   4   5
ATOM      5  C   UNL     1      44.868  13.236 -24.571  1.00  0.00     0.000 C 
BRANCH   5   6
ATOM      6  C   UNL     1      45.177  13.712 -23.138  1.00  0.00     0.000 C 
BRANCH   6   7
ATOM      7  C   UNL     1      46.407  14.629 -23.005  1.00  0.00     0.000 C 
BRANCH   7   8
ATOM      8  C   UNL     1      46.127  16.076 -23.436  1.00  0.00     0.000 C 
BRANCH   8   9
ATOM      9  C   UNL     1      46.628  17.070 -22.377  1.00  0.00     0.000 C 
BRANCH   9  10
ATOM     10  C   UNL     1      46.463  18.539 -22.811  1.00  0.00     0.006 C 
BRANCH  10  11
ATOM     11  C   UNL     1      47.449  18.994 -23.900  1.00  0.00     0.053 C 
BRANCH  11  12
ATOM     12  C   UNL     1      46.753  19.658 -25.047  1.00  0.00     0.041 C 
ATOM     13  O   UNL     1      47.337  20.557 -25.708  1.00  0.00    -0.550 OA
ATOM     14  O   UNL     1      45.478  19.247 -25.420  1.00  0.00    -0.550 OA
ENDBRANCH  11  12
ENDBRANCH  10  11
ENDBRANCH   9  10
ENDBRANCH   8   9
ENDBRANCH   7   8
ENDBRANCH   6   7
ENDBRANCH   5   6
ENDBRANCH   4   5
ENDBRANCH   3   4
ENDBRANCH   2   3
ENDBRANCH   1   2
BRANCH   1  15
ATOM     15  C   UNL     1      45.681  12.792 -29.898  1.00  0.00     0.000 C 
BRANCH  15  16
ATOM     16  C   UNL     1      46.007  12.288 -31.313  1.00  0.00     0.000 C 
BRANCH  16  17
ATOM     17  C   UNL     1      45.415  13.191 -32.409  1.00  0.00     0.000 C 
BRANCH  17  18
ATOM     18  C   UNL     1      45.170  12.441 -33.729  1.00  0.00    -0.000 C 
BRANCH  18  19
ATOM     19  C   UNL     1      43.744  12.645 -34.272  1.00  0.00    -0.000 C 
BRANCH  19  20
ATOM     20  C   UNL     1      43.495  11.878 -35.581  1.00  0.00    -0.000 C 
BRANCH  20  21
ATOM     21  C   UNL     1      42.067  12.078 -36.119  1.00  0.00    -0.000 C 
BRANCH  21  22
ATOM     22  C   UNL     1      41.689  13.562 -36.270  1.00  0.00    -0.000 C 
BRANCH  22  23
ATOM     23  C   UNL     1      40.347  13.903 -35.601  1.00  0.00    -0.000 C 
BRANCH  23  24
ATOM     24  C   UNL     1      39.184  13.058 -36.147  1.00  0.00    -0.000 C 
BRANCH  24  25
ATOM     25  C   UNL     1      37.818  13.727 -35.934  1.00  0.00    -0.003 C 
ATOM     26  C   UNL     1      37.863  14.713 -34.770  1.00  0.00     0.004 C 
ENDBRANCH  24  25
ENDBRANCH  23  24
ENDBRANCH  22  23
ENDBRANCH  21  22
ENDBRANCH  20  21
ENDBRANCH  19  20
ENDBRANCH  18  19
ENDBRANCH  17  18
ENDBRANCH  16  17
ENDBRANCH  15  16
ENDBRANCH   1  15
TORSDOF 22
ENDMDL
MODEL 2
REMARK VINA RESULT:    -0.768      3.386      3.777
REMARK INTER + INTRA:          -2.679
REMARK INTER:                  -1.915
REMARK INTRA:                  -0.764
REMARK UNBOUND:                -0.923
REMARK SMILES CCCCCCCCCCCCCCCCCCCCCCCC(=O)[O-]
REMARK SMILES IDX 13 1 14 2 15 3 16 4 17 5 18 6 19 7 20 8 21 9 22 10 23 11
REMARK SMILES IDX 24 12 25 13 26 14 12 15 11 16 10 17 9 18 8 19 7 20 6 21 5 22
REMARK SMILES IDX 4 23 3 24 2 25 1 26
REMARK H PARENT
REMARK Flexibility Score: inf
ROOT
ATOM      1  C   UNL     1      46.253  11.901 -28.588  1.00  0.00     0.000 C 
ENDROOT
BRANCH   1   2
ATOM      2  C   UNL     1      45.355  12.429 -27.462  1.00  0.00     0.000 C 
BRANCH   2   3
ATOM      3  C   UNL     1      45.809  11.891 -26.096  1.00  0.00     0.000 C 
BRANCH   3   4
ATOM      4  C   UNL     1      44.775  12.151 -24.981  1.00  0.00     0.000 C 
BRANCH   4   5
ATOM      5  C   UNL     1      45.365  12.825 -23.728  1.00  0.00     0.000 C 
BRANCH   5   6
ATOM      6  C   UNL     1      46.095  14.158 -23.981  1.00  0.00     0.000 C 
BRANCH   6   7
ATOM      7  C   UNL     1      46.317  15.029 -22.731  1.00  0.00     0.000 C 
BRANCH   7   8
ATOM      8  C   UNL     1      47.433  14.498 -21.820  1.00  0.00     0.000 C 
BRANCH   8   9
ATOM      9  C   UNL     1      48.369  15.633 -21.378  1.00  0.00     0.000 C 
BRANCH   9  10
ATOM     10  C   UNL     1      49.505  15.149 -20.458  1.00  0.00     0.006 C 
BRANCH  10  11
ATOM     11  C   UNL     1      50.887  15.093 -21.132  1.00  0.00     0.053 C 
BRANCH  11  12
ATOM     12  C   UNL     1      51.927  14.500 -20.233  1.00  0.00     0.041 C 
ATOM     13  O   UNL     1      52.211  13.276 -20.313  1.00  0.00    -0.550 OA
ATOM     14  O   UNL     1      52.623  15.311 -19.343  1.00  0.00    -0.550 OA
ENDBRANCH  11  12
ENDBRANCH  10  11
ENDBRANCH   9  10
ENDBRANCH   8   9
ENDBRANCH   7   8
ENDBRANCH   6   7
ENDBRANCH   5   6
ENDBRANCH   4   5
ENDBRANCH   3   4
ENDBRANCH   2   3
ENDBRANCH   1   2
BRANCH   1  15
ATOM     15  C   UNL     1      45.500  11.879 -29.926  1.00  0.00     0.000 C 
BRANCH  15  16
ATOM     16  C   UNL     1      46.374  12.328 -31.107  1.00  0.00     0.000 C 
BRANCH  16  17
ATOM     17  C   UNL     1      45.671  13.366 -31.999  1.00  0.00     0.000 C 
BRANCH  17  18
ATOM     18  C   UNL     1      45.431  12.855 -33.429  1.00  0.00    -0.000 C 
BRANCH  18  19
ATOM     19  C   UNL     1      43.993  12.350 -33.645  1.00  0.00    -0.000 C 
BRANCH  19  20
ATOM     20  C   UNL     1      43.672  12.098 -35.128  1.00  0.00    -0.000 C 
BRANCH  20  21
ATOM     21  C   UNL     1      42.167  12.211 -35.432  1.00  0.00    -0.000 C 
BRANCH  21  22
ATOM     22  C   UNL     1      41.687  13.668 -35.539  1.00  0.00    -0.000 C 
BRANCH  22  23
ATOM     23  C   UNL     1      40.574  13.851 -36.584  1.00  0.00    -0.000 C 
BRANCH  23  24
ATOM     24  C   UNL     1      39.186  13.474 -36.039  1.00  0.00    -0.000 C 
BRANCH  24  25
ATOM     25  C   UNL     1      38.395  14.694 -35.544  1.00  0.00    -0.003 C 
ATOM     26  C   UNL     1      37.354  14.291 -34.505  1.00  0.00     0.004 C 
ENDBRANCH  24  25
ENDBRANCH  23  24
ENDBRANCH  22  23
ENDBRANCH  21  22
ENDBRANCH  20  21
ENDBRANCH  19  20
ENDBRANCH  18  19
ENDBRANCH  17  18
ENDBRANCH  16  17
ENDBRANCH  15  16
ENDBRANCH   1  15
TORSDOF 22
ENDMDL
MODEL 3
REMARK VINA RESULT:     0.449      3.150      6.357
REMARK INTER + INTRA:           0.103
REMARK INTER:                   0.599
REMARK INTRA:                  -0.496
REMARK UNBOUND:                -0.923
REMARK SMILES CCCCCCCCCCCCCCCCCCCCCCCC(=O)[O-]
REMARK SMILES IDX 13 1 14 2 15 3 16 4 17 5 18 6 19 7 20 8 21 9 22 10 23 11
REMARK SMILES IDX 24 12 25 13 26 14 12 15 11 16 10 17 9 18 8 19 7 20 6 21 5 22
REMARK SMILES IDX 4 23 3 24 2 25 1 26
REMARK H PARENT
REMARK Flexibility Score: inf
ROOT
ATOM      1  C   UNL     1      44.203  13.194 -34.991  1.00  0.00     0.000 C 
ENDROOT
BRANCH   1   2
ATOM      2  C   UNL     1      45.531  12.443 -34.831  1.00  0.00     0.000 C 
BRANCH   2   3
ATOM      3  C   UNL     1      45.864  12.222 -33.348  1.00  0.00     0.000 C 
BRANCH   3   4
ATOM      4  C   UNL     1      45.631  13.485 -32.491  1.00  0.00     0.000 C 
BRANCH   4   5
ATOM      5  C   UNL     1      45.628  13.218 -30.975  1.00  0.00     0.000 C 
BRANCH   5   6
ATOM      6  C   UNL     1      46.572  12.094 -30.504  1.00  0.00     0.000 C 
BRANCH   6   7
ATOM      7  C   UNL     1      46.907  12.109 -29.002  1.00  0.00     0.000 C 
BRANCH   7   8
ATOM      8  C   UNL     1      45.788  12.713 -28.142  1.00  0.00     0.000 C 
BRANCH   8   9
ATOM      9  C   UNL     1      45.579  11.895 -26.858  1.00  0.00     0.000 C 
BRANCH   9  10
ATOM     10  C   UNL     1      46.680  12.138 -25.808  1.00  0.00     0.006 C 
BRANCH  10  11
ATOM     11  C   UNL     1      46.183  12.794 -24.508  1.00  0.00     0.053 C 
BRANCH  11  12
ATOM     12  C   UNL     1      44.720  13.108 -24.561  1.00  0.00     0.041 C 
ATOM     13  O   UNL     1      44.321  14.292 -24.411  1.00  0.00    -0.550 OA
ATOM     14  O   UNL     1      43.801  12.100 -24.827  1.00  0.00    -0.550 OA
ENDBRANCH  11  12
ENDBRANCH  10  11
ENDBRANCH   9  10
ENDBRANCH   8   9
ENDBRANCH   7   8
ENDBRANCH   6   7
ENDBRANCH   5   6
ENDBRANCH   4   5
ENDBRANCH   3   4
ENDBRANCH   2   3
ENDBRANCH   1   2
BRANCH   1  15
ATOM     15  C   UNL     1      43.010  12.246 -34.802  1.00  0.00     0.000 C 
BRANCH  15  16
ATOM     16  C   UNL     1      41.872  12.517 -35.799  1.00  0.00     0.000 C 
BRANCH  16  17
ATOM     17  C   UNL     1      40.615  13.084 -35.118  1.00  0.00     0.000 C 
BRANCH  17  18
ATOM     18  C   UNL     1      40.076  14.341 -35.820  1.00  0.00    -0.000 C 
BRANCH  18  19
ATOM     19  C   UNL     1      38.624  14.174 -36.302  1.00  0.00    -0.000 C 
BRANCH  19  20
ATOM     20  C   UNL     1      37.923  12.965 -35.661  1.00  0.00    -0.000 C 
BRANCH  20  21
ATOM     21  C   UNL     1      37.338  13.289 -34.275  1.00  0.00    -0.000 C 
BRANCH  21  22
ATOM     22  C   UNL     1      37.143  12.039 -33.402  1.00  0.00    -0.000 C 
BRANCH  22  23
ATOM     23  C   UNL     1      36.889  12.381 -31.924  1.00  0.00    -0.000 C 
BRANCH  23  24
ATOM     24  C   UNL     1      36.923  13.894 -31.656  1.00  0.00    -0.000 C 
BRANCH  24  25
ATOM     25  C   UNL     1      37.424  14.232 -30.243  1.00  0.00    -0.003 C 
ATOM     26  C   UNL     1      36.924  13.213 -29.224  1.00  0.00     0.004 C 
ENDBRANCH  24  25
ENDBRANCH  23  24
ENDBRANCH  22  23
ENDBRANCH  21  22
ENDBRANCH  20  21
ENDBRANCH  19  20
ENDBRANCH  18  19
ENDBRANCH  17  18
ENDBRANCH  16  17
ENDBRANCH  15  16
ENDBRANCH   1  15
TORSDOF 22
ENDMDL
