MODEL 1
REMARK VINA RESULT:    -4.682      0.000      0.000
REMARK INTER + INTRA:          -4.819
REMARK INTER:                  -4.819
REMARK INTRA:                   0.000
REMARK UNBOUND:                 0.000
REMARK SMILES Nc1ncnc2nc[nH]c12
REMARK SMILES IDX 8 1 7 2 6 3 5 4 4 5 3 6 2 7 10 8 9 9 1 11
REMARK H PARENT 9 10 1 12 1 13
REMARK Flexibility Score: inf
ROOT
ATOM      1  C   UNL     1      96.459  76.875  86.508  1.00  0.00     0.199 A 
ATOM      2  N   UNL     1      97.171  76.959  85.351  1.00  0.00    -0.217 NA
ATOM      3  C   UNL     1      97.112  78.272  85.075  1.00  0.00     0.182 A 
ATOM      4  N   UNL     1      97.669  78.901  84.012  1.00  0.00    -0.215 NA
ATOM      5  C   UNL     1      97.500  80.253  83.901  1.00  0.00     0.226 A 
ATOM      6  N   UNL     1      96.785  80.946  84.845  1.00  0.00    -0.217 NA
ATOM      7  C   UNL     1      96.224  80.314  85.918  1.00  0.00     0.152 A 
ATOM      8  C   UNL     1      96.404  78.937  86.017  1.00  0.00     0.127 A 
ATOM      9  N   UNL     1      95.977  78.068  86.941  1.00  0.00    -0.340 N 
ATOM     10  H   UNL     1      95.408  78.251  87.796  1.00  0.00     0.168 HD
ENDROOT
BRANCH   7  11
ATOM     11  N   UNL     1      95.484  81.056  86.889  1.00  0.00    -0.382 N 
ATOM     12  H   UNL     1      94.492  81.331  86.722  1.00  0.00     0.158 HD
ATOM     13  H   UNL     1      95.935  81.334  87.789  1.00  0.00     0.158 HD
ENDBRANCH   7  11
TORSDOF 1
ENDMDL
MODEL 2
REMARK VINA RESULT:    -4.043     14.370     15.871
REMARK INTER + INTRA:          -4.161
REMARK INTER:                  -4.161
REMARK INTRA:                   0.000
REMARK UNBOUND:                 0.000
REMARK SMILES Nc1ncnc2nc[nH]c12
REMARK SMILES IDX 8 1 7 2 6 3 5 4 4 5 3 6 2 7 10 8 9 9 1 11
REMARK H PARENT 9 10 1 12 1 13
REMARK Flexibility Score: inf
ROOT
ATOM      1  C   UNL     1     102.942  90.810  86.058  1.00  0.00     0.199 A 
ATOM      2  N   UNL     1     102.396  92.033  86.299  1.00  0.00    -0.217 NA
ATOM      3  C   UNL     1     103.484  92.799  86.485  1.00  0.00     0.182 A 
ATOM      4  N   UNL     1     103.501  94.125  86.761  1.00  0.00    -0.215 NA
ATOM      5  C   UNL     1     104.715  94.736  86.918  1.00  0.00     0.226 A 
ATOM      6  N   UNL     1     105.877  94.017  86.797  1.00  0.00    -0.217 NA
ATOM      7  C   UNL     1     105.861  92.679  86.518  1.00  0.00     0.152 A 
ATOM      8  C   UNL     1     104.618  92.073  86.362  1.00  0.00     0.127 A 
ATOM      9  N   UNL     1     104.299  90.801  86.090  1.00  0.00    -0.340 N 
ATOM     10  H   UNL     1     104.933  89.987  85.936  1.00  0.00     0.168 HD
ENDROOT
BRANCH   7  11
ATOM     11  N   UNL     1     107.084  91.952  86.397  1.00  0.00    -0.382 N 
ATOM     12  H   UNL     1     107.386  91.269  87.127  1.00  0.00     0.158 HD
ATOM     13  H   UNL     1     107.698  92.097  85.565  1.00  0.00     0.158 HD
ENDBRANCH   7  11
TORSDOF 1
ENDMDL
MODEL 3
REMARK VINA RESULT:    -4.035     19.598     20.833
REMARK INTER + INTRA:          -4.153
REMARK INTER:                  -4.153
REMARK INTRA:                   0.000
REMARK UNBOUND:                 0.000
REMARK SMILES Nc1ncnc2nc[nH]c12
REMARK SMILES IDX 8 1 7 2 6 3 5 4 4 5 3 6 2 7 10 8 9 9 1 11
REMARK H PARENT 9 10 1 12 1 13
REMARK Flexibility Score: inf
ROOT
ATOM      1  C   UNL     1     106.006  92.976  96.362  1.00  0.00     0.199 A 
ATOM      2  N   UNL     1     106.594  93.657  97.382  1.00  0.00    -0.217 NA
ATOM      3  C   UNL     1     106.938  92.669  98.224  1.00  0.00     0.182 A 
ATOM      4  N   UNL     1     107.566  92.805  99.417  1.00  0.00    -0.215 NA
ATOM      5  C   UNL     1     107.834  91.673 100.137  1.00  0.00     0.226 A 
ATOM      6  N   UNL     1     107.474  90.440  99.657  1.00  0.00    -0.217 NA
ATOM      7  C   UNL     1     106.842  90.301  98.453  1.00  0.00     0.152 A 
ATOM      8  C   UNL     1     106.575  91.462  97.732  1.00  0.00     0.127 A 
ATOM      9  N   UNL     1     105.979  91.632  96.546  1.00  0.00    -0.340 N 
ATOM     10  H   UNL     1     105.582  90.910  95.905  1.00  0.00     0.168 HD
ENDROOT
BRANCH   7  11
ATOM     11  N   UNL     1     106.477  89.006  97.973  1.00  0.00    -0.382 N 
ATOM     12  H   UNL     1     107.177  88.374  97.529  1.00  0.00     0.158 HD
ATOM     13  H   UNL     1     105.490  88.675  98.063  1.00  0.00     0.158 HD
ENDBRANCH   7  11
TORSDOF 1
ENDMDL
MODEL 4
REMARK VINA RESULT:    -3.860     17.111     18.303
REMARK INTER + INTRA:          -3.973
REMARK INTER:                  -3.973
REMARK INTRA:                   0.000
REMARK UNBOUND:                 0.000
REMARK SMILES Nc1ncnc2nc[nH]c12
REMARK SMILES IDX 8 1 7 2 6 3 5 4 4 5 3 6 2 7 10 8 9 9 1 11
REMARK H PARENT 9 10 1 12 1 13
REMARK Flexibility Score: inf
ROOT
ATOM      1  C   UNL     1      97.066  92.976  95.496  1.00  0.00     0.199 A 
ATOM      2  N   UNL     1      98.251  93.075  94.834  1.00  0.00    -0.217 NA
ATOM      3  C   UNL     1      99.138  93.107  95.841  1.00  0.00     0.182 A 
ATOM      4  N   UNL     1     100.485  93.202  95.729  1.00  0.00    -0.215 NA
ATOM      5  C   UNL     1     101.229  93.220  96.877  1.00  0.00     0.226 A 
ATOM      6  N   UNL     1     100.619  93.143  98.103  1.00  0.00    -0.217 NA
ATOM      7  C   UNL     1      99.260  93.046  98.218  1.00  0.00     0.152 A 
ATOM      8  C   UNL     1      98.518  93.030  97.041  1.00  0.00     0.127 A 
ATOM      9  N   UNL     1      97.196  92.945  96.847  1.00  0.00    -0.340 N 
ATOM     10  H   UNL     1      96.435  92.873  97.557  1.00  0.00     0.168 HD
ENDROOT
BRANCH   7  11
ATOM     11  N   UNL     1      98.647  92.967  99.506  1.00  0.00    -0.382 N 
ATOM     12  H   UNL     1      98.282  92.064  99.879  1.00  0.00     0.158 HD
ATOM     13  H   UNL     1      98.557  93.825 100.095  1.00  0.00     0.158 HD
ENDBRANCH   7  11
TORSDOF 1
ENDMDL
MODEL 5
REMARK VINA RESULT:    -3.824     18.143     19.143
REMARK INTER + INTRA:          -3.936
REMARK INTER:                  -3.936
REMARK INTRA:                   0.000
REMARK UNBOUND:                 0.000
REMARK SMILES Nc1ncnc2nc[nH]c12
REMARK SMILES IDX 8 1 7 2 6 3 5 4 4 5 3 6 2 7 10 8 9 9 1 11
REMARK H PARENT 9 10 1 12 1 13
REMARK Flexibility Score: inf
ROOT
ATOM      1  C   UNL     1     109.954  91.534  84.632  1.00  0.00     0.199 A 
ATOM      2  N   UNL     1     108.888  92.078  85.280  1.00  0.00    -0.217 NA
ATOM      3  C   UNL     1     109.373  92.269  86.517  1.00  0.00     0.182 A 
ATOM      4  N   UNL     1     108.709  92.797  87.574  1.00  0.00    -0.215 NA
ATOM      5  C   UNL     1     109.376  92.913  88.762  1.00  0.00     0.226 A 
ATOM      6  N   UNL     1     110.682  92.506  88.871  1.00  0.00    -0.217 NA
ATOM      7  C   UNL     1     111.353  91.975  87.806  1.00  0.00     0.152 A 
ATOM      8  C   UNL     1     110.661  91.863  86.604  1.00  0.00     0.127 A 
ATOM      9  N   UNL     1     111.053  91.389  85.415  1.00  0.00    -0.340 N 
ATOM     10  H   UNL     1     111.981  90.999  85.141  1.00  0.00     0.168 HD
ENDROOT
BRANCH   7  11
ATOM     11  N   UNL     1     112.712  91.558  87.944  1.00  0.00    -0.382 N 
ATOM     12  H   UNL     1     113.498  92.242  87.894  1.00  0.00     0.158 HD
ATOM     13  H   UNL     1     112.936  90.549  88.097  1.00  0.00     0.158 HD
ENDBRANCH   7  11
TORSDOF 1
ENDMDL
MODEL 6
REMARK VINA RESULT:    -3.811     15.378     16.923
REMARK INTER + INTRA:          -3.923
REMARK INTER:                  -3.923
REMARK INTRA:                   0.000
REMARK UNBOUND:                 0.000
REMARK SMILES Nc1ncnc2nc[nH]c12
REMARK SMILES IDX 8 1 7 2 6 3 5 4 4 5 3 6 2 7 10 8 9 9 1 11
REMARK H PARENT 9 10 1 12 1 13
REMARK Flexibility Score: inf
ROOT
ATOM      1  C   UNL     1      99.406  93.010  94.739  1.00  0.00     0.199 A 
ATOM      2  N   UNL     1     100.460  93.383  95.514  1.00  0.00    -0.217 NA
ATOM      3  C   UNL     1     101.510  93.072  94.736  1.00  0.00     0.182 A 
ATOM      4  N   UNL     1     102.819  93.245  95.037  1.00  0.00    -0.215 NA
ATOM      5  C   UNL     1     103.751  92.865  94.111  1.00  0.00     0.226 A 
ATOM      6  N   UNL     1     103.360  92.325  92.912  1.00  0.00    -0.217 NA
ATOM      7  C   UNL     1     102.040  92.150  92.606  1.00  0.00     0.152 A 
ATOM      8  C   UNL     1     101.104  92.542  93.559  1.00  0.00     0.127 A 
ATOM      9  N   UNL     1      99.767  92.492  93.538  1.00  0.00    -0.340 N 
ATOM     10  H   UNL     1      99.138  92.140  92.782  1.00  0.00     0.168 HD
ENDROOT
BRANCH   7  11
ATOM     11  N   UNL     1     101.657  91.586  91.351  1.00  0.00    -0.382 N 
ATOM     12  H   UNL     1     102.246  91.706  90.498  1.00  0.00     0.158 HD
ATOM     13  H   UNL     1     100.770  91.040  91.272  1.00  0.00     0.158 HD
ENDBRANCH   7  11
TORSDOF 1
ENDMDL
MODEL 7
REMARK VINA RESULT:    -3.797     17.243     18.186
REMARK INTER + INTRA:          -3.908
REMARK INTER:                  -3.908
REMARK INTRA:                   0.000
REMARK UNBOUND:                 0.000
REMARK SMILES Nc1ncnc2nc[nH]c12
REMARK SMILES IDX 8 1 7 2 6 3 5 4 4 5 3 6 2 7 10 8 9 9 1 11
REMARK H PARENT 9 10 1 12 1 13
REMARK Flexibility Score: inf
ROOT
ATOM      1  C   UNL     1     101.578  93.076  96.193  1.00  0.00     0.199 A 
ATOM      2  N   UNL     1     100.746  93.071  95.116  1.00  0.00    -0.217 NA
ATOM      3  C   UNL     1      99.534  93.028  95.694  1.00  0.00     0.182 A 
ATOM      4  N   UNL     1      98.337  93.007  95.060  1.00  0.00    -0.215 NA
ATOM      5  C   UNL     1      97.203  92.964  95.824  1.00  0.00     0.226 A 
ATOM      6  N   UNL     1      97.286  92.944  97.193  1.00  0.00    -0.217 NA
ATOM      7  C   UNL     1      98.493  92.966  97.834  1.00  0.00     0.152 A 
ATOM      8  C   UNL     1      99.637  93.010  97.043  1.00  0.00     0.127 A 
ATOM      9  N   UNL     1     100.931  93.039  97.385  1.00  0.00    -0.340 N 
ATOM     10  H   UNL     1     101.354  93.035  98.339  1.00  0.00     0.168 HD
ENDROOT
BRANCH   7  11
ATOM     11  N   UNL     1      98.554  92.945  99.261  1.00  0.00    -0.382 N 
ATOM     12  H   UNL     1      99.078  92.201  99.771  1.00  0.00     0.158 HD
ATOM     13  H   UNL     1      98.069  93.685  99.815  1.00  0.00     0.158 HD
ENDBRANCH   7  11
TORSDOF 1
ENDMDL
MODEL 8
REMARK VINA RESULT:    -3.744     16.912     17.987
REMARK INTER + INTRA:          -3.853
REMARK INTER:                  -3.853
REMARK INTRA:                   0.000
REMARK UNBOUND:                 0.000
REMARK SMILES Nc1ncnc2nc[nH]c12
REMARK SMILES IDX 8 1 7 2 6 3 5 4 4 5 3 6 2 7 10 8 9 9 1 11
REMARK H PARENT 9 10 1 12 1 13
REMARK Flexibility Score: inf
ROOT
ATOM      1  C   UNL     1      99.053  92.995  98.895  1.00  0.00     0.199 A 
ATOM      2  N   UNL     1     100.177  93.016  98.128  1.00  0.00    -0.217 NA
ATOM      3  C   UNL     1      99.673  93.023  96.883  1.00  0.00     0.182 A 
ATOM      4  N   UNL     1     100.378  93.044  95.726  1.00  0.00    -0.215 NA
ATOM      5  C   UNL     1      99.683  93.049  94.548  1.00  0.00     0.226 A 
ATOM      6  N   UNL     1      98.311  93.035  94.548  1.00  0.00    -0.217 NA
ATOM      7  C   UNL     1      97.599  93.015  95.714  1.00  0.00     0.152 A 
ATOM      8  C   UNL     1      98.321  93.010  96.905  1.00  0.00     0.127 A 
ATOM      9  N   UNL     1      97.902  92.991  98.176  1.00  0.00    -0.340 N 
ATOM     10  H   UNL     1      96.924  92.976  98.541  1.00  0.00     0.168 HD
ENDROOT
BRANCH   7  11
ATOM     11  N   UNL     1      96.171  93.001  95.690  1.00  0.00    -0.382 N 
ATOM     12  H   UNL     1      95.645  92.353  95.064  1.00  0.00     0.158 HD
ATOM     13  H   UNL     1      95.632  93.648  96.307  1.00  0.00     0.158 HD
ENDBRANCH   7  11
TORSDOF 1
ENDMDL
MODEL 9
REMARK VINA RESULT:    -3.708     17.177     18.030
REMARK INTER + INTRA:          -3.817
REMARK INTER:                  -3.817
REMARK INTRA:                   0.000
REMARK UNBOUND:                 0.000
REMARK SMILES Nc1ncnc2nc[nH]c12
REMARK SMILES IDX 8 1 7 2 6 3 5 4 4 5 3 6 2 7 10 8 9 9 1 11
REMARK H PARENT 9 10 1 12 1 13
REMARK Flexibility Score: inf
ROOT
ATOM      1  C   UNL     1      99.365  92.765  98.510  1.00  0.00     0.199 A 
ATOM      2  N   UNL     1      98.240  93.163  97.855  1.00  0.00    -0.217 NA
ATOM      3  C   UNL     1      98.670  93.263  96.587  1.00  0.00     0.182 A 
ATOM      4  N   UNL     1      97.933  93.630  95.511  1.00  0.00    -0.215 NA
ATOM      5  C   UNL     1      98.550  93.674  94.291  1.00  0.00     0.226 A 
ATOM      6  N   UNL     1      99.878  93.352  94.170  1.00  0.00    -0.217 NA
ATOM      7  C   UNL     1     100.622  92.980  95.254  1.00  0.00     0.152 A 
ATOM      8  C   UNL     1      99.980  92.941  96.488  1.00  0.00     0.127 A 
ATOM      9  N   UNL     1     100.446  92.620  97.701  1.00  0.00    -0.340 N 
ATOM     10  H   UNL     1     101.409  92.327  97.974  1.00  0.00     0.168 HD
ENDROOT
BRANCH   7  11
ATOM     11  N   UNL     1     102.003  92.649  95.103  1.00  0.00    -0.382 N 
ATOM     12  H   UNL     1     102.341  92.079  94.298  1.00  0.00     0.158 HD
ATOM     13  H   UNL     1     102.699  92.980  95.809  1.00  0.00     0.158 HD
ENDBRANCH   7  11
TORSDOF 1
ENDMDL
