MODEL 1
REMARK VINA RESULT:    -2.963      0.000      0.000
REMARK INTER + INTRA:          -4.657
REMARK INTER:                  -4.176
REMARK INTRA:                  -0.481
REMARK UNBOUND:                -0.481
REMARK SMILES CCCCCCCCC(=O)[O-]
REMARK SMILES IDX 6 1 7 2 8 3 9 4 10 5 11 6 5 7 4 8 3 9 2 10 1 11
REMARK H PARENT
REMARK Flexibility Score: inf
ROOT
ATOM      1  C   UNL     1     -15.394  13.538  -7.072  1.00  0.00     0.000 C 
ENDROOT
BRANCH   1   2
ATOM      2  C   UNL     1     -14.515  13.103  -8.255  1.00  0.00     0.006 C 
BRANCH   2   3
ATOM      3  C   UNL     1     -15.200  13.415  -9.589  1.00  0.00     0.053 C 
BRANCH   3   4
ATOM      4  C   UNL     1     -14.618  12.578 -10.684  1.00  0.00     0.041 C 
ATOM      5  O   UNL     1     -14.203  11.415 -10.440  1.00  0.00    -0.550 OA
ATOM      6  O   UNL     1     -14.489  13.102 -11.965  1.00  0.00    -0.550 OA
ENDBRANCH   3   4
ENDBRANCH   2   3
ENDBRANCH   1   2
BRANCH   1   7
ATOM      7  C   UNL     1     -16.672  14.264  -7.523  1.00  0.00     0.000 C 
BRANCH   7   8
ATOM      8  C   UNL     1     -16.679  15.751  -7.126  1.00  0.00    -0.000 C 
BRANCH   8   9
ATOM      9  C   UNL     1     -16.955  16.674  -8.331  1.00  0.00    -0.000 C 
BRANCH   9  10
ATOM     10  C   UNL     1     -15.680  17.245  -8.974  1.00  0.00    -0.003 C 
ATOM     11  C   UNL     1     -15.967  18.310 -10.030  1.00  0.00     0.004 C 
ENDBRANCH   9  10
ENDBRANCH   8   9
ENDBRANCH   7   8
ENDBRANCH   1   7
TORSDOF 7
ENDMDL
MODEL 2
REMARK VINA RESULT:    -2.856      1.069      1.697
REMARK INTER + INTRA:          -4.505
REMARK INTER:                  -4.001
REMARK INTRA:                  -0.504
REMARK UNBOUND:                -0.481
REMARK SMILES CCCCCCCCC(=O)[O-]
REMARK SMILES IDX 6 1 7 2 8 3 9 4 10 5 11 6 5 7 4 8 3 9 2 10 1 11
REMARK H PARENT
REMARK Flexibility Score: inf
ROOT
ATOM      1  C   UNL     1     -14.459  13.114  -8.143  1.00  0.00     0.000 C 
ENDROOT
BRANCH   1   2
ATOM      2  C   UNL     1     -15.092  13.107  -9.543  1.00  0.00     0.006 C 
BRANCH   2   3
ATOM      3  C   UNL     1     -14.414  12.069 -10.444  1.00  0.00     0.053 C 
BRANCH   3   4
ATOM      4  C   UNL     1     -15.348  11.623 -11.523  1.00  0.00     0.041 C 
ATOM      5  O   UNL     1     -16.482  11.160 -11.229  1.00  0.00    -0.550 OA
ATOM      6  O   UNL     1     -14.948  11.671 -12.853  1.00  0.00    -0.550 OA
ENDBRANCH   3   4
ENDBRANCH   2   3
ENDBRANCH   1   2
BRANCH   1   7
ATOM      7  C   UNL     1     -15.478  13.434  -7.037  1.00  0.00     0.000 C 
BRANCH   7   8
ATOM      8  C   UNL     1     -16.778  14.045  -7.589  1.00  0.00    -0.000 C 
BRANCH   8   9
ATOM      9  C   UNL     1     -16.893  15.551  -7.273  1.00  0.00    -0.000 C 
BRANCH   9  10
ATOM     10  C   UNL     1     -16.975  16.438  -8.526  1.00  0.00    -0.003 C 
ATOM     11  C   UNL     1     -15.657  17.136  -8.854  1.00  0.00     0.004 C 
ENDBRANCH   9  10
ENDBRANCH   8   9
ENDBRANCH   7   8
ENDBRANCH   1   7
TORSDOF 7
ENDMDL
MODEL 3
REMARK VINA RESULT:    -2.808      2.603      4.658
REMARK INTER + INTRA:          -4.438
REMARK INTER:                  -3.946
REMARK INTRA:                  -0.492
REMARK UNBOUND:                -0.481
REMARK SMILES CCCCCCCCC(=O)[O-]
REMARK SMILES IDX 6 1 7 2 8 3 9 4 10 5 11 6 5 7 4 8 3 9 2 10 1 11
REMARK H PARENT
REMARK Flexibility Score: inf
ROOT
ATOM      1  C   UNL     1     -15.651  15.226  -9.118  1.00  0.00     0.000 C 
ENDROOT
BRANCH   1   2
ATOM      2  C   UNL     1     -16.246  15.293  -7.703  1.00  0.00     0.006 C 
BRANCH   2   3
ATOM      3  C   UNL     1     -17.125  14.070  -7.420  1.00  0.00     0.053 C 
BRANCH   3   4
ATOM      4  C   UNL     1     -16.436  13.137  -6.476  1.00  0.00     0.041 C 
ATOM      5  O   UNL     1     -17.103  12.479  -5.635  1.00  0.00    -0.550 OA
ATOM      6  O   UNL     1     -15.050  13.032  -6.489  1.00  0.00    -0.550 OA
ENDBRANCH   3   4
ENDBRANCH   2   3
ENDBRANCH   1   2
BRANCH   1   7
ATOM      7  C   UNL     1     -16.664  14.725 -10.160  1.00  0.00     0.000 C 
BRANCH   7   8
ATOM      8  C   UNL     1     -16.209  13.428 -10.851  1.00  0.00    -0.000 C 
BRANCH   8   9
ATOM      9  C   UNL     1     -14.903  12.872 -10.245  1.00  0.00    -0.000 C 
BRANCH   9  10
ATOM     10  C   UNL     1     -14.102  11.988 -11.214  1.00  0.00    -0.003 C 
ATOM     11  C   UNL     1     -14.449  12.238 -12.680  1.00  0.00     0.004 C 
ENDBRANCH   9  10
ENDBRANCH   8   9
ENDBRANCH   7   8
ENDBRANCH   1   7
TORSDOF 7
ENDMDL
MODEL 4
REMARK VINA RESULT:    -2.711      2.491      4.815
REMARK INTER + INTRA:          -4.301
REMARK INTER:                  -3.955
REMARK INTRA:                  -0.346
REMARK UNBOUND:                -0.481
REMARK SMILES CCCCCCCCC(=O)[O-]
REMARK SMILES IDX 6 1 7 2 8 3 9 4 10 5 11 6 5 7 4 8 3 9 2 10 1 11
REMARK H PARENT
REMARK Flexibility Score: inf
ROOT
ATOM      1  C   UNL     1     -15.573  13.529  -7.235  1.00  0.00     0.000 C 
ENDROOT
BRANCH   1   2
ATOM      2  C   UNL     1     -16.646  14.453  -7.832  1.00  0.00     0.006 C 
BRANCH   2   3
ATOM      3  C   UNL     1     -16.348  15.920  -7.506  1.00  0.00     0.053 C 
BRANCH   3   4
ATOM      4  C   UNL     1     -16.478  16.766  -8.733  1.00  0.00     0.041 C 
ATOM      5  O   UNL     1     -16.398  16.243  -9.875  1.00  0.00    -0.550 OA
ATOM      6  O   UNL     1     -16.638  18.141  -8.615  1.00  0.00    -0.550 OA
ENDBRANCH   3   4
ENDBRANCH   2   3
ENDBRANCH   1   2
BRANCH   1   7
ATOM      7  C   UNL     1     -14.495  13.140  -8.260  1.00  0.00     0.000 C 
BRANCH   7   8
ATOM      8  C   UNL     1     -15.043  13.062  -9.695  1.00  0.00    -0.000 C 
BRANCH   8   9
ATOM      9  C   UNL     1     -14.493  11.842 -10.463  1.00  0.00    -0.000 C 
BRANCH   9  10
ATOM     10  C   UNL     1     -14.691  11.932 -11.985  1.00  0.00    -0.003 C 
ATOM     11  C   UNL     1     -13.489  12.529 -12.712  1.00  0.00     0.004 C 
ENDBRANCH   9  10
ENDBRANCH   8   9
ENDBRANCH   7   8
ENDBRANCH   1   7
TORSDOF 7
ENDMDL
MODEL 5
REMARK VINA RESULT:    -2.659      2.504      4.597
REMARK INTER + INTRA:          -4.229
REMARK INTER:                  -3.822
REMARK INTRA:                  -0.406
REMARK UNBOUND:                -0.481
REMARK SMILES CCCCCCCCC(=O)[O-]
REMARK SMILES IDX 6 1 7 2 8 3 9 4 10 5 11 6 5 7 4 8 3 9 2 10 1 11
REMARK H PARENT
REMARK Flexibility Score: inf
ROOT
ATOM      1  C   UNL     1     -16.541  15.735  -7.151  1.00  0.00     0.000 C 
ENDROOT
BRANCH   1   2
ATOM      2  C   UNL     1     -16.994  16.487  -8.412  1.00  0.00     0.006 C 
BRANCH   2   3
ATOM      3  C   UNL     1     -15.968  17.553  -8.810  1.00  0.00     0.053 C 
BRANCH   3   4
ATOM      4  C   UNL     1     -16.197  17.999 -10.220  1.00  0.00     0.041 C 
ATOM      5  O   UNL     1     -16.970  17.351 -10.972  1.00  0.00    -0.550 OA
ATOM      6  O   UNL     1     -15.516  19.103 -10.719  1.00  0.00    -0.550 OA
ENDBRANCH   3   4
ENDBRANCH   2   3
ENDBRANCH   1   2
BRANCH   1   7
ATOM      7  C   UNL     1     -16.672  14.210  -7.297  1.00  0.00     0.000 C 
BRANCH   7   8
ATOM      8  C   UNL     1     -15.381  13.466  -6.911  1.00  0.00    -0.000 C 
BRANCH   8   9
ATOM      9  C   UNL     1     -14.524  13.109  -8.144  1.00  0.00    -0.000 C 
BRANCH   9  10
ATOM     10  C   UNL     1     -15.263  13.291  -9.481  1.00  0.00    -0.003 C 
ATOM     11  C   UNL     1     -14.549  12.625 -10.655  1.00  0.00     0.004 C 
ENDBRANCH   9  10
ENDBRANCH   8   9
ENDBRANCH   7   8
ENDBRANCH   1   7
TORSDOF 7
ENDMDL
MODEL 6
REMARK VINA RESULT:    -2.657      2.642      4.563
REMARK INTER + INTRA:          -4.226
REMARK INTER:                  -3.551
REMARK INTRA:                  -0.675
REMARK UNBOUND:                -0.481
REMARK SMILES CCCCCCCCC(=O)[O-]
REMARK SMILES IDX 6 1 7 2 8 3 9 4 10 5 11 6 5 7 4 8 3 9 2 10 1 11
REMARK H PARENT
REMARK Flexibility Score: inf
ROOT
ATOM      1  C   UNL     1     -16.848  14.365 -10.360  1.00  0.00     0.000 C 
ENDROOT
BRANCH   1   2
ATOM      2  C   UNL     1     -16.038  14.639  -9.083  1.00  0.00     0.006 C 
BRANCH   2   3
ATOM      3  C   UNL     1     -14.878  13.647  -8.948  1.00  0.00     0.053 C 
BRANCH   3   4
ATOM      4  C   UNL     1     -14.753  13.177  -7.534  1.00  0.00     0.041 C 
ATOM      5  O   UNL     1     -13.694  12.619  -7.143  1.00  0.00    -0.550 OA
ATOM      6  O   UNL     1     -15.826  13.307  -6.660  1.00  0.00    -0.550 OA
ENDBRANCH   3   4
ENDBRANCH   2   3
ENDBRANCH   1   2
BRANCH   1   7
ATOM      7  C   UNL     1     -17.061  12.863 -10.611  1.00  0.00     0.000 C 
BRANCH   7   8
ATOM      8  C   UNL     1     -16.605  12.428 -12.015  1.00  0.00    -0.000 C 
BRANCH   8   9
ATOM      9  C   UNL     1     -15.913  13.574 -12.783  1.00  0.00    -0.000 C 
BRANCH   9  10
ATOM     10  C   UNL     1     -14.429  13.305 -13.083  1.00  0.00    -0.003 C 
ATOM     11  C   UNL     1     -13.804  12.278 -12.141  1.00  0.00     0.004 C 
ENDBRANCH   9  10
ENDBRANCH   8   9
ENDBRANCH   7   8
ENDBRANCH   1   7
TORSDOF 7
ENDMDL
MODEL 7
REMARK VINA RESULT:    -2.642      2.336      3.885
REMARK INTER + INTRA:          -4.205
REMARK INTER:                  -3.934
REMARK INTRA:                  -0.271
REMARK UNBOUND:                -0.481
REMARK SMILES CCCCCCCCC(=O)[O-]
REMARK SMILES IDX 6 1 7 2 8 3 9 4 10 5 11 6 5 7 4 8 3 9 2 10 1 11
REMARK H PARENT
REMARK Flexibility Score: inf
ROOT
ATOM      1  C   UNL     1     -15.609  17.220  -8.977  1.00  0.00     0.000 C 
ENDROOT
BRANCH   1   2
ATOM      2  C   UNL     1     -16.028  15.743  -9.012  1.00  0.00     0.006 C 
BRANCH   2   3
ATOM      3  C   UNL     1     -16.249  15.203  -7.595  1.00  0.00     0.053 C 
BRANCH   3   4
ATOM      4  C   UNL     1     -15.662  13.835  -7.458  1.00  0.00     0.041 C 
ATOM      5  O   UNL     1     -15.984  13.101  -6.487  1.00  0.00    -0.550 OA
ATOM      6  O   UNL     1     -14.719  13.387  -8.376  1.00  0.00    -0.550 OA
ENDBRANCH   3   4
ENDBRANCH   2   3
ENDBRANCH   1   2
BRANCH   1   7
ATOM      7  C   UNL     1     -16.810  18.170  -8.842  1.00  0.00     0.000 C 
BRANCH   7   8
ATOM      8  C   UNL     1     -16.963  19.107 -10.053  1.00  0.00    -0.000 C 
BRANCH   8   9
ATOM      9  C   UNL     1     -15.684  19.158 -10.914  1.00  0.00    -0.000 C 
BRANCH   9  10
ATOM     10  C   UNL     1     -15.503  20.485 -11.670  1.00  0.00    -0.003 C 
ATOM     11  C   UNL     1     -14.046  20.786 -12.012  1.00  0.00     0.004 C 
ENDBRANCH   9  10
ENDBRANCH   8   9
ENDBRANCH   7   8
ENDBRANCH   1   7
TORSDOF 7
ENDMDL
MODEL 8
REMARK VINA RESULT:    -2.485      1.591      3.094
REMARK INTER + INTRA:          -3.983
REMARK INTER:                  -3.399
REMARK INTRA:                  -0.583
REMARK UNBOUND:                -0.481
REMARK SMILES CCCCCCCCC(=O)[O-]
REMARK SMILES IDX 6 1 7 2 8 3 9 4 10 5 11 6 5 7 4 8 3 9 2 10 1 11
REMARK H PARENT
REMARK Flexibility Score: inf
ROOT
ATOM      1  C   UNL     1     -16.404  14.966 -10.631  1.00  0.00     0.000 C 
ENDROOT
BRANCH   1   2
ATOM      2  C   UNL     1     -16.218  13.459 -10.867  1.00  0.00     0.006 C 
BRANCH   2   3
ATOM      3  C   UNL     1     -14.749  13.057 -10.704  1.00  0.00     0.053 C 
BRANCH   3   4
ATOM      4  C   UNL     1     -14.252  12.372 -11.938  1.00  0.00     0.041 C 
ATOM      5  O   UNL     1     -15.027  11.647 -12.615  1.00  0.00    -0.550 OA
ATOM      6  O   UNL     1     -12.920  12.494 -12.312  1.00  0.00    -0.550 OA
ENDBRANCH   3   4
ENDBRANCH   2   3
ENDBRANCH   1   2
BRANCH   1   7
ATOM      7  C   UNL     1     -15.725  15.448  -9.339  1.00  0.00     0.000 C 
BRANCH   7   8
ATOM      8  C   UNL     1     -16.737  15.841  -8.249  1.00  0.00    -0.000 C 
BRANCH   8   9
ATOM      9  C   UNL     1     -16.557  15.012  -6.960  1.00  0.00    -0.000 C 
BRANCH   9  10
ATOM     10  C   UNL     1     -16.157  13.550  -7.219  1.00  0.00    -0.003 C 
ATOM     11  C   UNL     1     -14.809  13.180  -6.603  1.00  0.00     0.004 C 
ENDBRANCH   9  10
ENDBRANCH   8   9
ENDBRANCH   7   8
ENDBRANCH   1   7
TORSDOF 7
ENDMDL
MODEL 9
REMARK VINA RESULT:    -2.459      2.943      5.357
REMARK INTER + INTRA:          -3.947
REMARK INTER:                  -3.442
REMARK INTRA:                  -0.504
REMARK UNBOUND:                -0.481
REMARK SMILES CCCCCCCCC(=O)[O-]
REMARK SMILES IDX 6 1 7 2 8 3 9 4 10 5 11 6 5 7 4 8 3 9 2 10 1 11
REMARK H PARENT
REMARK Flexibility Score: inf
ROOT
ATOM      1  C   UNL     1     -14.970  13.137  -9.413  1.00  0.00     0.000 C 
ENDROOT
BRANCH   1   2
ATOM      2  C   UNL     1     -15.945  14.146 -10.040  1.00  0.00     0.006 C 
BRANCH   2   3
ATOM      3  C   UNL     1     -16.852  14.766  -8.972  1.00  0.00     0.053 C 
BRANCH   3   4
ATOM      4  C   UNL     1     -16.144  15.876  -8.263  1.00  0.00     0.041 C 
ATOM      5  O   UNL     1     -16.171  15.945  -7.006  1.00  0.00    -0.550 OA
ATOM      6  O   UNL     1     -15.496  16.866  -8.993  1.00  0.00    -0.550 OA
ENDBRANCH   3   4
ENDBRANCH   2   3
ENDBRANCH   1   2
BRANCH   1   7
ATOM      7  C   UNL     1     -14.495  12.075 -10.418  1.00  0.00     0.000 C 
BRANCH   7   8
ATOM      8  C   UNL     1     -14.294  12.646 -11.832  1.00  0.00    -0.000 C 
BRANCH   8   9
ATOM      9  C   UNL     1     -14.882  11.725 -12.921  1.00  0.00    -0.000 C 
BRANCH   9  10
ATOM     10  C   UNL     1     -16.413  11.810 -13.039  1.00  0.00    -0.003 C 
ATOM     11  C   UNL     1     -17.125  10.564 -12.516  1.00  0.00     0.004 C 
ENDBRANCH   9  10
ENDBRANCH   8   9
ENDBRANCH   7   8
ENDBRANCH   1   7
TORSDOF 7
ENDMDL
