MODEL 1
REMARK VINA RESULT:    -3.641      0.000      0.000
REMARK INTER + INTRA:          -6.136
REMARK INTER:                  -5.344
REMARK INTRA:                  -0.792
REMARK UNBOUND:                -0.792
REMARK SMILES O=C([O-])CCCCCCCC(=O)[O-]
REMARK SMILES IDX 7 1 6 2 5 3 4 4 2 5 1 6 3 7 8 8 9 9 10 10 11 11 12 12 13 13
REMARK H PARENT
REMARK Flexibility Score: inf
ROOT
ATOM      1  C   UNL     1      22.401  -3.667  16.947  1.00  0.00     0.000 C 
ENDROOT
BRANCH   1   2
ATOM      2  C   UNL     1      23.919  -3.454  16.900  1.00  0.00     0.000 C 
BRANCH   2   3
ATOM      3  C   UNL     1      24.567  -3.812  18.246  1.00  0.00     0.006 C 
BRANCH   3   4
ATOM      4  C   UNL     1      25.376  -5.114  18.173  1.00  0.00     0.053 C 
BRANCH   4   5
ATOM      5  C   UNL     1      24.634  -6.265  18.781  1.00  0.00     0.041 C 
ATOM      6  O   UNL     1      25.024  -6.765  19.870  1.00  0.00    -0.550 OA
ATOM      7  O   UNL     1      23.493  -6.763  18.165  1.00  0.00    -0.550 OA
ENDBRANCH   4   5
ENDBRANCH   3   4
ENDBRANCH   2   3
ENDBRANCH   1   2
BRANCH   1   8
ATOM      8  C   UNL     1      21.746  -2.733  17.976  1.00  0.00     0.000 C 
BRANCH   8   9
ATOM      9  C   UNL     1      20.651  -3.432  18.798  1.00  0.00     0.006 C 
BRANCH   9  10
ATOM     10  C   UNL     1      20.934  -3.400  20.305  1.00  0.00     0.053 C 
BRANCH  10  11
ATOM     11  C   UNL     1      21.832  -4.534  20.690  1.00  0.00     0.041 C 
ATOM     12  O   UNL     1      21.475  -5.723  20.481  1.00  0.00    -0.550 OA
ATOM     13  O   UNL     1      23.041  -4.280  21.323  1.00  0.00    -0.550 OA
ENDBRANCH  10  11
ENDBRANCH   9  10
ENDBRANCH   8   9
ENDBRANCH   1   8
TORSDOF 8
ENDMDL
MODEL 2
REMARK VINA RESULT:    -3.635     13.178     14.915
REMARK INTER + INTRA:          -6.127
REMARK INTER:                  -5.690
REMARK INTRA:                  -0.437
REMARK UNBOUND:                -0.792
REMARK SMILES O=C([O-])CCCCCCCC(=O)[O-]
REMARK SMILES IDX 7 1 6 2 5 3 4 4 2 5 1 6 3 7 8 8 9 9 10 10 11 11 12 12 13 13
REMARK H PARENT
REMARK Flexibility Score: inf
ROOT
ATOM      1  C   UNL     1      23.111   5.044   8.478  1.00  0.00     0.000 C 
ENDROOT
BRANCH   1   2
ATOM      2  C   UNL     1      21.610   4.866   8.217  1.00  0.00     0.000 C 
BRANCH   2   3
ATOM      3  C   UNL     1      21.177   3.413   8.465  1.00  0.00     0.006 C 
BRANCH   3   4
ATOM      4  C   UNL     1      19.672   3.211   8.248  1.00  0.00     0.053 C 
BRANCH   4   5
ATOM      5  C   UNL     1      19.157   2.017   8.994  1.00  0.00     0.041 C 
ATOM      6  O   UNL     1      17.965   1.988   9.397  1.00  0.00    -0.550 OA
ATOM      7  O   UNL     1      19.985   0.923   9.213  1.00  0.00    -0.550 OA
ENDBRANCH   4   5
ENDBRANCH   3   4
ENDBRANCH   2   3
ENDBRANCH   1   2
BRANCH   1   8
ATOM      8  C   UNL     1      23.732   6.021   7.469  1.00  0.00     0.000 C 
BRANCH   8   9
ATOM      9  C   UNL     1      23.849   5.422   6.058  1.00  0.00     0.006 C 
BRANCH   9  10
ATOM     10  C   UNL     1      24.539   4.052   6.054  1.00  0.00     0.053 C 
BRANCH  10  11
ATOM     11  C   UNL     1      26.014   4.212   6.249  1.00  0.00     0.041 C 
ATOM     12  O   UNL     1      26.744   4.571   5.289  1.00  0.00    -0.550 OA
ATOM     13  O   UNL     1      26.589   3.916   7.478  1.00  0.00    -0.550 OA
ENDBRANCH  10  11
ENDBRANCH   9  10
ENDBRANCH   8   9
ENDBRANCH   1   8
TORSDOF 8
ENDMDL
MODEL 3
REMARK VINA RESULT:    -3.627      2.178      4.928
REMARK INTER + INTRA:          -6.115
REMARK INTER:                  -5.602
REMARK INTRA:                  -0.513
REMARK UNBOUND:                -0.792
REMARK SMILES O=C([O-])CCCCCCCC(=O)[O-]
REMARK SMILES IDX 7 1 6 2 5 3 4 4 2 5 1 6 3 7 8 8 9 9 10 10 11 11 12 12 13 13
REMARK H PARENT
REMARK Flexibility Score: inf
ROOT
ATOM      1  C   UNL     1      25.770  -4.819  18.204  1.00  0.00     0.000 C 
ENDROOT
BRANCH   1   2
ATOM      2  C   UNL     1      25.002  -4.018  19.263  1.00  0.00     0.000 C 
BRANCH   2   3
ATOM      3  C   UNL     1      23.487  -4.219  19.113  1.00  0.00     0.006 C 
BRANCH   3   4
ATOM      4  C   UNL     1      22.827  -4.660  20.426  1.00  0.00     0.053 C 
BRANCH   4   5
ATOM      5  C   UNL     1      21.503  -3.992  20.636  1.00  0.00     0.041 C 
ATOM      6  O   UNL     1      20.951  -4.021  21.767  1.00  0.00    -0.550 OA
ATOM      7  O   UNL     1      20.894  -3.308  19.591  1.00  0.00    -0.550 OA
ENDBRANCH   4   5
ENDBRANCH   3   4
ENDBRANCH   2   3
ENDBRANCH   1   2
BRANCH   1   8
ATOM      8  C   UNL     1      26.325  -6.123  18.796  1.00  0.00     0.000 C 
BRANCH   8   9
ATOM      9  C   UNL     1      25.761  -7.375  18.105  1.00  0.00     0.006 C 
BRANCH   9  10
ATOM     10  C   UNL     1      24.405  -7.805  18.679  1.00  0.00     0.053 C 
BRANCH  10  11
ATOM     11  C   UNL     1      23.943  -9.072  18.031  1.00  0.00     0.041 C 
ATOM     12  O   UNL     1      23.145  -9.836  18.634  1.00  0.00    -0.550 OA
ATOM     13  O   UNL     1      24.431  -9.434  16.783  1.00  0.00    -0.550 OA
ENDBRANCH  10  11
ENDBRANCH   9  10
ENDBRANCH   8   9
ENDBRANCH   1   8
TORSDOF 8
ENDMDL
MODEL 4
REMARK VINA RESULT:    -3.625      2.888      5.516
REMARK INTER + INTRA:          -6.113
REMARK INTER:                  -5.719
REMARK INTRA:                  -0.394
REMARK UNBOUND:                -0.792
REMARK SMILES O=C([O-])CCCCCCCC(=O)[O-]
REMARK SMILES IDX 7 1 6 2 5 3 4 4 2 5 1 6 3 7 8 8 9 9 10 10 11 11 12 12 13 13
REMARK H PARENT
REMARK Flexibility Score: inf
ROOT
ATOM      1  C   UNL     1      25.602  -3.541  18.153  1.00  0.00     0.000 C 
ENDROOT
BRANCH   1   2
ATOM      2  C   UNL     1      24.110  -3.882  18.251  1.00  0.00     0.000 C 
BRANCH   2   3
ATOM      3  C   UNL     1      23.716  -4.221  19.696  1.00  0.00     0.006 C 
BRANCH   3   4
ATOM      4  C   UNL     1      22.321  -4.854  19.784  1.00  0.00     0.053 C 
BRANCH   4   5
ATOM      5  C   UNL     1      21.331  -3.930  20.426  1.00  0.00     0.041 C 
ATOM      6  O   UNL     1      20.733  -3.063  19.735  1.00  0.00    -0.550 OA
ATOM      7  O   UNL     1      21.043  -4.049  21.780  1.00  0.00    -0.550 OA
ENDBRANCH   4   5
ENDBRANCH   3   4
ENDBRANCH   2   3
ENDBRANCH   1   2
BRANCH   1   8
ATOM      8  C   UNL     1      26.212  -3.336  19.547  1.00  0.00     0.000 C 
BRANCH   8   9
ATOM      9  C   UNL     1      27.631  -2.747  19.493  1.00  0.00     0.006 C 
BRANCH   9  10
ATOM     10  C   UNL     1      28.632  -3.545  20.338  1.00  0.00     0.053 C 
BRANCH  10  11
ATOM     11  C   UNL     1      28.991  -4.824  19.651  1.00  0.00     0.041 C 
ATOM     12  O   UNL     1      29.274  -4.826  18.424  1.00  0.00    -0.550 OA
ATOM     13  O   UNL     1      28.966  -6.022  20.352  1.00  0.00    -0.550 OA
ENDBRANCH  10  11
ENDBRANCH   9  10
ENDBRANCH   8   9
ENDBRANCH   1   8
TORSDOF 8
ENDMDL
MODEL 5
REMARK VINA RESULT:    -3.606      3.002      4.885
REMARK INTER + INTRA:          -6.083
REMARK INTER:                  -5.676
REMARK INTRA:                  -0.407
REMARK UNBOUND:                -0.792
REMARK SMILES O=C([O-])CCCCCCCC(=O)[O-]
REMARK SMILES IDX 7 1 6 2 5 3 4 4 2 5 1 6 3 7 8 8 9 9 10 10 11 11 12 12 13 13
REMARK H PARENT
REMARK Flexibility Score: inf
ROOT
ATOM      1  C   UNL     1      24.777  -3.987  18.221  1.00  0.00     0.000 C 
ENDROOT
BRANCH   1   2
ATOM      2  C   UNL     1      23.293  -3.881  18.593  1.00  0.00     0.000 C 
BRANCH   2   3
ATOM      3  C   UNL     1      23.063  -4.290  20.056  1.00  0.00     0.006 C 
BRANCH   3   4
ATOM      4  C   UNL     1      22.154  -5.520  20.177  1.00  0.00     0.053 C 
BRANCH   4   5
ATOM      5  C   UNL     1      22.929  -6.798  20.070  1.00  0.00     0.041 C 
ATOM      6  O   UNL     1      24.176  -6.800  20.250  1.00  0.00    -0.550 OA
ATOM      7  O   UNL     1      22.271  -7.992  19.804  1.00  0.00    -0.550 OA
ENDBRANCH   4   5
ENDBRANCH   3   4
ENDBRANCH   2   3
ENDBRANCH   1   2
BRANCH   1   8
ATOM      8  C   UNL     1      25.671  -3.728  19.443  1.00  0.00     0.000 C 
BRANCH   8   9
ATOM      9  C   UNL     1      26.989  -3.028  19.075  1.00  0.00     0.006 C 
BRANCH   9  10
ATOM     10  C   UNL     1      27.916  -2.845  20.284  1.00  0.00     0.053 C 
BRANCH  10  11
ATOM     11  C   UNL     1      29.001  -3.875  20.268  1.00  0.00     0.041 C 
ATOM     12  O   UNL     1      28.711  -5.100  20.259  1.00  0.00    -0.550 OA
ATOM     13  O   UNL     1      30.333  -3.484  20.314  1.00  0.00    -0.550 OA
ENDBRANCH  10  11
ENDBRANCH   9  10
ENDBRANCH   8   9
ENDBRANCH   1   8
TORSDOF 8
ENDMDL
MODEL 6
REMARK VINA RESULT:    -3.593      2.014      2.943
REMARK INTER + INTRA:          -6.066
REMARK INTER:                  -5.546
REMARK INTRA:                  -0.520
REMARK UNBOUND:                -0.792
REMARK SMILES O=C([O-])CCCCCCCC(=O)[O-]
REMARK SMILES IDX 7 1 6 2 5 3 4 4 2 5 1 6 3 7 8 8 9 9 10 10 11 11 12 12 13 13
REMARK H PARENT
REMARK Flexibility Score: inf
ROOT
ATOM      1  C   UNL     1      26.409  -3.464  19.371  1.00  0.00     0.000 C 
ENDROOT
BRANCH   1   2
ATOM      2  C   UNL     1      27.555  -4.258  18.733  1.00  0.00     0.000 C 
BRANCH   2   3
ATOM      3  C   UNL     1      27.617  -5.686  19.296  1.00  0.00     0.006 C 
BRANCH   3   4
ATOM      4  C   UNL     1      27.561  -6.749  18.191  1.00  0.00     0.053 C 
BRANCH   4   5
ATOM      5  C   UNL     1      26.155  -7.177  17.901  1.00  0.00     0.041 C 
ATOM      6  O   UNL     1      25.384  -7.501  18.842  1.00  0.00    -0.550 OA
ATOM      7  O   UNL     1      25.685  -7.185  16.593  1.00  0.00    -0.550 OA
ENDBRANCH   4   5
ENDBRANCH   3   4
ENDBRANCH   2   3
ENDBRANCH   1   2
BRANCH   1   8
ATOM      8  C   UNL     1      25.074  -3.772  18.676  1.00  0.00     0.000 C 
BRANCH   8   9
ATOM      9  C   UNL     1      24.004  -4.290  19.651  1.00  0.00     0.006 C 
BRANCH   9  10
ATOM     10  C   UNL     1      22.582  -4.160  19.089  1.00  0.00     0.053 C 
BRANCH  10  11
ATOM     11  C   UNL     1      21.599  -3.969  20.200  1.00  0.00     0.041 C 
ATOM     12  O   UNL     1      20.525  -3.345  19.994  1.00  0.00    -0.550 OA
ATOM     13  O   UNL     1      21.888  -4.437  21.474  1.00  0.00    -0.550 OA
ENDBRANCH  10  11
ENDBRANCH   9  10
ENDBRANCH   8   9
ENDBRANCH   1   8
TORSDOF 8
ENDMDL
MODEL 7
REMARK VINA RESULT:    -3.567      4.142      4.904
REMARK INTER + INTRA:          -6.027
REMARK INTER:                  -5.770
REMARK INTRA:                  -0.256
REMARK UNBOUND:                -0.792
REMARK SMILES O=C([O-])CCCCCCCC(=O)[O-]
REMARK SMILES IDX 7 1 6 2 5 3 4 4 2 5 1 6 3 7 8 8 9 9 10 10 11 11 12 12 13 13
REMARK H PARENT
REMARK Flexibility Score: inf
ROOT
ATOM      1  C   UNL     1      25.822  -3.410  19.583  1.00  0.00     0.000 C 
ENDROOT
BRANCH   1   2
ATOM      2  C   UNL     1      27.257  -3.104  19.138  1.00  0.00     0.000 C 
BRANCH   2   3
ATOM      3  C   UNL     1      28.267  -3.502  20.224  1.00  0.00     0.006 C 
BRANCH   3   4
ATOM      4  C   UNL     1      28.741  -2.296  21.046  1.00  0.00     0.053 C 
BRANCH   4   5
ATOM      5  C   UNL     1      30.231  -2.287  21.213  1.00  0.00     0.041 C 
ATOM      6  O   UNL     1      30.747  -1.826  22.265  1.00  0.00    -0.550 OA
ATOM      7  O   UNL     1      31.046  -2.819  20.222  1.00  0.00    -0.550 OA
ENDBRANCH   4   5
ENDBRANCH   3   4
ENDBRANCH   2   3
ENDBRANCH   1   2
BRANCH   1   8
ATOM      8  C   UNL     1      24.925  -3.717  18.375  1.00  0.00     0.000 C 
BRANCH   8   9
ATOM      9  C   UNL     1      23.605  -4.397  18.774  1.00  0.00     0.006 C 
BRANCH   9  10
ATOM     10  C   UNL     1      23.306  -4.270  20.273  1.00  0.00     0.053 C 
BRANCH  10  11
ATOM     11  C   UNL     1      21.849  -4.013  20.494  1.00  0.00     0.041 C 
ATOM     12  O   UNL     1      21.361  -4.086  21.652  1.00  0.00    -0.550 OA
ATOM     13  O   UNL     1      21.019  -3.739  19.415  1.00  0.00    -0.550 OA
ENDBRANCH  10  11
ENDBRANCH   9  10
ENDBRANCH   8   9
ENDBRANCH   1   8
TORSDOF 8
ENDMDL
MODEL 8
REMARK VINA RESULT:    -3.547     14.204     16.038
REMARK INTER + INTRA:          -5.997
REMARK INTER:                  -5.648
REMARK INTRA:                  -0.350
REMARK UNBOUND:                -0.792
REMARK SMILES O=C([O-])CCCCCCCC(=O)[O-]
REMARK SMILES IDX 7 1 6 2 5 3 4 4 2 5 1 6 3 7 8 8 9 9 10 10 11 11 12 12 13 13
REMARK H PARENT
REMARK Flexibility Score: inf
ROOT
ATOM      1  C   UNL     1      25.357   4.194   6.282  1.00  0.00     0.000 C 
ENDROOT
BRANCH   1   2
ATOM      2  C   UNL     1      24.149   5.101   6.015  1.00  0.00     0.000 C 
BRANCH   2   3
ATOM      3  C   UNL     1      23.797   5.929   7.260  1.00  0.00     0.006 C 
BRANCH   3   4
ATOM      4  C   UNL     1      23.347   5.048   8.434  1.00  0.00     0.053 C 
BRANCH   4   5
ATOM      5  C   UNL     1      21.954   4.532   8.241  1.00  0.00     0.041 C 
ATOM      6  O   UNL     1      21.645   3.379   8.642  1.00  0.00    -0.550 OA
ATOM      7  O   UNL     1      20.988   5.337   7.650  1.00  0.00    -0.550 OA
ENDBRANCH   4   5
ENDBRANCH   3   4
ENDBRANCH   2   3
ENDBRANCH   1   2
BRANCH   1   8
ATOM      8  C   UNL     1      26.245   4.081   5.035  1.00  0.00     0.000 C 
BRANCH   8   9
ATOM      9  C   UNL     1      27.730   4.337   5.339  1.00  0.00     0.006 C 
BRANCH   9  10
ATOM     10  C   UNL     1      28.142   3.837   6.730  1.00  0.00     0.053 C 
BRANCH  10  11
ATOM     11  C   UNL     1      29.594   3.474   6.744  1.00  0.00     0.041 C 
ATOM     12  O   UNL     1      30.278   3.642   7.787  1.00  0.00    -0.550 OA
ATOM     13  O   UNL     1      30.203   2.996   5.592  1.00  0.00    -0.550 OA
ENDBRANCH  10  11
ENDBRANCH   9  10
ENDBRANCH   8   9
ENDBRANCH   1   8
TORSDOF 8
ENDMDL
MODEL 9
REMARK VINA RESULT:    -3.534      2.002      5.124
REMARK INTER + INTRA:          -5.978
REMARK INTER:                  -5.421
REMARK INTRA:                  -0.557
REMARK UNBOUND:                -0.792
REMARK SMILES O=C([O-])CCCCCCCC(=O)[O-]
REMARK SMILES IDX 7 1 6 2 5 3 4 4 2 5 1 6 3 7 8 8 9 9 10 10 11 11 12 12 13 13
REMARK H PARENT
REMARK Flexibility Score: inf
ROOT
ATOM      1  C   UNL     1      26.325  -3.370  19.363  1.00  0.00     0.000 C 
ENDROOT
BRANCH   1   2
ATOM      2  C   UNL     1      24.977  -3.766  18.749  1.00  0.00     0.000 C 
BRANCH   2   3
ATOM      3  C   UNL     1      23.981  -4.197  19.836  1.00  0.00     0.006 C 
BRANCH   3   4
ATOM      4  C   UNL     1      22.635  -4.639  19.248  1.00  0.00     0.053 C 
BRANCH   4   5
ATOM      5  C   UNL     1      21.501  -3.808  19.766  1.00  0.00     0.041 C 
ATOM      6  O   UNL     1      20.820  -3.102  18.976  1.00  0.00    -0.550 OA
ATOM      7  O   UNL     1      21.176  -3.838  21.117  1.00  0.00    -0.550 OA
ENDBRANCH   4   5
ENDBRANCH   3   4
ENDBRANCH   2   3
ENDBRANCH   1   2
BRANCH   1   8
ATOM      8  C   UNL     1      27.302  -4.554  19.354  1.00  0.00     0.000 C 
BRANCH   8   9
ATOM      9  C   UNL     1      27.417  -5.219  17.973  1.00  0.00     0.006 C 
BRANCH   9  10
ATOM     10  C   UNL     1      27.355  -6.750  18.047  1.00  0.00     0.053 C 
BRANCH  10  11
ATOM     11  C   UNL     1      25.941  -7.221  17.918  1.00  0.00     0.041 C 
ATOM     12  O   UNL     1      25.251  -7.443  18.947  1.00  0.00    -0.550 OA
ATOM     13  O   UNL     1      25.400  -7.462  16.662  1.00  0.00    -0.550 OA
ENDBRANCH  10  11
ENDBRANCH   9  10
ENDBRANCH   8   9
ENDBRANCH   1   8
TORSDOF 8
ENDMDL
