MODEL 1
REMARK VINA RESULT:    -3.550      0.000      0.000
REMARK INTER + INTRA:          -6.379
REMARK INTER:                  -5.417
REMARK INTRA:                  -0.961
REMARK UNBOUND:                -0.961
REMARK SMILES CCCCCCCCCCC(=O)[O-]
REMARK SMILES IDX 7 1 8 2 9 3 10 4 11 5 12 6 13 7 6 8 5 9 4 10 3 11 2 12 1 13
REMARK H PARENT
REMARK Flexibility Score: inf
ROOT
ATOM      1  C   UNL     1      19.232   4.027  25.878  1.00  0.00     0.000 C 
ENDROOT
BRANCH   1   2
ATOM      2  C   UNL     1      19.191   4.630  24.466  1.00  0.00     0.000 C 
BRANCH   2   3
ATOM      3  C   UNL     1      20.262   5.716  24.302  1.00  0.00     0.006 C 
BRANCH   3   4
ATOM      4  C   UNL     1      19.670   6.979  23.669  1.00  0.00     0.053 C 
BRANCH   4   5
ATOM      5  C   UNL     1      20.410   8.193  24.134  1.00  0.00     0.041 C 
ATOM      6  O   UNL     1      20.810   8.273  25.326  1.00  0.00    -0.550 OA
ATOM      7  O   UNL     1      20.701   9.216  23.241  1.00  0.00    -0.550 OA
ENDBRANCH   4   5
ENDBRANCH   3   4
ENDBRANCH   2   3
ENDBRANCH   1   2
BRANCH   1   8
ATOM      8  C   UNL     1      18.570   2.639  25.955  1.00  0.00     0.000 C 
BRANCH   8   9
ATOM      9  C   UNL     1      19.487   1.508  26.461  1.00  0.00    -0.000 C 
BRANCH   9  10
ATOM     10  C   UNL     1      20.935   1.554  25.938  1.00  0.00    -0.000 C 
BRANCH  10  11
ATOM     11  C   UNL     1      21.106   1.150  24.462  1.00  0.00    -0.000 C 
BRANCH  11  12
ATOM     12  C   UNL     1      21.780   2.242  23.620  1.00  0.00    -0.003 C 
ATOM     13  C   UNL     1      22.813   3.010  24.441  1.00  0.00     0.004 C 
ENDBRANCH  11  12
ENDBRANCH  10  11
ENDBRANCH   9  10
ENDBRANCH   8   9
ENDBRANCH   1   8
TORSDOF 9
ENDMDL
MODEL 2
REMARK VINA RESULT:    -3.487      2.025      2.866
REMARK INTER + INTRA:          -6.283
REMARK INTER:                  -5.016
REMARK INTRA:                  -1.267
REMARK UNBOUND:                -0.961
REMARK SMILES CCCCCCCCCCC(=O)[O-]
REMARK SMILES IDX 7 1 8 2 9 3 10 4 11 5 12 6 13 7 6 8 5 9 4 10 3 11 2 12 1 13
REMARK H PARENT
REMARK Flexibility Score: inf
ROOT
ATOM      1  C   UNL     1      21.630   2.587  23.613  1.00  0.00     0.000 C 
ENDROOT
BRANCH   1   2
ATOM      2  C   UNL     1      21.245   4.037  23.942  1.00  0.00     0.000 C 
BRANCH   2   3
ATOM      3  C   UNL     1      19.807   4.116  24.468  1.00  0.00     0.006 C 
BRANCH   3   4
ATOM      4  C   UNL     1      19.506   5.506  25.036  1.00  0.00     0.053 C 
BRANCH   4   5
ATOM      5  C   UNL     1      18.977   6.406  23.964  1.00  0.00     0.041 C 
ATOM      6  O   UNL     1      17.759   6.364  23.647  1.00  0.00    -0.550 OA
ATOM      7  O   UNL     1      19.817   7.326  23.350  1.00  0.00    -0.550 OA
ENDBRANCH   4   5
ENDBRANCH   3   4
ENDBRANCH   2   3
ENDBRANCH   1   2
BRANCH   1   8
ATOM      8  C   UNL     1      20.969   1.564  24.556  1.00  0.00     0.000 C 
BRANCH   8   9
ATOM      9  C   UNL     1      21.720   1.318  25.879  1.00  0.00    -0.000 C 
BRANCH   9  10
ATOM     10  C   UNL     1      21.029   1.875  27.139  1.00  0.00    -0.000 C 
BRANCH  10  11
ATOM     11  C   UNL     1      21.612   3.199  27.667  1.00  0.00    -0.000 C 
BRANCH  11  12
ATOM     12  C   UNL     1      23.054   3.441  27.203  1.00  0.00    -0.003 C 
ATOM     13  C   UNL     1      23.312   4.926  26.961  1.00  0.00     0.004 C 
ENDBRANCH  11  12
ENDBRANCH  10  11
ENDBRANCH   9  10
ENDBRANCH   8   9
ENDBRANCH   1   8
TORSDOF 9
ENDMDL
MODEL 3
REMARK VINA RESULT:    -3.465      1.360      2.059
REMARK INTER + INTRA:          -6.250
REMARK INTER:                  -4.982
REMARK INTRA:                  -1.268
REMARK UNBOUND:                -0.961
REMARK SMILES CCCCCCCCCCC(=O)[O-]
REMARK SMILES IDX 7 1 8 2 9 3 10 4 11 5 12 6 13 7 6 8 5 9 4 10 3 11 2 12 1 13
REMARK H PARENT
REMARK Flexibility Score: inf
ROOT
ATOM      1  C   UNL     1      18.636   2.350  25.944  1.00  0.00     0.000 C 
ENDROOT
BRANCH   1   2
ATOM      2  C   UNL     1      18.991   3.844  25.944  1.00  0.00     0.000 C 
BRANCH   2   3
ATOM      3  C   UNL     1      19.252   4.345  24.518  1.00  0.00     0.006 C 
BRANCH   3   4
ATOM      4  C   UNL     1      20.047   5.654  24.533  1.00  0.00     0.053 C 
BRANCH   4   5
ATOM      5  C   UNL     1      19.272   6.746  23.865  1.00  0.00     0.041 C 
ATOM      6  O   UNL     1      19.874   7.662  23.247  1.00  0.00    -0.550 OA
ATOM      7  O   UNL     1      17.883   6.725  23.883  1.00  0.00    -0.550 OA
ENDBRANCH   4   5
ENDBRANCH   3   4
ENDBRANCH   2   3
ENDBRANCH   1   2
BRANCH   1   8
ATOM      8  C   UNL     1      19.426   1.548  26.994  1.00  0.00     0.000 C 
BRANCH   8   9
ATOM      9  C   UNL     1      20.760   2.185  27.433  1.00  0.00    -0.000 C 
BRANCH   9  10
ATOM     10  C   UNL     1      21.989   1.770  26.601  1.00  0.00    -0.000 C 
BRANCH  10  11
ATOM     11  C   UNL     1      22.642   2.908  25.795  1.00  0.00    -0.000 C 
BRANCH  11  12
ATOM     12  C   UNL     1      22.502   2.718  24.278  1.00  0.00    -0.003 C 
ATOM     13  C   UNL     1      21.601   1.528  23.954  1.00  0.00     0.004 C 
ENDBRANCH  11  12
ENDBRANCH  10  11
ENDBRANCH   9  10
ENDBRANCH   8   9
ENDBRANCH   1   8
TORSDOF 9
ENDMDL
MODEL 4
REMARK VINA RESULT:    -3.445      1.301      2.738
REMARK INTER + INTRA:          -6.219
REMARK INTER:                  -5.424
REMARK INTRA:                  -0.795
REMARK UNBOUND:                -0.961
REMARK SMILES CCCCCCCCCCC(=O)[O-]
REMARK SMILES IDX 7 1 8 2 9 3 10 4 11 5 12 6 13 7 6 8 5 9 4 10 3 11 2 12 1 13
REMARK H PARENT
REMARK Flexibility Score: inf
ROOT
ATOM      1  C   UNL     1      20.839   4.937  24.033  1.00  0.00     0.000 C 
ENDROOT
BRANCH   1   2
ATOM      2  C   UNL     1      19.348   4.902  24.404  1.00  0.00     0.000 C 
BRANCH   2   3
ATOM      3  C   UNL     1      18.639   6.182  23.946  1.00  0.00     0.006 C 
BRANCH   3   4
ATOM      4  C   UNL     1      19.651   7.289  23.634  1.00  0.00     0.053 C 
BRANCH   4   5
ATOM      5  C   UNL     1      18.944   8.557  23.270  1.00  0.00     0.041 C 
ATOM      6  O   UNL     1      17.740   8.726  23.597  1.00  0.00    -0.550 OA
ATOM      7  O   UNL     1      19.629   9.571  22.614  1.00  0.00    -0.550 OA
ENDBRANCH   4   5
ENDBRANCH   3   4
ENDBRANCH   2   3
ENDBRANCH   1   2
BRANCH   1   8
ATOM      8  C   UNL     1      21.619   3.728  24.581  1.00  0.00     0.000 C 
BRANCH   8   9
ATOM      9  C   UNL     1      21.502   2.441  23.740  1.00  0.00    -0.000 C 
BRANCH   9  10
ATOM     10  C   UNL     1      20.944   1.217  24.491  1.00  0.00    -0.000 C 
BRANCH  10  11
ATOM     11  C   UNL     1      20.456   1.500  25.924  1.00  0.00    -0.000 C 
BRANCH  11  12
ATOM     12  C   UNL     1      18.925   1.519  26.038  1.00  0.00    -0.003 C 
ATOM     13  C   UNL     1      18.463   2.549  27.065  1.00  0.00     0.004 C 
ENDBRANCH  11  12
ENDBRANCH  10  11
ENDBRANCH   9  10
ENDBRANCH   8   9
ENDBRANCH   1   8
TORSDOF 9
ENDMDL
MODEL 5
REMARK VINA RESULT:    -3.438      2.524      3.854
REMARK INTER + INTRA:          -6.209
REMARK INTER:                  -4.986
REMARK INTRA:                  -1.222
REMARK UNBOUND:                -0.961
REMARK SMILES CCCCCCCCCCC(=O)[O-]
REMARK SMILES IDX 7 1 8 2 9 3 10 4 11 5 12 6 13 7 6 8 5 9 4 10 3 11 2 12 1 13
REMARK H PARENT
REMARK Flexibility Score: inf
ROOT
ATOM      1  C   UNL     1      20.134   4.326  24.208  1.00  0.00     0.000 C 
ENDROOT
BRANCH   1   2
ATOM      2  C   UNL     1      19.941   5.007  25.572  1.00  0.00     0.000 C 
BRANCH   2   3
ATOM      3  C   UNL     1      21.218   5.739  26.004  1.00  0.00     0.006 C 
BRANCH   3   4
ATOM      4  C   UNL     1      21.852   5.064  27.223  1.00  0.00     0.053 C 
BRANCH   4   5
ATOM      5  C   UNL     1      23.344   5.123  27.138  1.00  0.00     0.041 C 
ATOM      6  O   UNL     1      23.952   6.189  27.420  1.00  0.00    -0.550 OA
ATOM      7  O   UNL     1      24.068   3.988  26.795  1.00  0.00    -0.550 OA
ENDBRANCH   4   5
ENDBRANCH   3   4
ENDBRANCH   2   3
ENDBRANCH   1   2
BRANCH   1   8
ATOM      8  C   UNL     1      21.550   3.750  24.023  1.00  0.00     0.000 C 
BRANCH   8   9
ATOM      9  C   UNL     1      21.600   2.287  23.539  1.00  0.00    -0.000 C 
BRANCH   9  10
ATOM     10  C   UNL     1      21.156   1.238  24.577  1.00  0.00    -0.000 C 
BRANCH  10  11
ATOM     11  C   UNL     1      21.598   1.528  26.023  1.00  0.00    -0.000 C 
BRANCH  11  12
ATOM     12  C   UNL     1      20.420   1.584  27.005  1.00  0.00    -0.003 C 
ATOM     13  C   UNL     1      19.087   1.467  26.271  1.00  0.00     0.004 C 
ENDBRANCH  11  12
ENDBRANCH  10  11
ENDBRANCH   9  10
ENDBRANCH   8   9
ENDBRANCH   1   8
TORSDOF 9
ENDMDL
MODEL 6
REMARK VINA RESULT:    -3.390      2.636      4.800
REMARK INTER + INTRA:          -6.135
REMARK INTER:                  -4.931
REMARK INTRA:                  -1.203
REMARK UNBOUND:                -0.961
REMARK SMILES CCCCCCCCCCC(=O)[O-]
REMARK SMILES IDX 7 1 8 2 9 3 10 4 11 5 12 6 13 7 6 8 5 9 4 10 3 11 2 12 1 13
REMARK H PARENT
REMARK Flexibility Score: inf
ROOT
ATOM      1  C   UNL     1      22.463   2.625  24.436  1.00  0.00     0.000 C 
ENDROOT
BRANCH   1   2
ATOM      2  C   UNL     1      21.999   1.929  25.724  1.00  0.00     0.000 C 
BRANCH   2   3
ATOM      3  C   UNL     1      22.754   2.473  26.944  1.00  0.00     0.006 C 
BRANCH   3   4
ATOM      4  C   UNL     1      22.633   3.997  27.029  1.00  0.00     0.053 C 
BRANCH   4   5
ATOM      5  C   UNL     1      23.980   4.636  26.906  1.00  0.00     0.041 C 
ATOM      6  O   UNL     1      24.130   5.855  27.186  1.00  0.00    -0.550 OA
ATOM      7  O   UNL     1      25.080   3.876  26.531  1.00  0.00    -0.550 OA
ENDBRANCH   4   5
ENDBRANCH   3   4
ENDBRANCH   2   3
ENDBRANCH   1   2
BRANCH   1   8
ATOM      8  C   UNL     1      21.291   3.135  23.577  1.00  0.00     0.000 C 
BRANCH   8   9
ATOM      9  C   UNL     1      20.650   4.449  24.063  1.00  0.00    -0.000 C 
BRANCH   9  10
ATOM     10  C   UNL     1      19.228   4.311  24.640  1.00  0.00    -0.000 C 
BRANCH  10  11
ATOM     11  C   UNL     1      19.101   4.632  26.140  1.00  0.00    -0.000 C 
BRANCH  11  12
ATOM     12  C   UNL     1      18.817   3.389  26.994  1.00  0.00    -0.003 C 
ATOM     13  C   UNL     1      18.513   2.178  26.116  1.00  0.00     0.004 C 
ENDBRANCH  11  12
ENDBRANCH  10  11
ENDBRANCH   9  10
ENDBRANCH   8   9
ENDBRANCH   1   8
TORSDOF 9
ENDMDL
MODEL 7
REMARK VINA RESULT:    -3.379      1.520      2.101
REMARK INTER + INTRA:          -6.118
REMARK INTER:                  -4.762
REMARK INTRA:                  -1.357
REMARK UNBOUND:                -0.961
REMARK SMILES CCCCCCCCCCC(=O)[O-]
REMARK SMILES IDX 7 1 8 2 9 3 10 4 11 5 12 6 13 7 6 8 5 9 4 10 3 11 2 12 1 13
REMARK H PARENT
REMARK Flexibility Score: inf
ROOT
ATOM      1  C   UNL     1      19.082   3.567  25.364  1.00  0.00     0.000 C 
ENDROOT
BRANCH   1   2
ATOM      2  C   UNL     1      19.595   4.551  26.427  1.00  0.00     0.000 C 
BRANCH   2   3
ATOM      3  C   UNL     1      20.276   5.759  25.772  1.00  0.00     0.006 C 
BRANCH   3   4
ATOM      4  C   UNL     1      20.150   5.700  24.247  1.00  0.00     0.053 C 
BRANCH   4   5
ATOM      5  C   UNL     1      19.280   6.812  23.750  1.00  0.00     0.041 C 
ATOM      6  O   UNL     1      19.799   7.872  23.311  1.00  0.00    -0.550 OA
ATOM      7  O   UNL     1      17.900   6.659  23.726  1.00  0.00    -0.550 OA
ENDBRANCH   4   5
ENDBRANCH   3   4
ENDBRANCH   2   3
ENDBRANCH   1   2
BRANCH   1   8
ATOM      8  C   UNL     1      19.262   2.094  25.778  1.00  0.00     0.000 C 
BRANCH   8   9
ATOM      9  C   UNL     1      20.594   1.453  25.341  1.00  0.00    -0.000 C 
BRANCH   9  10
ATOM     10  C   UNL     1      21.287   2.132  24.144  1.00  0.00    -0.000 C 
BRANCH  10  11
ATOM     11  C   UNL     1      22.579   2.895  24.490  1.00  0.00    -0.000 C 
BRANCH  11  12
ATOM     12  C   UNL     1      22.935   2.817  25.981  1.00  0.00    -0.003 C 
ATOM     13  C   UNL     1      23.589   4.111  26.458  1.00  0.00     0.004 C 
ENDBRANCH  11  12
ENDBRANCH  10  11
ENDBRANCH   9  10
ENDBRANCH   8   9
ENDBRANCH   1   8
TORSDOF 9
ENDMDL
MODEL 8
REMARK VINA RESULT:    -3.352      1.282      2.154
REMARK INTER + INTRA:          -6.077
REMARK INTER:                  -4.863
REMARK INTRA:                  -1.214
REMARK UNBOUND:                -0.961
REMARK SMILES CCCCCCCCCCC(=O)[O-]
REMARK SMILES IDX 7 1 8 2 9 3 10 4 11 5 12 6 13 7 6 8 5 9 4 10 3 11 2 12 1 13
REMARK H PARENT
REMARK Flexibility Score: inf
ROOT
ATOM      1  C   UNL     1      19.979   4.828  26.511  1.00  0.00     0.000 C 
ENDROOT
BRANCH   1   2
ATOM      2  C   UNL     1      19.250   4.521  25.194  1.00  0.00     0.000 C 
BRANCH   2   3
ATOM      3  C   UNL     1      19.813   5.368  24.046  1.00  0.00     0.006 C 
BRANCH   3   4
ATOM      4  C   UNL     1      18.972   6.629  23.831  1.00  0.00     0.053 C 
BRANCH   4   5
ATOM      5  C   UNL     1      19.846   7.843  23.794  1.00  0.00     0.041 C 
ATOM      6  O   UNL     1      19.817   8.613  22.798  1.00  0.00    -0.550 OA
ATOM      7  O   UNL     1      20.656   8.150  24.879  1.00  0.00    -0.550 OA
ENDBRANCH   4   5
ENDBRANCH   3   4
ENDBRANCH   2   3
ENDBRANCH   1   2
BRANCH   1   8
ATOM      8  C   UNL     1      21.496   5.012  26.326  1.00  0.00     0.000 C 
BRANCH   8   9
ATOM      9  C   UNL     1      22.367   3.897  26.937  1.00  0.00    -0.000 C 
BRANCH   9  10
ATOM     10  C   UNL     1      22.587   2.668  26.034  1.00  0.00    -0.000 C 
BRANCH  10  11
ATOM     11  C   UNL     1      22.737   2.983  24.534  1.00  0.00    -0.000 C 
BRANCH  11  12
ATOM     12  C   UNL     1      21.727   2.223  23.663  1.00  0.00    -0.003 C 
ATOM     13  C   UNL     1      21.021   1.133  24.464  1.00  0.00     0.004 C 
ENDBRANCH  11  12
ENDBRANCH  10  11
ENDBRANCH   9  10
ENDBRANCH   8   9
ENDBRANCH   1   8
TORSDOF 9
ENDMDL
MODEL 9
REMARK VINA RESULT:    -3.346      3.118      4.848
REMARK INTER + INTRA:          -6.068
REMARK INTER:                  -4.943
REMARK INTRA:                  -1.125
REMARK UNBOUND:                -0.961
REMARK SMILES CCCCCCCCCCC(=O)[O-]
REMARK SMILES IDX 7 1 8 2 9 3 10 4 11 5 12 6 13 7 6 8 5 9 4 10 3 11 2 12 1 13
REMARK H PARENT
REMARK Flexibility Score: inf
ROOT
ATOM      1  C   UNL     1      21.042   1.295  24.453  1.00  0.00     0.000 C 
ENDROOT
BRANCH   1   2
ATOM      2  C   UNL     1      21.697   2.551  23.859  1.00  0.00     0.000 C 
BRANCH   2   3
ATOM      3  C   UNL     1      23.053   2.826  24.521  1.00  0.00     0.006 C 
BRANCH   3   4
ATOM      4  C   UNL     1      22.895   3.745  25.736  1.00  0.00     0.053 C 
BRANCH   4   5
ATOM      5  C   UNL     1      23.416   3.077  26.969  1.00  0.00     0.041 C 
ATOM      6  O   UNL     1      22.719   2.213  27.563  1.00  0.00    -0.550 OA
ATOM      7  O   UNL     1      24.691   3.371  27.434  1.00  0.00    -0.550 OA
ENDBRANCH   4   5
ENDBRANCH   3   4
ENDBRANCH   2   3
ENDBRANCH   1   2
BRANCH   1   8
ATOM      8  C   UNL     1      19.978   1.623  25.516  1.00  0.00     0.000 C 
BRANCH   8   9
ATOM      9  C   UNL     1      19.179   2.917  25.263  1.00  0.00    -0.000 C 
BRANCH   9  10
ATOM     10  C   UNL     1      19.221   3.948  26.408  1.00  0.00    -0.000 C 
BRANCH  10  11
ATOM     11  C   UNL     1      19.609   5.375  25.982  1.00  0.00    -0.000 C 
BRANCH  11  12
ATOM     12  C   UNL     1      19.660   5.549  24.458  1.00  0.00    -0.003 C 
ATOM     13  C   UNL     1      18.385   6.207  23.937  1.00  0.00     0.004 C 
ENDBRANCH  11  12
ENDBRANCH  10  11
ENDBRANCH   9  10
ENDBRANCH   8   9
ENDBRANCH   1   8
TORSDOF 9
ENDMDL
