MODEL 1
REMARK VINA RESULT:    -6.343      0.000      0.000
REMARK INTER + INTRA:          -7.963
REMARK INTER:                  -7.641
REMARK INTRA:                  -0.322
REMARK UNBOUND:                -0.322
REMARK SMILES O=c1c(O)c(-c2ccc(O)c(O)c2)oc2cc(O)cc(O)c12
REMARK SMILES IDX 5 1 3 2 2 3 1 4 22 5 20 6 19 7 17 8 16 9 15 10 14 11 6 12
REMARK SMILES IDX 7 13 8 14 9 15 13 16 11 17 10 18 12 20 4 22 21 24 18 26
REMARK H PARENT 10 19 12 21 4 23 21 25 18 27
REMARK Flexibility Score: inf
ROOT
ATOM      1  C   UNL     1      15.800 -19.630  19.505  1.00  0.00     0.180 A 
ATOM      2  C   UNL     1      14.946 -19.693  20.620  1.00  0.00     0.208 A 
ATOM      3  C   UNL     1      13.625 -20.136  20.441  1.00  0.00     0.238 A 
ATOM      4  O   UNL     1      12.881 -20.241  21.451  1.00  0.00    -0.285 OA
ATOM      5  C   UNL     1      13.170 -20.495  19.150  1.00  0.00     0.111 A 
ATOM      6  C   UNL     1      11.842 -20.918  18.847  1.00  0.00     0.134 A 
ATOM      7  C   UNL     1      11.539 -21.375  17.557  1.00  0.00     0.093 A 
ATOM      8  C   UNL     1      12.501 -21.360  16.544  1.00  0.00     0.123 A 
ATOM      9  C   UNL     1      13.784 -20.892  16.815  1.00  0.00     0.094 A 
ATOM     10  C   UNL     1      14.126 -20.465  18.100  1.00  0.00     0.146 A 
ATOM     11  O   UNL     1      15.364 -20.037  18.319  1.00  0.00    -0.452 OA
ENDROOT
BRANCH   1  12
ATOM     12  C   UNL     1      17.196 -19.151  19.609  1.00  0.00     0.025 A 
ATOM     13  C   UNL     1      17.463 -17.775  19.515  1.00  0.00     0.016 A 
ATOM     14  C   UNL     1      18.771 -17.298  19.631  1.00  0.00     0.051 A 
ATOM     15  C   UNL     1      19.830 -18.187  19.859  1.00  0.00     0.157 A 
ATOM     16  C   UNL     1      18.260 -20.038  19.859  1.00  0.00     0.062 A 
ATOM     17  C   UNL     1      19.572 -19.559  19.977  1.00  0.00     0.158 A 
BRANCH  15  18
ATOM     18  O   UNL     1      21.136 -17.716  19.974  1.00  0.00    -0.504 OA
ATOM     19  H   UNL     1      21.381 -16.767  19.720  1.00  0.00     0.293 HD
ENDBRANCH  15  18
BRANCH  17  20
ATOM     20  O   UNL     1      20.625 -20.440  20.218  1.00  0.00    -0.504 OA
ATOM     21  H   UNL     1      21.556 -20.108  20.440  1.00  0.00     0.293 HD
ENDBRANCH  17  20
ENDBRANCH   1  12
BRANCH   2  22
ATOM     22  O   UNL     1      15.420 -19.354  21.890  1.00  0.00    -0.502 OA
ATOM     23  H   UNL     1      16.310 -19.683  22.244  1.00  0.00     0.293 HD
ENDBRANCH   2  22
BRANCH   6  24
ATOM     24  O   UNL     1      10.784 -20.885  19.761  1.00  0.00    -0.507 OA
ATOM     25  H   UNL     1       9.924 -20.377  19.625  1.00  0.00     0.293 HD
ENDBRANCH   6  24
BRANCH   8  26
ATOM     26  O   UNL     1      12.187 -21.800  15.260  1.00  0.00    -0.508 OA
ATOM     27  H   UNL     1      12.135 -21.158  14.477  1.00  0.00     0.293 HD
ENDBRANCH   8  26
TORSDOF 6
ENDMDL
MODEL 2
REMARK VINA RESULT:    -6.196      1.250      1.842
REMARK INTER + INTRA:          -7.785
REMARK INTER:                  -7.604
REMARK INTRA:                  -0.181
REMARK UNBOUND:                -0.322
REMARK SMILES O=c1c(O)c(-c2ccc(O)c(O)c2)oc2cc(O)cc(O)c12
REMARK SMILES IDX 5 1 3 2 2 3 1 4 22 5 20 6 19 7 17 8 16 9 15 10 14 11 6 12
REMARK SMILES IDX 7 13 8 14 9 15 13 16 11 17 10 18 12 20 4 22 21 24 18 26
REMARK H PARENT 10 19 12 21 4 23 21 25 18 27
REMARK Flexibility Score: inf
ROOT
ATOM      1  C   UNL     1      14.345 -20.330  18.950  1.00  0.00     0.180 A 
ATOM      2  C   UNL     1      13.354 -20.643  19.896  1.00  0.00     0.208 A 
ATOM      3  C   UNL     1      12.131 -21.170  19.450  1.00  0.00     0.238 A 
ATOM      4  O   UNL     1      11.267 -21.499  20.306  1.00  0.00    -0.285 OA
ATOM      5  C   UNL     1      11.908 -21.362  18.066  1.00  0.00     0.111 A 
ATOM      6  C   UNL     1      10.692 -21.851  17.501  1.00  0.00     0.134 A 
ATOM      7  C   UNL     1      10.630 -22.125  16.129  1.00  0.00     0.093 A 
ATOM      8  C   UNL     1      11.718 -21.865  15.292  1.00  0.00     0.123 A 
ATOM      9  C   UNL     1      12.888 -21.331  15.825  1.00  0.00     0.094 A 
ATOM     10  C   UNL     1      12.994 -21.082  17.195  1.00  0.00     0.146 A 
ATOM     11  O   UNL     1      14.131 -20.583  17.664  1.00  0.00    -0.452 OA
ENDROOT
BRANCH   1  12
ATOM     12  C   UNL     1      15.650 -19.748  19.340  1.00  0.00     0.025 A 
ATOM     13  C   UNL     1      15.693 -18.460  19.898  1.00  0.00     0.016 A 
ATOM     14  C   UNL     1      16.910 -17.900  20.292  1.00  0.00     0.051 A 
ATOM     15  C   UNL     1      18.101 -18.625  20.148  1.00  0.00     0.157 A 
ATOM     16  C   UNL     1      16.845 -20.480  19.216  1.00  0.00     0.062 A 
ATOM     17  C   UNL     1      18.067 -19.918  19.613  1.00  0.00     0.158 A 
BRANCH  15  18
ATOM     18  O   UNL     1      19.318 -18.069  20.539  1.00  0.00    -0.504 OA
ATOM     19  H   UNL     1      20.147 -18.150  19.962  1.00  0.00     0.293 HD
ENDBRANCH  15  18
BRANCH  17  20
ATOM     20  O   UNL     1      19.251 -20.643  19.483  1.00  0.00    -0.504 OA
ATOM     21  H   UNL     1      19.693 -21.085  20.281  1.00  0.00     0.293 HD
ENDBRANCH  17  20
ENDBRANCH   1  12
BRANCH   2  22
ATOM     22  O   UNL     1      13.602 -20.466  21.259  1.00  0.00    -0.502 OA
ATOM     23  H   UNL     1      13.275 -19.656  21.771  1.00  0.00     0.293 HD
ENDBRANCH   2  22
BRANCH   6  24
ATOM     24  O   UNL     1       9.518 -22.057  18.232  1.00  0.00    -0.507 OA
ATOM     25  H   UNL     1       9.429 -22.697  19.006  1.00  0.00     0.293 HD
ENDBRANCH   6  24
BRANCH   8  26
ATOM     26  O   UNL     1      11.641 -22.125  13.925  1.00  0.00    -0.508 OA
ATOM     27  H   UNL     1      11.897 -23.028  13.542  1.00  0.00     0.293 HD
ENDBRANCH   8  26
TORSDOF 6
ENDMDL
MODEL 3
REMARK VINA RESULT:    -6.189      2.040      3.496
REMARK INTER + INTRA:          -7.778
REMARK INTER:                  -7.641
REMARK INTRA:                  -0.136
REMARK UNBOUND:                -0.322
REMARK SMILES O=c1c(O)c(-c2ccc(O)c(O)c2)oc2cc(O)cc(O)c12
REMARK SMILES IDX 5 1 3 2 2 3 1 4 22 5 20 6 19 7 17 8 16 9 15 10 14 11 6 12
REMARK SMILES IDX 7 13 8 14 9 15 13 16 11 17 10 18 12 20 4 22 21 24 18 26
REMARK H PARENT 10 19 12 21 4 23 21 25 18 27
REMARK Flexibility Score: inf
ROOT
ATOM      1  C   UNL     1      13.493 -20.918  17.821  1.00  0.00     0.180 A 
ATOM      2  C   UNL     1      12.436 -21.158  18.715  1.00  0.00     0.208 A 
ATOM      3  C   UNL     1      11.178 -21.512  18.201  1.00  0.00     0.238 A 
ATOM      4  O   UNL     1      10.248 -21.779  19.008  1.00  0.00    -0.285 OA
ATOM      5  C   UNL     1      10.989 -21.607  16.802  1.00  0.00     0.111 A 
ATOM      6  C   UNL     1       9.747 -21.919  16.171  1.00  0.00     0.134 A 
ATOM      7  C   UNL     1       9.708 -22.115  14.784  1.00  0.00     0.093 A 
ATOM      8  C   UNL     1      10.851 -21.944  13.999  1.00  0.00     0.123 A 
ATOM      9  C   UNL     1      12.054 -21.581  14.599  1.00  0.00     0.094 A 
ATOM     10  C   UNL     1      12.134 -21.415  15.984  1.00  0.00     0.146 A 
ATOM     11  O   UNL     1      13.302 -21.079  16.517  1.00  0.00    -0.452 OA
ENDROOT
BRANCH   1  12
ATOM     12  C   UNL     1      14.840 -20.515  18.285  1.00  0.00     0.025 A 
ATOM     13  C   UNL     1      15.600 -21.408  19.060  1.00  0.00     0.016 A 
ATOM     14  C   UNL     1      16.881 -21.057  19.491  1.00  0.00     0.051 A 
ATOM     15  C   UNL     1      17.429 -19.816  19.141  1.00  0.00     0.157 A 
ATOM     16  C   UNL     1      15.402 -19.278  17.920  1.00  0.00     0.062 A 
ATOM     17  C   UNL     1      16.690 -18.927  18.352  1.00  0.00     0.158 A 
BRANCH  15  18
ATOM     18  O   UNL     1      18.707 -19.461  19.571  1.00  0.00    -0.504 OA
ATOM     19  H   UNL     1      19.093 -18.544  19.383  1.00  0.00     0.293 HD
ENDBRANCH  15  18
BRANCH  17  20
ATOM     20  O   UNL     1      17.242 -17.698  17.994  1.00  0.00    -0.504 OA
ATOM     21  H   UNL     1      18.225 -17.603  17.769  1.00  0.00     0.293 HD
ENDBRANCH  17  20
ENDBRANCH   1  12
BRANCH   2  22
ATOM     22  O   UNL     1      12.648 -21.080  20.094  1.00  0.00    -0.502 OA
ATOM     23  H   UNL     1      12.368 -20.277  20.643  1.00  0.00     0.293 HD
ENDBRANCH   2  22
BRANCH   6  24
ATOM     24  O   UNL     1       8.529 -22.020  16.850  1.00  0.00    -0.507 OA
ATOM     25  H   UNL     1       8.423 -22.378  17.787  1.00  0.00     0.293 HD
ENDBRANCH   6  24
BRANCH   8  26
ATOM     26  O   UNL     1      10.799 -22.125  12.619  1.00  0.00    -0.508 OA
ATOM     27  H   UNL     1       9.939 -21.989  12.099  1.00  0.00     0.293 HD
ENDBRANCH   8  26
TORSDOF 6
ENDMDL
MODEL 4
REMARK VINA RESULT:    -6.158      1.347      2.854
REMARK INTER + INTRA:          -7.740
REMARK INTER:                  -7.444
REMARK INTRA:                  -0.296
REMARK UNBOUND:                -0.322
REMARK SMILES O=c1c(O)c(-c2ccc(O)c(O)c2)oc2cc(O)cc(O)c12
REMARK SMILES IDX 5 1 3 2 2 3 1 4 22 5 20 6 19 7 17 8 16 9 15 10 14 11 6 12
REMARK SMILES IDX 7 13 8 14 9 15 13 16 11 17 10 18 12 20 4 22 21 24 18 26
REMARK H PARENT 10 19 12 21 4 23 21 25 18 27
REMARK Flexibility Score: inf
ROOT
ATOM      1  C   UNL     1      16.220 -19.553  19.280  1.00  0.00     0.180 A 
ATOM      2  C   UNL     1      15.744 -19.579  17.958  1.00  0.00     0.208 A 
ATOM      3  C   UNL     1      14.502 -20.179  17.693  1.00  0.00     0.238 A 
ATOM      4  O   UNL     1      14.057 -20.151  16.515  1.00  0.00    -0.285 OA
ATOM      5  C   UNL     1      13.760 -20.758  18.749  1.00  0.00     0.111 A 
ATOM      6  C   UNL     1      12.509 -21.427  18.589  1.00  0.00     0.134 A 
ATOM      7  C   UNL     1      11.801 -21.847  19.722  1.00  0.00     0.093 A 
ATOM      8  C   UNL     1      12.329 -21.681  21.005  1.00  0.00     0.123 A 
ATOM      9  C   UNL     1      13.576 -21.083  21.167  1.00  0.00     0.094 A 
ATOM     10  C   UNL     1      14.290 -20.620  20.059  1.00  0.00     0.146 A 
ATOM     11  O   UNL     1      15.470 -20.046  20.259  1.00  0.00    -0.452 OA
ENDROOT
BRANCH   1  12
ATOM     12  C   UNL     1      17.530 -18.962  19.634  1.00  0.00     0.025 A 
ATOM     13  C   UNL     1      17.639 -17.571  19.800  1.00  0.00     0.016 A 
ATOM     14  C   UNL     1      18.861 -16.994  20.154  1.00  0.00     0.051 A 
ATOM     15  C   UNL     1      19.988 -17.800  20.363  1.00  0.00     0.157 A 
ATOM     16  C   UNL     1      18.660 -19.768  19.864  1.00  0.00     0.062 A 
ATOM     17  C   UNL     1      19.886 -19.189  20.221  1.00  0.00     0.158 A 
BRANCH  15  18
ATOM     18  O   UNL     1      21.210 -17.227  20.715  1.00  0.00    -0.504 OA
ATOM     19  H   UNL     1      21.670 -16.553  20.116  1.00  0.00     0.293 HD
ENDBRANCH  15  18
BRANCH  17  20
ATOM     20  O   UNL     1      21.006 -19.989  20.443  1.00  0.00    -0.504 OA
ATOM     21  H   UNL     1      21.390 -20.119  21.372  1.00  0.00     0.293 HD
ENDBRANCH  17  20
ENDBRANCH   1  12
BRANCH   2  22
ATOM     22  O   UNL     1      16.483 -18.982  16.932  1.00  0.00    -0.502 OA
ATOM     23  H   UNL     1      17.075 -19.515  16.307  1.00  0.00     0.293 HD
ENDBRANCH   2  22
BRANCH   6  24
ATOM     24  O   UNL     1      11.937 -21.726  17.348  1.00  0.00    -0.507 OA
ATOM     25  H   UNL     1      10.989 -21.504  17.086  1.00  0.00     0.293 HD
ENDBRANCH   6  24
BRANCH   8  26
ATOM     26  O   UNL     1      11.624 -22.116  22.125  1.00  0.00    -0.508 OA
ATOM     27  H   UNL     1      11.023 -21.491  22.649  1.00  0.00     0.293 HD
ENDBRANCH   8  26
TORSDOF 6
ENDMDL
MODEL 5
REMARK VINA RESULT:    -6.063      1.496      3.210
REMARK INTER + INTRA:          -7.625
REMARK INTER:                  -7.365
REMARK INTRA:                  -0.259
REMARK UNBOUND:                -0.322
REMARK SMILES O=c1c(O)c(-c2ccc(O)c(O)c2)oc2cc(O)cc(O)c12
REMARK SMILES IDX 5 1 3 2 2 3 1 4 22 5 20 6 19 7 17 8 16 9 15 10 14 11 6 12
REMARK SMILES IDX 7 13 8 14 9 15 13 16 11 17 10 18 12 20 4 22 21 24 18 26
REMARK H PARENT 10 19 12 21 4 23 21 25 18 27
REMARK Flexibility Score: inf
ROOT
ATOM      1  C   UNL     1      16.228 -19.518  19.293  1.00  0.00     0.180 A 
ATOM      2  C   UNL     1      15.759 -19.536  17.969  1.00  0.00     0.208 A 
ATOM      3  C   UNL     1      14.520 -20.137  17.693  1.00  0.00     0.238 A 
ATOM      4  O   UNL     1      14.080 -20.102  16.514  1.00  0.00    -0.285 OA
ATOM      5  C   UNL     1      13.773 -20.724  18.742  1.00  0.00     0.111 A 
ATOM      6  C   UNL     1      12.524 -21.394  18.571  1.00  0.00     0.134 A 
ATOM      7  C   UNL     1      11.811 -21.823  19.698  1.00  0.00     0.093 A 
ATOM      8  C   UNL     1      12.332 -21.664  20.984  1.00  0.00     0.123 A 
ATOM      9  C   UNL     1      13.577 -21.065  21.157  1.00  0.00     0.094 A 
ATOM     10  C   UNL     1      14.296 -20.594  20.056  1.00  0.00     0.146 A 
ATOM     11  O   UNL     1      15.474 -20.019  20.265  1.00  0.00    -0.452 OA
ENDROOT
BRANCH   1  12
ATOM     12  C   UNL     1      17.535 -18.926  19.658  1.00  0.00     0.025 A 
ATOM     13  C   UNL     1      18.628 -19.770  19.913  1.00  0.00     0.016 A 
ATOM     14  C   UNL     1      19.876 -19.233  20.239  1.00  0.00     0.051 A 
ATOM     15  C   UNL     1      20.054 -17.845  20.298  1.00  0.00     0.157 A 
ATOM     16  C   UNL     1      17.723 -17.532  19.699  1.00  0.00     0.062 A 
ATOM     17  C   UNL     1      18.976 -16.994  20.024  1.00  0.00     0.158 A 
BRANCH  15  18
ATOM     18  O   UNL     1      21.297 -17.305  20.624  1.00  0.00    -0.504 OA
ATOM     19  H   UNL     1      22.123 -17.886  20.702  1.00  0.00     0.293 HD
ENDBRANCH  15  18
BRANCH  17  20
ATOM     20  O   UNL     1      19.159 -15.612  20.070  1.00  0.00    -0.504 OA
ATOM     21  H   UNL     1      19.117 -15.100  20.943  1.00  0.00     0.293 HD
ENDBRANCH  17  20
ENDBRANCH   1  12
BRANCH   2  22
ATOM     22  O   UNL     1      16.502 -18.932  16.951  1.00  0.00    -0.502 OA
ATOM     23  H   UNL     1      16.511 -19.283  16.001  1.00  0.00     0.293 HD
ENDBRANCH   2  22
BRANCH   6  24
ATOM     24  O   UNL     1      11.959 -21.687  17.326  1.00  0.00    -0.507 OA
ATOM     25  H   UNL     1      12.216 -22.473  16.750  1.00  0.00     0.293 HD
ENDBRANCH   6  24
BRANCH   8  26
ATOM     26  O   UNL     1      11.622 -22.108  22.098  1.00  0.00    -0.508 OA
ATOM     27  H   UNL     1      11.588 -21.567  22.955  1.00  0.00     0.293 HD
ENDBRANCH   8  26
TORSDOF 6
ENDMDL
MODEL 6
REMARK VINA RESULT:    -6.048      2.072      7.177
REMARK INTER + INTRA:          -7.607
REMARK INTER:                  -7.289
REMARK INTRA:                  -0.318
REMARK UNBOUND:                -0.322
REMARK SMILES O=c1c(O)c(-c2ccc(O)c(O)c2)oc2cc(O)cc(O)c12
REMARK SMILES IDX 5 1 3 2 2 3 1 4 22 5 20 6 19 7 17 8 16 9 15 10 14 11 6 12
REMARK SMILES IDX 7 13 8 14 9 15 13 16 11 17 10 18 12 20 4 22 21 24 18 26
REMARK H PARENT 10 19 12 21 4 23 21 25 18 27
REMARK Flexibility Score: inf
ROOT
ATOM      1  C   UNL     1      16.471 -19.071  19.514  1.00  0.00     0.180 A 
ATOM      2  C   UNL     1      17.736 -19.682  19.562  1.00  0.00     0.208 A 
ATOM      3  C   UNL     1      18.820 -18.962  20.089  1.00  0.00     0.238 A 
ATOM      4  O   UNL     1      19.939 -19.533  20.179  1.00  0.00    -0.285 OA
ATOM      5  C   UNL     1      18.630 -17.636  20.546  1.00  0.00     0.111 A 
ATOM      6  C   UNL     1      19.666 -16.801  21.062  1.00  0.00     0.134 A 
ATOM      7  C   UNL     1      19.339 -15.552  21.607  1.00  0.00     0.093 A 
ATOM      8  C   UNL     1      18.023 -15.083  21.595  1.00  0.00     0.123 A 
ATOM      9  C   UNL     1      17.015 -15.867  21.039  1.00  0.00     0.094 A 
ATOM     10  C   UNL     1      17.304 -17.131  20.522  1.00  0.00     0.146 A 
ATOM     11  O   UNL     1      16.311 -17.851  20.012  1.00  0.00    -0.452 OA
ENDROOT
BRANCH   1  12
ATOM     12  C   UNL     1      15.286 -19.757  18.950  1.00  0.00     0.025 A 
ATOM     13  C   UNL     1      14.978 -19.597  17.589  1.00  0.00     0.016 A 
ATOM     14  C   UNL     1      13.877 -20.250  17.032  1.00  0.00     0.051 A 
ATOM     15  C   UNL     1      13.077 -21.086  17.822  1.00  0.00     0.157 A 
ATOM     16  C   UNL     1      14.492 -20.613  19.735  1.00  0.00     0.062 A 
ATOM     17  C   UNL     1      13.387 -21.270  19.175  1.00  0.00     0.158 A 
BRANCH  15  18
ATOM     18  O   UNL     1      11.976 -21.739  17.269  1.00  0.00    -0.504 OA
ATOM     19  H   UNL     1      12.084 -22.571  16.702  1.00  0.00     0.293 HD
ENDBRANCH  15  18
BRANCH  17  20
ATOM     20  O   UNL     1      12.599 -22.113  19.956  1.00  0.00    -0.504 OA
ATOM     21  H   UNL     1      11.711 -22.471  19.621  1.00  0.00     0.293 HD
ENDBRANCH  17  20
ENDBRANCH   1  12
BRANCH   2  22
ATOM     22  O   UNL     1      17.898 -21.000  19.125  1.00  0.00    -0.502 OA
ATOM     23  H   UNL     1      18.582 -21.261  18.426  1.00  0.00     0.293 HD
ENDBRANCH   2  22
BRANCH   6  24
ATOM     24  O   UNL     1      21.024 -17.134  21.037  1.00  0.00    -0.507 OA
ATOM     25  H   UNL     1      21.500 -17.542  20.247  1.00  0.00     0.293 HD
ENDBRANCH   6  24
BRANCH   8  26
ATOM     26  O   UNL     1      17.710 -13.833  22.125  1.00  0.00    -0.508 OA
ATOM     27  H   UNL     1      17.884 -13.611  23.098  1.00  0.00     0.293 HD
ENDBRANCH   8  26
TORSDOF 6
ENDMDL
MODEL 7
REMARK VINA RESULT:    -6.009      1.592      7.068
REMARK INTER + INTRA:          -7.561
REMARK INTER:                  -7.250
REMARK INTRA:                  -0.311
REMARK UNBOUND:                -0.322
REMARK SMILES O=c1c(O)c(-c2ccc(O)c(O)c2)oc2cc(O)cc(O)c12
REMARK SMILES IDX 5 1 3 2 2 3 1 4 22 5 20 6 19 7 17 8 16 9 15 10 14 11 6 12
REMARK SMILES IDX 7 13 8 14 9 15 13 16 11 17 10 18 12 20 4 22 21 24 18 26
REMARK H PARENT 10 19 12 21 4 23 21 25 18 27
REMARK Flexibility Score: inf
ROOT
ATOM      1  C   UNL     1      15.375 -19.603  18.345  1.00  0.00     0.180 A 
ATOM      2  C   UNL     1      15.613 -18.267  17.980  1.00  0.00     0.208 A 
ATOM      3  C   UNL     1      16.847 -17.681  18.308  1.00  0.00     0.238 A 
ATOM      4  O   UNL     1      17.076 -16.502  17.931  1.00  0.00    -0.285 OA
ATOM      5  C   UNL     1      17.819 -18.433  19.012  1.00  0.00     0.111 A 
ATOM      6  C   UNL     1      19.086 -17.928  19.431  1.00  0.00     0.134 A 
ATOM      7  C   UNL     1      20.021 -18.799  20.004  1.00  0.00     0.093 A 
ATOM      8  C   UNL     1      19.709 -20.142  20.233  1.00  0.00     0.123 A 
ATOM      9  C   UNL     1      18.453 -20.629  19.882  1.00  0.00     0.094 A 
ATOM     10  C   UNL     1      17.513 -19.794  19.275  1.00  0.00     0.146 A 
ATOM     11  O   UNL     1      16.331 -20.302  18.946  1.00  0.00    -0.452 OA
ENDROOT
BRANCH   1  12
ATOM     12  C   UNL     1      14.091 -20.280  18.056  1.00  0.00     0.025 A 
ATOM     13  C   UNL     1      13.077 -20.284  19.028  1.00  0.00     0.016 A 
ATOM     14  C   UNL     1      11.850 -20.900  18.770  1.00  0.00     0.051 A 
ATOM     15  C   UNL     1      11.612 -21.507  17.529  1.00  0.00     0.157 A 
ATOM     16  C   UNL     1      13.840 -20.874  16.805  1.00  0.00     0.062 A 
ATOM     17  C   UNL     1      12.608 -21.491  16.545  1.00  0.00     0.158 A 
BRANCH  15  18
ATOM     18  O   UNL     1      10.390 -22.124  17.268  1.00  0.00    -0.504 OA
ATOM     19  H   UNL     1       9.568 -21.587  17.020  1.00  0.00     0.293 HD
ENDBRANCH  15  18
BRANCH  17  20
ATOM     20  O   UNL     1      12.364 -22.084  15.307  1.00  0.00    -0.504 OA
ATOM     21  H   UNL     1      12.852 -22.922  15.015  1.00  0.00     0.293 HD
ENDBRANCH  17  20
ENDBRANCH   1  12
BRANCH   2  22
ATOM     22  O   UNL     1      14.649 -17.549  17.267  1.00  0.00    -0.502 OA
ATOM     23  H   UNL     1      14.891 -16.836  16.591  1.00  0.00     0.293 HD
ENDBRANCH   2  22
BRANCH   6  24
ATOM     24  O   UNL     1      19.463 -16.585  19.333  1.00  0.00    -0.507 OA
ATOM     25  H   UNL     1      20.363 -16.220  19.605  1.00  0.00     0.293 HD
ENDBRANCH   6  24
BRANCH   8  26
ATOM     26  O   UNL     1      20.639 -20.997  20.819  1.00  0.00    -0.508 OA
ATOM     27  H   UNL     1      20.781 -21.019  21.823  1.00  0.00     0.293 HD
ENDBRANCH   8  26
TORSDOF 6
ENDMDL
MODEL 8
REMARK VINA RESULT:    -5.977      1.702      6.890
REMARK INTER + INTRA:          -7.522
REMARK INTER:                  -7.414
REMARK INTRA:                  -0.108
REMARK UNBOUND:                -0.322
REMARK SMILES O=c1c(O)c(-c2ccc(O)c(O)c2)oc2cc(O)cc(O)c12
REMARK SMILES IDX 5 1 3 2 2 3 1 4 22 5 20 6 19 7 17 8 16 9 15 10 14 11 6 12
REMARK SMILES IDX 7 13 8 14 9 15 13 16 11 17 10 18 12 20 4 22 21 24 18 26
REMARK H PARENT 10 19 12 21 4 23 21 25 18 27
REMARK Flexibility Score: inf
ROOT
ATOM      1  C   UNL     1      14.189 -20.408  18.250  1.00  0.00     0.180 A 
ATOM      2  C   UNL     1      14.648 -21.045  19.415  1.00  0.00     0.208 A 
ATOM      3  C   UNL     1      15.806 -20.560  20.045  1.00  0.00     0.238 A 
ATOM      4  O   UNL     1      16.182 -21.101  21.118  1.00  0.00    -0.285 OA
ATOM      5  C   UNL     1      16.497 -19.454  19.495  1.00  0.00     0.111 A 
ATOM      6  C   UNL     1      17.701 -18.905  20.028  1.00  0.00     0.134 A 
ATOM      7  C   UNL     1      18.227 -17.728  19.477  1.00  0.00     0.093 A 
ATOM      8  C   UNL     1      17.627 -17.120  18.372  1.00  0.00     0.123 A 
ATOM      9  C   UNL     1      16.485 -17.683  17.807  1.00  0.00     0.094 A 
ATOM     10  C   UNL     1      15.916 -18.834  18.357  1.00  0.00     0.146 A 
ATOM     11  O   UNL     1      14.821 -19.332  17.795  1.00  0.00    -0.452 OA
ENDROOT
BRANCH   1  12
ATOM     12  C   UNL     1      12.992 -20.877  17.515  1.00  0.00     0.025 A 
ATOM     13  C   UNL     1      11.741 -20.864  18.153  1.00  0.00     0.016 A 
ATOM     14  C   UNL     1      10.595 -21.283  17.472  1.00  0.00     0.051 A 
ATOM     15  C   UNL     1      10.681 -21.705  16.139  1.00  0.00     0.157 A 
ATOM     16  C   UNL     1      13.070 -21.282  16.170  1.00  0.00     0.062 A 
ATOM     17  C   UNL     1      11.919 -21.701  15.486  1.00  0.00     0.158 A 
BRANCH  15  18
ATOM     18  O   UNL     1       9.540 -22.125  15.456  1.00  0.00    -0.504 OA
ATOM     19  H   UNL     1       9.230 -23.089  15.486  1.00  0.00     0.293 HD
ENDBRANCH  15  18
BRANCH  17  20
ATOM     20  O   UNL     1      12.000 -22.108  14.155  1.00  0.00    -0.504 OA
ATOM     21  H   UNL     1      12.450 -21.535  13.451  1.00  0.00     0.293 HD
ENDBRANCH  17  20
ENDBRANCH   1  12
BRANCH   2  22
ATOM     22  O   UNL     1      13.939 -22.122  19.954  1.00  0.00    -0.502 OA
ATOM     23  H   UNL     1      14.273 -23.077  19.896  1.00  0.00     0.293 HD
ENDBRANCH   2  22
BRANCH   6  24
ATOM     24  O   UNL     1      18.430 -19.485  21.071  1.00  0.00    -0.507 OA
ATOM     25  H   UNL     1      18.636 -19.033  21.948  1.00  0.00     0.293 HD
ENDBRANCH   6  24
BRANCH   8  26
ATOM     26  O   UNL     1      18.166 -15.959  17.820  1.00  0.00    -0.508 OA
ATOM     27  H   UNL     1      18.761 -15.342  18.361  1.00  0.00     0.293 HD
ENDBRANCH   8  26
TORSDOF 6
ENDMDL
MODEL 9
REMARK VINA RESULT:    -4.061      2.322      4.271
REMARK INTER + INTRA:          -5.213
REMARK INTER:                  -4.949
REMARK INTRA:                  -0.264
REMARK UNBOUND:                -0.322
REMARK SMILES O=c1c(O)c(-c2ccc(O)c(O)c2)oc2cc(O)cc(O)c12
REMARK SMILES IDX 5 1 3 2 2 3 1 4 22 5 20 6 19 7 17 8 16 9 15 10 14 11 6 12
REMARK SMILES IDX 7 13 8 14 9 15 13 16 11 17 10 18 12 20 4 22 21 24 18 26
REMARK H PARENT 10 19 12 21 4 23 21 25 18 27
REMARK Flexibility Score: inf
ROOT
ATOM      1  C   UNL     1      13.148 -19.993  18.887  1.00  0.00     0.180 A 
ATOM      2  C   UNL     1      12.687 -20.849  17.871  1.00  0.00     0.208 A 
ATOM      3  C   UNL     1      11.338 -21.241  17.871  1.00  0.00     0.238 A 
ATOM      4  O   UNL     1      10.919 -21.963  16.929  1.00  0.00    -0.285 OA
ATOM      5  C   UNL     1      10.472 -20.786  18.894  1.00  0.00     0.111 A 
ATOM      6  C   UNL     1       9.098 -21.152  19.014  1.00  0.00     0.134 A 
ATOM      7  C   UNL     1       8.303 -20.538  19.991  1.00  0.00     0.093 A 
ATOM      8  C   UNL     1       8.849 -19.621  20.893  1.00  0.00     0.123 A 
ATOM      9  C   UNL     1      10.203 -19.302  20.821  1.00  0.00     0.094 A 
ATOM     10  C   UNL     1      11.013 -19.870  19.835  1.00  0.00     0.146 A 
ATOM     11  O   UNL     1      12.296 -19.531  19.794  1.00  0.00    -0.452 OA
ENDROOT
BRANCH   1  12
ATOM     12  C   UNL     1      14.560 -19.557  18.968  1.00  0.00     0.025 A 
ATOM     13  C   UNL     1      15.419 -20.166  19.899  1.00  0.00     0.016 A 
ATOM     14  C   UNL     1      16.760 -19.784  19.979  1.00  0.00     0.051 A 
ATOM     15  C   UNL     1      17.267 -18.801  19.119  1.00  0.00     0.157 A 
ATOM     16  C   UNL     1      15.079 -18.584  18.094  1.00  0.00     0.062 A 
ATOM     17  C   UNL     1      16.426 -18.203  18.173  1.00  0.00     0.158 A 
BRANCH  15  18
ATOM     18  O   UNL     1      18.605 -18.416  19.197  1.00  0.00    -0.504 OA
ATOM     19  H   UNL     1      18.870 -17.456  19.381  1.00  0.00     0.293 HD
ENDBRANCH  15  18
BRANCH  17  20
ATOM     20  O   UNL     1      16.935 -17.234  17.310  1.00  0.00    -0.504 OA
ATOM     21  H   UNL     1      16.354 -16.490  16.944  1.00  0.00     0.293 HD
ENDBRANCH  17  20
ENDBRANCH   1  12
BRANCH   2  22
ATOM     22  O   UNL     1      13.553 -21.270  16.859  1.00  0.00    -0.502 OA
ATOM     23  H   UNL     1      13.322 -22.023  16.223  1.00  0.00     0.293 HD
ENDBRANCH   2  22
BRANCH   6  24
ATOM     24  O   UNL     1       8.477 -22.125  18.226  1.00  0.00    -0.507 OA
ATOM     25  H   UNL     1       8.389 -23.097  18.477  1.00  0.00     0.293 HD
ENDBRANCH   6  24
BRANCH   8  26
ATOM     26  O   UNL     1       8.054 -19.027  21.871  1.00  0.00    -0.508 OA
ATOM     27  H   UNL     1       7.241 -19.499  22.252  1.00  0.00     0.293 HD
ENDBRANCH   8  26
TORSDOF 6
ENDMDL
