MODEL 1
REMARK VINA RESULT:    -5.071      0.000      0.000
REMARK INTER + INTRA:          -6.907
REMARK INTER:                  -6.554
REMARK INTRA:                  -0.354
REMARK UNBOUND:                -0.354
REMARK SMILES CO[C@]1(CO)O[C@H](CO)[C@H](O)[C@@H]1O
REMARK SMILES IDX 3 1 12 2 10 3 7 4 6 5 2 6 1 7 4 8 5 9 13 11 11 13 8 15 9 16
REMARK H PARENT 5 10 13 12 11 14 9 17
REMARK Flexibility Score: inf
ROOT
ATOM      1  C   UNL     1      22.934   4.576  37.702  1.00  0.00     0.221 C 
ATOM      2  C   UNL     1      21.587   4.398  36.962  1.00  0.00     0.207 C 
ATOM      3  C   UNL     1      21.824   5.063  35.625  1.00  0.00     0.180 C 
ATOM      4  C   UNL     1      22.979   6.033  35.906  1.00  0.00     0.179 C 
ATOM      5  O   UNL     1      23.576   5.709  37.147  1.00  0.00    -0.337 OA
ENDROOT
BRANCH   1   6
ATOM      6  O   UNL     1      22.738   4.851  39.089  1.00  0.00    -0.349 OA
ATOM      7  C   UNL     1      23.929   4.794  39.853  1.00  0.00     0.198 C 
ENDBRANCH   1   6
BRANCH   1   8
ATOM      8  C   UNL     1      23.880   3.354  37.493  1.00  0.00     0.224 C 
BRANCH   8   9
ATOM      9  O   UNL     1      23.157   2.173  37.270  1.00  0.00    -0.391 OA
ATOM     10  H   UNL     1      23.817   1.469  37.040  1.00  0.00     0.210 HD
ENDBRANCH   8   9
ENDBRANCH   1   8
BRANCH   2  11
ATOM     11  O   UNL     1      20.514   4.997  37.656  1.00  0.00    -0.385 OA
ATOM     12  H   UNL     1      20.142   5.722  37.089  1.00  0.00     0.211 HD
ENDBRANCH   2  11
BRANCH   3  13
ATOM     13  O   UNL     1      20.672   5.704  35.133  1.00  0.00    -0.387 OA
ATOM     14  H   UNL     1      20.941   6.633  34.910  1.00  0.00     0.211 HD
ENDBRANCH   3  13
BRANCH   4  15
ATOM     15  C   UNL     1      22.568   7.517  35.912  1.00  0.00     0.191 C 
BRANCH  15  16
ATOM     16  O   UNL     1      22.712   8.069  34.630  1.00  0.00    -0.394 OA
ATOM     17  H   UNL     1      23.588   8.536  34.616  1.00  0.00     0.210 HD
ENDBRANCH  15  16
ENDBRANCH   4  15
TORSDOF 7
ENDMDL
MODEL 2
REMARK VINA RESULT:    -4.635      2.013      3.602
REMARK INTER + INTRA:          -6.343
REMARK INTER:                  -6.126
REMARK INTRA:                  -0.217
REMARK UNBOUND:                -0.354
REMARK SMILES CO[C@]1(CO)O[C@H](CO)[C@H](O)[C@@H]1O
REMARK SMILES IDX 3 1 12 2 10 3 7 4 6 5 2 6 1 7 4 8 5 9 13 11 11 13 8 15 9 16
REMARK H PARENT 5 10 13 12 11 14 9 17
REMARK Flexibility Score: inf
ROOT
ATOM      1  C   UNL     1      21.980   3.651  38.437  1.00  0.00     0.221 C 
ATOM      2  C   UNL     1      22.708   4.359  37.269  1.00  0.00     0.207 C 
ATOM      3  C   UNL     1      24.170   4.257  37.645  1.00  0.00     0.180 C 
ATOM      4  C   UNL     1      24.136   4.066  39.168  1.00  0.00     0.179 C 
ATOM      5  O   UNL     1      22.822   3.733  39.572  1.00  0.00    -0.337 OA
ENDROOT
BRANCH   1   6
ATOM      6  O   UNL     1      20.764   4.317  38.777  1.00  0.00    -0.349 OA
ATOM      7  C   UNL     1      20.303   4.025  40.083  1.00  0.00     0.198 C 
ENDBRANCH   1   6
BRANCH   1   8
ATOM      8  C   UNL     1      21.739   2.140  38.142  1.00  0.00     0.224 C 
BRANCH   8   9
ATOM      9  O   UNL     1      22.195   1.329  39.192  1.00  0.00    -0.391 OA
ATOM     10  H   UNL     1      22.783   0.638  38.790  1.00  0.00     0.210 HD
ENDBRANCH   8   9
ENDBRANCH   1   8
BRANCH   2  11
ATOM     11  O   UNL     1      22.304   5.703  37.124  1.00  0.00    -0.385 OA
ATOM     12  H   UNL     1      22.105   5.868  36.165  1.00  0.00     0.211 HD
ENDBRANCH   2  11
BRANCH   3  13
ATOM     13  O   UNL     1      24.906   5.388  37.247  1.00  0.00    -0.387 OA
ATOM     14  H   UNL     1      24.851   6.036  37.996  1.00  0.00     0.211 HD
ENDBRANCH   3  13
BRANCH   4  15
ATOM     15  C   UNL     1      24.620   5.290  39.967  1.00  0.00     0.191 C 
BRANCH  15  16
ATOM     16  O   UNL     1      23.672   5.646  40.936  1.00  0.00    -0.394 OA
ATOM     17  H   UNL     1      24.178   5.921  41.745  1.00  0.00     0.210 HD
ENDBRANCH  15  16
ENDBRANCH   4  15
TORSDOF 7
ENDMDL
MODEL 3
REMARK VINA RESULT:    -4.607      1.588      4.571
REMARK INTER + INTRA:          -6.308
REMARK INTER:                  -5.646
REMARK INTRA:                  -0.662
REMARK UNBOUND:                -0.354
REMARK SMILES CO[C@]1(CO)O[C@H](CO)[C@H](O)[C@@H]1O
REMARK SMILES IDX 3 1 12 2 10 3 7 4 6 5 2 6 1 7 4 8 5 9 13 11 11 13 8 15 9 16
REMARK H PARENT 5 10 13 12 11 14 9 17
REMARK Flexibility Score: inf
ROOT
ATOM      1  C   UNL     1      22.514   4.608  37.658  1.00  0.00     0.221 C 
ATOM      2  C   UNL     1      23.349   4.685  38.959  1.00  0.00     0.207 C 
ATOM      3  C   UNL     1      24.292   3.508  38.848  1.00  0.00     0.180 C 
ATOM      4  C   UNL     1      23.574   2.563  37.874  1.00  0.00     0.179 C 
ATOM      5  O   UNL     1      22.530   3.261  37.223  1.00  0.00    -0.337 OA
ENDROOT
BRANCH   1   6
ATOM      6  O   UNL     1      21.148   4.951  37.890  1.00  0.00    -0.349 OA
ATOM      7  C   UNL     1      20.231   4.139  37.180  1.00  0.00     0.198 C 
ENDBRANCH   1   6
BRANCH   1   8
ATOM      8  C   UNL     1      23.132   5.474  36.518  1.00  0.00     0.224 C 
BRANCH   8   9
ATOM      9  O   UNL     1      22.744   6.818  36.621  1.00  0.00    -0.391 OA
ATOM     10  H   UNL     1      21.993   6.854  37.269  1.00  0.00     0.210 HD
ENDBRANCH   8   9
ENDBRANCH   1   8
BRANCH   2  11
ATOM     11  O   UNL     1      22.544   4.596  40.115  1.00  0.00    -0.385 OA
ATOM     12  H   UNL     1      22.085   3.715  40.108  1.00  0.00     0.211 HD
ENDBRANCH   2  11
BRANCH   3  13
ATOM     13  O   UNL     1      24.560   2.916  40.096  1.00  0.00    -0.387 OA
ATOM     14  H   UNL     1      23.816   3.180  40.697  1.00  0.00     0.211 HD
ENDBRANCH   3  13
BRANCH   4  15
ATOM     15  C   UNL     1      23.004   1.294  38.534  1.00  0.00     0.191 C 
BRANCH  15  16
ATOM     16  O   UNL     1      21.965   1.626  39.415  1.00  0.00    -0.394 OA
ATOM     17  H   UNL     1      21.240   0.964  39.265  1.00  0.00     0.210 HD
ENDBRANCH  15  16
ENDBRANCH   4  15
TORSDOF 7
ENDMDL
MODEL 4
REMARK VINA RESULT:    -4.498      1.807      2.726
REMARK INTER + INTRA:          -6.166
REMARK INTER:                  -5.519
REMARK INTRA:                  -0.647
REMARK UNBOUND:                -0.354
REMARK SMILES CO[C@]1(CO)O[C@H](CO)[C@H](O)[C@@H]1O
REMARK SMILES IDX 3 1 12 2 10 3 7 4 6 5 2 6 1 7 4 8 5 9 13 11 11 13 8 15 9 16
REMARK H PARENT 5 10 13 12 11 14 9 17
REMARK Flexibility Score: inf
ROOT
ATOM      1  C   UNL     1      23.112   2.679  38.574  1.00  0.00     0.221 C 
ATOM      2  C   UNL     1      21.889   3.361  39.235  1.00  0.00     0.207 C 
ATOM      3  C   UNL     1      20.983   3.680  38.066  1.00  0.00     0.180 C 
ATOM      4  C   UNL     1      21.943   3.718  36.869  1.00  0.00     0.179 C 
ATOM      5  O   UNL     1      23.179   3.137  37.236  1.00  0.00    -0.337 OA
ENDROOT
BRANCH   1   6
ATOM      6  O   UNL     1      24.332   3.067  39.205  1.00  0.00    -0.349 OA
ATOM      7  C   UNL     1      25.245   3.704  38.330  1.00  0.00     0.198 C 
ENDBRANCH   1   6
BRANCH   1   8
ATOM      8  C   UNL     1      22.962   1.129  38.531  1.00  0.00     0.224 C 
BRANCH   8   9
ATOM      9  O   UNL     1      22.283   0.643  39.659  1.00  0.00    -0.391 OA
ATOM     10  H   UNL     1      22.498   1.253  40.411  1.00  0.00     0.210 HD
ENDBRANCH   8   9
ENDBRANCH   1   8
BRANCH   2  11
ATOM     11  O   UNL     1      22.247   4.526  39.946  1.00  0.00    -0.385 OA
ATOM     12  H   UNL     1      22.066   5.312  39.368  1.00  0.00     0.211 HD
ENDBRANCH   2  11
BRANCH   3  13
ATOM     13  O   UNL     1      20.279   4.884  38.247  1.00  0.00    -0.387 OA
ATOM     14  H   UNL     1      20.727   5.362  38.992  1.00  0.00     0.211 HD
ENDBRANCH   3  13
BRANCH   4  15
ATOM     15  C   UNL     1      22.192   5.130  36.306  1.00  0.00     0.191 C 
BRANCH  15  16
ATOM     16  O   UNL     1      22.783   5.947  37.281  1.00  0.00    -0.394 OA
ATOM     17  H   UNL     1      22.225   6.765  37.346  1.00  0.00     0.210 HD
ENDBRANCH  15  16
ENDBRANCH   4  15
TORSDOF 7
ENDMDL
MODEL 5
REMARK VINA RESULT:    -4.444      2.044      2.813
REMARK INTER + INTRA:          -6.097
REMARK INTER:                  -5.599
REMARK INTRA:                  -0.499
REMARK UNBOUND:                -0.354
REMARK SMILES CO[C@]1(CO)O[C@H](CO)[C@H](O)[C@@H]1O
REMARK SMILES IDX 3 1 12 2 10 3 7 4 6 5 2 6 1 7 4 8 5 9 13 11 11 13 8 15 9 16
REMARK H PARENT 5 10 13 12 11 14 9 17
REMARK Flexibility Score: inf
ROOT
ATOM      1  C   UNL     1      23.622   4.234  38.568  1.00  0.00     0.221 C 
ATOM      2  C   UNL     1      22.924   2.855  38.488  1.00  0.00     0.207 C 
ATOM      3  C   UNL     1      22.387   2.809  37.075  1.00  0.00     0.180 C 
ATOM      4  C   UNL     1      22.284   4.288  36.681  1.00  0.00     0.179 C 
ATOM      5  O   UNL     1      23.012   5.074  37.606  1.00  0.00    -0.337 OA
ENDROOT
BRANCH   1   6
ATOM      6  O   UNL     1      23.422   4.851  39.840  1.00  0.00    -0.349 OA
ATOM      7  C   UNL     1      24.609   5.366  40.414  1.00  0.00     0.198 C 
ENDBRANCH   1   6
BRANCH   1   8
ATOM      8  C   UNL     1      25.137   4.142  38.213  1.00  0.00     0.224 C 
BRANCH   8   9
ATOM      9  O   UNL     1      25.457   4.932  37.099  1.00  0.00    -0.391 OA
ATOM     10  H   UNL     1      26.430   4.825  36.937  1.00  0.00     0.210 HD
ENDBRANCH   8   9
ENDBRANCH   1   8
BRANCH   2  11
ATOM     11  O   UNL     1      21.891   2.725  39.440  1.00  0.00    -0.385 OA
ATOM     12  H   UNL     1      21.083   2.379  38.978  1.00  0.00     0.211 HD
ENDBRANCH   2  11
BRANCH   3  13
ATOM     13  O   UNL     1      21.157   2.129  36.992  1.00  0.00    -0.387 OA
ATOM     14  H   UNL     1      21.161   1.452  37.717  1.00  0.00     0.211 HD
ENDBRANCH   3  13
BRANCH   4  15
ATOM     15  C   UNL     1      20.841   4.818  36.588  1.00  0.00     0.191 C 
BRANCH  15  16
ATOM     16  O   UNL     1      20.231   4.797  37.851  1.00  0.00    -0.394 OA
ATOM     17  H   UNL     1      19.825   3.897  37.958  1.00  0.00     0.210 HD
ENDBRANCH  15  16
ENDBRANCH   4  15
TORSDOF 7
ENDMDL
MODEL 6
REMARK VINA RESULT:    -4.415      2.335      3.614
REMARK INTER + INTRA:          -6.059
REMARK INTER:                  -5.515
REMARK INTRA:                  -0.544
REMARK UNBOUND:                -0.354
REMARK SMILES CO[C@]1(CO)O[C@H](CO)[C@H](O)[C@@H]1O
REMARK SMILES IDX 3 1 12 2 10 3 7 4 6 5 2 6 1 7 4 8 5 9 13 11 11 13 8 15 9 16
REMARK H PARENT 5 10 13 12 11 14 9 17
REMARK Flexibility Score: inf
ROOT
ATOM      1  C   UNL     1      23.797   3.760  38.384  1.00  0.00     0.221 C 
ATOM      2  C   UNL     1      22.659   4.784  38.610  1.00  0.00     0.207 C 
ATOM      3  C   UNL     1      21.474   3.923  38.988  1.00  0.00     0.180 C 
ATOM      4  C   UNL     1      21.825   2.550  38.397  1.00  0.00     0.179 C 
ATOM      5  O   UNL     1      23.195   2.525  38.044  1.00  0.00    -0.337 OA
ENDROOT
BRANCH   1   6
ATOM      6  O   UNL     1      24.626   4.131  37.283  1.00  0.00    -0.349 OA
ATOM      7  C   UNL     1      26.010   4.100  37.578  1.00  0.00     0.198 C 
ENDBRANCH   1   6
BRANCH   1   8
ATOM      8  C   UNL     1      24.638   3.529  39.676  1.00  0.00     0.224 C 
BRANCH   8   9
ATOM      9  O   UNL     1      24.229   4.375  40.717  1.00  0.00    -0.391 OA
ATOM     10  H   UNL     1      24.928   4.327  41.421  1.00  0.00     0.210 HD
ENDBRANCH   8   9
ENDBRANCH   1   8
BRANCH   2  11
ATOM     11  O   UNL     1      22.395   5.551  37.455  1.00  0.00    -0.385 OA
ATOM     12  H   UNL     1      21.417   5.713  37.405  1.00  0.00     0.211 HD
ENDBRANCH   2  11
BRANCH   3  13
ATOM     13  O   UNL     1      20.259   4.439  38.500  1.00  0.00    -0.387 OA
ATOM     14  H   UNL     1      19.631   4.450  39.268  1.00  0.00     0.211 HD
ENDBRANCH   3  13
BRANCH   4  15
ATOM     15  C   UNL     1      20.976   2.155  37.174  1.00  0.00     0.191 C 
BRANCH  15  16
ATOM     16  O   UNL     1      21.255   3.003  36.092  1.00  0.00    -0.394 OA
ATOM     17  H   UNL     1      21.554   3.869  36.476  1.00  0.00     0.210 HD
ENDBRANCH  15  16
ENDBRANCH   4  15
TORSDOF 7
ENDMDL
MODEL 7
REMARK VINA RESULT:    -4.399      2.278      3.757
REMARK INTER + INTRA:          -6.038
REMARK INTER:                  -5.422
REMARK INTRA:                  -0.616
REMARK UNBOUND:                -0.354
REMARK SMILES CO[C@]1(CO)O[C@H](CO)[C@H](O)[C@@H]1O
REMARK SMILES IDX 3 1 12 2 10 3 7 4 6 5 2 6 1 7 4 8 5 9 13 11 11 13 8 15 9 16
REMARK H PARENT 5 10 13 12 11 14 9 17
REMARK Flexibility Score: inf
ROOT
ATOM      1  C   UNL     1      21.296   2.511  38.358  1.00  0.00     0.221 C 
ATOM      2  C   UNL     1      21.111   3.937  37.785  1.00  0.00     0.207 C 
ATOM      3  C   UNL     1      22.514   4.355  37.408  1.00  0.00     0.180 C 
ATOM      4  C   UNL     1      23.403   3.466  38.288  1.00  0.00     0.179 C 
ATOM      5  O   UNL     1      22.627   2.415  38.833  1.00  0.00    -0.337 OA
ENDROOT
BRANCH   1   6
ATOM      6  O   UNL     1      20.442   2.281  39.478  1.00  0.00    -0.349 OA
ATOM      7  C   UNL     1      20.317   0.914  39.825  1.00  0.00     0.198 C 
ENDBRANCH   1   6
BRANCH   1   8
ATOM      8  C   UNL     1      21.110   1.415  37.266  1.00  0.00     0.224 C 
BRANCH   8   9
ATOM      9  O   UNL     1      20.078   1.743  36.374  1.00  0.00    -0.391 OA
ATOM     10  H   UNL     1      20.087   2.731  36.272  1.00  0.00     0.210 HD
ENDBRANCH   8   9
ENDBRANCH   1   8
BRANCH   2  11
ATOM     11  O   UNL     1      20.542   4.820  38.726  1.00  0.00    -0.385 OA
ATOM     12  H   UNL     1      19.641   5.084  38.402  1.00  0.00     0.211 HD
ENDBRANCH   2  11
BRANCH   3  13
ATOM     13  O   UNL     1      22.736   5.730  37.611  1.00  0.00    -0.387 OA
ATOM     14  H   UNL     1      23.292   5.807  38.430  1.00  0.00     0.211 HD
ENDBRANCH   3  13
BRANCH   4  15
ATOM     15  C   UNL     1      24.114   4.217  39.429  1.00  0.00     0.191 C 
BRANCH  15  16
ATOM     16  O   UNL     1      23.178   4.689  40.361  1.00  0.00    -0.394 OA
ATOM     17  H   UNL     1      22.411   5.046  39.841  1.00  0.00     0.210 HD
ENDBRANCH  15  16
ENDBRANCH   4  15
TORSDOF 7
ENDMDL
MODEL 8
REMARK VINA RESULT:    -4.387     15.365     17.453
REMARK INTER + INTRA:          -6.024
REMARK INTER:                  -5.349
REMARK INTRA:                  -0.674
REMARK UNBOUND:                -0.354
REMARK SMILES CO[C@]1(CO)O[C@H](CO)[C@H](O)[C@@H]1O
REMARK SMILES IDX 3 1 12 2 10 3 7 4 6 5 2 6 1 7 4 8 5 9 13 11 11 13 8 15 9 16
REMARK H PARENT 5 10 13 12 11 14 9 17
REMARK Flexibility Score: inf
ROOT
ATOM      1  C   UNL     1      36.074  -0.055  44.595  1.00  0.00     0.221 C 
ATOM      2  C   UNL     1      36.441   0.982  45.685  1.00  0.00     0.207 C 
ATOM      3  C   UNL     1      37.385   1.927  44.974  1.00  0.00     0.180 C 
ATOM      4  C   UNL     1      37.930   1.084  43.813  1.00  0.00     0.179 C 
ATOM      5  O   UNL     1      37.132  -0.074  43.655  1.00  0.00    -0.337 OA
ENDROOT
BRANCH   1   6
ATOM      6  O   UNL     1      35.980  -1.373  45.136  1.00  0.00    -0.349 OA
ATOM      7  C   UNL     1      36.739  -2.334  44.425  1.00  0.00     0.198 C 
ENDBRANCH   1   6
BRANCH   1   8
ATOM      8  C   UNL     1      34.775   0.339  43.830  1.00  0.00     0.224 C 
BRANCH   8   9
ATOM      9  O   UNL     1      33.974   1.209  44.584  1.00  0.00    -0.391 OA
ATOM     10  H   UNL     1      33.463   0.649  45.225  1.00  0.00     0.210 HD
ENDBRANCH   8   9
ENDBRANCH   1   8
BRANCH   2  11
ATOM     11  O   UNL     1      37.054   0.383  46.806  1.00  0.00    -0.385 OA
ATOM     12  H   UNL     1      36.350  -0.062  47.345  1.00  0.00     0.211 HD
ENDBRANCH   2  11
BRANCH   3  13
ATOM     13  O   UNL     1      38.394   2.415  45.824  1.00  0.00    -0.387 OA
ATOM     14  H   UNL     1      37.952   3.040  46.455  1.00  0.00     0.211 HD
ENDBRANCH   3  13
BRANCH   4  15
ATOM     15  C   UNL     1      39.404   0.668  43.974  1.00  0.00     0.191 C 
BRANCH  15  16
ATOM     16  O   UNL     1      39.568  -0.108  45.130  1.00  0.00    -0.394 OA
ATOM     17  H   UNL     1      39.460  -1.057  44.857  1.00  0.00     0.210 HD
ENDBRANCH  15  16
ENDBRANCH   4  15
TORSDOF 7
ENDMDL
MODEL 9
REMARK VINA RESULT:    -4.281      1.898      3.959
REMARK INTER + INTRA:          -5.886
REMARK INTER:                  -5.288
REMARK INTRA:                  -0.598
REMARK UNBOUND:                -0.354
REMARK SMILES CO[C@]1(CO)O[C@H](CO)[C@H](O)[C@@H]1O
REMARK SMILES IDX 3 1 12 2 10 3 7 4 6 5 2 6 1 7 4 8 5 9 13 11 11 13 8 15 9 16
REMARK H PARENT 5 10 13 12 11 14 9 17
REMARK Flexibility Score: inf
ROOT
ATOM      1  C   UNL     1      22.545   4.759  37.255  1.00  0.00     0.221 C 
ATOM      2  C   UNL     1      21.959   4.464  38.657  1.00  0.00     0.207 C 
ATOM      3  C   UNL     1      22.189   2.980  38.834  1.00  0.00     0.180 C 
ATOM      4  C   UNL     1      22.314   2.461  37.395  1.00  0.00     0.179 C 
ATOM      5  O   UNL     1      22.500   3.553  36.515  1.00  0.00    -0.337 OA
ENDROOT
BRANCH   1   6
ATOM      6  O   UNL     1      21.750   5.708  36.544  1.00  0.00    -0.349 OA
ATOM      7  C   UNL     1      22.512   6.674  35.843  1.00  0.00     0.198 C 
ENDBRANCH   1   6
BRANCH   1   8
ATOM      8  C   UNL     1      24.036   5.207  37.329  1.00  0.00     0.224 C 
BRANCH   8   9
ATOM      9  O   UNL     1      24.372   5.677  38.608  1.00  0.00    -0.391 OA
ATOM     10  H   UNL     1      23.848   5.143  39.260  1.00  0.00     0.210 HD
ENDBRANCH   8   9
ENDBRANCH   1   8
BRANCH   2  11
ATOM     11  O   UNL     1      20.588   4.790  38.741  1.00  0.00    -0.385 OA
ATOM     12  H   UNL     1      20.371   4.981  39.691  1.00  0.00     0.211 HD
ENDBRANCH   2  11
BRANCH   3  13
ATOM     13  O   UNL     1      21.152   2.359  39.556  1.00  0.00    -0.387 OA
ATOM     14  H   UNL     1      20.994   2.920  40.359  1.00  0.00     0.211 HD
ENDBRANCH   3  13
BRANCH   4  15
ATOM     15  C   UNL     1      21.113   1.623  36.920  1.00  0.00     0.191 C 
BRANCH  15  16
ATOM     16  O   UNL     1      19.946   2.401  36.919  1.00  0.00    -0.394 OA
ATOM     17  H   UNL     1      20.197   3.294  36.566  1.00  0.00     0.210 HD
ENDBRANCH  15  16
ENDBRANCH   4  15
TORSDOF 7
ENDMDL
