MODEL 1
REMARK VINA RESULT:    -3.914      0.000      0.000
REMARK INTER + INTRA:          -8.802
REMARK INTER:                  -6.888
REMARK INTRA:                  -1.914
REMARK UNBOUND:                -1.914
REMARK SMILES CCCCCCCCCCCCCCC(=O)[O-]
REMARK SMILES IDX 9 1 10 2 11 3 12 4 13 5 14 6 15 7 16 8 17 9 8 10 7 11 6 12
REMARK SMILES IDX 5 13 4 14 3 15 2 16 1 17
REMARK H PARENT
REMARK Flexibility Score: inf
ROOT
ATOM      1  C   UNL     1      -0.888   4.730  -8.565  1.00  0.00     0.000 C 
ENDROOT
BRANCH   1   2
ATOM      2  C   UNL     1      -2.024   5.771  -8.483  1.00  0.00     0.000 C 
BRANCH   2   3
ATOM      3  C   UNL     1      -2.619   6.175  -9.845  1.00  0.00     0.000 C 
BRANCH   3   4
ATOM      4  C   UNL     1      -4.150   6.018  -9.901  1.00  0.00     0.000 C 
BRANCH   4   5
ATOM      5  C   UNL     1      -4.642   4.771  -9.151  1.00  0.00     0.006 C 
BRANCH   5   6
ATOM      6  C   UNL     1      -5.261   3.725 -10.088  1.00  0.00     0.053 C 
BRANCH   6   7
ATOM      7  C   UNL     1      -6.033   2.711  -9.303  1.00  0.00     0.041 C 
ATOM      8  O   UNL     1      -6.179   1.543  -9.749  1.00  0.00    -0.550 OA
ATOM      9  O   UNL     1      -6.553   3.044  -8.059  1.00  0.00    -0.550 OA
ENDBRANCH   6   7
ENDBRANCH   5   6
ENDBRANCH   4   5
ENDBRANCH   3   4
ENDBRANCH   2   3
ENDBRANCH   1   2
BRANCH   1  10
ATOM     10  C   UNL     1      -1.327   3.290  -8.214  1.00  0.00     0.000 C 
BRANCH  10  11
ATOM     11  C   UNL     1      -0.160   2.364  -7.820  1.00  0.00    -0.000 C 
BRANCH  11  12
ATOM     12  C   UNL     1       0.281   1.377  -8.919  1.00  0.00    -0.000 C 
BRANCH  12  13
ATOM     13  C   UNL     1       1.058   2.008 -10.090  1.00  0.00    -0.000 C 
BRANCH  13  14
ATOM     14  C   UNL     1       0.295   2.056 -11.429  1.00  0.00    -0.000 C 
BRANCH  14  15
ATOM     15  C   UNL     1      -0.993   1.204 -11.443  1.00  0.00    -0.000 C 
BRANCH  15  16
ATOM     16  C   UNL     1      -2.258   2.055 -11.630  1.00  0.00    -0.003 C 
ATOM     17  C   UNL     1      -1.908   3.464 -12.100  1.00  0.00     0.004 C 
ENDBRANCH  15  16
ENDBRANCH  14  15
ENDBRANCH  13  14
ENDBRANCH  12  13
ENDBRANCH  11  12
ENDBRANCH  10  11
ENDBRANCH   1  10
TORSDOF 13
ENDMDL
MODEL 2
REMARK VINA RESULT:    -3.882      0.983      3.576
REMARK INTER + INTRA:          -8.746
REMARK INTER:                  -6.747
REMARK INTRA:                  -1.999
REMARK UNBOUND:                -1.914
REMARK SMILES CCCCCCCCCCCCCCC(=O)[O-]
REMARK SMILES IDX 9 1 10 2 11 3 12 4 13 5 14 6 15 7 16 8 17 9 8 10 7 11 6 12
REMARK SMILES IDX 5 13 4 14 3 15 2 16 1 17
REMARK H PARENT
REMARK Flexibility Score: inf
ROOT
ATOM      1  C   UNL     1       0.227   1.137 -11.078  1.00  0.00     0.000 C 
ENDROOT
BRANCH   1   2
ATOM      2  C   UNL     1      -1.211   1.381 -11.580  1.00  0.00     0.000 C 
BRANCH   2   3
ATOM      3  C   UNL     1      -1.577   2.865 -11.775  1.00  0.00     0.000 C 
BRANCH   3   4
ATOM      4  C   UNL     1      -3.063   3.158 -11.497  1.00  0.00     0.000 C 
BRANCH   4   5
ATOM      5  C   UNL     1      -3.711   2.106 -10.585  1.00  0.00     0.006 C 
BRANCH   5   6
ATOM      6  C   UNL     1      -4.274   2.712  -9.293  1.00  0.00     0.053 C 
BRANCH   6   7
ATOM      7  C   UNL     1      -5.704   2.312  -9.106  1.00  0.00     0.041 C 
ATOM      8  O   UNL     1      -6.230   1.467  -9.878  1.00  0.00    -0.550 OA
ATOM      9  O   UNL     1      -6.441   2.838  -8.054  1.00  0.00    -0.550 OA
ENDBRANCH   6   7
ENDBRANCH   5   6
ENDBRANCH   4   5
ENDBRANCH   3   4
ENDBRANCH   2   3
ENDBRANCH   1   2
BRANCH   1  10
ATOM     10  C   UNL     1       0.670   2.091  -9.945  1.00  0.00     0.000 C 
BRANCH  10  11
ATOM     11  C   UNL     1      -0.047   1.838  -8.605  1.00  0.00    -0.000 C 
BRANCH  11  12
ATOM     12  C   UNL     1      -0.769   3.065  -8.016  1.00  0.00    -0.000 C 
BRANCH  12  13
ATOM     13  C   UNL     1      -0.550   4.383  -8.786  1.00  0.00    -0.000 C 
BRANCH  13  14
ATOM     14  C   UNL     1      -1.278   5.609  -8.202  1.00  0.00    -0.000 C 
BRANCH  14  15
ATOM     15  C   UNL     1      -2.644   5.896  -8.863  1.00  0.00    -0.000 C 
BRANCH  15  16
ATOM     16  C   UNL     1      -2.504   6.625 -10.207  1.00  0.00    -0.003 C 
ATOM     17  C   UNL     1      -1.525   7.790 -10.102  1.00  0.00     0.004 C 
ENDBRANCH  15  16
ENDBRANCH  14  15
ENDBRANCH  13  14
ENDBRANCH  12  13
ENDBRANCH  11  12
ENDBRANCH  10  11
ENDBRANCH   1  10
TORSDOF 13
ENDMDL
MODEL 3
REMARK VINA RESULT:    -3.799      2.831      5.193
REMARK INTER + INTRA:          -8.601
REMARK INTER:                  -6.435
REMARK INTRA:                  -2.166
REMARK UNBOUND:                -1.914
REMARK SMILES CCCCCCCCCCCCCCC(=O)[O-]
REMARK SMILES IDX 9 1 10 2 11 3 12 4 13 5 14 6 15 7 16 8 17 9 8 10 7 11 6 12
REMARK SMILES IDX 5 13 4 14 3 15 2 16 1 17
REMARK H PARENT
REMARK Flexibility Score: inf
ROOT
ATOM      1  C   UNL     1      -4.124   5.769  -9.409  1.00  0.00     0.000 C 
ENDROOT
BRANCH   1   2
ATOM      2  C   UNL     1      -2.793   6.548  -9.372  1.00  0.00     0.000 C 
BRANCH   2   3
ATOM      3  C   UNL     1      -1.709   5.919  -8.477  1.00  0.00     0.000 C 
BRANCH   3   4
ATOM      4  C   UNL     1      -1.720   4.380  -8.512  1.00  0.00     0.000 C 
BRANCH   4   5
ATOM      5  C   UNL     1      -0.852   3.810  -9.645  1.00  0.00     0.006 C 
BRANCH   5   6
ATOM      6  C   UNL     1      -0.878   2.276  -9.693  1.00  0.00     0.053 C 
BRANCH   6   7
ATOM      7  C   UNL     1       0.442   1.717  -9.263  1.00  0.00     0.041 C 
ATOM      8  O   UNL     1       1.475   1.933  -9.951  1.00  0.00    -0.550 OA
ATOM      9  O   UNL     1       0.540   0.997  -8.081  1.00  0.00    -0.550 OA
ENDBRANCH   6   7
ENDBRANCH   5   6
ENDBRANCH   4   5
ENDBRANCH   3   4
ENDBRANCH   2   3
ENDBRANCH   1   2
BRANCH   1  10
ATOM     10  C   UNL     1      -4.736   5.635 -10.823  1.00  0.00     0.000 C 
BRANCH  10  11
ATOM     11  C   UNL     1      -3.833   4.886 -11.822  1.00  0.00    -0.000 C 
BRANCH  11  12
ATOM     12  C   UNL     1      -4.402   3.547 -12.330  1.00  0.00    -0.000 C 
BRANCH  12  13
ATOM     13  C   UNL     1      -3.977   2.308 -11.518  1.00  0.00    -0.000 C 
BRANCH  13  14
ATOM     14  C   UNL     1      -5.055   1.749 -10.569  1.00  0.00    -0.000 C 
BRANCH  14  15
ATOM     15  C   UNL     1      -4.954   2.287  -9.124  1.00  0.00    -0.000 C 
BRANCH  15  16
ATOM     16  C   UNL     1      -6.295   2.825  -8.603  1.00  0.00    -0.003 C 
ATOM     17  C   UNL     1      -7.275   3.062  -9.749  1.00  0.00     0.004 C 
ENDBRANCH  15  16
ENDBRANCH  14  15
ENDBRANCH  13  14
ENDBRANCH  12  13
ENDBRANCH  11  12
ENDBRANCH  10  11
ENDBRANCH   1  10
TORSDOF 13
ENDMDL
MODEL 4
REMARK VINA RESULT:    -3.786      1.349      2.835
REMARK INTER + INTRA:          -8.577
REMARK INTER:                  -6.603
REMARK INTRA:                  -1.974
REMARK UNBOUND:                -1.914
REMARK SMILES CCCCCCCCCCCCCCC(=O)[O-]
REMARK SMILES IDX 9 1 10 2 11 3 12 4 13 5 14 6 15 7 16 8 17 9 8 10 7 11 6 12
REMARK SMILES IDX 5 13 4 14 3 15 2 16 1 17
REMARK H PARENT
REMARK Flexibility Score: inf
ROOT
ATOM      1  C   UNL     1      -1.118   6.333  -8.755  1.00  0.00     0.000 C 
ENDROOT
BRANCH   1   2
ATOM      2  C   UNL     1      -2.203   6.915  -9.684  1.00  0.00     0.000 C 
BRANCH   2   3
ATOM      3  C   UNL     1      -3.571   6.214  -9.587  1.00  0.00     0.000 C 
BRANCH   3   4
ATOM      4  C   UNL     1      -3.481   4.804  -8.974  1.00  0.00     0.000 C 
BRANCH   4   5
ATOM      5  C   UNL     1      -4.009   3.715  -9.920  1.00  0.00     0.006 C 
BRANCH   5   6
ATOM      6  C   UNL     1      -4.457   2.452  -9.173  1.00  0.00     0.053 C 
BRANCH   6   7
ATOM      7  C   UNL     1      -5.948   2.413  -9.057  1.00  0.00     0.041 C 
ATOM      8  O   UNL     1      -6.529   3.055  -8.143  1.00  0.00    -0.550 OA
ATOM      9  O   UNL     1      -6.699   1.704  -9.986  1.00  0.00    -0.550 OA
ENDBRANCH   6   7
ENDBRANCH   5   6
ENDBRANCH   4   5
ENDBRANCH   3   4
ENDBRANCH   2   3
ENDBRANCH   1   2
BRANCH   1  10
ATOM     10  C   UNL     1       0.225   6.037  -9.463  1.00  0.00     0.000 C 
BRANCH  10  11
ATOM     11  C   UNL     1       0.072   5.653 -10.947  1.00  0.00    -0.000 C 
BRANCH  11  12
ATOM     12  C   UNL     1      -0.481   4.236 -11.195  1.00  0.00    -0.000 C 
BRANCH  12  13
ATOM     13  C   UNL     1       0.570   3.110 -11.162  1.00  0.00    -0.000 C 
BRANCH  13  14
ATOM     14  C   UNL     1       0.655   2.336  -9.832  1.00  0.00    -0.000 C 
BRANCH  14  15
ATOM     15  C   UNL     1      -0.704   2.174  -9.117  1.00  0.00    -0.000 C 
BRANCH  15  16
ATOM     16  C   UNL     1      -0.697   2.770  -7.702  1.00  0.00    -0.003 C 
ATOM     17  C   UNL     1      -0.116   1.783  -6.692  1.00  0.00     0.004 C 
ENDBRANCH  15  16
ENDBRANCH  14  15
ENDBRANCH  13  14
ENDBRANCH  12  13
ENDBRANCH  11  12
ENDBRANCH  10  11
ENDBRANCH   1  10
TORSDOF 13
ENDMDL
MODEL 5
REMARK VINA RESULT:    -3.779      1.268      2.890
REMARK INTER + INTRA:          -8.566
REMARK INTER:                  -6.653
REMARK INTRA:                  -1.913
REMARK UNBOUND:                -1.914
REMARK SMILES CCCCCCCCCCCCCCC(=O)[O-]
REMARK SMILES IDX 9 1 10 2 11 3 12 4 13 5 14 6 15 7 16 8 17 9 8 10 7 11 6 12
REMARK SMILES IDX 5 13 4 14 3 15 2 16 1 17
REMARK H PARENT
REMARK Flexibility Score: inf
ROOT
ATOM      1  C   UNL     1      -1.700   6.400 -11.460  1.00  0.00     0.000 C 
ENDROOT
BRANCH   1   2
ATOM      2  C   UNL     1      -3.197   6.036 -11.406  1.00  0.00     0.000 C 
BRANCH   2   3
ATOM      3  C   UNL     1      -3.843   6.188 -10.016  1.00  0.00     0.000 C 
BRANCH   3   4
ATOM      4  C   UNL     1      -4.679   4.963  -9.605  1.00  0.00     0.000 C 
BRANCH   4   5
ATOM      5  C   UNL     1      -4.291   3.696 -10.383  1.00  0.00     0.006 C 
BRANCH   5   6
ATOM      6  C   UNL     1      -4.350   2.431  -9.516  1.00  0.00     0.053 C 
BRANCH   6   7
ATOM      7  C   UNL     1      -5.771   2.046  -9.249  1.00  0.00     0.041 C 
ATOM      8  O   UNL     1      -6.289   2.278  -8.124  1.00  0.00    -0.550 OA
ATOM      9  O   UNL     1      -6.536   1.473 -10.255  1.00  0.00    -0.550 OA
ENDBRANCH   6   7
ENDBRANCH   5   6
ENDBRANCH   4   5
ENDBRANCH   3   4
ENDBRANCH   2   3
ENDBRANCH   1   2
BRANCH   1  10
ATOM     10  C   UNL     1      -0.770   5.337 -10.829  1.00  0.00     0.000 C 
BRANCH  10  11
ATOM     11  C   UNL     1      -0.136   5.781  -9.497  1.00  0.00    -0.000 C 
BRANCH  11  12
ATOM     12  C   UNL     1      -0.753   5.136  -8.241  1.00  0.00    -0.000 C 
BRANCH  12  13
ATOM     13  C   UNL     1      -1.250   3.689  -8.428  1.00  0.00    -0.000 C 
BRANCH  13  14
ATOM     14  C   UNL     1      -0.479   2.624  -7.624  1.00  0.00    -0.000 C 
BRANCH  14  15
ATOM     15  C   UNL     1       0.224   1.567  -8.502  1.00  0.00    -0.000 C 
BRANCH  15  16
ATOM     16  C   UNL     1       0.015   1.816 -10.003  1.00  0.00    -0.003 C 
ATOM     17  C   UNL     1       1.347   2.033 -10.715  1.00  0.00     0.004 C 
ENDBRANCH  15  16
ENDBRANCH  14  15
ENDBRANCH  13  14
ENDBRANCH  12  13
ENDBRANCH  11  12
ENDBRANCH  10  11
ENDBRANCH   1  10
TORSDOF 13
ENDMDL
MODEL 6
REMARK VINA RESULT:    -3.721      1.266      3.332
REMARK INTER + INTRA:          -8.462
REMARK INTER:                  -6.462
REMARK INTRA:                  -2.000
REMARK UNBOUND:                -1.914
REMARK SMILES CCCCCCCCCCCCCCC(=O)[O-]
REMARK SMILES IDX 9 1 10 2 11 3 12 4 13 5 14 6 15 7 16 8 17 9 8 10 7 11 6 12
REMARK SMILES IDX 5 13 4 14 3 15 2 16 1 17
REMARK H PARENT
REMARK Flexibility Score: inf
ROOT
ATOM      1  C   UNL     1      -3.027   5.903 -11.076  1.00  0.00     0.000 C 
ENDROOT
BRANCH   1   2
ATOM      2  C   UNL     1      -3.804   4.641 -11.502  1.00  0.00     0.000 C 
BRANCH   2   3
ATOM      3  C   UNL     1      -3.005   3.329 -11.388  1.00  0.00     0.000 C 
BRANCH   3   4
ATOM      4  C   UNL     1      -3.789   2.209 -10.681  1.00  0.00     0.000 C 
BRANCH   4   5
ATOM      5  C   UNL     1      -4.247   2.608  -9.270  1.00  0.00     0.006 C 
BRANCH   5   6
ATOM      6  C   UNL     1      -5.607   2.003  -8.897  1.00  0.00     0.053 C 
BRANCH   6   7
ATOM      7  C   UNL     1      -6.609   2.263  -9.978  1.00  0.00     0.041 C 
ATOM      8  O   UNL     1      -6.968   3.441 -10.238  1.00  0.00    -0.550 OA
ATOM      9  O   UNL     1      -7.111   1.208 -10.727  1.00  0.00    -0.550 OA
ENDBRANCH   6   7
ENDBRANCH   5   6
ENDBRANCH   4   5
ENDBRANCH   3   4
ENDBRANCH   2   3
ENDBRANCH   1   2
BRANCH   1  10
ATOM     10  C   UNL     1      -3.397   6.425  -9.668  1.00  0.00     0.000 C 
BRANCH  10  11
ATOM     11  C   UNL     1      -2.612   5.746  -8.529  1.00  0.00    -0.000 C 
BRANCH  11  12
ATOM     12  C   UNL     1      -1.079   5.798  -8.680  1.00  0.00    -0.000 C 
BRANCH  12  13
ATOM     13  C   UNL     1      -0.412   4.455  -9.036  1.00  0.00    -0.000 C 
BRANCH  13  14
ATOM     14  C   UNL     1      -0.864   3.255  -8.182  1.00  0.00    -0.000 C 
BRANCH  14  15
ATOM     15  C   UNL     1      -0.025   1.978  -8.407  1.00  0.00    -0.000 C 
BRANCH  15  16
ATOM     16  C   UNL     1       0.704   1.984  -9.758  1.00  0.00    -0.003 C 
ATOM     17  C   UNL     1      -0.077   1.199 -10.808  1.00  0.00     0.004 C 
ENDBRANCH  15  16
ENDBRANCH  14  15
ENDBRANCH  13  14
ENDBRANCH  12  13
ENDBRANCH  11  12
ENDBRANCH  10  11
ENDBRANCH   1  10
TORSDOF 13
ENDMDL
MODEL 7
REMARK VINA RESULT:    -3.681      1.326      2.219
REMARK INTER + INTRA:          -8.393
REMARK INTER:                  -6.981
REMARK INTRA:                  -1.412
REMARK UNBOUND:                -1.914
REMARK SMILES CCCCCCCCCCCCCCC(=O)[O-]
REMARK SMILES IDX 9 1 10 2 11 3 12 4 13 5 14 6 15 7 16 8 17 9 8 10 7 11 6 12
REMARK SMILES IDX 5 13 4 14 3 15 2 16 1 17
REMARK H PARENT
REMARK Flexibility Score: inf
ROOT
ATOM      1  C   UNL     1      -2.435   5.853  -8.997  1.00  0.00     0.000 C 
ENDROOT
BRANCH   1   2
ATOM      2  C   UNL     1      -3.652   4.956  -8.691  1.00  0.00     0.000 C 
BRANCH   2   3
ATOM      3  C   UNL     1      -4.110   4.076  -9.869  1.00  0.00     0.000 C 
BRANCH   3   4
ATOM      4  C   UNL     1      -4.089   2.573  -9.538  1.00  0.00     0.000 C 
BRANCH   4   5
ATOM      5  C   UNL     1      -5.414   2.083  -8.934  1.00  0.00     0.006 C 
BRANCH   5   6
ATOM      6  C   UNL     1      -6.593   3.004  -9.274  1.00  0.00     0.053 C 
BRANCH   6   7
ATOM      7  C   UNL     1      -7.436   2.398 -10.351  1.00  0.00     0.041 C 
ATOM      8  O   UNL     1      -7.150   1.264 -10.816  1.00  0.00    -0.550 OA
ATOM      9  O   UNL     1      -8.564   3.066 -10.809  1.00  0.00    -0.550 OA
ENDBRANCH   6   7
ENDBRANCH   5   6
ENDBRANCH   4   5
ENDBRANCH   3   4
ENDBRANCH   2   3
ENDBRANCH   1   2
BRANCH   1  10
ATOM     10  C   UNL     1      -1.129   5.401  -8.303  1.00  0.00     0.000 C 
BRANCH  10  11
ATOM     11  C   UNL     1      -0.505   4.134  -8.920  1.00  0.00    -0.000 C 
BRANCH  11  12
ATOM     12  C   UNL     1      -0.642   2.863  -8.060  1.00  0.00    -0.000 C 
BRANCH  12  13
ATOM     13  C   UNL     1       0.143   1.640  -8.574  1.00  0.00    -0.000 C 
BRANCH  13  14
ATOM     14  C   UNL     1       0.810   1.824  -9.951  1.00  0.00    -0.000 C 
BRANCH  14  15
ATOM     15  C   UNL     1       0.163   0.984 -11.075  1.00  0.00    -0.000 C 
BRANCH  15  16
ATOM     16  C   UNL     1      -1.146   1.600 -11.588  1.00  0.00    -0.003 C 
ATOM     17  C   UNL     1      -2.042   0.539 -12.221  1.00  0.00     0.004 C 
ENDBRANCH  15  16
ENDBRANCH  14  15
ENDBRANCH  13  14
ENDBRANCH  12  13
ENDBRANCH  11  12
ENDBRANCH  10  11
ENDBRANCH   1  10
TORSDOF 13
ENDMDL
MODEL 8
REMARK VINA RESULT:    -3.671      2.653      4.640
REMARK INTER + INTRA:          -8.374
REMARK INTER:                  -6.290
REMARK INTRA:                  -2.084
REMARK UNBOUND:                -1.914
REMARK SMILES CCCCCCCCCCCCCCC(=O)[O-]
REMARK SMILES IDX 9 1 10 2 11 3 12 4 13 5 14 6 15 7 16 8 17 9 8 10 7 11 6 12
REMARK SMILES IDX 5 13 4 14 3 15 2 16 1 17
REMARK H PARENT
REMARK Flexibility Score: inf
ROOT
ATOM      1  C   UNL     1      -4.261   4.917 -10.073  1.00  0.00     0.000 C 
ENDROOT
BRANCH   1   2
ATOM      2  C   UNL     1      -3.007   5.806  -9.954  1.00  0.00     0.000 C 
BRANCH   2   3
ATOM      3  C   UNL     1      -2.316   5.758  -8.579  1.00  0.00     0.000 C 
BRANCH   3   4
ATOM      4  C   UNL     1      -0.806   5.470  -8.675  1.00  0.00     0.000 C 
BRANCH   4   5
ATOM      5  C   UNL     1      -0.506   4.004  -9.021  1.00  0.00     0.006 C 
BRANCH   5   6
ATOM      6  C   UNL     1      -0.981   3.032  -7.933  1.00  0.00     0.053 C 
BRANCH   6   7
ATOM      7  C   UNL     1       0.008   1.923  -7.754  1.00  0.00     0.041 C 
ATOM      8  O   UNL     1       0.641   1.473  -8.745  1.00  0.00    -0.550 OA
ATOM      9  O   UNL     1       0.262   1.417  -6.486  1.00  0.00    -0.550 OA
ENDBRANCH   6   7
ENDBRANCH   5   6
ENDBRANCH   4   5
ENDBRANCH   3   4
ENDBRANCH   2   3
ENDBRANCH   1   2
BRANCH   1  10
ATOM     10  C   UNL     1      -4.515   4.018  -8.840  1.00  0.00     0.000 C 
BRANCH  10  11
ATOM     11  C   UNL     1      -4.605   2.516  -9.176  1.00  0.00    -0.000 C 
BRANCH  11  12
ATOM     12  C   UNL     1      -5.884   2.098  -9.927  1.00  0.00    -0.000 C 
BRANCH  12  13
ATOM     13  C   UNL     1      -5.667   1.643 -11.384  1.00  0.00    -0.000 C 
BRANCH  13  14
ATOM     14  C   UNL     1      -4.208   1.307 -11.752  1.00  0.00    -0.000 C 
BRANCH  14  15
ATOM     15  C   UNL     1      -3.533   2.363 -12.654  1.00  0.00    -0.000 C 
BRANCH  15  16
ATOM     16  C   UNL     1      -2.117   2.720 -12.181  1.00  0.00    -0.003 C 
ATOM     17  C   UNL     1      -1.439   1.522 -11.522  1.00  0.00     0.004 C 
ENDBRANCH  15  16
ENDBRANCH  14  15
ENDBRANCH  13  14
ENDBRANCH  12  13
ENDBRANCH  11  12
ENDBRANCH  10  11
ENDBRANCH   1  10
TORSDOF 13
ENDMDL
MODEL 9
REMARK VINA RESULT:    -3.553      2.720      5.659
REMARK INTER + INTRA:          -8.166
REMARK INTER:                  -6.169
REMARK INTRA:                  -1.998
REMARK UNBOUND:                -1.914
REMARK SMILES CCCCCCCCCCCCCCC(=O)[O-]
REMARK SMILES IDX 9 1 10 2 11 3 12 4 13 5 14 6 15 7 16 8 17 9 8 10 7 11 6 12
REMARK SMILES IDX 5 13 4 14 3 15 2 16 1 17
REMARK H PARENT
REMARK Flexibility Score: inf
ROOT
ATOM      1  C   UNL     1      -4.949   2.166 -11.847  1.00  0.00     0.000 C 
ENDROOT
BRANCH   1   2
ATOM      2  C   UNL     1      -3.885   1.134 -12.268  1.00  0.00     0.000 C 
BRANCH   2   3
ATOM      3  C   UNL     1      -2.487   1.375 -11.669  1.00  0.00     0.000 C 
BRANCH   3   4
ATOM      4  C   UNL     1      -2.189   2.865 -11.421  1.00  0.00     0.000 C 
BRANCH   4   5
ATOM      5  C   UNL     1      -0.850   3.087 -10.700  1.00  0.00     0.006 C 
BRANCH   5   6
ATOM      6  C   UNL     1      -0.935   2.797  -9.196  1.00  0.00     0.053 C 
BRANCH   6   7
ATOM      7  C   UNL     1       0.227   1.963  -8.758  1.00  0.00     0.041 C 
ATOM      8  O   UNL     1       1.204   1.782  -9.531  1.00  0.00    -0.550 OA
ATOM      9  O   UNL     1       0.251   1.421  -7.479  1.00  0.00    -0.550 OA
ENDBRANCH   6   7
ENDBRANCH   5   6
ENDBRANCH   4   5
ENDBRANCH   3   4
ENDBRANCH   2   3
ENDBRANCH   1   2
BRANCH   1  10
ATOM     10  C   UNL     1      -5.776   1.749 -10.608  1.00  0.00     0.000 C 
BRANCH  10  11
ATOM     11  C   UNL     1      -5.156   2.194  -9.270  1.00  0.00    -0.000 C 
BRANCH  11  12
ATOM     12  C   UNL     1      -5.430   3.661  -8.886  1.00  0.00    -0.000 C 
BRANCH  12  13
ATOM     13  C   UNL     1      -4.185   4.567  -8.840  1.00  0.00    -0.000 C 
BRANCH  13  14
ATOM     14  C   UNL     1      -4.115   5.638  -9.946  1.00  0.00    -0.000 C 
BRANCH  14  15
ATOM     15  C   UNL     1      -2.713   6.260 -10.125  1.00  0.00    -0.000 C 
BRANCH  15  16
ATOM     16  C   UNL     1      -2.108   6.735  -8.796  1.00  0.00    -0.003 C 
ATOM     17  C   UNL     1      -0.619   6.410  -8.723  1.00  0.00     0.004 C 
ENDBRANCH  15  16
ENDBRANCH  14  15
ENDBRANCH  13  14
ENDBRANCH  12  13
ENDBRANCH  11  12
ENDBRANCH  10  11
ENDBRANCH   1  10
TORSDOF 13
ENDMDL
