MODEL 1
REMARK VINA RESULT:    -5.321      0.000      0.000
REMARK INTER + INTRA:          -7.247
REMARK INTER:                  -6.721
REMARK INTRA:                  -0.526
REMARK UNBOUND:                -0.526
REMARK SMILES Oc1ccc(CCc2cc(O)cc(O)c2)cc1
REMARK SMILES IDX 6 1 5 2 4 3 3 4 2 5 16 6 17 7 1 8 7 10 8 11 15 12 9 13 13 14
REMARK SMILES IDX 10 15 12 16 14 17 11 19
REMARK H PARENT 1 9 14 18 11 20
REMARK Flexibility Score: inf
ROOT
ATOM      1  C   UNL     1      29.436  -3.775 -24.130  1.00  0.00     0.040 C 
ENDROOT
BRANCH   1   2
ATOM      2  C   UNL     1      30.331  -2.586 -24.375  1.00  0.00    -0.047 A 
ATOM      3  C   UNL     1      29.808  -1.283 -24.339  1.00  0.00     0.007 A 
ATOM      4  C   UNL     1      30.649  -0.181 -24.517  1.00  0.00     0.046 A 
ATOM      5  C   UNL     1      32.021  -0.369 -24.729  1.00  0.00     0.115 A 
ATOM      6  C   UNL     1      31.708  -2.769 -24.580  1.00  0.00     0.007 A 
ATOM      7  C   UNL     1      32.547  -1.665 -24.760  1.00  0.00     0.046 A 
BRANCH   5   8
ATOM      8  O   UNL     1      32.869   0.722 -24.907  1.00  0.00    -0.508 OA
ATOM      9  H   UNL     1      33.858   0.662 -24.698  1.00  0.00     0.293 HD
ENDBRANCH   5   8
ENDBRANCH   1   2
BRANCH   1  10
ATOM     10  C   UNL     1      29.984  -4.679 -23.016  1.00  0.00     0.040 C 
BRANCH  10  11
ATOM     11  C   UNL     1      30.670  -5.900 -23.575  1.00  0.00    -0.040 A 
ATOM     12  C   UNL     1      31.894  -6.331 -23.037  1.00  0.00     0.050 A 
ATOM     13  C   UNL     1      30.123  -6.578 -24.677  1.00  0.00     0.050 A 
ATOM     14  C   UNL     1      32.557  -7.437 -23.586  1.00  0.00     0.119 A 
ATOM     15  C   UNL     1      30.784  -7.681 -25.227  1.00  0.00     0.119 A 
ATOM     16  C   UNL     1      32.000  -8.111 -24.679  1.00  0.00     0.092 A 
BRANCH  14  17
ATOM     17  O   UNL     1      33.769  -7.873 -23.056  1.00  0.00    -0.508 OA
ATOM     18  H   UNL     1      34.052  -7.629 -22.115  1.00  0.00     0.293 HD
ENDBRANCH  14  17
BRANCH  15  19
ATOM     19  O   UNL     1      30.227  -8.340 -26.321  1.00  0.00    -0.508 OA
ATOM     20  H   UNL     1      29.336  -8.817 -26.253  1.00  0.00     0.293 HD
ENDBRANCH  15  19
ENDBRANCH  10  11
ENDBRANCH   1  10
TORSDOF 6
ENDMDL
MODEL 2
REMARK VINA RESULT:    -5.243      3.730      4.844
REMARK INTER + INTRA:          -7.148
REMARK INTER:                  -6.486
REMARK INTRA:                  -0.662
REMARK UNBOUND:                -0.526
REMARK SMILES Oc1ccc(CCc2cc(O)cc(O)c2)cc1
REMARK SMILES IDX 6 1 5 2 4 3 3 4 2 5 16 6 17 7 1 8 7 10 8 11 15 12 9 13 13 14
REMARK SMILES IDX 10 15 12 16 14 17 11 19
REMARK H PARENT 1 9 14 18 11 20
REMARK Flexibility Score: inf
ROOT
ATOM      1  C   UNL     1      32.657  -7.320 -24.847  1.00  0.00     0.040 C 
ENDROOT
BRANCH   1   2
ATOM      2  C   UNL     1      32.997  -6.411 -23.693  1.00  0.00    -0.047 A 
ATOM      3  C   UNL     1      33.834  -5.299 -23.886  1.00  0.00     0.007 A 
ATOM      4  C   UNL     1      34.108  -4.431 -22.826  1.00  0.00     0.046 A 
ATOM      5  C   UNL     1      33.547  -4.663 -21.563  1.00  0.00     0.115 A 
ATOM      6  C   UNL     1      32.432  -6.635 -22.427  1.00  0.00     0.007 A 
ATOM      7  C   UNL     1      32.709  -5.766 -21.367  1.00  0.00     0.046 A 
BRANCH   5   8
ATOM      8  O   UNL     1      33.812  -3.804 -20.499  1.00  0.00    -0.508 OA
ATOM      9  H   UNL     1      33.175  -3.720 -19.715  1.00  0.00     0.293 HD
ENDBRANCH   5   8
ENDBRANCH   1   2
BRANCH   1  10
ATOM     10  C   UNL     1      31.296  -8.003 -24.651  1.00  0.00     0.040 C 
BRANCH  10  11
ATOM     11  C   UNL     1      30.183  -7.234 -25.318  1.00  0.00    -0.040 A 
ATOM     12  C   UNL     1      30.418  -6.553 -26.523  1.00  0.00     0.050 A 
ATOM     13  C   UNL     1      28.922  -7.139 -24.706  1.00  0.00     0.050 A 
ATOM     14  C   UNL     1      29.399  -5.798 -27.120  1.00  0.00     0.119 A 
ATOM     15  C   UNL     1      27.904  -6.385 -25.299  1.00  0.00     0.119 A 
ATOM     16  C   UNL     1      28.144  -5.717 -26.507  1.00  0.00     0.092 A 
BRANCH  14  17
ATOM     17  O   UNL     1      29.624  -5.124 -28.317  1.00  0.00    -0.508 OA
ATOM     18  H   UNL     1      30.443  -5.311 -28.884  1.00  0.00     0.293 HD
ENDBRANCH  14  17
BRANCH  15  19
ATOM     19  O   UNL     1      26.660  -6.302 -24.677  1.00  0.00    -0.508 OA
ATOM     20  H   UNL     1      25.863  -6.826 -25.019  1.00  0.00     0.293 HD
ENDBRANCH  15  19
ENDBRANCH  10  11
ENDBRANCH   1  10
TORSDOF 6
ENDMDL
MODEL 3
REMARK VINA RESULT:    -5.238      0.095      2.037
REMARK INTER + INTRA:          -7.142
REMARK INTER:                  -6.628
REMARK INTRA:                  -0.514
REMARK UNBOUND:                -0.526
REMARK SMILES Oc1ccc(CCc2cc(O)cc(O)c2)cc1
REMARK SMILES IDX 6 1 5 2 4 3 3 4 2 5 16 6 17 7 1 8 7 10 8 11 15 12 9 13 13 14
REMARK SMILES IDX 10 15 12 16 14 17 11 19
REMARK H PARENT 1 9 14 18 11 20
REMARK Flexibility Score: inf
ROOT
ATOM      1  C   UNL     1      29.430  -3.706 -24.188  1.00  0.00     0.040 C 
ENDROOT
BRANCH   1   2
ATOM      2  C   UNL     1      30.331  -2.520 -24.422  1.00  0.00    -0.047 A 
ATOM      3  C   UNL     1      29.836  -1.213 -24.282  1.00  0.00     0.007 A 
ATOM      4  C   UNL     1      30.686  -0.116 -24.452  1.00  0.00     0.046 A 
ATOM      5  C   UNL     1      32.039  -0.314 -24.760  1.00  0.00     0.115 A 
ATOM      6  C   UNL     1      31.689  -2.713 -24.724  1.00  0.00     0.007 A 
ATOM      7  C   UNL     1      32.537  -1.614 -24.894  1.00  0.00     0.046 A 
BRANCH   5   8
ATOM      8  O   UNL     1      32.894   0.772 -24.930  1.00  0.00    -0.508 OA
ATOM      9  H   UNL     1      33.176   1.084 -25.851  1.00  0.00     0.293 HD
ENDBRANCH   5   8
ENDBRANCH   1   2
BRANCH   1  10
ATOM     10  C   UNL     1      29.978  -4.628 -23.089  1.00  0.00     0.040 C 
BRANCH  10  11
ATOM     11  C   UNL     1      30.678  -5.832 -23.667  1.00  0.00    -0.040 A 
ATOM     12  C   UNL     1      30.118  -6.522 -24.754  1.00  0.00     0.050 A 
ATOM     13  C   UNL     1      31.863  -6.311 -23.083  1.00  0.00     0.050 A 
ATOM     14  C   UNL     1      30.742  -7.669 -25.262  1.00  0.00     0.119 A 
ATOM     15  C   UNL     1      32.486  -7.457 -23.587  1.00  0.00     0.119 A 
ATOM     16  C   UNL     1      31.926  -8.133 -24.678  1.00  0.00     0.092 A 
BRANCH  14  17
ATOM     17  O   UNL     1      30.194  -8.356 -26.342  1.00  0.00    -0.508 OA
ATOM     18  H   UNL     1      29.193  -8.486 -26.434  1.00  0.00     0.293 HD
ENDBRANCH  14  17
BRANCH  15  19
ATOM     19  O   UNL     1      33.660  -7.917 -22.993  1.00  0.00    -0.508 OA
ATOM     20  H   UNL     1      33.656  -8.701 -22.351  1.00  0.00     0.293 HD
ENDBRANCH  15  19
ENDBRANCH  10  11
ENDBRANCH   1  10
TORSDOF 6
ENDMDL
MODEL 4
REMARK VINA RESULT:    -5.237      3.570      4.726
REMARK INTER + INTRA:          -7.141
REMARK INTER:                  -6.455
REMARK INTRA:                  -0.686
REMARK UNBOUND:                -0.526
REMARK SMILES Oc1ccc(CCc2cc(O)cc(O)c2)cc1
REMARK SMILES IDX 6 1 5 2 4 3 3 4 2 5 16 6 17 7 1 8 7 10 8 11 15 12 9 13 13 14
REMARK SMILES IDX 10 15 12 16 14 17 11 19
REMARK H PARENT 1 9 14 18 11 20
REMARK Flexibility Score: inf
ROOT
ATOM      1  C   UNL     1      33.069  -7.497 -24.902  1.00  0.00     0.040 C 
ENDROOT
BRANCH   1   2
ATOM      2  C   UNL     1      33.335  -6.461 -23.840  1.00  0.00    -0.047 A 
ATOM      3  C   UNL     1      33.924  -5.231 -24.179  1.00  0.00     0.007 A 
ATOM      4  C   UNL     1      34.125  -4.253 -23.201  1.00  0.00     0.046 A 
ATOM      5  C   UNL     1      33.736  -4.491 -21.876  1.00  0.00     0.115 A 
ATOM      6  C   UNL     1      32.941  -6.692 -22.512  1.00  0.00     0.007 A 
ATOM      7  C   UNL     1      33.144  -5.712 -21.536  1.00  0.00     0.046 A 
BRANCH   5   8
ATOM      8  O   UNL     1      33.929  -3.524 -20.893  1.00  0.00    -0.508 OA
ATOM      9  H   UNL     1      33.855  -3.748 -19.908  1.00  0.00     0.293 HD
ENDBRANCH   5   8
ENDBRANCH   1   2
BRANCH   1  10
ATOM     10  C   UNL     1      31.680  -8.131 -24.743  1.00  0.00     0.040 C 
BRANCH  10  11
ATOM     11  C   UNL     1      30.591  -7.231 -25.272  1.00  0.00    -0.040 A 
ATOM     12  C   UNL     1      29.302  -7.282 -24.719  1.00  0.00     0.050 A 
ATOM     13  C   UNL     1      30.842  -6.382 -26.362  1.00  0.00     0.050 A 
ATOM     14  C   UNL     1      28.276  -6.481 -25.241  1.00  0.00     0.119 A 
ATOM     15  C   UNL     1      29.820  -5.583 -26.886  1.00  0.00     0.119 A 
ATOM     16  C   UNL     1      28.538  -5.632 -26.322  1.00  0.00     0.092 A 
BRANCH  14  17
ATOM     17  O   UNL     1      26.996  -6.523 -24.696  1.00  0.00    -0.508 OA
ATOM     18  H   UNL     1      26.751  -7.189 -23.972  1.00  0.00     0.293 HD
ENDBRANCH  14  17
BRANCH  15  19
ATOM     19  O   UNL     1      30.088  -4.748 -27.968  1.00  0.00    -0.508 OA
ATOM     20  H   UNL     1      30.832  -4.060 -27.934  1.00  0.00     0.293 HD
ENDBRANCH  15  19
ENDBRANCH  10  11
ENDBRANCH   1  10
TORSDOF 6
ENDMDL
MODEL 5
REMARK VINA RESULT:    -5.058      1.572      2.772
REMARK INTER + INTRA:          -6.915
REMARK INTER:                  -6.397
REMARK INTRA:                  -0.518
REMARK UNBOUND:                -0.526
REMARK SMILES Oc1ccc(CCc2cc(O)cc(O)c2)cc1
REMARK SMILES IDX 6 1 5 2 4 3 3 4 2 5 16 6 17 7 1 8 7 10 8 11 15 12 9 13 13 14
REMARK SMILES IDX 10 15 12 16 14 17 11 19
REMARK H PARENT 1 9 14 18 11 20
REMARK Flexibility Score: inf
ROOT
ATOM      1  C   UNL     1      32.694  -3.173 -24.589  1.00  0.00     0.040 C 
ENDROOT
BRANCH   1   2
ATOM      2  C   UNL     1      31.691  -2.063 -24.397  1.00  0.00    -0.047 A 
ATOM      3  C   UNL     1      30.319  -2.308 -24.569  1.00  0.00     0.007 A 
ATOM      4  C   UNL     1      29.388  -1.290 -24.343  1.00  0.00     0.046 A 
ATOM      5  C   UNL     1      29.818  -0.019 -23.938  1.00  0.00     0.115 A 
ATOM      6  C   UNL     1      32.117  -0.790 -23.984  1.00  0.00     0.007 A 
ATOM      7  C   UNL     1      31.184   0.227 -23.759  1.00  0.00     0.046 A 
BRANCH   5   8
ATOM      8  O   UNL     1      28.899   1.002 -23.708  1.00  0.00    -0.508 OA
ATOM      9  H   UNL     1      27.926   0.908 -23.973  1.00  0.00     0.293 HD
ENDBRANCH   5   8
ENDBRANCH   1   2
BRANCH   1  10
ATOM     10  C   UNL     1      32.664  -4.175 -23.426  1.00  0.00     0.040 C 
BRANCH  10  11
ATOM     11  C   UNL     1      32.356  -5.573 -23.901  1.00  0.00    -0.040 A 
ATOM     12  C   UNL     1      31.587  -5.773 -25.058  1.00  0.00     0.050 A 
ATOM     13  C   UNL     1      32.784  -6.684 -23.156  1.00  0.00     0.050 A 
ATOM     14  C   UNL     1      31.260  -7.071 -25.475  1.00  0.00     0.119 A 
ATOM     15  C   UNL     1      32.457  -7.980 -23.568  1.00  0.00     0.119 A 
ATOM     16  C   UNL     1      31.697  -8.171 -24.730  1.00  0.00     0.092 A 
BRANCH  14  17
ATOM     17  O   UNL     1      30.500  -7.277 -26.623  1.00  0.00    -0.508 OA
ATOM     18  H   UNL     1      30.704  -8.036 -27.263  1.00  0.00     0.293 HD
ENDBRANCH  14  17
BRANCH  15  19
ATOM     19  O   UNL     1      32.889  -9.070 -22.816  1.00  0.00    -0.508 OA
ATOM     20  H   UNL     1      33.429  -9.819 -23.232  1.00  0.00     0.293 HD
ENDBRANCH  15  19
ENDBRANCH  10  11
ENDBRANCH   1  10
TORSDOF 6
ENDMDL
MODEL 6
REMARK VINA RESULT:    -5.037      1.577      2.051
REMARK INTER + INTRA:          -6.887
REMARK INTER:                  -6.366
REMARK INTRA:                  -0.522
REMARK UNBOUND:                -0.526
REMARK SMILES Oc1ccc(CCc2cc(O)cc(O)c2)cc1
REMARK SMILES IDX 6 1 5 2 4 3 3 4 2 5 16 6 17 7 1 8 7 10 8 11 15 12 9 13 13 14
REMARK SMILES IDX 10 15 12 16 14 17 11 19
REMARK H PARENT 1 9 14 18 11 20
REMARK Flexibility Score: inf
ROOT
ATOM      1  C   UNL     1      32.650  -3.122 -24.746  1.00  0.00     0.040 C 
ENDROOT
BRANCH   1   2
ATOM      2  C   UNL     1      31.649  -2.023 -24.497  1.00  0.00    -0.047 A 
ATOM      3  C   UNL     1      30.275  -2.259 -24.669  1.00  0.00     0.007 A 
ATOM      4  C   UNL     1      29.347  -1.252 -24.390  1.00  0.00     0.046 A 
ATOM      5  C   UNL     1      29.780  -0.001 -23.933  1.00  0.00     0.115 A 
ATOM      6  C   UNL     1      32.078  -0.769 -24.031  1.00  0.00     0.007 A 
ATOM      7  C   UNL     1      31.147   0.237 -23.755  1.00  0.00     0.046 A 
BRANCH   5   8
ATOM      8  O   UNL     1      28.864   1.009 -23.651  1.00  0.00    -0.508 OA
ATOM      9  H   UNL     1      28.463   1.117 -22.727  1.00  0.00     0.293 HD
ENDBRANCH   5   8
ENDBRANCH   1   2
BRANCH   1  10
ATOM     10  C   UNL     1      32.744  -4.086 -23.554  1.00  0.00     0.040 C 
BRANCH  10  11
ATOM     11  C   UNL     1      32.360  -5.492 -23.941  1.00  0.00    -0.040 A 
ATOM     12  C   UNL     1      32.835  -6.584 -23.196  1.00  0.00     0.050 A 
ATOM     13  C   UNL     1      31.578  -5.724 -25.084  1.00  0.00     0.050 A 
ATOM     14  C   UNL     1      32.519  -7.894 -23.582  1.00  0.00     0.119 A 
ATOM     15  C   UNL     1      31.263  -7.031 -25.472  1.00  0.00     0.119 A 
ATOM     16  C   UNL     1      31.732  -8.114 -24.718  1.00  0.00     0.092 A 
BRANCH  14  17
ATOM     17  O   UNL     1      32.983  -8.982 -22.847  1.00  0.00    -0.508 OA
ATOM     18  H   UNL     1      32.360  -9.724 -22.550  1.00  0.00     0.293 HD
ENDBRANCH  14  17
BRANCH  15  19
ATOM     19  O   UNL     1      30.486  -7.240 -26.609  1.00  0.00    -0.508 OA
ATOM     20  H   UNL     1      30.324  -6.501 -27.282  1.00  0.00     0.293 HD
ENDBRANCH  15  19
ENDBRANCH  10  11
ENDBRANCH   1  10
TORSDOF 6
ENDMDL
MODEL 7
REMARK VINA RESULT:    -5.002      1.495      6.463
REMARK INTER + INTRA:          -6.843
REMARK INTER:                  -6.335
REMARK INTRA:                  -0.509
REMARK UNBOUND:                -0.526
REMARK SMILES Oc1ccc(CCc2cc(O)cc(O)c2)cc1
REMARK SMILES IDX 6 1 5 2 4 3 3 4 2 5 16 6 17 7 1 8 7 10 8 11 15 12 9 13 13 14
REMARK SMILES IDX 10 15 12 16 14 17 11 19
REMARK H PARENT 1 9 14 18 11 20
REMARK Flexibility Score: inf
ROOT
ATOM      1  C   UNL     1      29.619  -4.259 -23.247  1.00  0.00     0.040 C 
ENDROOT
BRANCH   1   2
ATOM      2  C   UNL     1      30.693  -5.318 -23.250  1.00  0.00    -0.047 A 
ATOM      3  C   UNL     1      31.861  -5.148 -22.489  1.00  0.00     0.007 A 
ATOM      4  C   UNL     1      32.832  -6.152 -22.455  1.00  0.00     0.046 A 
ATOM      5  C   UNL     1      32.645  -7.338 -23.179  1.00  0.00     0.115 A 
ATOM      6  C   UNL     1      30.507  -6.511 -23.967  1.00  0.00     0.007 A 
ATOM      7  C   UNL     1      31.481  -7.513 -23.933  1.00  0.00     0.046 A 
BRANCH   5   8
ATOM      8  O   UNL     1      33.606  -8.346 -23.152  1.00  0.00    -0.508 OA
ATOM      9  H   UNL     1      34.373  -8.328 -22.491  1.00  0.00     0.293 HD
ENDBRANCH   5   8
ENDBRANCH   1   2
BRANCH   1  10
ATOM     10  C   UNL     1      29.548  -3.517 -24.589  1.00  0.00     0.040 C 
BRANCH  10  11
ATOM     11  C   UNL     1      29.873  -2.053 -24.436  1.00  0.00    -0.040 A 
ATOM     12  C   UNL     1      31.208  -1.619 -24.466  1.00  0.00     0.050 A 
ATOM     13  C   UNL     1      28.850  -1.121 -24.200  1.00  0.00     0.050 A 
ATOM     14  C   UNL     1      31.517  -0.265 -24.276  1.00  0.00     0.119 A 
ATOM     15  C   UNL     1      29.155   0.231 -24.008  1.00  0.00     0.119 A 
ATOM     16  C   UNL     1      30.489   0.657 -24.049  1.00  0.00     0.092 A 
BRANCH  14  17
ATOM     17  O   UNL     1      32.838   0.174 -24.308  1.00  0.00    -0.508 OA
ATOM     18  H   UNL     1      33.097   1.039 -24.767  1.00  0.00     0.293 HD
ENDBRANCH  14  17
BRANCH  15  19
ATOM     19  O   UNL     1      28.126   1.141 -23.774  1.00  0.00    -0.508 OA
ATOM     20  H   UNL     1      27.209   0.835 -23.469  1.00  0.00     0.293 HD
ENDBRANCH  15  19
ENDBRANCH  10  11
ENDBRANCH   1  10
TORSDOF 6
ENDMDL
MODEL 8
REMARK VINA RESULT:    -4.999      1.487      6.831
REMARK INTER + INTRA:          -6.839
REMARK INTER:                  -6.415
REMARK INTRA:                  -0.424
REMARK UNBOUND:                -0.526
REMARK SMILES Oc1ccc(CCc2cc(O)cc(O)c2)cc1
REMARK SMILES IDX 6 1 5 2 4 3 3 4 2 5 16 6 17 7 1 8 7 10 8 11 15 12 9 13 13 14
REMARK SMILES IDX 10 15 12 16 14 17 11 19
REMARK H PARENT 1 9 14 18 11 20
REMARK Flexibility Score: inf
ROOT
ATOM      1  C   UNL     1      29.630  -4.119 -23.624  1.00  0.00     0.040 C 
ENDROOT
BRANCH   1   2
ATOM      2  C   UNL     1      30.413  -5.385 -23.385  1.00  0.00    -0.047 A 
ATOM      3  C   UNL     1      30.117  -6.551 -24.110  1.00  0.00     0.007 A 
ATOM      4  C   UNL     1      30.877  -7.709 -23.922  1.00  0.00     0.046 A 
ATOM      5  C   UNL     1      31.942  -7.713 -23.012  1.00  0.00     0.115 A 
ATOM      6  C   UNL     1      31.486  -5.392 -22.479  1.00  0.00     0.007 A 
ATOM      7  C   UNL     1      32.244  -6.552 -22.292  1.00  0.00     0.046 A 
BRANCH   5   8
ATOM      8  O   UNL     1      32.706  -8.861 -22.817  1.00  0.00    -0.508 OA
ATOM      9  H   UNL     1      32.747  -9.323 -21.917  1.00  0.00     0.293 HD
ENDBRANCH   5   8
ENDBRANCH   1   2
BRANCH   1  10
ATOM     10  C   UNL     1      30.125  -3.370 -24.869  1.00  0.00     0.040 C 
BRANCH  10  11
ATOM     11  C   UNL     1      30.294  -1.895 -24.604  1.00  0.00    -0.040 A 
ATOM     12  C   UNL     1      29.191  -1.115 -24.220  1.00  0.00     0.050 A 
ATOM     13  C   UNL     1      31.541  -1.278 -24.800  1.00  0.00     0.050 A 
ATOM     14  C   UNL     1      29.335   0.264 -24.019  1.00  0.00     0.119 A 
ATOM     15  C   UNL     1      31.686   0.099 -24.602  1.00  0.00     0.119 A 
ATOM     16  C   UNL     1      30.583   0.868 -24.209  1.00  0.00     0.092 A 
BRANCH  14  17
ATOM     17  O   UNL     1      28.247   1.043 -23.635  1.00  0.00    -0.508 OA
ATOM     18  H   UNL     1      27.309   0.838 -23.958  1.00  0.00     0.293 HD
ENDBRANCH  14  17
BRANCH  15  19
ATOM     19  O   UNL     1      32.930   0.693 -24.803  1.00  0.00    -0.508 OA
ATOM     20  H   UNL     1      33.680   0.590 -24.129  1.00  0.00     0.293 HD
ENDBRANCH  15  19
ENDBRANCH  10  11
ENDBRANCH   1  10
TORSDOF 6
ENDMDL
MODEL 9
REMARK VINA RESULT:    -4.977      3.468      5.091
REMARK INTER + INTRA:          -6.812
REMARK INTER:                  -6.244
REMARK INTRA:                  -0.568
REMARK UNBOUND:                -0.526
REMARK SMILES Oc1ccc(CCc2cc(O)cc(O)c2)cc1
REMARK SMILES IDX 6 1 5 2 4 3 3 4 2 5 16 6 17 7 1 8 7 10 8 11 15 12 9 13 13 14
REMARK SMILES IDX 10 15 12 16 14 17 11 19
REMARK H PARENT 1 9 14 18 11 20
REMARK Flexibility Score: inf
ROOT
ATOM      1  C   UNL     1      31.357  -7.998 -25.117  1.00  0.00     0.040 C 
ENDROOT
BRANCH   1   2
ATOM      2  C   UNL     1      30.129  -7.234 -25.541  1.00  0.00    -0.047 A 
ATOM      3  C   UNL     1      28.968  -7.258 -24.750  1.00  0.00     0.007 A 
ATOM      4  C   UNL     1      27.847  -6.510 -25.120  1.00  0.00     0.046 A 
ATOM      5  C   UNL     1      27.876  -5.727 -26.282  1.00  0.00     0.115 A 
ATOM      6  C   UNL     1      30.155  -6.442 -26.700  1.00  0.00     0.007 A 
ATOM      7  C   UNL     1      29.032  -5.695 -27.069  1.00  0.00     0.046 A 
BRANCH   5   8
ATOM      8  O   UNL     1      26.765  -4.976 -26.660  1.00  0.00    -0.508 OA
ATOM      9  H   UNL     1      25.864  -5.104 -26.217  1.00  0.00     0.293 HD
ENDBRANCH   5   8
ENDBRANCH   1   2
BRANCH   1  10
ATOM     10  C   UNL     1      31.544  -7.974 -23.592  1.00  0.00     0.040 C 
BRANCH  10  11
ATOM     11  C   UNL     1      32.280  -6.738 -23.139  1.00  0.00    -0.040 A 
ATOM     12  C   UNL     1      32.311  -6.394 -21.778  1.00  0.00     0.050 A 
ATOM     13  C   UNL     1      32.884  -5.889 -24.080  1.00  0.00     0.050 A 
ATOM     14  C   UNL     1      32.953  -5.220 -21.360  1.00  0.00     0.119 A 
ATOM     15  C   UNL     1      33.524  -4.716 -23.666  1.00  0.00     0.119 A 
ATOM     16  C   UNL     1      33.560  -4.385 -22.304  1.00  0.00     0.092 A 
BRANCH  14  17
ATOM     17  O   UNL     1      32.992  -4.874 -20.012  1.00  0.00    -0.508 OA
ATOM     18  H   UNL     1      33.822  -4.472 -19.593  1.00  0.00     0.293 HD
ENDBRANCH  14  17
BRANCH  15  19
ATOM     19  O   UNL     1      34.117  -3.886 -24.614  1.00  0.00    -0.508 OA
ATOM     20  H   UNL     1      33.693  -3.007 -24.887  1.00  0.00     0.293 HD
ENDBRANCH  15  19
ENDBRANCH  10  11
ENDBRANCH   1  10
TORSDOF 6
ENDMDL
