MODEL 1
REMARK VINA RESULT:    -7.431      0.000      0.000
REMARK INTER + INTRA:          -7.528
REMARK INTER:                  -8.082
REMARK INTRA:                   0.554
REMARK UNBOUND:                 0.554
REMARK SMILES CC(=O)[C@H]1CC[C@H]2[C@@H]3CC=C4C[C@H](O)CC[C@]4(C)[C@@H]3CC[C@@]12C
REMARK SMILES IDX 4 1 5 2 6 3 7 4 22 5 21 6 20 7 19 8 8 9 9 10 10 11 11 12
REMARK SMILES IDX 17 13 16 14 15 15 13 16 12 17 18 18 23 19 2 20 1 21 3 22
REMARK SMILES IDX 14 23
REMARK H PARENT 14 24
REMARK Flexibility Score: inf
ROOT
ATOM      1  C   UNL     1      13.027  12.005  32.720  1.00  0.00     0.062 C 
ATOM      2  C   UNL     1      12.158  11.162  31.788  1.00  0.00     0.012 C 
ATOM      3  C   UNL     1      12.838  11.209  30.420  1.00  0.00     0.005 C 
ATOM      4  C   UNL     1      14.037  12.169  30.541  1.00  0.00    -0.001 C 
ATOM      5  C   UNL     1      13.764  13.027  31.810  1.00  0.00    -0.020 C 
ATOM      6  C   UNL     1      12.873  14.258  31.474  1.00  0.00     0.008 C 
ATOM      7  C   UNL     1      13.339  15.041  30.240  1.00  0.00     0.005 C 
ATOM      8  C   UNL     1      13.349  14.137  28.984  1.00  0.00     0.003 C 
ATOM      9  C   UNL     1      14.309  12.939  29.210  1.00  0.00     0.000 C 
ATOM     10  C   UNL     1      15.782  13.367  29.102  1.00  0.00     0.031 C 
ATOM     11  C   UNL     1      16.062  14.208  27.895  1.00  0.00    -0.027 C 
ATOM     12  C   UNL     1      15.138  14.985  27.296  1.00  0.00    -0.065 C 
ATOM     13  C   UNL     1      13.640  14.863  27.600  1.00  0.00    -0.008 C 
ATOM     14  C   UNL     1      13.012  16.293  27.556  1.00  0.00     0.014 C 
ATOM     15  C   UNL     1      13.378  17.096  26.296  1.00  0.00     0.033 C 
ATOM     16  C   UNL     1      14.900  17.220  26.137  1.00  0.00     0.118 C 
ATOM     17  C   UNL     1      15.570  15.838  26.114  1.00  0.00     0.063 C 
ATOM     18  C   UNL     1      12.993  14.004  26.476  1.00  0.00     0.016 C 
ATOM     19  C   UNL     1      15.060  13.488  32.522  1.00  0.00     0.012 C 
ENDROOT
BRANCH   1  20
ATOM     20  C   UNL     1      12.251  12.587  33.889  1.00  0.00     0.133 C 
ATOM     21  C   UNL     1      11.875  11.713  35.049  1.00  0.00     0.088 C 
ATOM     22  O   UNL     1      11.877  13.750  33.874  1.00  0.00    -0.300 OA
ENDBRANCH   1  20
BRANCH  16  23
ATOM     23  O   UNL     1      15.421  17.995  27.187  1.00  0.00    -0.393 OA
ATOM     24  H   UNL     1      16.308  17.610  27.416  1.00  0.00     0.210 HD
ENDBRANCH  16  23
TORSDOF 2
ENDMDL
MODEL 2
REMARK VINA RESULT:    -7.070      1.969      3.690
REMARK INTER + INTRA:          -7.135
REMARK INTER:                  -7.672
REMARK INTRA:                   0.536
REMARK UNBOUND:                 0.554
REMARK SMILES CC(=O)[C@H]1CC[C@H]2[C@@H]3CC=C4C[C@H](O)CC[C@]4(C)[C@@H]3CC[C@@]12C
REMARK SMILES IDX 4 1 5 2 6 3 7 4 22 5 21 6 20 7 19 8 8 9 9 10 10 11 11 12
REMARK SMILES IDX 17 13 16 14 15 15 13 16 12 17 18 18 23 19 2 20 1 21 3 22
REMARK SMILES IDX 14 23
REMARK H PARENT 14 24
REMARK Flexibility Score: inf
ROOT
ATOM      1  C   UNL     1      12.409  12.747  30.210  1.00  0.00     0.062 C 
ATOM      2  C   UNL     1      12.554  13.893  31.210  1.00  0.00     0.012 C 
ATOM      3  C   UNL     1      12.512  15.179  30.386  1.00  0.00     0.005 C 
ATOM      4  C   UNL     1      12.452  14.767  28.902  1.00  0.00    -0.001 C 
ATOM      5  C   UNL     1      12.941  13.291  28.855  1.00  0.00    -0.020 C 
ATOM      6  C   UNL     1      14.492  13.215  28.764  1.00  0.00     0.008 C 
ATOM      7  C   UNL     1      15.096  14.141  27.700  1.00  0.00     0.005 C 
ATOM      8  C   UNL     1      14.733  15.618  27.983  1.00  0.00     0.003 C 
ATOM      9  C   UNL     1      13.190  15.787  27.980  1.00  0.00     0.000 C 
ATOM     10  C   UNL     1      12.623  15.762  26.551  1.00  0.00     0.031 C 
ATOM     11  C   UNL     1      13.378  16.643  25.603  1.00  0.00    -0.027 C 
ATOM     12  C   UNL     1      14.679  16.961  25.755  1.00  0.00    -0.065 C 
ATOM     13  C   UNL     1      15.440  16.703  27.062  1.00  0.00    -0.008 C 
ATOM     14  C   UNL     1      16.903  16.289  26.703  1.00  0.00     0.014 C 
ATOM     15  C   UNL     1      17.589  17.233  25.701  1.00  0.00     0.033 C 
ATOM     16  C   UNL     1      16.779  17.353  24.402  1.00  0.00     0.118 C 
ATOM     17  C   UNL     1      15.342  17.815  24.687  1.00  0.00     0.063 C 
ATOM     18  C   UNL     1      15.485  18.038  27.859  1.00  0.00     0.016 C 
ATOM     19  C   UNL     1      12.302  12.476  27.703  1.00  0.00     0.012 C 
ENDROOT
BRANCH   1  20
ATOM     20  C   UNL     1      13.029  11.450  30.701  1.00  0.00     0.133 C 
ATOM     21  C   UNL     1      12.617  10.875  32.024  1.00  0.00     0.088 C 
ATOM     22  O   UNL     1      13.904  10.892  30.056  1.00  0.00    -0.300 OA
ENDBRANCH   1  20
BRANCH  16  23
ATOM     23  O   UNL     1      16.769  16.114  23.739  1.00  0.00    -0.393 OA
ATOM     24  H   UNL     1      17.716  15.875  23.559  1.00  0.00     0.210 HD
ENDBRANCH  16  23
TORSDOF 2
ENDMDL
MODEL 3
REMARK VINA RESULT:    -6.769      1.874      7.038
REMARK INTER + INTRA:          -6.808
REMARK INTER:                  -7.733
REMARK INTRA:                   0.925
REMARK UNBOUND:                 0.554
REMARK SMILES CC(=O)[C@H]1CC[C@H]2[C@@H]3CC=C4C[C@H](O)CC[C@]4(C)[C@@H]3CC[C@@]12C
REMARK SMILES IDX 4 1 5 2 6 3 7 4 22 5 21 6 20 7 19 8 8 9 9 10 10 11 11 12
REMARK SMILES IDX 17 13 16 14 15 15 13 16 12 17 18 18 23 19 2 20 1 21 3 22
REMARK SMILES IDX 14 23
REMARK H PARENT 14 24
REMARK Flexibility Score: inf
ROOT
ATOM      1  C   UNL     1      15.540  17.735  25.365  1.00  0.00     0.062 C 
ATOM      2  C   UNL     1      14.606  17.108  24.331  1.00  0.00     0.012 C 
ATOM      3  C   UNL     1      13.379  16.630  25.106  1.00  0.00     0.005 C 
ATOM      4  C   UNL     1      13.657  16.884  26.600  1.00  0.00    -0.001 C 
ATOM      5  C   UNL     1      15.199  17.053  26.719  1.00  0.00    -0.020 C 
ATOM      6  C   UNL     1      15.905  15.675  26.871  1.00  0.00     0.008 C 
ATOM      7  C   UNL     1      15.261  14.762  27.924  1.00  0.00     0.005 C 
ATOM      8  C   UNL     1      13.781  14.474  27.574  1.00  0.00     0.003 C 
ATOM      9  C   UNL     1      12.990  15.807  27.512  1.00  0.00     0.000 C 
ATOM     10  C   UNL     1      12.708  16.362  28.919  1.00  0.00     0.031 C 
ATOM     11  C   UNL     1      12.174  15.328  29.862  1.00  0.00    -0.027 C 
ATOM     12  C   UNL     1      12.430  14.010  29.748  1.00  0.00    -0.065 C 
ATOM     13  C   UNL     1      13.042  13.399  28.481  1.00  0.00    -0.008 C 
ATOM     14  C   UNL     1      14.006  12.247  28.910  1.00  0.00     0.014 C 
ATOM     15  C   UNL     1      13.383  11.251  29.903  1.00  0.00     0.033 C 
ATOM     16  C   UNL     1      12.876  11.963  31.165  1.00  0.00     0.118 C 
ATOM     17  C   UNL     1      11.875  13.074  30.809  1.00  0.00     0.063 C 
ATOM     18  C   UNL     1      11.886  12.789  27.639  1.00  0.00     0.016 C 
ATOM     19  C   UNL     1      15.620  17.995  27.875  1.00  0.00     0.012 C 
ENDROOT
BRANCH   1  20
ATOM     20  C   UNL     1      16.999  17.700  24.945  1.00  0.00     0.133 C 
ATOM     21  C   UNL     1      17.985  16.881  25.725  1.00  0.00     0.088 C 
ATOM     22  O   UNL     1      17.396  18.376  24.009  1.00  0.00    -0.300 OA
ENDBRANCH   1  20
BRANCH  16  23
ATOM     23  O   UNL     1      13.966  12.500  31.872  1.00  0.00    -0.393 OA
ATOM     24  H   UNL     1      13.718  12.489  32.834  1.00  0.00     0.210 HD
ENDBRANCH  16  23
TORSDOF 2
ENDMDL
MODEL 4
REMARK VINA RESULT:    -6.096      2.037      6.570
REMARK INTER + INTRA:          -6.076
REMARK INTER:                  -6.246
REMARK INTRA:                   0.170
REMARK UNBOUND:                 0.554
REMARK SMILES CC(=O)[C@H]1CC[C@H]2[C@@H]3CC=C4C[C@H](O)CC[C@]4(C)[C@@H]3CC[C@@]12C
REMARK SMILES IDX 4 1 5 2 6 3 7 4 22 5 21 6 20 7 19 8 8 9 9 10 10 11 11 12
REMARK SMILES IDX 17 13 16 14 15 15 13 16 12 17 18 18 23 19 2 20 1 21 3 22
REMARK SMILES IDX 14 23
REMARK H PARENT 14 24
REMARK Flexibility Score: inf
ROOT
ATOM      1  C   UNL     1      13.903  13.537  26.794  1.00  0.00     0.062 C 
ATOM      2  C   UNL     1      13.050  12.269  26.805  1.00  0.00     0.012 C 
ATOM      3  C   UNL     1      12.098  12.412  27.992  1.00  0.00     0.005 C 
ATOM      4  C   UNL     1      12.480  13.711  28.728  1.00  0.00    -0.001 C 
ATOM      5  C   UNL     1      13.924  14.051  28.260  1.00  0.00    -0.020 C 
ATOM      6  C   UNL     1      14.984  13.308  29.124  1.00  0.00     0.008 C 
ATOM      7  C   UNL     1      14.740  13.418  30.635  1.00  0.00     0.005 C 
ATOM      8  C   UNL     1      13.358  12.834  31.015  1.00  0.00     0.003 C 
ATOM      9  C   UNL     1      12.240  13.607  30.267  1.00  0.00     0.000 C 
ATOM     10  C   UNL     1      11.996  14.991  30.890  1.00  0.00     0.031 C 
ATOM     11  C   UNL     1      11.875  14.950  32.383  1.00  0.00    -0.027 C 
ATOM     12  C   UNL     1      12.456  14.010  33.154  1.00  0.00    -0.065 C 
ATOM     13  C   UNL     1      13.048  12.721  32.569  1.00  0.00    -0.008 C 
ATOM     14  C   UNL     1      14.328  12.355  33.387  1.00  0.00     0.014 C 
ATOM     15  C   UNL     1      14.119  12.368  34.911  1.00  0.00     0.033 C 
ATOM     16  C   UNL     1      13.600  13.731  35.391  1.00  0.00     0.118 C 
ATOM     17  C   UNL     1      12.304  14.118  34.662  1.00  0.00     0.063 C 
ATOM     18  C   UNL     1      12.001  11.586  32.758  1.00  0.00     0.016 C 
ATOM     19  C   UNL     1      14.219  15.572  28.253  1.00  0.00     0.012 C 
ENDROOT
BRANCH   1  20
ATOM     20  C   UNL     1      15.257  13.334  26.135  1.00  0.00     0.133 C 
ATOM     21  C   UNL     1      16.250  14.458  26.100  1.00  0.00     0.088 C 
ATOM     22  O   UNL     1      15.530  12.280  25.580  1.00  0.00    -0.300 OA
ENDBRANCH   1  20
BRANCH  16  23
ATOM     23  O   UNL     1      14.586  14.710  35.184  1.00  0.00    -0.393 OA
ATOM     24  H   UNL     1      15.240  14.622  35.927  1.00  0.00     0.210 HD
ENDBRANCH  16  23
TORSDOF 2
ENDMDL
MODEL 5
REMARK VINA RESULT:    -5.988      1.790      2.997
REMARK INTER + INTRA:          -5.959
REMARK INTER:                  -5.931
REMARK INTRA:                  -0.028
REMARK UNBOUND:                 0.554
REMARK SMILES CC(=O)[C@H]1CC[C@H]2[C@@H]3CC=C4C[C@H](O)CC[C@]4(C)[C@@H]3CC[C@@]12C
REMARK SMILES IDX 4 1 5 2 6 3 7 4 22 5 21 6 20 7 19 8 8 9 9 10 10 11 11 12
REMARK SMILES IDX 17 13 16 14 15 15 13 16 12 17 18 18 23 19 2 20 1 21 3 22
REMARK SMILES IDX 14 23
REMARK H PARENT 14 24
REMARK Flexibility Score: inf
ROOT
ATOM      1  C   UNL     1      12.397  13.018  33.644  1.00  0.00     0.062 C 
ATOM      2  C   UNL     1      12.236  14.536  33.709  1.00  0.00     0.012 C 
ATOM      3  C   UNL     1      11.876  14.982  32.293  1.00  0.00     0.005 C 
ATOM      4  C   UNL     1      11.939  13.734  31.392  1.00  0.00    -0.001 C 
ATOM      5  C   UNL     1      12.787  12.691  32.176  1.00  0.00    -0.020 C 
ATOM      6  C   UNL     1      14.307  12.895  31.917  1.00  0.00     0.008 C 
ATOM      7  C   UNL     1      14.668  13.053  30.434  1.00  0.00     0.005 C 
ATOM      8  C   UNL     1      13.938  14.269  29.815  1.00  0.00     0.003 C 
ATOM      9  C   UNL     1      12.403  14.078  29.942  1.00  0.00     0.000 C 
ATOM     10  C   UNL     1      11.875  13.051  28.926  1.00  0.00     0.031 C 
ATOM     11  C   UNL     1      12.392  13.278  27.539  1.00  0.00    -0.027 C 
ATOM     12  C   UNL     1      13.568  13.879  27.269  1.00  0.00    -0.065 C 
ATOM     13  C   UNL     1      14.355  14.656  28.331  1.00  0.00    -0.008 C 
ATOM     14  C   UNL     1      15.879  14.420  28.081  1.00  0.00     0.014 C 
ATOM     15  C   UNL     1      16.314  14.647  26.623  1.00  0.00     0.033 C 
ATOM     16  C   UNL     1      15.514  13.760  25.658  1.00  0.00     0.118 C 
ATOM     17  C   UNL     1      14.003  13.992  25.817  1.00  0.00     0.063 C 
ATOM     18  C   UNL     1      14.051  16.169  28.138  1.00  0.00     0.016 C 
ATOM     19  C   UNL     1      12.388  11.227  31.866  1.00  0.00     0.012 C 
ENDROOT
BRANCH   1  20
ATOM     20  C   UNL     1      13.321  12.474  34.720  1.00  0.00     0.133 C 
ATOM     21  C   UNL     1      12.941  11.238  35.481  1.00  0.00     0.088 C 
ATOM     22  O   UNL     1      14.350  13.062  35.015  1.00  0.00    -0.300 OA
ENDBRANCH   1  20
BRANCH  16  23
ATOM     23  O   UNL     1      15.825  12.410  25.892  1.00  0.00    -0.393 OA
ATOM     24  H   UNL     1      16.389  12.382  26.710  1.00  0.00     0.210 HD
ENDBRANCH  16  23
TORSDOF 2
ENDMDL
MODEL 6
REMARK VINA RESULT:    -5.493      1.384      6.810
REMARK INTER + INTRA:          -5.420
REMARK INTER:                  -5.358
REMARK INTRA:                  -0.062
REMARK UNBOUND:                 0.554
REMARK SMILES CC(=O)[C@H]1CC[C@H]2[C@@H]3CC=C4C[C@H](O)CC[C@]4(C)[C@@H]3CC[C@@]12C
REMARK SMILES IDX 4 1 5 2 6 3 7 4 22 5 21 6 20 7 19 8 8 9 9 10 10 11 11 12
REMARK SMILES IDX 17 13 16 14 15 15 13 16 12 17 18 18 23 19 2 20 1 21 3 22
REMARK SMILES IDX 14 23
REMARK H PARENT 14 24
REMARK Flexibility Score: inf
ROOT
ATOM      1  C   UNL     1      14.996  16.447  25.313  1.00  0.00     0.062 C 
ATOM      2  C   UNL     1      16.054  15.370  25.075  1.00  0.00     0.012 C 
ATOM      3  C   UNL     1      15.455  14.067  25.603  1.00  0.00     0.005 C 
ATOM      4  C   UNL     1      14.098  14.417  26.243  1.00  0.00    -0.001 C 
ATOM      5  C   UNL     1      14.139  15.949  26.509  1.00  0.00    -0.020 C 
ATOM      6  C   UNL     1      14.810  16.262  27.878  1.00  0.00     0.008 C 
ATOM      7  C   UNL     1      14.282  15.409  29.038  1.00  0.00     0.005 C 
ATOM      8  C   UNL     1      14.505  13.903  28.761  1.00  0.00     0.003 C 
ATOM      9  C   UNL     1      13.767  13.495  27.458  1.00  0.00     0.000 C 
ATOM     10  C   UNL     1      12.249  13.385  27.681  1.00  0.00     0.031 C 
ATOM     11  C   UNL     1      11.890  12.603  28.907  1.00  0.00    -0.027 C 
ATOM     12  C   UNL     1      12.690  12.496  29.985  1.00  0.00    -0.065 C 
ATOM     13  C   UNL     1      14.167  12.912  29.956  1.00  0.00    -0.008 C 
ATOM     14  C   UNL     1      14.527  13.537  31.342  1.00  0.00     0.014 C 
ATOM     15  C   UNL     1      14.094  12.680  32.544  1.00  0.00     0.033 C 
ATOM     16  C   UNL     1      12.586  12.394  32.510  1.00  0.00     0.118 C 
ATOM     17  C   UNL     1      12.179  11.722  31.189  1.00  0.00     0.063 C 
ATOM     18  C   UNL     1      15.020  11.627  29.757  1.00  0.00     0.016 C 
ATOM     19  C   UNL     1      12.744  16.616  26.438  1.00  0.00     0.012 C 
ENDROOT
BRANCH   1  20
ATOM     20  C   UNL     1      15.587  17.840  25.445  1.00  0.00     0.133 C 
ATOM     21  C   UNL     1      14.706  19.046  25.304  1.00  0.00     0.088 C 
ATOM     22  O   UNL     1      16.788  17.995  25.612  1.00  0.00    -0.300 OA
ENDBRANCH   1  20
BRANCH  16  23
ATOM     23  O   UNL     1      11.875  13.594  32.684  1.00  0.00    -0.393 OA
ATOM     24  H   UNL     1      12.537  14.332  32.623  1.00  0.00     0.210 HD
ENDBRANCH  16  23
TORSDOF 2
ENDMDL
MODEL 7
REMARK VINA RESULT:    -4.759      1.782      6.909
REMARK INTER + INTRA:          -4.622
REMARK INTER:                  -5.305
REMARK INTRA:                   0.684
REMARK UNBOUND:                 0.554
REMARK SMILES CC(=O)[C@H]1CC[C@H]2[C@@H]3CC=C4C[C@H](O)CC[C@]4(C)[C@@H]3CC[C@@]12C
REMARK SMILES IDX 4 1 5 2 6 3 7 4 22 5 21 6 20 7 19 8 8 9 9 10 10 11 11 12
REMARK SMILES IDX 17 13 16 14 15 15 13 16 12 17 18 18 23 19 2 20 1 21 3 22
REMARK SMILES IDX 14 23
REMARK H PARENT 14 24
REMARK Flexibility Score: inf
ROOT
ATOM      1  C   UNL     1      15.276  17.219  25.164  1.00  0.00     0.062 C 
ATOM      2  C   UNL     1      16.722  17.184  25.658  1.00  0.00     0.012 C 
ATOM      3  C   UNL     1      16.978  15.747  26.110  1.00  0.00     0.005 C 
ATOM      4  C   UNL     1      15.646  14.984  25.978  1.00  0.00    -0.001 C 
ATOM      5  C   UNL     1      14.540  16.076  25.915  1.00  0.00    -0.020 C 
ATOM      6  C   UNL     1      14.095  16.507  27.343  1.00  0.00     0.008 C 
ATOM      7  C   UNL     1      13.804  15.330  28.283  1.00  0.00     0.005 C 
ATOM      8  C   UNL     1      15.055  14.436  28.452  1.00  0.00     0.003 C 
ATOM      9  C   UNL     1      15.491  13.880  27.070  1.00  0.00     0.000 C 
ATOM     10  C   UNL     1      14.560  12.751  26.597  1.00  0.00     0.031 C 
ATOM     11  C   UNL     1      14.292  11.727  27.657  1.00  0.00    -0.027 C 
ATOM     12  C   UNL     1      14.334  11.991  28.978  1.00  0.00    -0.065 C 
ATOM     13  C   UNL     1      14.950  13.280  29.538  1.00  0.00    -0.008 C 
ATOM     14  C   UNL     1      14.109  13.727  30.776  1.00  0.00     0.014 C 
ATOM     15  C   UNL     1      13.857  12.604  31.796  1.00  0.00     0.033 C 
ATOM     16  C   UNL     1      13.167  11.400  31.141  1.00  0.00     0.118 C 
ATOM     17  C   UNL     1      13.981  10.876  29.948  1.00  0.00     0.063 C 
ATOM     18  C   UNL     1      16.394  12.951  30.014  1.00  0.00     0.016 C 
ATOM     19  C   UNL     1      13.306  15.644  25.084  1.00  0.00     0.012 C 
ENDROOT
BRANCH   1  20
ATOM     20  C   UNL     1      14.649  18.600  25.263  1.00  0.00     0.133 C 
ATOM     21  C   UNL     1      13.195  18.740  25.606  1.00  0.00     0.088 C 
ATOM     22  O   UNL     1      15.302  19.601  25.013  1.00  0.00    -0.300 OA
ENDBRANCH   1  20
BRANCH  16  23
ATOM     23  O   UNL     1      11.875  11.766  30.725  1.00  0.00    -0.393 OA
ATOM     24  H   UNL     1      11.897  12.743  30.545  1.00  0.00     0.210 HD
ENDBRANCH  16  23
TORSDOF 2
ENDMDL
