MODEL 1
REMARK VINA RESULT:    -2.953      0.000      0.000
REMARK INTER + INTRA:          -4.031
REMARK INTER:                  -3.644
REMARK INTRA:                  -0.388
REMARK UNBOUND:                -0.388
REMARK SMILES C=CC[C@H](C)C(=O)CC
REMARK SMILES IDX 4 1 5 2 6 3 7 4 8 5 9 6 3 7 2 8 1 9
REMARK H PARENT
REMARK Flexibility Score: inf
ROOT
ATOM      1  C   UNL     1      27.312  41.024  21.114  1.00  0.00     0.057 C 
ATOM      2  C   UNL     1      28.813  41.347  21.161  1.00  0.00     0.016 C 
ENDROOT
BRANCH   1   3
ATOM      3  C   UNL     1      27.072  39.827  20.219  1.00  0.00     0.135 C 
ATOM      4  O   UNL     1      25.932  39.421  20.043  1.00  0.00    -0.299 OA
BRANCH   3   5
ATOM      5  C   UNL     1      28.216  39.113  19.548  1.00  0.00     0.072 C 
ATOM      6  C   UNL     1      28.102  39.217  18.031  1.00  0.00     0.012 C 
ENDBRANCH   3   5
ENDBRANCH   1   3
BRANCH   1   7
ATOM      7  C   UNL     1      26.485  42.228  20.616  1.00  0.00     0.038 C 
BRANCH   7   8
ATOM      8  C   UNL     1      26.953  42.732  19.277  1.00  0.00    -0.034 C 
ATOM      9  C   UNL     1      26.612  43.941  18.820  1.00  0.00     0.004 C 
ENDBRANCH   7   8
ENDBRANCH   1   7
TORSDOF 4
ENDMDL
MODEL 2
REMARK VINA RESULT:    -2.895      1.183      3.535
REMARK INTER + INTRA:          -3.960
REMARK INTER:                  -3.641
REMARK INTRA:                  -0.319
REMARK UNBOUND:                -0.388
REMARK SMILES C=CC[C@H](C)C(=O)CC
REMARK SMILES IDX 4 1 5 2 6 3 7 4 8 5 9 6 3 7 2 8 1 9
REMARK H PARENT
REMARK Flexibility Score: inf
ROOT
ATOM      1  C   UNL     1      27.360  39.863  20.501  1.00  0.00     0.057 C 
ATOM      2  C   UNL     1      26.194  38.907  20.210  1.00  0.00     0.016 C 
ENDROOT
BRANCH   1   3
ATOM      3  C   UNL     1      26.860  41.291  20.526  1.00  0.00     0.135 C 
ATOM      4  O   UNL     1      25.769  41.542  21.018  1.00  0.00    -0.299 OA
BRANCH   3   5
ATOM      5  C   UNL     1      27.677  42.414  19.942  1.00  0.00     0.072 C 
ATOM      6  C   UNL     1      26.842  43.241  18.972  1.00  0.00     0.012 C 
ENDBRANCH   3   5
ENDBRANCH   1   3
BRANCH   1   7
ATOM      7  C   UNL     1      28.491  39.717  19.461  1.00  0.00     0.038 C 
BRANCH   7   8
ATOM      8  C   UNL     1      27.982  39.257  18.121  1.00  0.00    -0.034 C 
ATOM      9  C   UNL     1      28.812  38.893  17.140  1.00  0.00     0.004 C 
ENDBRANCH   7   8
ENDBRANCH   1   7
TORSDOF 4
ENDMDL
MODEL 3
REMARK VINA RESULT:    -2.876      1.535      2.806
REMARK INTER + INTRA:          -3.937
REMARK INTER:                  -3.567
REMARK INTRA:                  -0.370
REMARK UNBOUND:                -0.388
REMARK SMILES C=CC[C@H](C)C(=O)CC
REMARK SMILES IDX 4 1 5 2 6 3 7 4 8 5 9 6 3 7 2 8 1 9
REMARK H PARENT
REMARK Flexibility Score: inf
ROOT
ATOM      1  C   UNL     1      27.261  41.858  20.063  1.00  0.00     0.057 C 
ATOM      2  C   UNL     1      26.963  42.929  19.004  1.00  0.00     0.016 C 
ENDROOT
BRANCH   1   3
ATOM      3  C   UNL     1      26.986  40.483  19.494  1.00  0.00     0.135 C 
ATOM      4  O   UNL     1      27.603  40.100  18.509  1.00  0.00    -0.299 OA
BRANCH   3   5
ATOM      5  C   UNL     1      25.955  39.575  20.111  1.00  0.00     0.072 C 
ATOM      6  C   UNL     1      26.572  38.231  20.483  1.00  0.00     0.012 C 
ENDBRANCH   3   5
ENDBRANCH   1   3
BRANCH   1   7
ATOM      7  C   UNL     1      26.428  42.075  21.345  1.00  0.00     0.038 C 
BRANCH   7   8
ATOM      8  C   UNL     1      27.283  42.114  22.584  1.00  0.00    -0.034 C 
ATOM      9  C   UNL     1      28.371  41.350  22.713  1.00  0.00     0.004 C 
ENDBRANCH   7   8
ENDBRANCH   1   7
TORSDOF 4
ENDMDL
MODEL 4
REMARK VINA RESULT:    -2.874     17.345     18.234
REMARK INTER + INTRA:          -3.934
REMARK INTER:                  -3.790
REMARK INTRA:                  -0.143
REMARK UNBOUND:                -0.388
REMARK SMILES C=CC[C@H](C)C(=O)CC
REMARK SMILES IDX 4 1 5 2 6 3 7 4 8 5 9 6 3 7 2 8 1 9
REMARK H PARENT
REMARK Flexibility Score: inf
ROOT
ATOM      1  C   UNL     1      19.718  25.693  25.582  1.00  0.00     0.057 C 
ATOM      2  C   UNL     1      18.246  25.746  26.016  1.00  0.00     0.016 C 
ENDROOT
BRANCH   1   3
ATOM      3  C   UNL     1      19.876  24.738  24.418  1.00  0.00     0.135 C 
ATOM      4  O   UNL     1      20.743  23.876  24.455  1.00  0.00    -0.299 OA
BRANCH   3   5
ATOM      5  C   UNL     1      18.989  24.834  23.204  1.00  0.00     0.072 C 
ATOM      6  C   UNL     1      19.804  25.196  21.968  1.00  0.00     0.012 C 
ENDBRANCH   3   5
ENDBRANCH   1   3
BRANCH   1   7
ATOM      7  C   UNL     1      20.641  25.268  26.743  1.00  0.00     0.038 C 
BRANCH   7   8
ATOM      8  C   UNL     1      20.793  26.348  27.780  1.00  0.00    -0.034 C 
ATOM      9  C   UNL     1      21.964  26.952  28.002  1.00  0.00     0.004 C 
ENDBRANCH   7   8
ENDBRANCH   1   7
TORSDOF 4
ENDMDL
MODEL 5
REMARK VINA RESULT:    -2.869      2.301      4.297
REMARK INTER + INTRA:          -3.928
REMARK INTER:                  -3.637
REMARK INTRA:                  -0.292
REMARK UNBOUND:                -0.388
REMARK SMILES C=CC[C@H](C)C(=O)CC
REMARK SMILES IDX 4 1 5 2 6 3 7 4 8 5 9 6 3 7 2 8 1 9
REMARK H PARENT
REMARK Flexibility Score: inf
ROOT
ATOM      1  C   UNL     1      26.753  43.067  19.871  1.00  0.00     0.057 C 
ATOM      2  C   UNL     1      26.492  44.088  18.754  1.00  0.00     0.016 C 
ENDROOT
BRANCH   1   3
ATOM      3  C   UNL     1      27.868  43.561  20.768  1.00  0.00     0.135 C 
ATOM      4  O   UNL     1      29.010  43.628  20.334  1.00  0.00    -0.299 OA
BRANCH   3   5
ATOM      5  C   UNL     1      27.601  43.962  22.195  1.00  0.00     0.072 C 
ATOM      6  C   UNL     1      27.018  42.795  22.984  1.00  0.00     0.012 C 
ENDBRANCH   3   5
ENDBRANCH   1   3
BRANCH   1   7
ATOM      7  C   UNL     1      27.110  41.677  19.303  1.00  0.00     0.038 C 
BRANCH   7   8
ATOM      8  C   UNL     1      26.487  40.557  20.093  1.00  0.00    -0.034 C 
ATOM      9  C   UNL     1      26.348  39.329  19.584  1.00  0.00     0.004 C 
ENDBRANCH   7   8
ENDBRANCH   1   7
TORSDOF 4
ENDMDL
MODEL 6
REMARK VINA RESULT:    -2.866     13.078     14.883
REMARK INTER + INTRA:          -3.923
REMARK INTER:                  -3.431
REMARK INTRA:                  -0.493
REMARK UNBOUND:                -0.388
REMARK SMILES C=CC[C@H](C)C(=O)CC
REMARK SMILES IDX 4 1 5 2 6 3 7 4 8 5 9 6 3 7 2 8 1 9
REMARK H PARENT
REMARK Flexibility Score: inf
ROOT
ATOM      1  C   UNL     1      28.034  28.548  25.781  1.00  0.00     0.057 C 
ATOM      2  C   UNL     1      27.605  29.519  24.672  1.00  0.00     0.016 C 
ENDROOT
BRANCH   1   3
ATOM      3  C   UNL     1      28.533  29.325  26.980  1.00  0.00     0.135 C 
ATOM      4  O   UNL     1      29.106  30.393  26.813  1.00  0.00    -0.299 OA
BRANCH   3   5
ATOM      5  C   UNL     1      28.349  28.803  28.380  1.00  0.00     0.072 C 
ATOM      6  C   UNL     1      27.061  27.993  28.489  1.00  0.00     0.012 C 
ENDBRANCH   3   5
ENDBRANCH   1   3
BRANCH   1   7
ATOM      7  C   UNL     1      29.125  27.571  25.294  1.00  0.00     0.038 C 
BRANCH   7   8
ATOM      8  C   UNL     1      28.833  26.146  25.683  1.00  0.00    -0.034 C 
ATOM      9  C   UNL     1      27.595  25.644  25.646  1.00  0.00     0.004 C 
ENDBRANCH   7   8
ENDBRANCH   1   7
TORSDOF 4
ENDMDL
MODEL 7
REMARK VINA RESULT:    -2.841      1.730      2.563
REMARK INTER + INTRA:          -3.893
REMARK INTER:                  -3.561
REMARK INTRA:                  -0.332
REMARK UNBOUND:                -0.388
REMARK SMILES C=CC[C@H](C)C(=O)CC
REMARK SMILES IDX 4 1 5 2 6 3 7 4 8 5 9 6 3 7 2 8 1 9
REMARK H PARENT
REMARK Flexibility Score: inf
ROOT
ATOM      1  C   UNL     1      27.421  41.897  19.578  1.00  0.00     0.057 C 
ATOM      2  C   UNL     1      26.827  43.205  19.036  1.00  0.00     0.016 C 
ENDROOT
BRANCH   1   3
ATOM      3  C   UNL     1      26.378  41.157  20.387  1.00  0.00     0.135 C 
ATOM      4  O   UNL     1      25.759  41.746  21.262  1.00  0.00    -0.299 OA
BRANCH   3   5
ATOM      5  C   UNL     1      26.094  39.697  20.145  1.00  0.00     0.072 C 
ATOM      6  C   UNL     1      26.694  39.244  18.819  1.00  0.00     0.012 C 
ENDBRANCH   3   5
ENDBRANCH   1   3
BRANCH   1   7
ATOM      7  C   UNL     1      28.675  42.153  20.441  1.00  0.00     0.038 C 
BRANCH   7   8
ATOM      8  C   UNL     1      28.789  43.590  20.874  1.00  0.00    -0.034 C 
ATOM      9  C   UNL     1      28.718  43.946  22.160  1.00  0.00     0.004 C 
ENDBRANCH   7   8
ENDBRANCH   1   7
TORSDOF 4
ENDMDL
MODEL 8
REMARK VINA RESULT:    -2.698      1.791      3.830
REMARK INTER + INTRA:          -3.717
REMARK INTER:                  -3.458
REMARK INTRA:                  -0.258
REMARK UNBOUND:                -0.388
REMARK SMILES C=CC[C@H](C)C(=O)CC
REMARK SMILES IDX 4 1 5 2 6 3 7 4 8 5 9 6 3 7 2 8 1 9
REMARK H PARENT
REMARK Flexibility Score: inf
ROOT
ATOM      1  C   UNL     1      27.306  40.703  19.355  1.00  0.00     0.057 C 
ATOM      2  C   UNL     1      28.366  39.674  18.935  1.00  0.00     0.016 C 
ENDROOT
BRANCH   1   3
ATOM      3  C   UNL     1      27.936  41.755  20.242  1.00  0.00     0.135 C 
ATOM      4  O   UNL     1      28.452  41.424  21.301  1.00  0.00    -0.299 OA
BRANCH   3   5
ATOM      5  C   UNL     1      27.929  43.210  19.853  1.00  0.00     0.072 C 
ATOM      6  C   UNL     1      26.816  43.496  18.851  1.00  0.00     0.012 C 
ENDBRANCH   3   5
ENDBRANCH   1   3
BRANCH   1   7
ATOM      7  C   UNL     1      26.120  40.038  20.084  1.00  0.00     0.038 C 
BRANCH   7   8
ATOM      8  C   UNL     1      26.235  38.537  20.115  1.00  0.00    -0.034 C 
ATOM      9  C   UNL     1      25.196  37.758  20.431  1.00  0.00     0.004 C 
ENDBRANCH   7   8
ENDBRANCH   1   7
TORSDOF 4
ENDMDL
