MODEL 1
REMARK VINA RESULT:    -2.633      0.000      0.000
REMARK INTER + INTRA:          -2.633
REMARK INTER:                  -2.633
REMARK INTRA:                   0.000
REMARK UNBOUND:                 0.000
REMARK SMILES CC(=O)[O-]
REMARK SMILES IDX 1 1 2 2 3 3 4 4
REMARK H PARENT
REMARK Flexibility Score: inf
ROOT
ATOM      1  C   UNL     1       6.922   0.393  30.153  1.00  0.00     0.063 C 
ATOM      2  C   UNL     1       7.532   1.314  31.155  1.00  0.00     0.038 C 
ATOM      3  O   UNL     1       8.334   0.867  32.017  1.00  0.00    -0.550 OA
ATOM      4  O   UNL     1       7.258   2.675  31.108  1.00  0.00    -0.550 OA
ENDROOT
TORSDOF 0
ENDMDL
MODEL 2
REMARK VINA RESULT:    -2.605      1.431      1.713
REMARK INTER + INTRA:          -2.605
REMARK INTER:                  -2.605
REMARK INTRA:                   0.000
REMARK UNBOUND:                 0.000
REMARK SMILES CC(=O)[O-]
REMARK SMILES IDX 1 1 2 2 3 3 4 4
REMARK H PARENT
REMARK Flexibility Score: inf
ROOT
ATOM      1  C   UNL     1       8.248   0.806  31.910  1.00  0.00     0.063 C 
ATOM      2  C   UNL     1       7.357   1.302  30.821  1.00  0.00     0.038 C 
ATOM      3  O   UNL     1       6.851   0.491  30.001  1.00  0.00    -0.550 OA
ATOM      4  O   UNL     1       7.040   2.651  30.741  1.00  0.00    -0.550 OA
ENDROOT
TORSDOF 0
ENDMDL
MODEL 3
REMARK VINA RESULT:    -2.493      6.847      7.103
REMARK INTER + INTRA:          -2.493
REMARK INTER:                  -2.493
REMARK INTRA:                   0.000
REMARK UNBOUND:                 0.000
REMARK SMILES CC(=O)[O-]
REMARK SMILES IDX 1 1 2 2 3 3 4 4
REMARK H PARENT
REMARK Flexibility Score: inf
ROOT
ATOM      1  C   UNL     1      13.593   0.401  29.689  1.00  0.00     0.063 C 
ATOM      2  C   UNL     1      13.683   0.642  28.219  1.00  0.00     0.038 C 
ATOM      3  O   UNL     1      12.783   0.208  27.452  1.00  0.00    -0.550 OA
ATOM      4  O   UNL     1      14.731   1.390  27.699  1.00  0.00    -0.550 OA
ENDROOT
TORSDOF 0
ENDMDL
MODEL 4
REMARK VINA RESULT:    -2.488      9.238      9.481
REMARK INTER + INTRA:          -2.488
REMARK INTER:                  -2.488
REMARK INTRA:                   0.000
REMARK UNBOUND:                 0.000
REMARK SMILES CC(=O)[O-]
REMARK SMILES IDX 1 1 2 2 3 3 4 4
REMARK H PARENT
REMARK Flexibility Score: inf
ROOT
ATOM      1  C   UNL     1      16.069  -2.217  26.592  1.00  0.00     0.063 C 
ATOM      2  C   UNL     1      15.021  -1.209  26.260  1.00  0.00     0.038 C 
ATOM      3  O   UNL     1      15.349  -0.021  25.997  1.00  0.00    -0.550 OA
ATOM      4  O   UNL     1      13.687  -1.588  26.186  1.00  0.00    -0.550 OA
ENDROOT
TORSDOF 0
ENDMDL
MODEL 5
REMARK VINA RESULT:    -2.474      6.781      7.071
REMARK INTER + INTRA:          -2.474
REMARK INTER:                  -2.474
REMARK INTRA:                   0.000
REMARK UNBOUND:                 0.000
REMARK SMILES CC(=O)[O-]
REMARK SMILES IDX 1 1 2 2 3 3 4 4
REMARK H PARENT
REMARK Flexibility Score: inf
ROOT
ATOM      1  C   UNL     1      11.367   0.345  26.205  1.00  0.00     0.063 C 
ATOM      2  C   UNL     1      12.648  -0.170  26.768  1.00  0.00     0.038 C 
ATOM      3  O   UNL     1      13.141   0.359  27.799  1.00  0.00    -0.550 OA
ATOM      4  O   UNL     1      13.271  -1.268  26.191  1.00  0.00    -0.550 OA
ENDROOT
TORSDOF 0
ENDMDL
MODEL 6
REMARK VINA RESULT:    -2.472      9.234      9.437
REMARK INTER + INTRA:          -2.472
REMARK INTER:                  -2.472
REMARK INTRA:                   0.000
REMARK UNBOUND:                 0.000
REMARK SMILES CC(=O)[O-]
REMARK SMILES IDX 1 1 2 2 3 3 4 4
REMARK H PARENT
REMARK Flexibility Score: inf
ROOT
ATOM      1  C   UNL     1      16.039  -2.177  26.576  1.00  0.00     0.063 C 
ATOM      2  C   UNL     1      14.970  -1.209  26.200  1.00  0.00     0.038 C 
ATOM      3  O   UNL     1      13.769  -1.584  26.145  1.00  0.00    -0.550 OA
ATOM      4  O   UNL     1      15.287   0.122  25.962  1.00  0.00    -0.550 OA
ENDROOT
TORSDOF 0
ENDMDL
MODEL 7
REMARK VINA RESULT:    -2.464      9.057      9.190
REMARK INTER + INTRA:          -2.464
REMARK INTER:                  -2.464
REMARK INTRA:                   0.000
REMARK UNBOUND:                 0.000
REMARK SMILES CC(=O)[O-]
REMARK SMILES IDX 1 1 2 2 3 3 4 4
REMARK H PARENT
REMARK Flexibility Score: inf
ROOT
ATOM      1  C   UNL     1      15.527   1.588  25.131  1.00  0.00     0.063 C 
ATOM      2  C   UNL     1      15.175   0.747  26.311  1.00  0.00     0.038 C 
ATOM      3  O   UNL     1      15.247  -0.508  26.236  1.00  0.00    -0.550 OA
ATOM      4  O   UNL     1      14.818   1.346  27.512  1.00  0.00    -0.550 OA
ENDROOT
TORSDOF 0
ENDMDL
MODEL 8
REMARK VINA RESULT:    -2.386      7.362      7.487
REMARK INTER + INTRA:          -2.386
REMARK INTER:                  -2.386
REMARK INTRA:                   0.000
REMARK UNBOUND:                 0.000
REMARK SMILES CC(=O)[O-]
REMARK SMILES IDX 1 1 2 2 3 3 4 4
REMARK H PARENT
REMARK Flexibility Score: inf
ROOT
ATOM      1  C   UNL     1      13.214  -1.053  26.163  1.00  0.00     0.063 C 
ATOM      2  C   UNL     1      12.427   0.169  25.829  1.00  0.00     0.038 C 
ATOM      3  O   UNL     1      12.954   1.094  25.156  1.00  0.00    -0.550 OA
ATOM      4  O   UNL     1      11.096   0.267  26.211  1.00  0.00    -0.550 OA
ENDROOT
TORSDOF 0
ENDMDL
MODEL 9
REMARK VINA RESULT:    -2.368      8.910      9.248
REMARK INTER + INTRA:          -2.368
REMARK INTER:                  -2.368
REMARK INTRA:                   0.000
REMARK UNBOUND:                 0.000
REMARK SMILES CC(=O)[O-]
REMARK SMILES IDX 1 1 2 2 3 3 4 4
REMARK H PARENT
REMARK Flexibility Score: inf
ROOT
ATOM      1  C   UNL     1      13.989  -1.468  26.295  1.00  0.00     0.063 C 
ATOM      2  C   UNL     1      15.191  -1.788  27.118  1.00  0.00     0.038 C 
ATOM      3  O   UNL     1      16.233  -2.232  26.567  1.00  0.00    -0.550 OA
ATOM      4  O   UNL     1      15.184  -1.546  28.485  1.00  0.00    -0.550 OA
ENDROOT
TORSDOF 0
ENDMDL
