MODEL 1
REMARK VINA RESULT:    -3.280      0.000      0.000
REMARK INTER + INTRA:          -6.530
REMARK INTER:                  -5.197
REMARK INTRA:                  -1.333
REMARK UNBOUND:                -1.333
REMARK SMILES CCCCCCCCCCCC(=O)[O-]
REMARK SMILES IDX 7 1 8 2 9 3 10 4 11 5 12 6 13 7 14 8 6 9 5 10 4 11 3 12 2 13
REMARK SMILES IDX 1 14
REMARK H PARENT
REMARK Flexibility Score: inf
ROOT
ATOM      1  C   UNL     1     -96.392 148.513 238.918  1.00  0.00     0.000 C 
ENDROOT
BRANCH   1   2
ATOM      2  C   UNL     1     -96.365 150.053 239.000  1.00  0.00     0.000 C 
BRANCH   2   3
ATOM      3  C   UNL     1     -97.747 150.728 238.981  1.00  0.00     0.000 C 
BRANCH   3   4
ATOM      4  C   UNL     1     -98.900 149.734 239.180  1.00  0.00     0.006 C 
BRANCH   4   5
ATOM      5  C   UNL     1     -99.719 150.086 240.426  1.00  0.00     0.053 C 
BRANCH   5   6
ATOM      6  C   UNL     1     -98.885 149.942 241.660  1.00  0.00     0.041 C 
ATOM      7  O   UNL     1     -98.789 150.897 242.474  1.00  0.00    -0.550 OA
ATOM      8  O   UNL     1     -98.256 148.736 241.937  1.00  0.00    -0.550 OA
ENDBRANCH   5   6
ENDBRANCH   4   5
ENDBRANCH   3   4
ENDBRANCH   2   3
ENDBRANCH   1   2
BRANCH   1   9
ATOM      9  C   UNL     1     -95.061 147.856 238.497  1.00  0.00     0.000 C 
BRANCH   9  10
ATOM     10  C   UNL     1     -94.167 148.722 237.592  1.00  0.00    -0.000 C 
BRANCH  10  11
ATOM     11  C   UNL     1     -94.274 148.344 236.108  1.00  0.00    -0.000 C 
BRANCH  11  12
ATOM     12  C   UNL     1     -95.220 149.294 235.365  1.00  0.00    -0.000 C 
BRANCH  12  13
ATOM     13  C   UNL     1     -96.533 148.592 235.001  1.00  0.00    -0.003 C 
ATOM     14  C   UNL     1     -97.739 149.394 235.477  1.00  0.00     0.004 C 
ENDBRANCH  12  13
ENDBRANCH  11  12
ENDBRANCH  10  11
ENDBRANCH   9  10
ENDBRANCH   1   9
TORSDOF 10
ENDMDL
MODEL 2
REMARK VINA RESULT:    -3.254      2.258      2.713
REMARK INTER + INTRA:          -6.489
REMARK INTER:                  -5.018
REMARK INTRA:                  -1.472
REMARK UNBOUND:                -1.333
REMARK SMILES CCCCCCCCCCCC(=O)[O-]
REMARK SMILES IDX 7 1 8 2 9 3 10 4 11 5 12 6 13 7 14 8 6 9 5 10 4 11 3 12 2 13
REMARK SMILES IDX 1 14
REMARK H PARENT
REMARK Flexibility Score: inf
ROOT
ATOM      1  C   UNL     1     -95.180 147.897 238.811  1.00  0.00     0.000 C 
ENDROOT
BRANCH   1   2
ATOM      2  C   UNL     1     -96.496 148.593 239.216  1.00  0.00     0.000 C 
BRANCH   2   3
ATOM      3  C   UNL     1     -96.545 150.104 238.930  1.00  0.00     0.000 C 
BRANCH   3   4
ATOM      4  C   UNL     1     -97.941 150.707 239.142  1.00  0.00     0.006 C 
BRANCH   4   5
ATOM      5  C   UNL     1     -98.987 149.985 238.289  1.00  0.00     0.053 C 
BRANCH   5   6
ATOM      6  C   UNL     1     -99.900 150.971 237.632  1.00  0.00     0.041 C 
ATOM      7  O   UNL     1     -99.487 151.678 236.677  1.00  0.00    -0.550 OA
ATOM      8  O   UNL     1    -101.224 151.071 238.041  1.00  0.00    -0.550 OA
ENDBRANCH   5   6
ENDBRANCH   4   5
ENDBRANCH   3   4
ENDBRANCH   2   3
ENDBRANCH   1   2
BRANCH   1   9
ATOM      9  C   UNL     1     -94.295 148.689 237.826  1.00  0.00     0.000 C 
BRANCH   9  10
ATOM     10  C   UNL     1     -93.784 147.882 236.620  1.00  0.00    -0.000 C 
BRANCH  10  11
ATOM     11  C   UNL     1     -94.704 147.990 235.396  1.00  0.00    -0.000 C 
BRANCH  11  12
ATOM     12  C   UNL     1     -95.381 149.363 235.336  1.00  0.00    -0.000 C 
BRANCH  12  13
ATOM     13  C   UNL     1     -96.907 149.224 235.279  1.00  0.00    -0.003 C 
ATOM     14  C   UNL     1     -97.346 147.805 235.626  1.00  0.00     0.004 C 
ENDBRANCH  12  13
ENDBRANCH  11  12
ENDBRANCH  10  11
ENDBRANCH   9  10
ENDBRANCH   1   9
TORSDOF 10
ENDMDL
MODEL 3
REMARK VINA RESULT:    -3.156      1.470      2.519
REMARK INTER + INTRA:          -6.334
REMARK INTER:                  -5.391
REMARK INTRA:                  -0.944
REMARK UNBOUND:                -1.333
REMARK SMILES CCCCCCCCCCCC(=O)[O-]
REMARK SMILES IDX 7 1 8 2 9 3 10 4 11 5 12 6 13 7 14 8 6 9 5 10 4 11 3 12 2 13
REMARK SMILES IDX 1 14
REMARK H PARENT
REMARK Flexibility Score: inf
ROOT
ATOM      1  C   UNL     1     -94.170 146.877 237.841  1.00  0.00     0.000 C 
ENDROOT
BRANCH   1   2
ATOM      2  C   UNL     1     -95.000 147.647 238.888  1.00  0.00     0.000 C 
BRANCH   2   3
ATOM      3  C   UNL     1     -95.210 149.140 238.579  1.00  0.00     0.000 C 
BRANCH   3   4
ATOM      4  C   UNL     1     -96.665 149.479 238.228  1.00  0.00     0.006 C 
BRANCH   4   5
ATOM      5  C   UNL     1     -97.268 150.441 239.255  1.00  0.00     0.053 C 
BRANCH   5   6
ATOM      6  C   UNL     1     -98.028 149.686 240.300  1.00  0.00     0.041 C 
ATOM      7  O   UNL     1     -98.249 148.456 240.157  1.00  0.00    -0.550 OA
ATOM      8  O   UNL     1     -98.448 150.333 241.456  1.00  0.00    -0.550 OA
ENDBRANCH   5   6
ENDBRANCH   4   5
ENDBRANCH   3   4
ENDBRANCH   2   3
ENDBRANCH   1   2
BRANCH   1   9
ATOM      9  C   UNL     1     -93.564 147.743 236.718  1.00  0.00     0.000 C 
BRANCH   9  10
ATOM     10  C   UNL     1     -93.994 147.350 235.293  1.00  0.00    -0.000 C 
BRANCH  10  11
ATOM     11  C   UNL     1     -95.375 147.900 234.912  1.00  0.00    -0.000 C 
BRANCH  11  12
ATOM     12  C   UNL     1     -95.348 149.429 234.806  1.00  0.00    -0.000 C 
BRANCH  12  13
ATOM     13  C   UNL     1     -96.214 149.917 233.639  1.00  0.00    -0.003 C 
ATOM     14  C   UNL     1     -95.711 151.250 233.096  1.00  0.00     0.004 C 
ENDBRANCH  12  13
ENDBRANCH  11  12
ENDBRANCH  10  11
ENDBRANCH   9  10
ENDBRANCH   1   9
TORSDOF 10
ENDMDL
MODEL 4
REMARK VINA RESULT:    -3.132      1.455      1.876
REMARK INTER + INTRA:          -6.296
REMARK INTER:                  -5.685
REMARK INTRA:                  -0.611
REMARK UNBOUND:                -1.333
REMARK SMILES CCCCCCCCCCCC(=O)[O-]
REMARK SMILES IDX 7 1 8 2 9 3 10 4 11 5 12 6 13 7 14 8 6 9 5 10 4 11 3 12 2 13
REMARK SMILES IDX 1 14
REMARK H PARENT
REMARK Flexibility Score: inf
ROOT
ATOM      1  C   UNL     1     -95.552 149.524 238.663  1.00  0.00     0.000 C 
ENDROOT
BRANCH   1   2
ATOM      2  C   UNL     1     -96.855 150.203 239.132  1.00  0.00     0.000 C 
BRANCH   2   3
ATOM      3  C   UNL     1     -97.651 149.418 240.188  1.00  0.00     0.000 C 
BRANCH   3   4
ATOM      4  C   UNL     1     -98.664 150.291 240.944  1.00  0.00     0.006 C 
BRANCH   4   5
ATOM      5  C   UNL     1     -99.148 149.593 242.217  1.00  0.00     0.053 C 
BRANCH   5   6
ATOM      6  C   UNL     1     -99.372 150.590 243.310  1.00  0.00     0.041 C 
ATOM      7  O   UNL     1     -98.776 151.697 243.289  1.00  0.00    -0.550 OA
ATOM      8  O   UNL     1    -100.279 150.315 244.326  1.00  0.00    -0.550 OA
ENDBRANCH   5   6
ENDBRANCH   4   5
ENDBRANCH   3   4
ENDBRANCH   2   3
ENDBRANCH   1   2
BRANCH   1   9
ATOM      9  C   UNL     1     -95.458 148.012 238.955  1.00  0.00     0.000 C 
BRANCH   9  10
ATOM     10  C   UNL     1     -94.509 147.231 238.029  1.00  0.00    -0.000 C 
BRANCH  10  11
ATOM     11  C   UNL     1     -93.848 148.118 236.965  1.00  0.00    -0.000 C 
BRANCH  11  12
ATOM     12  C   UNL     1     -93.729 147.377 235.629  1.00  0.00    -0.000 C 
BRANCH  12  13
ATOM     13  C   UNL     1     -94.731 147.923 234.604  1.00  0.00    -0.003 C 
ATOM     14  C   UNL     1     -95.310 149.259 235.056  1.00  0.00     0.004 C 
ENDBRANCH  12  13
ENDBRANCH  11  12
ENDBRANCH  10  11
ENDBRANCH   9  10
ENDBRANCH   1   9
TORSDOF 10
ENDMDL
MODEL 5
REMARK VINA RESULT:    -3.108      3.607      5.526
REMARK INTER + INTRA:          -6.257
REMARK INTER:                  -5.106
REMARK INTRA:                  -1.151
REMARK UNBOUND:                -1.333
REMARK SMILES CCCCCCCCCCCC(=O)[O-]
REMARK SMILES IDX 7 1 8 2 9 3 10 4 11 5 12 6 13 7 14 8 6 9 5 10 4 11 3 12 2 13
REMARK SMILES IDX 1 14
REMARK H PARENT
REMARK Flexibility Score: inf
ROOT
ATOM      1  C   UNL     1     -94.433 148.754 238.018  1.00  0.00     0.000 C 
ENDROOT
BRANCH   1   2
ATOM      2  C   UNL     1     -93.798 148.054 236.799  1.00  0.00     0.000 C 
BRANCH   2   3
ATOM      3  C   UNL     1     -94.579 148.209 235.483  1.00  0.00     0.000 C 
BRANCH   3   4
ATOM      4  C   UNL     1     -95.395 149.508 235.422  1.00  0.00     0.006 C 
BRANCH   4   5
ATOM      5  C   UNL     1     -96.800 149.249 234.873  1.00  0.00     0.053 C 
BRANCH   5   6
ATOM      6  C   UNL     1     -97.072 150.125 233.690  1.00  0.00     0.041 C 
ATOM      7  O   UNL     1     -97.899 151.069 233.778  1.00  0.00    -0.550 OA
ATOM      8  O   UNL     1     -96.373 149.929 232.506  1.00  0.00    -0.550 OA
ENDBRANCH   5   6
ENDBRANCH   4   5
ENDBRANCH   3   4
ENDBRANCH   2   3
ENDBRANCH   1   2
BRANCH   1   9
ATOM      9  C   UNL     1     -95.437 147.898 238.817  1.00  0.00     0.000 C 
BRANCH   9  10
ATOM     10  C   UNL     1     -96.621 148.678 239.416  1.00  0.00    -0.000 C 
BRANCH  10  11
ATOM     11  C   UNL     1     -96.619 150.162 239.023  1.00  0.00    -0.000 C 
BRANCH  11  12
ATOM     12  C   UNL     1     -98.043 150.730 239.016  1.00  0.00    -0.000 C 
BRANCH  12  13
ATOM     13  C   UNL     1     -98.873 150.124 237.878  1.00  0.00    -0.003 C 
ATOM     14  C   UNL     1     -99.496 151.211 237.009  1.00  0.00     0.004 C 
ENDBRANCH  12  13
ENDBRANCH  11  12
ENDBRANCH  10  11
ENDBRANCH   9  10
ENDBRANCH   1   9
TORSDOF 10
ENDMDL
MODEL 6
REMARK VINA RESULT:    -3.089      2.221      3.740
REMARK INTER + INTRA:          -6.228
REMARK INTER:                  -5.801
REMARK INTRA:                  -0.427
REMARK UNBOUND:                -1.333
REMARK SMILES CCCCCCCCCCCC(=O)[O-]
REMARK SMILES IDX 7 1 8 2 9 3 10 4 11 5 12 6 13 7 14 8 6 9 5 10 4 11 3 12 2 13
REMARK SMILES IDX 1 14
REMARK H PARENT
REMARK Flexibility Score: inf
ROOT
ATOM      1  C   UNL     1     -98.565 150.285 240.209  1.00  0.00     0.000 C 
ENDROOT
BRANCH   1   2
ATOM      2  C   UNL     1     -98.436 149.302 241.390  1.00  0.00     0.000 C 
BRANCH   2   3
ATOM      3  C   UNL     1     -99.071 149.783 242.707  1.00  0.00     0.000 C 
BRANCH   3   4
ATOM      4  C   UNL     1     -99.077 151.312 242.844  1.00  0.00     0.006 C 
BRANCH   4   5
ATOM      5  C   UNL     1     -98.739 151.736 244.275  1.00  0.00     0.053 C 
BRANCH   5   6
ATOM      6  C   UNL     1     -99.465 152.994 244.636  1.00  0.00     0.041 C 
ATOM      7  O   UNL     1    -100.489 153.340 243.993  1.00  0.00    -0.550 OA
ATOM      8  O   UNL     1     -99.039 153.756 245.716  1.00  0.00    -0.550 OA
ENDBRANCH   5   6
ENDBRANCH   4   5
ENDBRANCH   3   4
ENDBRANCH   2   3
ENDBRANCH   1   2
BRANCH   1   9
ATOM      9  C   UNL     1     -97.310 150.411 239.321  1.00  0.00     0.000 C 
BRANCH   9  10
ATOM     10  C   UNL     1     -96.625 149.077 238.974  1.00  0.00    -0.000 C 
BRANCH  10  11
ATOM     11  C   UNL     1     -95.167 149.253 238.526  1.00  0.00    -0.000 C 
BRANCH  11  12
ATOM     12  C   UNL     1     -94.584 147.929 238.020  1.00  0.00    -0.000 C 
BRANCH  12  13
ATOM     13  C   UNL     1     -94.058 148.069 236.587  1.00  0.00    -0.003 C 
ATOM     14  C   UNL     1     -94.768 149.198 235.846  1.00  0.00     0.004 C 
ENDBRANCH  12  13
ENDBRANCH  11  12
ENDBRANCH  10  11
ENDBRANCH   9  10
ENDBRANCH   1   9
TORSDOF 10
ENDMDL
MODEL 7
REMARK VINA RESULT:    -3.071      2.867      5.722
REMARK INTER + INTRA:          -6.199
REMARK INTER:                  -5.180
REMARK INTRA:                  -1.019
REMARK UNBOUND:                -1.333
REMARK SMILES CCCCCCCCCCCC(=O)[O-]
REMARK SMILES IDX 7 1 8 2 9 3 10 4 11 5 12 6 13 7 14 8 6 9 5 10 4 11 3 12 2 13
REMARK SMILES IDX 1 14
REMARK H PARENT
REMARK Flexibility Score: inf
ROOT
ATOM      1  C   UNL     1     -95.108 148.021 238.790  1.00  0.00     0.000 C 
ENDROOT
BRANCH   1   2
ATOM      2  C   UNL     1     -94.232 148.711 237.725  1.00  0.00     0.000 C 
BRANCH   2   3
ATOM      3  C   UNL     1     -93.775 147.801 236.573  1.00  0.00     0.000 C 
BRANCH   3   4
ATOM      4  C   UNL     1     -94.580 148.019 235.284  1.00  0.00     0.006 C 
BRANCH   4   5
ATOM      5  C   UNL     1     -95.297 149.371 235.306  1.00  0.00     0.053 C 
BRANCH   5   6
ATOM      6  C   UNL     1     -96.725 149.216 234.884  1.00  0.00     0.041 C 
ATOM      7  O   UNL     1     -97.651 149.330 235.729  1.00  0.00    -0.550 OA
ATOM      8  O   UNL     1     -97.034 148.997 233.548  1.00  0.00    -0.550 OA
ENDBRANCH   5   6
ENDBRANCH   4   5
ENDBRANCH   3   4
ENDBRANCH   2   3
ENDBRANCH   1   2
BRANCH   1   9
ATOM      9  C   UNL     1     -96.503 148.646 238.997  1.00  0.00     0.000 C 
BRANCH   9  10
ATOM     10  C   UNL     1     -96.527 150.185 239.024  1.00  0.00    -0.000 C 
BRANCH  10  11
ATOM     11  C   UNL     1     -97.949 150.761 238.966  1.00  0.00    -0.000 C 
BRANCH  11  12
ATOM     12  C   UNL     1     -98.958 149.802 239.605  1.00  0.00    -0.000 C 
BRANCH  12  13
ATOM     13  C   UNL     1     -99.253 150.197 241.056  1.00  0.00    -0.003 C 
ATOM     14  C   UNL     1     -98.656 149.192 242.035  1.00  0.00     0.004 C 
ENDBRANCH  12  13
ENDBRANCH  11  12
ENDBRANCH  10  11
ENDBRANCH   9  10
ENDBRANCH   1   9
TORSDOF 10
ENDMDL
MODEL 8
REMARK VINA RESULT:    -3.062      1.760      2.720
REMARK INTER + INTRA:          -6.185
REMARK INTER:                  -4.786
REMARK INTRA:                  -1.399
REMARK UNBOUND:                -1.333
REMARK SMILES CCCCCCCCCCCC(=O)[O-]
REMARK SMILES IDX 7 1 8 2 9 3 10 4 11 5 12 6 13 7 14 8 6 9 5 10 4 11 3 12 2 13
REMARK SMILES IDX 1 14
REMARK H PARENT
REMARK Flexibility Score: inf
ROOT
ATOM      1  C   UNL     1     -94.167 148.668 237.377  1.00  0.00     0.000 C 
ENDROOT
BRANCH   1   2
ATOM      2  C   UNL     1     -94.855 147.964 238.564  1.00  0.00     0.000 C 
BRANCH   2   3
ATOM      3  C   UNL     1     -96.285 148.445 238.863  1.00  0.00     0.000 C 
BRANCH   3   4
ATOM      4  C   UNL     1     -96.415 149.975 238.851  1.00  0.00     0.006 C 
BRANCH   4   5
ATOM      5  C   UNL     1     -97.675 150.425 239.596  1.00  0.00     0.053 C 
BRANCH   5   6
ATOM      6  C   UNL     1     -98.862 150.396 238.686  1.00  0.00     0.041 C 
ATOM      7  O   UNL     1     -99.052 151.330 237.864  1.00  0.00    -0.550 OA
ATOM      8  O   UNL     1     -99.730 149.312 238.711  1.00  0.00    -0.550 OA
ENDBRANCH   5   6
ENDBRANCH   4   5
ENDBRANCH   3   4
ENDBRANCH   2   3
ENDBRANCH   1   2
BRANCH   1   9
ATOM      9  C   UNL     1     -93.812 147.752 236.187  1.00  0.00     0.000 C 
BRANCH   9  10
ATOM     10  C   UNL     1     -94.584 148.047 234.889  1.00  0.00    -0.000 C 
BRANCH  10  11
ATOM     11  C   UNL     1     -95.350 149.376 234.939  1.00  0.00    -0.000 C 
BRANCH  11  12
ATOM     12  C   UNL     1     -96.752 149.225 234.338  1.00  0.00    -0.000 C 
BRANCH  12  13
ATOM     13  C   UNL     1     -97.812 149.096 235.438  1.00  0.00    -0.003 C 
ATOM     14  C   UNL     1     -98.137 147.633 235.723  1.00  0.00     0.004 C 
ENDBRANCH  12  13
ENDBRANCH  11  12
ENDBRANCH  10  11
ENDBRANCH   9  10
ENDBRANCH   1   9
TORSDOF 10
ENDMDL
MODEL 9
REMARK VINA RESULT:    -3.047      3.921      5.832
REMARK INTER + INTRA:          -6.161
REMARK INTER:                  -5.113
REMARK INTRA:                  -1.048
REMARK UNBOUND:                -1.333
REMARK SMILES CCCCCCCCCCCC(=O)[O-]
REMARK SMILES IDX 7 1 8 2 9 3 10 4 11 5 12 6 13 7 14 8 6 9 5 10 4 11 3 12 2 13
REMARK SMILES IDX 1 14
REMARK H PARENT
REMARK Flexibility Score: inf
ROOT
ATOM      1  C   UNL     1     -94.251 148.229 236.232  1.00  0.00     0.000 C 
ENDROOT
BRANCH   1   2
ATOM      2  C   UNL     1     -95.141 148.872 235.149  1.00  0.00     0.000 C 
BRANCH   2   3
ATOM      3  C   UNL     1     -96.652 148.805 235.429  1.00  0.00     0.000 C 
BRANCH   3   4
ATOM      4  C   UNL     1     -97.456 149.834 234.621  1.00  0.00     0.006 C 
BRANCH   4   5
ATOM      5  C   UNL     1     -96.752 150.168 233.303  1.00  0.00     0.053 C 
BRANCH   5   6
ATOM      6  C   UNL     1     -96.835 151.635 233.020  1.00  0.00     0.041 C 
ATOM      7  O   UNL     1     -95.840 152.247 232.551  1.00  0.00    -0.550 OA
ATOM      8  O   UNL     1     -98.028 152.316 233.226  1.00  0.00    -0.550 OA
ENDBRANCH   5   6
ENDBRANCH   4   5
ENDBRANCH   3   4
ENDBRANCH   2   3
ENDBRANCH   1   2
BRANCH   1   9
ATOM      9  C   UNL     1     -94.363 148.862 237.634  1.00  0.00     0.000 C 
BRANCH   9  10
ATOM     10  C   UNL     1     -95.071 147.988 238.685  1.00  0.00    -0.000 C 
BRANCH  10  11
ATOM     11  C   UNL     1     -96.397 148.591 239.169  1.00  0.00    -0.000 C 
BRANCH  11  12
ATOM     12  C   UNL     1     -96.430 150.105 238.935  1.00  0.00    -0.000 C 
BRANCH  12  13
ATOM     13  C   UNL     1     -97.808 150.685 239.275  1.00  0.00    -0.003 C 
ATOM     14  C   UNL     1     -98.748 150.617 238.076  1.00  0.00     0.004 C 
ENDBRANCH  12  13
ENDBRANCH  11  12
ENDBRANCH  10  11
ENDBRANCH   9  10
ENDBRANCH   1   9
TORSDOF 10
ENDMDL
