MODEL 1
REMARK VINA RESULT:    -5.477      0.000      0.000
REMARK INTER + INTRA:          -6.004
REMARK INTER:                  -5.958
REMARK INTRA:                  -0.046
REMARK UNBOUND:                -0.046
REMARK SMILES COc1cc2ccc(=O)oc2cc1O
REMARK SMILES IDX 3 1 13 2 12 3 11 4 5 5 4 6 6 7 7 8 8 9 9 10 10 11 2 12 1 13
REMARK SMILES IDX 14 14
REMARK H PARENT 14 15
REMARK Flexibility Score: inf
ROOT
ATOM      1  C   UNL     1      17.648 -32.641 -21.212  1.00  0.00     0.161 A 
ATOM      2  C   UNL     1      18.858 -32.975 -21.841  1.00  0.00     0.161 A 
ATOM      3  C   UNL     1      19.631 -31.983 -22.461  1.00  0.00     0.098 A 
ATOM      4  C   UNL     1      19.203 -30.653 -22.460  1.00  0.00     0.142 A 
ATOM      5  C   UNL     1      17.988 -30.308 -21.830  1.00  0.00     0.022 A 
ATOM      6  C   UNL     1      17.215 -31.299 -21.209  1.00  0.00     0.062 A 
ATOM      7  C   UNL     1      17.587 -28.969 -21.846  1.00  0.00     0.019 A 
ATOM      8  C   UNL     1      18.391 -28.020 -22.476  1.00  0.00     0.094 A 
ATOM      9  C   UNL     1      19.582 -28.435 -23.080  1.00  0.00     0.336 A 
ATOM     10  O   UNL     1      20.322 -27.594 -23.654  1.00  0.00    -0.246 OA
ATOM     11  O   UNL     1      19.941 -29.716 -23.051  1.00  0.00    -0.423 OA
ENDROOT
BRANCH   1  12
ATOM     12  O   UNL     1      16.907 -33.666 -20.604  1.00  0.00    -0.493 OA
ATOM     13  C   UNL     1      15.924 -33.460 -19.593  1.00  0.00     0.278 C 
ENDBRANCH   1  12
BRANCH   2  14
ATOM     14  O   UNL     1      19.287 -34.300 -21.844  1.00  0.00    -0.504 OA
ATOM     15  H   UNL     1      20.266 -34.541 -21.943  1.00  0.00     0.293 HD
ENDBRANCH   2  14
TORSDOF 2
ENDMDL
MODEL 2
REMARK VINA RESULT:    -5.212      7.460      9.267
REMARK INTER + INTRA:          -5.715
REMARK INTER:                  -5.674
REMARK INTRA:                  -0.041
REMARK UNBOUND:                -0.046
REMARK SMILES COc1cc2ccc(=O)oc2cc1O
REMARK SMILES IDX 3 1 13 2 12 3 11 4 5 5 4 6 6 7 7 8 8 9 9 10 10 11 2 12 1 13
REMARK SMILES IDX 14 14
REMARK H PARENT 14 15
REMARK Flexibility Score: inf
ROOT
ATOM      1  C   UNL     1      11.034 -34.405 -19.051  1.00  0.00     0.161 A 
ATOM      2  C   UNL     1      11.936 -33.393 -19.416  1.00  0.00     0.161 A 
ATOM      3  C   UNL     1      11.464 -32.149 -19.859  1.00  0.00     0.098 A 
ATOM      4  C   UNL     1      10.091 -31.906 -19.942  1.00  0.00     0.142 A 
ATOM      5  C   UNL     1       9.177 -32.917 -19.576  1.00  0.00     0.022 A 
ATOM      6  C   UNL     1       9.648 -34.160 -19.133  1.00  0.00     0.062 A 
ATOM      7  C   UNL     1       7.809 -32.644 -19.671  1.00  0.00     0.019 A 
ATOM      8  C   UNL     1       7.389 -31.390 -20.117  1.00  0.00     0.094 A 
ATOM      9  C   UNL     1       8.353 -30.438 -20.462  1.00  0.00     0.336 A 
ATOM     10  O   UNL     1       7.995 -29.301 -20.868  1.00  0.00    -0.246 OA
ATOM     11  O   UNL     1       9.649 -30.724 -20.364  1.00  0.00    -0.423 OA
ENDROOT
BRANCH   1  12
ATOM     12  O   UNL     1      11.551 -35.634 -18.613  1.00  0.00    -0.493 OA
ATOM     13  C   UNL     1      11.838 -35.950 -17.255  1.00  0.00     0.278 C 
ENDBRANCH   1  12
BRANCH   2  14
ATOM     14  O   UNL     1      13.306 -33.632 -19.334  1.00  0.00    -0.504 OA
ATOM     15  H   UNL     1      13.799 -34.148 -20.054  1.00  0.00     0.293 HD
ENDBRANCH   2  14
TORSDOF 2
ENDMDL
MODEL 3
REMARK VINA RESULT:    -5.198      9.815     10.551
REMARK INTER + INTRA:          -5.700
REMARK INTER:                  -5.654
REMARK INTRA:                  -0.045
REMARK UNBOUND:                -0.046
REMARK SMILES COc1cc2ccc(=O)oc2cc1O
REMARK SMILES IDX 3 1 13 2 12 3 11 4 5 5 4 6 6 7 7 8 8 9 9 10 10 11 2 12 1 13
REMARK SMILES IDX 14 14
REMARK H PARENT 14 15
REMARK Flexibility Score: inf
ROOT
ATOM      1  C   UNL     1      10.218 -33.791 -17.150  1.00  0.00     0.161 A 
ATOM      2  C   UNL     1       9.651 -32.797 -16.336  1.00  0.00     0.161 A 
ATOM      3  C   UNL     1       8.873 -31.777 -16.903  1.00  0.00     0.098 A 
ATOM      4  C   UNL     1       8.656 -31.741 -18.283  1.00  0.00     0.142 A 
ATOM      5  C   UNL     1       9.221 -32.737 -19.107  1.00  0.00     0.022 A 
ATOM      6  C   UNL     1       9.998 -33.756 -18.542  1.00  0.00     0.062 A 
ATOM      7  C   UNL     1       8.986 -32.673 -20.484  1.00  0.00     0.019 A 
ATOM      8  C   UNL     1       8.205 -31.638 -20.999  1.00  0.00     0.094 A 
ATOM      9  C   UNL     1       7.678 -30.687 -20.121  1.00  0.00     0.336 A 
ATOM     10  O   UNL     1       6.971 -29.745 -20.565  1.00  0.00    -0.246 OA
ATOM     11  O   UNL     1       7.917 -30.770 -18.814  1.00  0.00    -0.423 OA
ENDROOT
BRANCH   1  12
ATOM     12  O   UNL     1      10.988 -34.793 -16.540  1.00  0.00    -0.493 OA
ATOM     13  C   UNL     1      11.847 -35.689 -17.239  1.00  0.00     0.278 C 
ENDBRANCH   1  12
BRANCH   2  14
ATOM     14  O   UNL     1       9.866 -32.830 -14.960  1.00  0.00    -0.504 OA
ATOM     15  H   UNL     1      10.689 -33.266 -14.562  1.00  0.00     0.293 HD
ENDBRANCH   2  14
TORSDOF 2
ENDMDL
MODEL 4
REMARK VINA RESULT:    -5.104      2.508      4.256
REMARK INTER + INTRA:          -5.598
REMARK INTER:                  -5.537
REMARK INTRA:                  -0.061
REMARK UNBOUND:                -0.046
REMARK SMILES COc1cc2ccc(=O)oc2cc1O
REMARK SMILES IDX 3 1 13 2 12 3 11 4 5 5 4 6 6 7 7 8 8 9 9 10 10 11 2 12 1 13
REMARK SMILES IDX 14 14
REMARK H PARENT 14 15
REMARK Flexibility Score: inf
ROOT
ATOM      1  C   UNL     1      14.009 -31.594 -20.238  1.00  0.00     0.161 A 
ATOM      2  C   UNL     1      14.100 -32.949 -20.597  1.00  0.00     0.161 A 
ATOM      3  C   UNL     1      15.308 -33.474 -21.078  1.00  0.00     0.098 A 
ATOM      4  C   UNL     1      16.431 -32.653 -21.207  1.00  0.00     0.142 A 
ATOM      5  C   UNL     1      16.348 -31.291 -20.849  1.00  0.00     0.022 A 
ATOM      6  C   UNL     1      15.142 -30.766 -20.367  1.00  0.00     0.062 A 
ATOM      7  C   UNL     1      17.490 -30.495 -20.990  1.00  0.00     0.019 A 
ATOM      8  C   UNL     1      18.667 -31.065 -21.474  1.00  0.00     0.094 A 
ATOM      9  C   UNL     1      18.674 -32.423 -21.809  1.00  0.00     0.336 A 
ATOM     10  O   UNL     1      19.727 -32.956 -22.248  1.00  0.00    -0.246 OA
ATOM     11  O   UNL     1      17.574 -33.157 -21.666  1.00  0.00    -0.423 OA
ENDROOT
BRANCH   1  12
ATOM     12  O   UNL     1      12.781 -31.112 -19.760  1.00  0.00    -0.493 OA
ATOM     13  C   UNL     1      12.452 -30.969 -18.382  1.00  0.00     0.278 C 
ENDBRANCH   1  12
BRANCH   2  14
ATOM     14  O   UNL     1      12.982 -33.770 -20.469  1.00  0.00    -0.504 OA
ATOM     15  H   UNL     1      12.676 -34.114 -19.566  1.00  0.00     0.293 HD
ENDBRANCH   2  14
TORSDOF 2
ENDMDL
MODEL 5
REMARK VINA RESULT:    -5.100      8.912     11.452
REMARK INTER + INTRA:          -5.593
REMARK INTER:                  -5.537
REMARK INTRA:                  -0.057
REMARK UNBOUND:                -0.046
REMARK SMILES COc1cc2ccc(=O)oc2cc1O
REMARK SMILES IDX 3 1 13 2 12 3 11 4 5 5 4 6 6 7 7 8 8 9 9 10 10 11 2 12 1 13
REMARK SMILES IDX 14 14
REMARK H PARENT 14 15
REMARK Flexibility Score: inf
ROOT
ATOM      1  C   UNL     1      15.976 -33.673 -12.679  1.00  0.00     0.161 A 
ATOM      2  C   UNL     1      15.501 -33.141 -13.889  1.00  0.00     0.161 A 
ATOM      3  C   UNL     1      14.168 -33.341 -14.276  1.00  0.00     0.098 A 
ATOM      4  C   UNL     1      13.300 -34.071 -13.460  1.00  0.00     0.142 A 
ATOM      5  C   UNL     1      13.769 -34.609 -12.242  1.00  0.00     0.022 A 
ATOM      6  C   UNL     1      15.101 -34.409 -11.855  1.00  0.00     0.062 A 
ATOM      7  C   UNL     1      12.876 -35.336 -11.449  1.00  0.00     0.019 A 
ATOM      8  C   UNL     1      11.560 -35.506 -11.878  1.00  0.00     0.094 A 
ATOM      9  C   UNL     1      11.167 -34.945 -13.097  1.00  0.00     0.336 A 
ATOM     10  O   UNL     1       9.984 -35.088 -13.502  1.00  0.00    -0.246 OA
ATOM     11  O   UNL     1      12.036 -34.258 -13.833  1.00  0.00    -0.423 OA
ENDROOT
BRANCH   1  12
ATOM     12  O   UNL     1      17.316 -33.448 -12.332  1.00  0.00    -0.493 OA
ATOM     13  C   UNL     1      18.242 -34.472 -11.982  1.00  0.00     0.278 C 
ENDBRANCH   1  12
BRANCH   2  14
ATOM     14  O   UNL     1      16.364 -32.412 -14.704  1.00  0.00    -0.504 OA
ATOM     15  H   UNL     1      16.552 -31.431 -14.535  1.00  0.00     0.293 HD
ENDBRANCH   2  14
TORSDOF 2
ENDMDL
MODEL 6
REMARK VINA RESULT:    -5.097      2.103      3.638
REMARK INTER + INTRA:          -5.590
REMARK INTER:                  -5.528
REMARK INTRA:                  -0.062
REMARK UNBOUND:                -0.046
REMARK SMILES COc1cc2ccc(=O)oc2cc1O
REMARK SMILES IDX 3 1 13 2 12 3 11 4 5 5 4 6 6 7 7 8 8 9 9 10 10 11 2 12 1 13
REMARK SMILES IDX 14 14
REMARK H PARENT 14 15
REMARK Flexibility Score: inf
ROOT
ATOM      1  C   UNL     1      18.230 -30.001 -21.793  1.00  0.00     0.161 A 
ATOM      2  C   UNL     1      17.091 -29.180 -21.842  1.00  0.00     0.161 A 
ATOM      3  C   UNL     1      17.130 -27.955 -22.522  1.00  0.00     0.098 A 
ATOM      4  C   UNL     1      18.302 -27.539 -23.157  1.00  0.00     0.142 A 
ATOM      5  C   UNL     1      19.451 -28.357 -23.113  1.00  0.00     0.022 A 
ATOM      6  C   UNL     1      19.413 -29.582 -22.434  1.00  0.00     0.062 A 
ATOM      7  C   UNL     1      20.610 -27.912 -23.758  1.00  0.00     0.019 A 
ATOM      8  C   UNL     1      20.597 -26.685 -24.421  1.00  0.00     0.094 A 
ATOM      9  C   UNL     1      19.421 -25.928 -24.422  1.00  0.00     0.336 A 
ATOM     10  O   UNL     1      19.389 -24.818 -25.015  1.00  0.00    -0.246 OA
ATOM     11  O   UNL     1      18.333 -26.374 -23.800  1.00  0.00    -0.423 OA
ENDROOT
BRANCH   1  12
ATOM     12  O   UNL     1      18.146 -31.219 -21.102  1.00  0.00    -0.493 OA
ATOM     13  C   UNL     1      18.282 -32.501 -21.706  1.00  0.00     0.278 C 
ENDBRANCH   1  12
BRANCH   2  14
ATOM     14  O   UNL     1      15.920 -29.594 -21.210  1.00  0.00    -0.504 OA
ATOM     15  H   UNL     1      15.091 -29.841 -21.737  1.00  0.00     0.293 HD
ENDBRANCH   2  14
TORSDOF 2
ENDMDL
MODEL 7
REMARK VINA RESULT:    -5.079      2.160      4.840
REMARK INTER + INTRA:          -5.570
REMARK INTER:                  -5.562
REMARK INTRA:                  -0.008
REMARK UNBOUND:                -0.046
REMARK SMILES COc1cc2ccc(=O)oc2cc1O
REMARK SMILES IDX 3 1 13 2 12 3 11 4 5 5 4 6 6 7 7 8 8 9 9 10 10 11 2 12 1 13
REMARK SMILES IDX 14 14
REMARK H PARENT 14 15
REMARK Flexibility Score: inf
ROOT
ATOM      1  C   UNL     1      18.546 -32.708 -21.676  1.00  0.00     0.161 A 
ATOM      2  C   UNL     1      18.538 -31.308 -21.573  1.00  0.00     0.161 A 
ATOM      3  C   UNL     1      17.379 -30.634 -21.163  1.00  0.00     0.098 A 
ATOM      4  C   UNL     1      16.221 -31.350 -20.853  1.00  0.00     0.142 A 
ATOM      5  C   UNL     1      16.219 -32.758 -20.954  1.00  0.00     0.022 A 
ATOM      6  C   UNL     1      17.377 -33.432 -21.363  1.00  0.00     0.062 A 
ATOM      7  C   UNL     1      15.043 -33.446 -20.638  1.00  0.00     0.019 A 
ATOM      8  C   UNL     1      13.916 -32.730 -20.234  1.00  0.00     0.094 A 
ATOM      9  C   UNL     1      13.993 -31.335 -20.158  1.00  0.00     0.336 A 
ATOM     10  O   UNL     1      12.987 -30.670 -19.797  1.00  0.00    -0.246 OA
ATOM     11  O   UNL     1      15.123 -30.705 -20.465  1.00  0.00    -0.423 OA
ENDROOT
BRANCH   1  12
ATOM     12  O   UNL     1      19.728 -33.341 -22.090  1.00  0.00    -0.493 OA
ATOM     13  C   UNL     1      20.109 -33.529 -23.449  1.00  0.00     0.278 C 
ENDBRANCH   1  12
BRANCH   2  14
ATOM     14  O   UNL     1      19.693 -30.591 -21.880  1.00  0.00    -0.504 OA
ATOM     15  H   UNL     1      19.705 -29.578 -21.881  1.00  0.00     0.293 HD
ENDBRANCH   2  14
TORSDOF 2
ENDMDL
MODEL 8
REMARK VINA RESULT:    -5.011      9.594     11.160
REMARK INTER + INTRA:          -5.496
REMARK INTER:                  -5.432
REMARK INTRA:                  -0.065
REMARK UNBOUND:                -0.046
REMARK SMILES COc1cc2ccc(=O)oc2cc1O
REMARK SMILES IDX 3 1 13 2 12 3 11 4 5 5 4 6 6 7 7 8 8 9 9 10 10 11 2 12 1 13
REMARK SMILES IDX 14 14
REMARK H PARENT 14 15
REMARK Flexibility Score: inf
ROOT
ATOM      1  C   UNL     1       7.864 -31.256 -19.051  1.00  0.00     0.161 A 
ATOM      2  C   UNL     1       7.997 -31.063 -17.666  1.00  0.00     0.161 A 
ATOM      3  C   UNL     1       8.838 -31.895 -16.913  1.00  0.00     0.098 A 
ATOM      4  C   UNL     1       9.549 -32.925 -17.533  1.00  0.00     0.142 A 
ATOM      5  C   UNL     1       9.422 -33.126 -18.924  1.00  0.00     0.022 A 
ATOM      6  C   UNL     1       8.582 -32.295 -19.678  1.00  0.00     0.062 A 
ATOM      7  C   UNL     1      10.146 -34.166 -19.515  1.00  0.00     0.019 A 
ATOM      8  C   UNL     1      10.969 -34.966 -18.722  1.00  0.00     0.094 A 
ATOM      9  C   UNL     1      11.045 -34.707 -17.350  1.00  0.00     0.336 A 
ATOM     10  O   UNL     1      11.781 -35.418 -16.617  1.00  0.00    -0.246 OA
ATOM     11  O   UNL     1      10.344 -33.712 -16.812  1.00  0.00    -0.423 OA
ENDROOT
BRANCH   1  12
ATOM     12  O   UNL     1       7.013 -30.400 -19.766  1.00  0.00    -0.493 OA
ATOM     13  C   UNL     1       7.455 -29.390 -20.667  1.00  0.00     0.278 C 
ENDBRANCH   1  12
BRANCH   2  14
ATOM     14  O   UNL     1       7.289 -30.036 -17.045  1.00  0.00    -0.504 OA
ATOM     15  H   UNL     1       7.232 -29.110 -17.451  1.00  0.00     0.293 HD
ENDBRANCH   2  14
TORSDOF 2
ENDMDL
MODEL 9
REMARK VINA RESULT:    -5.003      1.888      2.886
REMARK INTER + INTRA:          -5.488
REMARK INTER:                  -5.425
REMARK INTRA:                  -0.063
REMARK UNBOUND:                -0.046
REMARK SMILES COc1cc2ccc(=O)oc2cc1O
REMARK SMILES IDX 3 1 13 2 12 3 11 4 5 5 4 6 6 7 7 8 8 9 9 10 10 11 2 12 1 13
REMARK SMILES IDX 14 14
REMARK H PARENT 14 15
REMARK Flexibility Score: inf
ROOT
ATOM      1  C   UNL     1      17.651 -29.908 -21.685  1.00  0.00     0.161 A 
ATOM      2  C   UNL     1      18.982 -30.031 -22.117  1.00  0.00     0.161 A 
ATOM      3  C   UNL     1      19.569 -29.026 -22.898  1.00  0.00     0.098 A 
ATOM      4  C   UNL     1      18.835 -27.892 -23.253  1.00  0.00     0.142 A 
ATOM      5  C   UNL     1      17.498 -27.759 -22.823  1.00  0.00     0.022 A 
ATOM      6  C   UNL     1      16.910 -28.763 -22.042  1.00  0.00     0.062 A 
ATOM      7  C   UNL     1      16.789 -26.612 -23.196  1.00  0.00     0.019 A 
ATOM      8  C   UNL     1      17.419 -25.640 -23.974  1.00  0.00     0.094 A 
ATOM      9  C   UNL     1      18.747 -25.841 -24.363  1.00  0.00     0.336 A 
ATOM     10  O   UNL     1      19.333 -24.976 -25.066  1.00  0.00    -0.246 OA
ATOM     11  O   UNL     1      19.398 -26.941 -23.995  1.00  0.00    -0.423 OA
ENDROOT
BRANCH   1  12
ATOM     12  O   UNL     1      17.104 -30.938 -20.905  1.00  0.00    -0.493 OA
ATOM     13  C   UNL     1      16.282 -31.984 -21.411  1.00  0.00     0.278 C 
ENDBRANCH   1  12
BRANCH   2  14
ATOM     14  O   UNL     1      19.716 -31.162 -21.763  1.00  0.00    -0.504 OA
ATOM     15  H   UNL     1      19.409 -32.094 -22.015  1.00  0.00     0.293 HD
ENDBRANCH   2  14
TORSDOF 2
ENDMDL
