MODEL 1
REMARK VINA RESULT:    -5.939      0.000      0.000
REMARK INTER + INTRA:          -6.513
REMARK INTER:                  -6.460
REMARK INTRA:                  -0.053
REMARK UNBOUND:                -0.053
REMARK SMILES CC1(C)[C@@H]2CC=C(CO)[C@H]1C2
REMARK SMILES IDX 8 1 7 2 1 3 2 4 4 5 3 6 10 7 5 8 11 9 6 10 9 11
REMARK H PARENT 9 12
REMARK Flexibility Score: inf
ROOT
ATOM      1  C   UNL     1      43.650  -2.428  10.815  1.00  0.00     0.187 C 
ENDROOT
BRANCH   1   2
ATOM      2  C   UNL     1      42.351  -2.717  11.513  1.00  0.00    -0.045 C 
ATOM      3  C   UNL     1      41.340  -2.419  15.268  1.00  0.00     0.012 C 
ATOM      4  C   UNL     1      41.454  -3.024  13.846  1.00  0.00    -0.026 C 
ATOM      5  C   UNL     1      40.104  -2.977  13.078  1.00  0.00    -0.000 C 
ATOM      6  C   UNL     1      42.203  -4.381  13.952  1.00  0.00     0.012 C 
ATOM      7  C   UNL     1      41.950  -1.987  12.803  1.00  0.00     0.023 C 
ATOM      8  C   UNL     1      40.163  -3.898  11.811  1.00  0.00     0.031 C 
ATOM      9  C   UNL     1      40.484  -1.565  12.586  1.00  0.00     0.013 C 
ATOM     10  C   UNL     1      41.461  -3.630  11.023  1.00  0.00    -0.025 C 
ENDBRANCH   1   2
BRANCH   1  11
ATOM     11  O   UNL     1      44.560  -1.842  11.704  1.00  0.00    -0.392 OA
ATOM     12  H   UNL     1      45.466  -2.111  11.398  1.00  0.00     0.211 HD
ENDBRANCH   1  11
TORSDOF 2
ENDMDL
MODEL 2
REMARK VINA RESULT:    -5.857      6.923      8.380
REMARK INTER + INTRA:          -6.423
REMARK INTER:                  -6.381
REMARK INTRA:                  -0.043
REMARK UNBOUND:                -0.053
REMARK SMILES CC1(C)[C@@H]2CC=C(CO)[C@H]1C2
REMARK SMILES IDX 8 1 7 2 1 3 2 4 4 5 3 6 10 7 5 8 11 9 6 10 9 11
REMARK H PARENT 9 12
REMARK Flexibility Score: inf
ROOT
ATOM      1  C   UNL     1      40.282 -10.490  11.480  1.00  0.00     0.187 C 
ENDROOT
BRANCH   1   2
ATOM      2  C   UNL     1      41.539 -10.719  12.271  1.00  0.00    -0.045 C 
ATOM      3  C   UNL     1      42.521  -9.637  15.887  1.00  0.00     0.012 C 
ATOM      4  C   UNL     1      42.665  -9.889  14.365  1.00  0.00    -0.026 C 
ATOM      5  C   UNL     1      43.599 -11.092  14.055  1.00  0.00    -0.000 C 
ATOM      6  C   UNL     1      42.947  -8.528  13.669  1.00  0.00     0.012 C 
ATOM      7  C   UNL     1      41.525 -10.781  13.806  1.00  0.00     0.023 C 
ATOM      8  C   UNL     1      44.000 -11.095  12.539  1.00  0.00     0.031 C 
ATOM      9  C   UNL     1      42.370 -12.017  14.165  1.00  0.00     0.013 C 
ATOM     10  C   UNL     1      42.748 -10.898  11.661  1.00  0.00    -0.025 C 
ENDBRANCH   1   2
BRANCH   1  11
ATOM     11  O   UNL     1      39.195 -11.120  12.100  1.00  0.00    -0.392 OA
ATOM     12  H   UNL     1      39.480 -11.324  13.029  1.00  0.00     0.211 HD
ENDBRANCH   1  11
TORSDOF 2
ENDMDL
MODEL 3
REMARK VINA RESULT:    -5.682      6.383      7.889
REMARK INTER + INTRA:          -6.233
REMARK INTER:                  -6.172
REMARK INTRA:                  -0.062
REMARK UNBOUND:                -0.053
REMARK SMILES CC1(C)[C@@H]2CC=C(CO)[C@H]1C2
REMARK SMILES IDX 8 1 7 2 1 3 2 4 4 5 3 6 10 7 5 8 11 9 6 10 9 11
REMARK H PARENT 9 12
REMARK Flexibility Score: inf
ROOT
ATOM      1  C   UNL     1      41.893  -8.562  15.106  1.00  0.00     0.187 C 
ENDROOT
BRANCH   1   2
ATOM      2  C   UNL     1      42.352  -9.482  14.010  1.00  0.00    -0.045 C 
ATOM      3  C   UNL     1      41.324  -9.704  10.255  1.00  0.00     0.012 C 
ATOM      4  C   UNL     1      41.683 -10.179  11.685  1.00  0.00    -0.026 C 
ATOM      5  C   UNL     1      43.078 -10.862  11.744  1.00  0.00    -0.000 C 
ATOM      6  C   UNL     1      40.458 -10.937  12.269  1.00  0.00     0.012 C 
ATOM      7  C   UNL     1      42.328  -9.053  12.535  1.00  0.00     0.023 C 
ATOM      8  C   UNL     1      43.252 -11.633  13.098  1.00  0.00     0.031 C 
ATOM      9  C   UNL     1      43.700  -9.470  11.973  1.00  0.00     0.013 C 
ATOM     10  C   UNL     1      42.829 -10.734  14.276  1.00  0.00    -0.025 C 
ENDBRANCH   1   2
BRANCH   1  11
ATOM     11  O   UNL     1      40.726  -7.890  14.719  1.00  0.00    -0.392 OA
ATOM     12  H   UNL     1      39.966  -8.482  14.960  1.00  0.00     0.211 HD
ENDBRANCH   1  11
TORSDOF 2
ENDMDL
MODEL 4
REMARK VINA RESULT:    -5.509      2.101      2.969
REMARK INTER + INTRA:          -6.045
REMARK INTER:                  -5.993
REMARK INTRA:                  -0.052
REMARK UNBOUND:                -0.053
REMARK SMILES CC1(C)[C@@H]2CC=C(CO)[C@H]1C2
REMARK SMILES IDX 8 1 7 2 1 3 2 4 4 5 3 6 10 7 5 8 11 9 6 10 9 11
REMARK H PARENT 9 12
REMARK Flexibility Score: inf
ROOT
ATOM      1  C   UNL     1      42.972  -5.397  14.485  1.00  0.00     0.187 C 
ENDROOT
BRANCH   1   2
ATOM      2  C   UNL     1      42.328  -4.356  13.613  1.00  0.00    -0.045 C 
ATOM      3  C   UNL     1      42.112  -0.480  13.988  1.00  0.00     0.012 C 
ATOM      4  C   UNL     1      41.653  -1.931  13.700  1.00  0.00    -0.026 C 
ATOM      5  C   UNL     1      41.423  -2.186  12.185  1.00  0.00    -0.000 C 
ATOM      6  C   UNL     1      40.514  -2.289  14.697  1.00  0.00     0.012 C 
ATOM      7  C   UNL     1      42.848  -2.911  13.565  1.00  0.00     0.023 C 
ATOM      8  C   UNL     1      40.633  -3.523  11.969  1.00  0.00     0.031 C 
ATOM      9  C   UNL     1      42.915  -2.559  12.067  1.00  0.00     0.013 C 
ATOM     10  C   UNL     1      41.262  -4.650  12.811  1.00  0.00    -0.025 C 
ENDBRANCH   1   2
BRANCH   1  11
ATOM     11  O   UNL     1      42.247  -5.552  15.673  1.00  0.00    -0.392 OA
ATOM     12  H   UNL     1      41.287  -5.537  15.422  1.00  0.00     0.211 HD
ENDBRANCH   1  11
TORSDOF 2
ENDMDL
MODEL 5
REMARK VINA RESULT:    -5.422      1.992      3.593
REMARK INTER + INTRA:          -5.950
REMARK INTER:                  -5.927
REMARK INTRA:                  -0.023
REMARK UNBOUND:                -0.053
REMARK SMILES CC1(C)[C@@H]2CC=C(CO)[C@H]1C2
REMARK SMILES IDX 8 1 7 2 1 3 2 4 4 5 3 6 10 7 5 8 11 9 6 10 9 11
REMARK H PARENT 9 12
REMARK Flexibility Score: inf
ROOT
ATOM      1  C   UNL     1      42.753  -5.127  14.616  1.00  0.00     0.187 C 
ENDROOT
BRANCH   1   2
ATOM      2  C   UNL     1      42.103  -4.037  13.809  1.00  0.00    -0.045 C 
ATOM      3  C   UNL     1      42.232  -3.255   9.990  1.00  0.00     0.012 C 
ATOM      4  C   UNL     1      42.248  -3.001  11.518  1.00  0.00    -0.026 C 
ATOM      5  C   UNL     1      40.949  -2.305  12.011  1.00  0.00    -0.000 C 
ATOM      6  C   UNL     1      43.618  -2.371  11.894  1.00  0.00     0.012 C 
ATOM      7  C   UNL     1      41.756  -4.232  12.325  1.00  0.00     0.023 C 
ATOM      8  C   UNL     1      41.143  -1.751  13.465  1.00  0.00     0.031 C 
ATOM      9  C   UNL     1      40.317  -3.702  12.178  1.00  0.00     0.013 C 
ATOM     10  C   UNL     1      41.777  -2.832  14.362  1.00  0.00    -0.025 C 
ENDBRANCH   1   2
BRANCH   1  11
ATOM     11  O   UNL     1      42.220  -5.156  15.911  1.00  0.00    -0.392 OA
ATOM     12  H   UNL     1      42.162  -6.112  16.170  1.00  0.00     0.211 HD
ENDBRANCH   1  11
TORSDOF 2
ENDMDL
MODEL 6
REMARK VINA RESULT:    -5.408      6.105      7.465
REMARK INTER + INTRA:          -5.935
REMARK INTER:                  -5.893
REMARK INTRA:                  -0.041
REMARK UNBOUND:                -0.053
REMARK SMILES CC1(C)[C@@H]2CC=C(CO)[C@H]1C2
REMARK SMILES IDX 8 1 7 2 1 3 2 4 4 5 3 6 10 7 5 8 11 9 6 10 9 11
REMARK H PARENT 9 12
REMARK Flexibility Score: inf
ROOT
ATOM      1  C   UNL     1      41.850  -7.460  14.045  1.00  0.00     0.187 C 
ENDROOT
BRANCH   1   2
ATOM      2  C   UNL     1      41.939  -8.525  12.989  1.00  0.00    -0.045 C 
ATOM      3  C   UNL     1      42.998 -12.272  13.212  1.00  0.00     0.012 C 
ATOM      4  C   UNL     1      42.908 -10.826  12.662  1.00  0.00    -0.026 C 
ATOM      5  C   UNL     1      42.054 -10.743  11.366  1.00  0.00    -0.000 C 
ATOM      6  C   UNL     1      44.338 -10.218  12.651  1.00  0.00     0.012 C 
ATOM      7  C   UNL     1      41.766 -10.013  13.328  1.00  0.00     0.023 C 
ATOM      8  C   UNL     1      42.275  -9.364  10.654  1.00  0.00     0.031 C 
ATOM      9  C   UNL     1      40.806 -10.559  12.254  1.00  0.00     0.013 C 
ATOM     10  C   UNL     1      42.163  -8.217  11.676  1.00  0.00    -0.025 C 
ENDBRANCH   1   2
BRANCH   1  11
ATOM     11  O   UNL     1      40.730  -7.676  14.859  1.00  0.00    -0.392 OA
ATOM     12  H   UNL     1      40.297  -6.791  14.984  1.00  0.00     0.211 HD
ENDBRANCH   1  11
TORSDOF 2
ENDMDL
MODEL 7
REMARK VINA RESULT:    -5.393      7.233      8.613
REMARK INTER + INTRA:          -5.919
REMARK INTER:                  -5.886
REMARK INTRA:                  -0.033
REMARK UNBOUND:                -0.053
REMARK SMILES CC1(C)[C@@H]2CC=C(CO)[C@H]1C2
REMARK SMILES IDX 8 1 7 2 1 3 2 4 4 5 3 6 10 7 5 8 11 9 6 10 9 11
REMARK H PARENT 9 12
REMARK Flexibility Score: inf
ROOT
ATOM      1  C   UNL     1      43.043 -12.889  14.145  1.00  0.00     0.187 C 
ENDROOT
BRANCH   1   2
ATOM      2  C   UNL     1      42.474 -11.533  13.833  1.00  0.00    -0.045 C 
ATOM      3  C   UNL     1      42.691  -9.345  10.612  1.00  0.00     0.012 C 
ATOM      4  C   UNL     1      42.708  -9.703  12.119  1.00  0.00    -0.026 C 
ATOM      5  C   UNL     1      41.453  -9.170  12.863  1.00  0.00    -0.000 C 
ATOM      6  C   UNL     1      44.113  -9.356  12.687  1.00  0.00     0.012 C 
ATOM      7  C   UNL     1      42.130 -11.116  12.395  1.00  0.00     0.023 C 
ATOM      8  C   UNL     1      41.669  -9.235  14.415  1.00  0.00     0.031 C 
ATOM      9  C   UNL     1      40.729 -10.480  12.487  1.00  0.00     0.013 C 
ATOM     10  C   UNL     1      42.222 -10.617  14.814  1.00  0.00    -0.025 C 
ENDBRANCH   1   2
BRANCH   1  11
ATOM     11  O   UNL     1      42.012 -13.814  14.349  1.00  0.00    -0.392 OA
ATOM     12  H   UNL     1      41.847 -14.251  13.473  1.00  0.00     0.211 HD
ENDBRANCH   1  11
TORSDOF 2
ENDMDL
MODEL 8
REMARK VINA RESULT:    -5.384      7.028      8.358
REMARK INTER + INTRA:          -5.909
REMARK INTER:                  -5.887
REMARK INTRA:                  -0.023
REMARK UNBOUND:                -0.053
REMARK SMILES CC1(C)[C@@H]2CC=C(CO)[C@H]1C2
REMARK SMILES IDX 8 1 7 2 1 3 2 4 4 5 3 6 10 7 5 8 11 9 6 10 9 11
REMARK H PARENT 9 12
REMARK Flexibility Score: inf
ROOT
ATOM      1  C   UNL     1      42.994 -12.770  14.365  1.00  0.00     0.187 C 
ENDROOT
BRANCH   1   2
ATOM      2  C   UNL     1      42.459 -11.639  13.532  1.00  0.00    -0.045 C 
ATOM      3  C   UNL     1      43.198  -7.811  13.634  1.00  0.00     0.012 C 
ATOM      4  C   UNL     1      42.378  -9.122  13.539  1.00  0.00    -0.026 C 
ATOM      5  C   UNL     1      41.831  -9.371  12.106  1.00  0.00    -0.000 C 
ATOM      6  C   UNL     1      41.383  -9.162  14.733  1.00  0.00     0.012 C 
ATOM      7  C   UNL     1      43.276 -10.362  13.287  1.00  0.00     0.023 C 
ATOM      8  C   UNL     1      40.733 -10.490  12.127  1.00  0.00     0.031 C 
ATOM      9  C   UNL     1      43.155 -10.091  11.775  1.00  0.00     0.013 C 
ATOM     10  C   UNL     1      41.229 -11.702  12.941  1.00  0.00    -0.025 C 
ENDBRANCH   1   2
BRANCH   1  11
ATOM     11  O   UNL     1      42.079 -13.830  14.390  1.00  0.00    -0.392 OA
ATOM     12  H   UNL     1      41.676 -13.877  13.484  1.00  0.00     0.211 HD
ENDBRANCH   1  11
TORSDOF 2
ENDMDL
MODEL 9
REMARK VINA RESULT:    -5.112      2.067      3.729
REMARK INTER + INTRA:          -5.613
REMARK INTER:                  -5.590
REMARK INTRA:                  -0.024
REMARK UNBOUND:                -0.053
REMARK SMILES CC1(C)[C@@H]2CC=C(CO)[C@H]1C2
REMARK SMILES IDX 8 1 7 2 1 3 2 4 4 5 3 6 10 7 5 8 11 9 6 10 9 11
REMARK H PARENT 9 12
REMARK Flexibility Score: inf
ROOT
ATOM      1  C   UNL     1      41.160  -0.597  15.451  1.00  0.00     0.187 C 
ENDROOT
BRANCH   1   2
ATOM      2  C   UNL     1      41.665  -1.819  14.737  1.00  0.00    -0.045 C 
ATOM      3  C   UNL     1      41.610  -2.782  10.958  1.00  0.00     0.012 C 
ATOM      4  C   UNL     1      41.474  -2.945  12.493  1.00  0.00    -0.026 C 
ATOM      5  C   UNL     1      42.616  -3.810  13.094  1.00  0.00    -0.000 C 
ATOM      6  C   UNL     1      40.002  -3.327  12.814  1.00  0.00     0.012 C 
ATOM      7  C   UNL     1      42.116  -1.765  13.269  1.00  0.00     0.023 C 
ATOM      8  C   UNL     1      42.259  -4.245  14.558  1.00  0.00     0.031 C 
ATOM      9  C   UNL     1      43.456  -2.524  13.234  1.00  0.00     0.013 C 
ATOM     10  C   UNL     1      41.762  -3.028  15.364  1.00  0.00    -0.025 C 
ENDBRANCH   1   2
BRANCH   1  11
ATOM     11  O   UNL     1      41.885  -0.388  16.631  1.00  0.00    -0.392 OA
ATOM     12  H   UNL     1      41.466   0.387  17.087  1.00  0.00     0.211 HD
ENDBRANCH   1  11
TORSDOF 2
ENDMDL
