MODEL 1
REMARK VINA RESULT:    -7.778      0.000      0.000
REMARK INTER + INTRA:          -9.232
REMARK INTER:                  -9.369
REMARK INTRA:                   0.137
REMARK UNBOUND:                 0.137
REMARK SMILES O=c1c(O)c(-c2ccc(O)c(O)c2)oc2cc(O)cc(O)c12
REMARK SMILES IDX 5 1 3 2 2 3 1 4 22 5 20 6 19 7 17 8 16 9 15 10 14 11 6 12
REMARK SMILES IDX 7 13 8 14 9 15 13 16 11 17 10 18 12 20 4 22 21 24 18 26
REMARK H PARENT 10 19 12 21 4 23 21 25 18 27
REMARK Flexibility Score: inf
ROOT
ATOM      1  C   UNL     1     -38.922  12.776   7.986  1.00  0.00     0.180 A 
ATOM      2  C   UNL     1     -39.152  11.434   8.337  1.00  0.00     0.208 A 
ATOM      3  C   UNL     1     -40.249  11.122   9.157  1.00  0.00     0.238 A 
ATOM      4  O   UNL     1     -40.481   9.915   9.421  1.00  0.00    -0.285 OA
ATOM      5  C   UNL     1     -41.091  12.157   9.630  1.00  0.00     0.111 A 
ATOM      6  C   UNL     1     -42.206  11.961  10.498  1.00  0.00     0.134 A 
ATOM      7  C   UNL     1     -43.048  13.040  10.798  1.00  0.00     0.093 A 
ATOM      8  C   UNL     1     -42.776  14.321  10.311  1.00  0.00     0.123 A 
ATOM      9  C   UNL     1     -41.656  14.534   9.511  1.00  0.00     0.094 A 
ATOM     10  C   UNL     1     -40.819  13.471   9.167  1.00  0.00     0.146 A 
ATOM     11  O   UNL     1     -39.769  13.716   8.392  1.00  0.00    -0.452 OA
ENDROOT
BRANCH   1  12
ATOM     12  C   UNL     1     -37.774  13.185   7.147  1.00  0.00     0.025 A 
ATOM     13  C   UNL     1     -36.518  12.598   7.360  1.00  0.00     0.016 A 
ATOM     14  C   UNL     1     -35.427  12.956   6.567  1.00  0.00     0.051 A 
ATOM     15  C   UNL     1     -35.568  13.893   5.538  1.00  0.00     0.157 A 
ATOM     16  C   UNL     1     -37.925  14.111   6.100  1.00  0.00     0.062 A 
ATOM     17  C   UNL     1     -36.835  14.474   5.297  1.00  0.00     0.158 A 
BRANCH  15  18
ATOM     18  O   UNL     1     -34.436  14.212   4.787  1.00  0.00    -0.504 OA
ATOM     19  H   UNL     1     -33.491  14.164   5.140  1.00  0.00     0.293 HD
ENDBRANCH  15  18
BRANCH  17  20
ATOM     20  O   UNL     1     -37.058  15.401   4.277  1.00  0.00    -0.504 OA
ATOM     21  H   UNL     1     -37.617  15.215   3.457  1.00  0.00     0.293 HD
ENDBRANCH  17  20
ENDBRANCH   1  12
BRANCH   2  22
ATOM     22  O   UNL     1     -38.321  10.426   7.841  1.00  0.00    -0.502 OA
ATOM     23  H   UNL     1     -37.364  10.599   7.559  1.00  0.00     0.293 HD
ENDBRANCH   2  22
BRANCH   6  24
ATOM     24  O   UNL     1     -42.513  10.742  11.112  1.00  0.00    -0.507 OA
ATOM     25  H   UNL     1     -42.209   9.839  10.780  1.00  0.00     0.293 HD
ENDBRANCH   6  24
BRANCH   8  26
ATOM     26  O   UNL     1     -43.610  15.392  10.627  1.00  0.00    -0.508 OA
ATOM     27  H   UNL     1     -43.263  16.207  11.119  1.00  0.00     0.293 HD
ENDBRANCH   8  26
TORSDOF 6
ENDMDL
MODEL 2
REMARK VINA RESULT:    -7.274      2.793      6.954
REMARK INTER + INTRA:          -8.626
REMARK INTER:                  -8.303
REMARK INTRA:                  -0.322
REMARK UNBOUND:                 0.137
REMARK SMILES O=c1c(O)c(-c2ccc(O)c(O)c2)oc2cc(O)cc(O)c12
REMARK SMILES IDX 5 1 3 2 2 3 1 4 22 5 20 6 19 7 17 8 16 9 15 10 14 11 6 12
REMARK SMILES IDX 7 13 8 14 9 15 13 16 11 17 10 18 12 20 4 22 21 24 18 26
REMARK H PARENT 10 19 12 21 4 23 21 25 18 27
REMARK Flexibility Score: inf
ROOT
ATOM      1  C   UNL     1     -40.489  11.595   8.062  1.00  0.00     0.180 A 
ATOM      2  C   UNL     1     -39.100  11.705   8.247  1.00  0.00     0.208 A 
ATOM      3  C   UNL     1     -38.247  11.479   7.155  1.00  0.00     0.238 A 
ATOM      4  O   UNL     1     -37.008  11.633   7.314  1.00  0.00    -0.285 OA
ATOM      5  C   UNL     1     -38.792  11.131   5.896  1.00  0.00     0.111 A 
ATOM      6  C   UNL     1     -38.020  10.841   4.731  1.00  0.00     0.134 A 
ATOM      7  C   UNL     1     -38.668  10.635   3.506  1.00  0.00     0.093 A 
ATOM      8  C   UNL     1     -40.063  10.645   3.419  1.00  0.00     0.123 A 
ATOM      9  C   UNL     1     -40.826  10.868   4.563  1.00  0.00     0.094 A 
ATOM     10  C   UNL     1     -40.208  11.112   5.791  1.00  0.00     0.146 A 
ATOM     11  O   UNL     1     -40.973  11.331   6.853  1.00  0.00    -0.452 OA
ENDROOT
BRANCH   1  12
ATOM     12  C   UNL     1     -41.449  11.793   9.171  1.00  0.00     0.025 A 
ATOM     13  C   UNL     1     -41.826  10.699   9.962  1.00  0.00     0.016 A 
ATOM     14  C   UNL     1     -42.715  10.867  11.025  1.00  0.00     0.051 A 
ATOM     15  C   UNL     1     -43.234  12.131  11.328  1.00  0.00     0.157 A 
ATOM     16  C   UNL     1     -41.952  13.068   9.486  1.00  0.00     0.062 A 
ATOM     17  C   UNL     1     -42.843  13.246  10.553  1.00  0.00     0.158 A 
BRANCH  15  18
ATOM     18  O   UNL     1     -44.125  12.230  12.399  1.00  0.00    -0.504 OA
ATOM     19  H   UNL     1     -45.123  12.100  12.317  1.00  0.00     0.293 HD
ENDBRANCH  15  18
BRANCH  17  20
ATOM     20  O   UNL     1     -43.303  14.540  10.807  1.00  0.00    -0.504 OA
ATOM     21  H   UNL     1     -44.180  14.906  10.465  1.00  0.00     0.293 HD
ENDBRANCH  17  20
ENDBRANCH   1  12
BRANCH   2  22
ATOM     22  O   UNL     1     -38.584  12.072   9.493  1.00  0.00    -0.502 OA
ATOM     23  H   UNL     1     -38.458  11.408  10.247  1.00  0.00     0.293 HD
ENDBRANCH   2  22
BRANCH   6  24
ATOM     24  O   UNL     1     -36.627  10.717   4.728  1.00  0.00    -0.507 OA
ATOM     25  H   UNL     1     -36.043  10.827   3.914  1.00  0.00     0.293 HD
ENDBRANCH   6  24
BRANCH   8  26
ATOM     26  O   UNL     1     -40.700  10.423   2.200  1.00  0.00    -0.508 OA
ATOM     27  H   UNL     1     -40.181  10.158   1.371  1.00  0.00     0.293 HD
ENDBRANCH   8  26
TORSDOF 6
ENDMDL
MODEL 3
REMARK VINA RESULT:    -7.055      1.969      3.058
REMARK INTER + INTRA:          -8.362
REMARK INTER:                  -8.072
REMARK INTRA:                  -0.291
REMARK UNBOUND:                 0.137
REMARK SMILES O=c1c(O)c(-c2ccc(O)c(O)c2)oc2cc(O)cc(O)c12
REMARK SMILES IDX 5 1 3 2 2 3 1 4 22 5 20 6 19 7 17 8 16 9 15 10 14 11 6 12
REMARK SMILES IDX 7 13 8 14 9 15 13 16 11 17 10 18 12 20 4 22 21 24 18 26
REMARK H PARENT 10 19 12 21 4 23 21 25 18 27
REMARK Flexibility Score: inf
ROOT
ATOM      1  C   UNL     1     -37.047  13.135   5.789  1.00  0.00     0.180 A 
ATOM      2  C   UNL     1     -37.049  11.733   5.885  1.00  0.00     0.208 A 
ATOM      3  C   UNL     1     -37.894  11.115   6.822  1.00  0.00     0.238 A 
ATOM      4  O   UNL     1     -37.932   9.859   6.864  1.00  0.00    -0.285 OA
ATOM      5  C   UNL     1     -38.713  11.908   7.661  1.00  0.00     0.111 A 
ATOM      6  C   UNL     1     -39.577  11.391   8.673  1.00  0.00     0.134 A 
ATOM      7  C   UNL     1     -40.438  12.259   9.356  1.00  0.00     0.093 A 
ATOM      8  C   UNL     1     -40.419  13.635   9.108  1.00  0.00     0.123 A 
ATOM      9  C   UNL     1     -39.537  14.155   8.165  1.00  0.00     0.094 A 
ATOM     10  C   UNL     1     -38.692  13.311   7.443  1.00  0.00     0.146 A 
ATOM     11  O   UNL     1     -37.874  13.848   6.545  1.00  0.00    -0.452 OA
ENDROOT
BRANCH   1  12
ATOM     12  C   UNL     1     -36.166  13.858   4.844  1.00  0.00     0.025 A 
ATOM     13  C   UNL     1     -34.811  14.035   5.160  1.00  0.00     0.016 A 
ATOM     14  C   UNL     1     -33.959  14.696   4.274  1.00  0.00     0.051 A 
ATOM     15  C   UNL     1     -34.437  15.181   3.051  1.00  0.00     0.157 A 
ATOM     16  C   UNL     1     -36.645  14.325   3.607  1.00  0.00     0.062 A 
ATOM     17  C   UNL     1     -35.796  14.988   2.711  1.00  0.00     0.158 A 
BRANCH  15  18
ATOM     18  O   UNL     1     -33.535  15.841   2.214  1.00  0.00    -0.504 OA
ATOM     19  H   UNL     1     -33.682  15.982   1.225  1.00  0.00     0.293 HD
ENDBRANCH  15  18
BRANCH  17  20
ATOM     20  O   UNL     1     -36.340  15.426   1.502  1.00  0.00    -0.504 OA
ATOM     21  H   UNL     1     -35.800  15.841   0.756  1.00  0.00     0.293 HD
ENDBRANCH  17  20
ENDBRANCH   1  12
BRANCH   2  22
ATOM     22  O   UNL     1     -36.250  10.968   5.031  1.00  0.00    -0.502 OA
ATOM     23  H   UNL     1     -35.243  11.068   4.994  1.00  0.00     0.293 HD
ENDBRANCH   2  22
BRANCH   6  24
ATOM     24  O   UNL     1     -39.607  10.048   9.062  1.00  0.00    -0.507 OA
ATOM     25  H   UNL     1     -40.253   9.659   9.732  1.00  0.00     0.293 HD
ENDBRANCH   6  24
BRANCH   8  26
ATOM     26  O   UNL     1     -41.269  14.493   9.804  1.00  0.00    -0.508 OA
ATOM     27  H   UNL     1     -42.262  14.529   9.608  1.00  0.00     0.293 HD
ENDBRANCH   8  26
TORSDOF 6
ENDMDL
MODEL 4
REMARK VINA RESULT:    -7.041      2.165      6.910
REMARK INTER + INTRA:          -8.345
REMARK INTER:                  -8.067
REMARK INTRA:                  -0.278
REMARK UNBOUND:                 0.137
REMARK SMILES O=c1c(O)c(-c2ccc(O)c(O)c2)oc2cc(O)cc(O)c12
REMARK SMILES IDX 5 1 3 2 2 3 1 4 22 5 20 6 19 7 17 8 16 9 15 10 14 11 6 12
REMARK SMILES IDX 7 13 8 14 9 15 13 16 11 17 10 18 12 20 4 22 21 24 18 26
REMARK H PARENT 10 19 12 21 4 23 21 25 18 27
REMARK Flexibility Score: inf
ROOT
ATOM      1  C   UNL     1     -40.464  11.872   7.699  1.00  0.00     0.180 A 
ATOM      2  C   UNL     1     -40.840  11.256   6.493  1.00  0.00     0.208 A 
ATOM      3  C   UNL     1     -39.899  11.159   5.455  1.00  0.00     0.238 A 
ATOM      4  O   UNL     1     -40.224  10.558   4.400  1.00  0.00    -0.285 OA
ATOM      5  C   UNL     1     -38.600  11.695   5.630  1.00  0.00     0.111 A 
ATOM      6  C   UNL     1     -37.581  11.689   4.632  1.00  0.00     0.134 A 
ATOM      7  C   UNL     1     -36.291  12.130   4.958  1.00  0.00     0.093 A 
ATOM      8  C   UNL     1     -36.004  12.637   6.228  1.00  0.00     0.123 A 
ATOM      9  C   UNL     1     -37.008  12.702   7.191  1.00  0.00     0.094 A 
ATOM     10  C   UNL     1     -38.294  12.237   6.906  1.00  0.00     0.146 A 
ATOM     11  O   UNL     1     -39.218  12.307   7.856  1.00  0.00    -0.452 OA
ENDROOT
BRANCH   1  12
ATOM     12  C   UNL     1     -41.407  12.034   8.829  1.00  0.00     0.025 A 
ATOM     13  C   UNL     1     -41.674  10.943   9.668  1.00  0.00     0.016 A 
ATOM     14  C   UNL     1     -42.545  11.079  10.750  1.00  0.00     0.051 A 
ATOM     15  C   UNL     1     -43.154  12.308  11.026  1.00  0.00     0.157 A 
ATOM     16  C   UNL     1     -42.001  13.276   9.115  1.00  0.00     0.062 A 
ATOM     17  C   UNL     1     -42.874  13.423  10.202  1.00  0.00     0.158 A 
BRANCH  15  18
ATOM     18  O   UNL     1     -44.021  12.376  12.118  1.00  0.00    -0.504 OA
ATOM     19  H   UNL     1     -44.119  13.186  12.713  1.00  0.00     0.293 HD
ENDBRANCH  15  18
BRANCH  17  20
ATOM     20  O   UNL     1     -43.429  14.685  10.425  1.00  0.00    -0.504 OA
ATOM     21  H   UNL     1     -43.301  15.475   9.811  1.00  0.00     0.293 HD
ENDBRANCH  17  20
ENDBRANCH   1  12
BRANCH   2  22
ATOM     22  O   UNL     1     -42.120  10.714   6.350  1.00  0.00    -0.502 OA
ATOM     23  H   UNL     1     -42.935  11.118   6.795  1.00  0.00     0.293 HD
ENDBRANCH   2  22
BRANCH   6  24
ATOM     24  O   UNL     1     -37.787  11.290   3.307  1.00  0.00    -0.507 OA
ATOM     25  H   UNL     1     -37.583  10.371   2.947  1.00  0.00     0.293 HD
ENDBRANCH   6  24
BRANCH   8  26
ATOM     26  O   UNL     1     -34.723  13.087   6.539  1.00  0.00    -0.508 OA
ATOM     27  H   UNL     1     -34.574  13.900   7.126  1.00  0.00     0.293 HD
ENDBRANCH   8  26
TORSDOF 6
ENDMDL
MODEL 5
REMARK VINA RESULT:    -7.017      4.320     10.381
REMARK INTER + INTRA:          -8.316
REMARK INTER:                  -8.506
REMARK INTRA:                   0.190
REMARK UNBOUND:                 0.137
REMARK SMILES O=c1c(O)c(-c2ccc(O)c(O)c2)oc2cc(O)cc(O)c12
REMARK SMILES IDX 5 1 3 2 2 3 1 4 22 5 20 6 19 7 17 8 16 9 15 10 14 11 6 12
REMARK SMILES IDX 7 13 8 14 9 15 13 16 11 17 10 18 12 20 4 22 21 24 18 26
REMARK H PARENT 10 19 12 21 4 23 21 25 18 27
REMARK Flexibility Score: inf
ROOT
ATOM      1  C   UNL     1     -34.677  14.704   3.073  1.00  0.00     0.180 A 
ATOM      2  C   UNL     1     -35.077  14.997   1.758  1.00  0.00     0.208 A 
ATOM      3  C   UNL     1     -34.097  15.147   0.765  1.00  0.00     0.238 A 
ATOM      4  O   UNL     1     -34.464  15.354  -0.420  1.00  0.00    -0.285 OA
ATOM      5  C   UNL     1     -32.727  15.020   1.102  1.00  0.00     0.111 A 
ATOM      6  C   UNL     1     -31.648  15.191   0.185  1.00  0.00     0.134 A 
ATOM      7  C   UNL     1     -30.338  14.914   0.599  1.00  0.00     0.093 A 
ATOM      8  C   UNL     1     -30.065  14.532   1.915  1.00  0.00     0.123 A 
ATOM      9  C   UNL     1     -31.107  14.420   2.833  1.00  0.00     0.094 A 
ATOM     10  C   UNL     1     -32.426  14.656   2.441  1.00  0.00     0.146 A 
ATOM     11  O   UNL     1     -33.389  14.526   3.345  1.00  0.00    -0.452 OA
ENDROOT
BRANCH   1  12
ATOM     12  C   UNL     1     -35.651  14.556   4.179  1.00  0.00     0.025 A 
ATOM     13  C   UNL     1     -36.773  15.396   4.228  1.00  0.00     0.016 A 
ATOM     14  C   UNL     1     -37.713  15.261   5.251  1.00  0.00     0.051 A 
ATOM     15  C   UNL     1     -37.561  14.277   6.234  1.00  0.00     0.157 A 
ATOM     16  C   UNL     1     -35.507  13.553   5.152  1.00  0.00     0.062 A 
ATOM     17  C   UNL     1     -36.447  13.408   6.181  1.00  0.00     0.158 A 
BRANCH  15  18
ATOM     18  O   UNL     1     -38.533  14.199   7.234  1.00  0.00    -0.504 OA
ATOM     19  H   UNL     1     -38.325  14.103   8.217  1.00  0.00     0.293 HD
ENDBRANCH  15  18
BRANCH  17  20
ATOM     20  O   UNL     1     -36.239  12.390   7.115  1.00  0.00    -0.504 OA
ATOM     21  H   UNL     1     -36.968  11.993   7.689  1.00  0.00     0.293 HD
ENDBRANCH  17  20
ENDBRANCH   1  12
BRANCH   2  22
ATOM     22  O   UNL     1     -36.435  15.096   1.442  1.00  0.00    -0.502 OA
ATOM     23  H   UNL     1     -37.087  14.337   1.597  1.00  0.00     0.293 HD
ENDBRANCH   2  22
BRANCH   6  24
ATOM     24  O   UNL     1     -31.802  15.657  -1.125  1.00  0.00    -0.507 OA
ATOM     25  H   UNL     1     -32.669  15.644  -1.640  1.00  0.00     0.293 HD
ENDBRANCH   6  24
BRANCH   8  26
ATOM     26  O   UNL     1     -28.758  14.273   2.322  1.00  0.00    -0.508 OA
ATOM     27  H   UNL     1     -28.411  14.584   3.222  1.00  0.00     0.293 HD
ENDBRANCH   8  26
TORSDOF 6
ENDMDL
MODEL 6
REMARK VINA RESULT:    -7.015      1.939      7.383
REMARK INTER + INTRA:          -8.313
REMARK INTER:                  -8.288
REMARK INTRA:                  -0.025
REMARK UNBOUND:                 0.137
REMARK SMILES O=c1c(O)c(-c2ccc(O)c(O)c2)oc2cc(O)cc(O)c12
REMARK SMILES IDX 5 1 3 2 2 3 1 4 22 5 20 6 19 7 17 8 16 9 15 10 14 11 6 12
REMARK SMILES IDX 7 13 8 14 9 15 13 16 11 17 10 18 12 20 4 22 21 24 18 26
REMARK H PARENT 10 19 12 21 4 23 21 25 18 27
REMARK Flexibility Score: inf
ROOT
ATOM      1  C   UNL     1     -39.648  12.172   7.926  1.00  0.00     0.180 A 
ATOM      2  C   UNL     1     -39.289  13.522   7.775  1.00  0.00     0.208 A 
ATOM      3  C   UNL     1     -38.294  13.863   6.846  1.00  0.00     0.238 A 
ATOM      4  O   UNL     1     -38.016  15.078   6.676  1.00  0.00    -0.285 OA
ATOM      5  C   UNL     1     -37.658  12.848   6.090  1.00  0.00     0.111 A 
ATOM      6  C   UNL     1     -36.609  13.075   5.150  1.00  0.00     0.134 A 
ATOM      7  C   UNL     1     -36.143  12.012   4.364  1.00  0.00     0.093 A 
ATOM      8  C   UNL     1     -36.646  10.719   4.532  1.00  0.00     0.123 A 
ATOM      9  C   UNL     1     -37.628  10.477   5.489  1.00  0.00     0.094 A 
ATOM     10  C   UNL     1     -38.137  11.523   6.262  1.00  0.00     0.146 A 
ATOM     11  O   UNL     1     -39.080  11.250   7.155  1.00  0.00    -0.452 OA
ENDROOT
BRANCH   1  12
ATOM     12  C   UNL     1     -40.670  11.732   8.902  1.00  0.00     0.025 A 
ATOM     13  C   UNL     1     -41.958  12.286   8.852  1.00  0.00     0.016 A 
ATOM     14  C   UNL     1     -42.941  11.871   9.751  1.00  0.00     0.051 A 
ATOM     15  C   UNL     1     -42.666  10.887  10.706  1.00  0.00     0.157 A 
ATOM     16  C   UNL     1     -40.397  10.727   9.847  1.00  0.00     0.062 A 
ATOM     17  C   UNL     1     -41.379  10.303  10.751  1.00  0.00     0.158 A 
BRANCH  15  18
ATOM     18  O   UNL     1     -43.691  10.522  11.581  1.00  0.00    -0.504 OA
ATOM     19  H   UNL     1     -43.670  10.686  12.577  1.00  0.00     0.293 HD
ENDBRANCH  15  18
BRANCH  17  20
ATOM     20  O   UNL     1     -41.036   9.302  11.663  1.00  0.00    -0.504 OA
ATOM     21  H   UNL     1     -41.599   8.483  11.841  1.00  0.00     0.293 HD
ENDBRANCH  17  20
ENDBRANCH   1  12
BRANCH   2  22
ATOM     22  O   UNL     1     -39.945  14.511   8.515  1.00  0.00    -0.502 OA
ATOM     23  H   UNL     1     -40.951  14.528   8.627  1.00  0.00     0.293 HD
ENDBRANCH   2  22
BRANCH   6  24
ATOM     24  O   UNL     1     -35.975  14.308   4.970  1.00  0.00    -0.507 OA
ATOM     25  H   UNL     1     -36.041  14.871   4.135  1.00  0.00     0.293 HD
ENDBRANCH   6  24
BRANCH   8  26
ATOM     26  O   UNL     1     -36.166   9.665   3.757  1.00  0.00    -0.508 OA
ATOM     27  H   UNL     1     -36.510   8.720   3.876  1.00  0.00     0.293 HD
ENDBRANCH   8  26
TORSDOF 6
ENDMDL
MODEL 7
REMARK VINA RESULT:    -6.885      5.353      8.348
REMARK INTER + INTRA:          -8.158
REMARK INTER:                  -7.847
REMARK INTRA:                  -0.310
REMARK UNBOUND:                 0.137
REMARK SMILES O=c1c(O)c(-c2ccc(O)c(O)c2)oc2cc(O)cc(O)c12
REMARK SMILES IDX 5 1 3 2 2 3 1 4 22 5 20 6 19 7 17 8 16 9 15 10 14 11 6 12
REMARK SMILES IDX 7 13 8 14 9 15 13 16 11 17 10 18 12 20 4 22 21 24 18 26
REMARK H PARENT 10 19 12 21 4 23 21 25 18 27
REMARK Flexibility Score: inf
ROOT
ATOM      1  C   UNL     1     -33.722  13.784   1.698  1.00  0.00     0.180 A 
ATOM      2  C   UNL     1     -34.300  12.618   1.166  1.00  0.00     0.208 A 
ATOM      3  C   UNL     1     -35.531  12.174   1.676  1.00  0.00     0.238 A 
ATOM      4  O   UNL     1     -36.069  11.162   1.159  1.00  0.00    -0.285 OA
ATOM      5  C   UNL     1     -36.160  12.893   2.721  1.00  0.00     0.111 A 
ATOM      6  C   UNL     1     -37.389  12.512   3.340  1.00  0.00     0.134 A 
ATOM      7  C   UNL     1     -37.985  13.368   4.275  1.00  0.00     0.093 A 
ATOM      8  C   UNL     1     -37.365  14.559   4.660  1.00  0.00     0.123 A 
ATOM      9  C   UNL     1     -36.136  14.909   4.104  1.00  0.00     0.094 A 
ATOM     10  C   UNL     1     -35.534  14.094   3.144  1.00  0.00     0.146 A 
ATOM     11  O   UNL     1     -34.369  14.472   2.632  1.00  0.00    -0.452 OA
ENDROOT
BRANCH   1  12
ATOM     12  C   UNL     1     -32.415  14.299   1.230  1.00  0.00     0.025 A 
ATOM     13  C   UNL     1     -32.363  15.126   0.099  1.00  0.00     0.016 A 
ATOM     14  C   UNL     1     -31.144  15.638  -0.347  1.00  0.00     0.051 A 
ATOM     15  C   UNL     1     -29.956  15.349   0.334  1.00  0.00     0.157 A 
ATOM     16  C   UNL     1     -31.227  14.024   1.929  1.00  0.00     0.062 A 
ATOM     17  C   UNL     1     -29.999  14.537   1.491  1.00  0.00     0.158 A 
BRANCH  15  18
ATOM     18  O   UNL     1     -28.769  15.886  -0.168  1.00  0.00    -0.504 OA
ATOM     19  H   UNL     1     -28.373  16.764   0.136  1.00  0.00     0.293 HD
ENDBRANCH  15  18
BRANCH  17  20
ATOM     20  O   UNL     1     -28.859  14.221   2.233  1.00  0.00    -0.504 OA
ATOM     21  H   UNL     1     -28.342  13.359   2.136  1.00  0.00     0.293 HD
ENDBRANCH  17  20
ENDBRANCH   1  12
BRANCH   2  22
ATOM     22  O   UNL     1     -33.673  11.936   0.120  1.00  0.00    -0.502 OA
ATOM     23  H   UNL     1     -33.739  12.239  -0.844  1.00  0.00     0.293 HD
ENDBRANCH   2  22
BRANCH   6  24
ATOM     24  O   UNL     1     -38.044  11.301   3.096  1.00  0.00    -0.507 OA
ATOM     25  H   UNL     1     -38.952  11.217   2.664  1.00  0.00     0.293 HD
ENDBRANCH   6  24
BRANCH   8  26
ATOM     26  O   UNL     1     -37.958  15.397   5.602  1.00  0.00    -0.508 OA
ATOM     27  H   UNL     1     -38.716  15.078   6.193  1.00  0.00     0.293 HD
ENDBRANCH   8  26
TORSDOF 6
ENDMDL
MODEL 8
REMARK VINA RESULT:    -6.839      6.462      9.030
REMARK INTER + INTRA:          -8.102
REMARK INTER:                  -7.780
REMARK INTRA:                  -0.322
REMARK UNBOUND:                 0.137
REMARK SMILES O=c1c(O)c(-c2ccc(O)c(O)c2)oc2cc(O)cc(O)c12
REMARK SMILES IDX 5 1 3 2 2 3 1 4 22 5 20 6 19 7 17 8 16 9 15 10 14 11 6 12
REMARK SMILES IDX 7 13 8 14 9 15 13 16 11 17 10 18 12 20 4 22 21 24 18 26
REMARK H PARENT 10 19 12 21 4 23 21 25 18 27
REMARK Flexibility Score: inf
ROOT
ATOM      1  C   UNL     1     -33.829  13.953   1.669  1.00  0.00     0.180 A 
ATOM      2  C   UNL     1     -34.625  14.742   2.517  1.00  0.00     0.208 A 
ATOM      3  C   UNL     1     -35.889  14.265   2.903  1.00  0.00     0.238 A 
ATOM      4  O   UNL     1     -36.573  14.950   3.707  1.00  0.00    -0.285 OA
ATOM      5  C   UNL     1     -36.347  13.015   2.422  1.00  0.00     0.111 A 
ATOM      6  C   UNL     1     -37.625  12.453   2.716  1.00  0.00     0.134 A 
ATOM      7  C   UNL     1     -37.922  11.151   2.292  1.00  0.00     0.093 A 
ATOM      8  C   UNL     1     -37.009  10.416   1.531  1.00  0.00     0.123 A 
ATOM      9  C   UNL     1     -35.782  10.980   1.189  1.00  0.00     0.094 A 
ATOM     10  C   UNL     1     -35.444  12.262   1.626  1.00  0.00     0.146 A 
ATOM     11  O   UNL     1     -34.260  12.756   1.287  1.00  0.00    -0.452 OA
ENDROOT
BRANCH   1  12
ATOM     12  C   UNL     1     -32.498  14.399   1.199  1.00  0.00     0.025 A 
ATOM     13  C   UNL     1     -32.402  15.192   0.047  1.00  0.00     0.016 A 
ATOM     14  C   UNL     1     -31.158  15.640  -0.403  1.00  0.00     0.051 A 
ATOM     15  C   UNL     1     -29.989  15.318   0.296  1.00  0.00     0.157 A 
ATOM     16  C   UNL     1     -31.328  14.092   1.915  1.00  0.00     0.062 A 
ATOM     17  C   UNL     1     -30.075  14.540   1.473  1.00  0.00     0.158 A 
BRANCH  15  18
ATOM     18  O   UNL     1     -28.777  15.790  -0.211  1.00  0.00    -0.504 OA
ATOM     19  H   UNL     1     -28.456  15.626  -1.154  1.00  0.00     0.293 HD
ENDBRANCH  15  18
BRANCH  17  20
ATOM     20  O   UNL     1     -28.955  14.195   2.233  1.00  0.00    -0.504 OA
ATOM     21  H   UNL     1     -28.048  13.991   1.841  1.00  0.00     0.293 HD
ENDBRANCH  17  20
ENDBRANCH   1  12
BRANCH   2  22
ATOM     22  O   UNL     1     -34.144  15.963   2.999  1.00  0.00    -0.502 OA
ATOM     23  H   UNL     1     -33.167  16.222   2.944  1.00  0.00     0.293 HD
ENDBRANCH   2  22
BRANCH   6  24
ATOM     24  O   UNL     1     -38.642  13.136   3.390  1.00  0.00    -0.507 OA
ATOM     25  H   UNL     1     -38.755  14.139   3.395  1.00  0.00     0.293 HD
ENDBRANCH   6  24
BRANCH   8  26
ATOM     26  O   UNL     1     -37.319   9.128   1.101  1.00  0.00    -0.508 OA
ATOM     27  H   UNL     1     -36.952   8.309   1.571  1.00  0.00     0.293 HD
ENDBRANCH   8  26
TORSDOF 6
ENDMDL
MODEL 9
REMARK VINA RESULT:    -6.800      2.896      8.477
REMARK INTER + INTRA:          -8.055
REMARK INTER:                  -7.731
REMARK INTRA:                  -0.325
REMARK UNBOUND:                 0.137
REMARK SMILES O=c1c(O)c(-c2ccc(O)c(O)c2)oc2cc(O)cc(O)c12
REMARK SMILES IDX 5 1 3 2 2 3 1 4 22 5 20 6 19 7 17 8 16 9 15 10 14 11 6 12
REMARK SMILES IDX 7 13 8 14 9 15 13 16 11 17 10 18 12 20 4 22 21 24 18 26
REMARK H PARENT 10 19 12 21 4 23 21 25 18 27
REMARK Flexibility Score: inf
ROOT
ATOM      1  C   UNL     1     -36.361  13.719   4.754  1.00  0.00     0.180 A 
ATOM      2  C   UNL     1     -34.992  14.001   4.903  1.00  0.00     0.208 A 
ATOM      3  C   UNL     1     -34.234  14.318   3.764  1.00  0.00     0.238 A 
ATOM      4  O   UNL     1     -33.023  14.623   3.911  1.00  0.00    -0.285 OA
ATOM      5  C   UNL     1     -34.851  14.334   2.490  1.00  0.00     0.111 A 
ATOM      6  C   UNL     1     -34.171  14.603   1.264  1.00  0.00     0.134 A 
ATOM      7  C   UNL     1     -34.905  14.720   0.077  1.00  0.00     0.093 A 
ATOM      8  C   UNL     1     -36.287  14.514   0.063  1.00  0.00     0.123 A 
ATOM      9  C   UNL     1     -36.951  14.192   1.244  1.00  0.00     0.094 A 
ATOM     10  C   UNL     1     -36.251  14.104   2.449  1.00  0.00     0.146 A 
ATOM     11  O   UNL     1     -36.924  13.806   3.554  1.00  0.00    -0.452 OA
ENDROOT
BRANCH   1  12
ATOM     12  C   UNL     1     -37.219  13.352   5.903  1.00  0.00     0.025 A 
ATOM     13  C   UNL     1     -38.036  14.326   6.495  1.00  0.00     0.016 A 
ATOM     14  C   UNL     1     -38.867  13.996   7.566  1.00  0.00     0.051 A 
ATOM     15  C   UNL     1     -38.912  12.687   8.058  1.00  0.00     0.157 A 
ATOM     16  C   UNL     1     -37.278  12.031   6.380  1.00  0.00     0.062 A 
ATOM     17  C   UNL     1     -38.112  11.690   7.454  1.00  0.00     0.158 A 
BRANCH  15  18
ATOM     18  O   UNL     1     -39.759  12.424   9.137  1.00  0.00    -0.504 OA
ATOM     19  H   UNL     1     -39.744  11.568   9.672  1.00  0.00     0.293 HD
ENDBRANCH  15  18
BRANCH  17  20
ATOM     20  O   UNL     1     -38.118  10.359   7.877  1.00  0.00    -0.504 OA
ATOM     21  H   UNL     1     -38.273   9.572   7.264  1.00  0.00     0.293 HD
ENDBRANCH  17  20
ENDBRANCH   1  12
BRANCH   2  22
ATOM     22  O   UNL     1     -34.409  14.002   6.173  1.00  0.00    -0.502 OA
ATOM     23  H   UNL     1     -34.709  13.376   6.910  1.00  0.00     0.293 HD
ENDBRANCH   2  22
BRANCH   6  24
ATOM     24  O   UNL     1     -32.782  14.734   1.154  1.00  0.00    -0.507 OA
ATOM     25  H   UNL     1     -32.278  14.783   0.282  1.00  0.00     0.293 HD
ENDBRANCH   6  24
BRANCH   8  26
ATOM     26  O   UNL     1     -37.008  14.617  -1.125  1.00  0.00    -0.508 OA
ATOM     27  H   UNL     1     -38.019  14.677  -1.128  1.00  0.00     0.293 HD
ENDBRANCH   8  26
TORSDOF 6
ENDMDL
