MODEL 1
REMARK VINA RESULT:    -4.082      0.000      0.000
REMARK INTER + INTRA:          -9.336
REMARK INTER:                  -7.423
REMARK INTRA:                  -1.913
REMARK UNBOUND:                -1.913
REMARK SMILES CCCCCCCCCCCCCC[C@H](C)C(=O)[O-]
REMARK SMILES IDX 9 1 10 2 11 3 12 4 13 5 14 6 15 7 16 8 17 9 18 10 19 11 8 12
REMARK SMILES IDX 7 13 6 14 5 15 4 16 3 17 2 18 1 19
REMARK H PARENT
REMARK Flexibility Score: inf
ROOT
ATOM      1  C   UNL     1      26.160  32.197  37.125  1.00  0.00     0.000 C 
ENDROOT
BRANCH   1   2
ATOM      2  C   UNL     1      27.563  31.846  36.605  1.00  0.00     0.000 C 
BRANCH   2   3
ATOM      3  C   UNL     1      28.612  32.906  36.971  1.00  0.00     0.000 C 
BRANCH   3   4
ATOM      4  C   UNL     1      29.429  33.318  35.736  1.00  0.00     0.000 C 
BRANCH   4   5
ATOM      5  C   UNL     1      29.265  32.341  34.560  1.00  0.00     0.001 C 
BRANCH   5   6
ATOM      6  C   UNL     1      30.361  31.260  34.530  1.00  0.00     0.009 C 
BRANCH   6   7
ATOM      7  C   UNL     1      29.827  29.883  34.079  1.00  0.00     0.032 C 
ATOM      8  C   UNL     1      30.251  28.751  35.026  1.00  0.00     0.014 C 
BRANCH   7   9
ATOM      9  C   UNL     1      30.303  29.580  32.684  1.00  0.00     0.044 C 
ATOM     10  O   UNL     1      30.188  28.419  32.207  1.00  0.00    -0.550 OA
ATOM     11  O   UNL     1      30.873  30.584  31.912  1.00  0.00    -0.550 OA
ENDBRANCH   7   9
ENDBRANCH   6   7
ENDBRANCH   5   6
ENDBRANCH   4   5
ENDBRANCH   3   4
ENDBRANCH   2   3
ENDBRANCH   1   2
BRANCH   1  12
ATOM     12  C   UNL     1      25.697  33.595  36.687  1.00  0.00     0.000 C 
BRANCH  12  13
ATOM     13  C   UNL     1      24.838  33.515  35.416  1.00  0.00    -0.000 C 
BRANCH  13  14
ATOM     14  C   UNL     1      25.645  33.749  34.127  1.00  0.00    -0.000 C 
BRANCH  14  15
ATOM     15  C   UNL     1      26.614  34.945  34.166  1.00  0.00    -0.000 C 
BRANCH  15  16
ATOM     16  C   UNL     1      26.842  35.578  32.782  1.00  0.00    -0.000 C 
BRANCH  16  17
ATOM     17  C   UNL     1      27.972  34.895  31.990  1.00  0.00    -0.000 C 
BRANCH  17  18
ATOM     18  C   UNL     1      27.513  34.089  30.762  1.00  0.00    -0.003 C 
ATOM     19  C   UNL     1      26.034  34.283  30.434  1.00  0.00     0.004 C 
ENDBRANCH  17  18
ENDBRANCH  16  17
ENDBRANCH  15  16
ENDBRANCH  14  15
ENDBRANCH  13  14
ENDBRANCH  12  13
ENDBRANCH   1  12
TORSDOF 14
ENDMDL
MODEL 2
REMARK VINA RESULT:    -3.813      1.983      5.653
REMARK INTER + INTRA:          -8.847
REMARK INTER:                  -6.953
REMARK INTRA:                  -1.894
REMARK UNBOUND:                -1.913
REMARK SMILES CCCCCCCCCCCCCC[C@H](C)C(=O)[O-]
REMARK SMILES IDX 9 1 10 2 11 3 12 4 13 5 14 6 15 7 16 8 17 9 18 10 19 11 8 12
REMARK SMILES IDX 7 13 6 14 5 15 4 16 3 17 2 18 1 19
REMARK H PARENT
REMARK Flexibility Score: inf
ROOT
ATOM      1  C   UNL     1      26.603  31.652  36.449  1.00  0.00     0.000 C 
ENDROOT
BRANCH   1   2
ATOM      2  C   UNL     1      25.699  32.778  36.976  1.00  0.00     0.000 C 
BRANCH   2   3
ATOM      3  C   UNL     1      24.746  33.324  35.902  1.00  0.00     0.000 C 
BRANCH   3   4
ATOM      4  C   UNL     1      25.458  33.438  34.544  1.00  0.00     0.000 C 
BRANCH   4   5
ATOM      5  C   UNL     1      26.470  34.594  34.497  1.00  0.00     0.001 C 
BRANCH   5   6
ATOM      6  C   UNL     1      27.649  34.310  33.548  1.00  0.00     0.009 C 
BRANCH   6   7
ATOM      7  C   UNL     1      27.618  35.190  32.279  1.00  0.00     0.032 C 
ATOM      8  C   UNL     1      26.790  36.468  32.474  1.00  0.00     0.014 C 
BRANCH   7   9
ATOM      9  C   UNL     1      27.068  34.403  31.121  1.00  0.00     0.044 C 
ATOM     10  O   UNL     1      25.831  34.393  30.884  1.00  0.00    -0.550 OA
ATOM     11  O   UNL     1      27.927  33.680  30.304  1.00  0.00    -0.550 OA
ENDBRANCH   7   9
ENDBRANCH   6   7
ENDBRANCH   5   6
ENDBRANCH   4   5
ENDBRANCH   3   4
ENDBRANCH   2   3
ENDBRANCH   1   2
BRANCH   1  12
ATOM     12  C   UNL     1      27.983  31.633  37.125  1.00  0.00     0.000 C 
BRANCH  12  13
ATOM     13  C   UNL     1      28.794  32.882  36.749  1.00  0.00    -0.000 C 
BRANCH  13  14
ATOM     14  C   UNL     1      30.030  32.561  35.890  1.00  0.00    -0.000 C 
BRANCH  14  15
ATOM     15  C   UNL     1      29.750  31.751  34.611  1.00  0.00    -0.000 C 
BRANCH  15  16
ATOM     16  C   UNL     1      30.694  30.548  34.445  1.00  0.00    -0.000 C 
BRANCH  16  17
ATOM     17  C   UNL     1      29.944  29.207  34.335  1.00  0.00    -0.000 C 
BRANCH  17  18
ATOM     18  C   UNL     1      30.236  28.202  35.464  1.00  0.00    -0.003 C 
ATOM     19  C   UNL     1      30.537  28.872  36.803  1.00  0.00     0.004 C 
ENDBRANCH  17  18
ENDBRANCH  16  17
ENDBRANCH  15  16
ENDBRANCH  14  15
ENDBRANCH  13  14
ENDBRANCH  12  13
ENDBRANCH   1  12
TORSDOF 14
ENDMDL
MODEL 3
REMARK VINA RESULT:    -3.780      0.968      2.001
REMARK INTER + INTRA:          -8.786
REMARK INTER:                  -6.835
REMARK INTRA:                  -1.952
REMARK UNBOUND:                -1.913
REMARK SMILES CCCCCCCCCCCCCC[C@H](C)C(=O)[O-]
REMARK SMILES IDX 9 1 10 2 11 3 12 4 13 5 14 6 15 7 16 8 17 9 18 10 19 11 8 12
REMARK SMILES IDX 7 13 6 14 5 15 4 16 3 17 2 18 1 19
REMARK H PARENT
REMARK Flexibility Score: inf
ROOT
ATOM      1  C   UNL     1      24.983  32.997  35.443  1.00  0.00     0.000 C 
ENDROOT
BRANCH   1   2
ATOM      2  C   UNL     1      25.682  33.050  36.811  1.00  0.00     0.000 C 
BRANCH   2   3
ATOM      3  C   UNL     1      26.790  31.995  36.951  1.00  0.00     0.000 C 
BRANCH   3   4
ATOM      4  C   UNL     1      28.163  32.663  37.125  1.00  0.00     0.000 C 
BRANCH   4   5
ATOM      5  C   UNL     1      29.118  32.374  35.955  1.00  0.00     0.001 C 
BRANCH   5   6
ATOM      6  C   UNL     1      28.645  31.199  35.080  1.00  0.00     0.009 C 
BRANCH   6   7
ATOM      7  C   UNL     1      29.656  30.031  35.054  1.00  0.00     0.032 C 
ATOM      8  C   UNL     1      30.829  30.251  36.020  1.00  0.00     0.014 C 
BRANCH   7   9
ATOM      9  C   UNL     1      30.180  29.837  33.657  1.00  0.00     0.044 C 
ATOM     10  O   UNL     1      30.377  30.828  32.904  1.00  0.00    -0.550 OA
ATOM     11  O   UNL     1      30.451  28.557  33.190  1.00  0.00    -0.550 OA
ENDBRANCH   7   9
ENDBRANCH   6   7
ENDBRANCH   5   6
ENDBRANCH   4   5
ENDBRANCH   3   4
ENDBRANCH   2   3
ENDBRANCH   1   2
BRANCH   1  12
ATOM     12  C   UNL     1      25.896  33.451  34.293  1.00  0.00     0.000 C 
BRANCH  12  13
ATOM     13  C   UNL     1      26.208  34.951  34.400  1.00  0.00    -0.000 C 
BRANCH  13  14
ATOM     14  C   UNL     1      27.166  35.448  33.302  1.00  0.00    -0.000 C 
BRANCH  14  15
ATOM     15  C   UNL     1      28.368  34.530  33.015  1.00  0.00    -0.000 C 
BRANCH  15  16
ATOM     16  C   UNL     1      28.157  33.635  31.782  1.00  0.00    -0.000 C 
BRANCH  16  17
ATOM     17  C   UNL     1      27.238  34.276  30.726  1.00  0.00    -0.000 C 
BRANCH  17  18
ATOM     18  C   UNL     1      25.931  33.513  30.448  1.00  0.00    -0.003 C 
ATOM     19  C   UNL     1      24.889  34.354  29.712  1.00  0.00     0.004 C 
ENDBRANCH  17  18
ENDBRANCH  16  17
ENDBRANCH  15  16
ENDBRANCH  14  15
ENDBRANCH  13  14
ENDBRANCH  12  13
ENDBRANCH   1  12
TORSDOF 14
ENDMDL
MODEL 4
REMARK VINA RESULT:    -3.703      2.336      5.198
REMARK INTER + INTRA:          -8.646
REMARK INTER:                  -6.632
REMARK INTRA:                  -2.013
REMARK UNBOUND:                -1.913
REMARK SMILES CCCCCCCCCCCCCC[C@H](C)C(=O)[O-]
REMARK SMILES IDX 9 1 10 2 11 3 12 4 13 5 14 6 15 7 16 8 17 9 18 10 19 11 8 12
REMARK SMILES IDX 7 13 6 14 5 15 4 16 3 17 2 18 1 19
REMARK H PARENT
REMARK Flexibility Score: inf
ROOT
ATOM      1  C   UNL     1      26.470  32.049  35.743  1.00  0.00     0.000 C 
ENDROOT
BRANCH   1   2
ATOM      2  C   UNL     1      25.289  32.988  36.036  1.00  0.00     0.000 C 
BRANCH   2   3
ATOM      3  C   UNL     1      25.490  34.393  35.448  1.00  0.00     0.000 C 
BRANCH   3   4
ATOM      4  C   UNL     1      26.544  34.373  34.331  1.00  0.00     0.000 C 
BRANCH   4   5
ATOM      5  C   UNL     1      26.694  35.733  33.628  1.00  0.00     0.001 C 
BRANCH   5   6
ATOM      6  C   UNL     1      26.819  35.599  32.099  1.00  0.00     0.009 C 
BRANCH   6   7
ATOM      7  C   UNL     1      26.868  34.127  31.633  1.00  0.00     0.032 C 
ATOM      8  C   UNL     1      28.263  33.715  31.140  1.00  0.00     0.014 C 
BRANCH   7   9
ATOM      9  C   UNL     1      25.858  33.900  30.542  1.00  0.00     0.044 C 
ATOM     10  O   UNL     1      25.747  32.769  29.998  1.00  0.00    -0.550 OA
ATOM     11  O   UNL     1      25.038  34.942  30.128  1.00  0.00    -0.550 OA
ENDBRANCH   7   9
ENDBRANCH   6   7
ENDBRANCH   5   6
ENDBRANCH   4   5
ENDBRANCH   3   4
ENDBRANCH   2   3
ENDBRANCH   1   2
BRANCH   1  12
ATOM     12  C   UNL     1      27.054  31.415  37.017  1.00  0.00     0.000 C 
BRANCH  12  13
ATOM     13  C   UNL     1      28.561  31.692  37.125  1.00  0.00    -0.000 C 
BRANCH  13  14
ATOM     14  C   UNL     1      28.932  33.147  36.784  1.00  0.00    -0.000 C 
BRANCH  14  15
ATOM     15  C   UNL     1      29.954  33.314  35.644  1.00  0.00    -0.000 C 
BRANCH  15  16
ATOM     16  C   UNL     1      30.560  31.978  35.182  1.00  0.00    -0.000 C 
BRANCH  16  17
ATOM     17  C   UNL     1      30.080  31.555  33.781  1.00  0.00    -0.000 C 
BRANCH  17  18
ATOM     18  C   UNL     1      30.109  30.040  33.511  1.00  0.00    -0.003 C 
ATOM     19  C   UNL     1      29.976  29.201  34.781  1.00  0.00     0.004 C 
ENDBRANCH  17  18
ENDBRANCH  16  17
ENDBRANCH  15  16
ENDBRANCH  14  15
ENDBRANCH  13  14
ENDBRANCH  12  13
ENDBRANCH   1  12
TORSDOF 14
ENDMDL
MODEL 5
REMARK VINA RESULT:    -3.518      1.314      1.956
REMARK INTER + INTRA:          -8.310
REMARK INTER:                  -6.421
REMARK INTRA:                  -1.889
REMARK UNBOUND:                -1.913
REMARK SMILES CCCCCCCCCCCCCC[C@H](C)C(=O)[O-]
REMARK SMILES IDX 9 1 10 2 11 3 12 4 13 5 14 6 15 7 16 8 17 9 18 10 19 11 8 12
REMARK SMILES IDX 7 13 6 14 5 15 4 16 3 17 2 18 1 19
REMARK H PARENT
REMARK Flexibility Score: inf
ROOT
ATOM      1  C   UNL     1      27.026  31.757  36.228  1.00  0.00     0.000 C 
ENDROOT
BRANCH   1   2
ATOM      2  C   UNL     1      28.453  31.858  36.790  1.00  0.00     0.000 C 
BRANCH   2   3
ATOM      3  C   UNL     1      29.370  32.735  35.924  1.00  0.00     0.000 C 
BRANCH   3   4
ATOM      4  C   UNL     1      29.593  32.098  34.543  1.00  0.00     0.000 C 
BRANCH   4   5
ATOM      5  C   UNL     1      30.636  30.968  34.570  1.00  0.00     0.001 C 
BRANCH   5   6
ATOM      6  C   UNL     1      30.056  29.616  34.113  1.00  0.00     0.009 C 
BRANCH   6   7
ATOM      7  C   UNL     1      29.929  28.601  35.270  1.00  0.00     0.032 C 
ATOM      8  C   UNL     1      30.840  28.949  36.456  1.00  0.00     0.014 C 
BRANCH   7   9
ATOM      9  C   UNL     1      30.249  27.217  34.776  1.00  0.00     0.044 C 
ATOM     10  O   UNL     1      30.623  27.032  33.587  1.00  0.00    -0.550 OA
ATOM     11  O   UNL     1      30.133  26.130  35.634  1.00  0.00    -0.550 OA
ENDBRANCH   7   9
ENDBRANCH   6   7
ENDBRANCH   5   6
ENDBRANCH   4   5
ENDBRANCH   3   4
ENDBRANCH   2   3
ENDBRANCH   1   2
BRANCH   1  12
ATOM     12  C   UNL     1      26.150  32.960  36.613  1.00  0.00     0.000 C 
BRANCH  12  13
ATOM     13  C   UNL     1      25.134  33.275  35.506  1.00  0.00    -0.000 C 
BRANCH  13  14
ATOM     14  C   UNL     1      25.794  33.530  34.138  1.00  0.00    -0.000 C 
BRANCH  14  15
ATOM     15  C   UNL     1      26.523  34.879  34.001  1.00  0.00    -0.000 C 
BRANCH  15  16
ATOM     16  C   UNL     1      27.853  34.767  33.236  1.00  0.00    -0.000 C 
BRANCH  16  17
ATOM     17  C   UNL     1      27.714  34.011  31.902  1.00  0.00    -0.000 C 
BRANCH  17  18
ATOM     18  C   UNL     1      26.756  34.653  30.883  1.00  0.00    -0.003 C 
ATOM     19  C   UNL     1      25.702  33.682  30.354  1.00  0.00     0.004 C 
ENDBRANCH  17  18
ENDBRANCH  16  17
ENDBRANCH  15  16
ENDBRANCH  14  15
ENDBRANCH  13  14
ENDBRANCH  12  13
ENDBRANCH   1  12
TORSDOF 14
ENDMDL
MODEL 6
REMARK VINA RESULT:    -3.432      1.281      2.127
REMARK INTER + INTRA:          -8.153
REMARK INTER:                  -6.729
REMARK INTRA:                  -1.424
REMARK UNBOUND:                -1.913
REMARK SMILES CCCCCCCCCCCCCC[C@H](C)C(=O)[O-]
REMARK SMILES IDX 9 1 10 2 11 3 12 4 13 5 14 6 15 7 16 8 17 9 18 10 19 11 8 12
REMARK SMILES IDX 7 13 6 14 5 15 4 16 3 17 2 18 1 19
REMARK H PARENT
REMARK Flexibility Score: inf
ROOT
ATOM      1  C   UNL     1      29.243  32.440  34.765  1.00  0.00     0.000 C 
ENDROOT
BRANCH   1   2
ATOM      2  C   UNL     1      30.520  32.394  35.619  1.00  0.00     0.000 C 
BRANCH   2   3
ATOM      3  C   UNL     1      30.410  31.413  36.796  1.00  0.00     0.000 C 
BRANCH   3   4
ATOM      4  C   UNL     1      29.583  30.178  36.405  1.00  0.00     0.000 C 
BRANCH   4   5
ATOM      5  C   UNL     1      30.457  28.973  36.020  1.00  0.00     0.001 C 
BRANCH   5   6
ATOM      6  C   UNL     1      31.123  29.140  34.642  1.00  0.00     0.009 C 
BRANCH   6   7
ATOM      7  C   UNL     1      30.442  28.293  33.544  1.00  0.00     0.032 C 
ATOM      8  C   UNL     1      31.075  26.902  33.400  1.00  0.00     0.014 C 
BRANCH   7   9
ATOM      9  C   UNL     1      30.502  29.016  32.226  1.00  0.00     0.044 C 
ATOM     10  O   UNL     1      30.458  28.376  31.143  1.00  0.00    -0.550 OA
ATOM     11  O   UNL     1      30.608  30.401  32.199  1.00  0.00    -0.550 OA
ENDBRANCH   7   9
ENDBRANCH   6   7
ENDBRANCH   5   6
ENDBRANCH   4   5
ENDBRANCH   3   4
ENDBRANCH   2   3
ENDBRANCH   1   2
BRANCH   1  12
ATOM     12  C   UNL     1      28.156  33.342  35.371  1.00  0.00     0.000 C 
BRANCH  12  13
ATOM     13  C   UNL     1      26.759  32.898  34.915  1.00  0.00    -0.000 C 
BRANCH  13  14
ATOM     14  C   UNL     1      25.943  34.037  34.278  1.00  0.00    -0.000 C 
BRANCH  14  15
ATOM     15  C   UNL     1      26.727  35.333  34.002  1.00  0.00    -0.000 C 
BRANCH  15  16
ATOM     16  C   UNL     1      26.778  35.697  32.508  1.00  0.00    -0.000 C 
BRANCH  16  17
ATOM     17  C   UNL     1      27.760  34.819  31.711  1.00  0.00    -0.000 C 
BRANCH  17  18
ATOM     18  C   UNL     1      27.125  33.986  30.583  1.00  0.00    -0.003 C 
ATOM     19  C   UNL     1      25.658  34.334  30.334  1.00  0.00     0.004 C 
ENDBRANCH  17  18
ENDBRANCH  16  17
ENDBRANCH  15  16
ENDBRANCH  14  15
ENDBRANCH  13  14
ENDBRANCH  12  13
ENDBRANCH   1  12
TORSDOF 14
ENDMDL
MODEL 7
REMARK VINA RESULT:    -3.423      1.733      2.136
REMARK INTER + INTRA:          -8.138
REMARK INTER:                  -6.764
REMARK INTRA:                  -1.374
REMARK UNBOUND:                -1.913
REMARK SMILES CCCCCCCCCCCCCC[C@H](C)C(=O)[O-]
REMARK SMILES IDX 9 1 10 2 11 3 12 4 13 5 14 6 15 7 16 8 17 9 18 10 19 11 8 12
REMARK SMILES IDX 7 13 6 14 5 15 4 16 3 17 2 18 1 19
REMARK H PARENT
REMARK Flexibility Score: inf
ROOT
ATOM      1  C   UNL     1      26.270  31.953  36.796  1.00  0.00     0.000 C 
ENDROOT
BRANCH   1   2
ATOM      2  C   UNL     1      27.771  31.906  37.124  1.00  0.00     0.000 C 
BRANCH   2   3
ATOM      3  C   UNL     1      28.561  31.010  36.159  1.00  0.00     0.000 C 
BRANCH   3   4
ATOM      4  C   UNL     1      29.621  31.824  35.400  1.00  0.00     0.000 C 
BRANCH   4   5
ATOM      5  C   UNL     1      30.672  30.938  34.711  1.00  0.00     0.001 C 
BRANCH   5   6
ATOM      6  C   UNL     1      31.090  29.733  35.574  1.00  0.00     0.009 C 
BRANCH   6   7
ATOM      7  C   UNL     1      30.968  28.390  34.821  1.00  0.00     0.032 C 
ATOM      8  C   UNL     1      30.282  28.544  33.456  1.00  0.00     0.014 C 
BRANCH   7   9
ATOM      9  C   UNL     1      30.209  27.398  35.660  1.00  0.00     0.044 C 
ATOM     10  O   UNL     1      29.894  26.272  35.191  1.00  0.00    -0.550 OA
ATOM     11  O   UNL     1      29.852  27.721  36.963  1.00  0.00    -0.550 OA
ENDBRANCH   7   9
ENDBRANCH   6   7
ENDBRANCH   5   6
ENDBRANCH   4   5
ENDBRANCH   3   4
ENDBRANCH   2   3
ENDBRANCH   1   2
BRANCH   1  12
ATOM     12  C   UNL     1      25.672  33.360  36.955  1.00  0.00     0.000 C 
BRANCH  12  13
ATOM     13  C   UNL     1      25.020  33.829  35.646  1.00  0.00    -0.000 C 
BRANCH  13  14
ATOM     14  C   UNL     1      25.646  33.183  34.396  1.00  0.00    -0.000 C 
BRANCH  14  15
ATOM     15  C   UNL     1      26.978  33.801  33.933  1.00  0.00    -0.000 C 
BRANCH  15  16
ATOM     16  C   UNL     1      26.792  35.125  33.173  1.00  0.00    -0.000 C 
BRANCH  16  17
ATOM     17  C   UNL     1      27.577  35.171  31.849  1.00  0.00    -0.000 C 
BRANCH  17  18
ATOM     18  C   UNL     1      27.141  34.136  30.795  1.00  0.00    -0.003 C 
ATOM     19  C   UNL     1      25.677  34.278  30.384  1.00  0.00     0.004 C 
ENDBRANCH  17  18
ENDBRANCH  16  17
ENDBRANCH  15  16
ENDBRANCH  14  15
ENDBRANCH  13  14
ENDBRANCH  12  13
ENDBRANCH   1  12
TORSDOF 14
ENDMDL
MODEL 8
REMARK VINA RESULT:    -3.322      2.620      6.298
REMARK INTER + INTRA:          -7.953
REMARK INTER:                  -6.879
REMARK INTRA:                  -1.074
REMARK UNBOUND:                -1.913
REMARK SMILES CCCCCCCCCCCCCC[C@H](C)C(=O)[O-]
REMARK SMILES IDX 9 1 10 2 11 3 12 4 13 5 14 6 15 7 16 8 17 9 18 10 19 11 8 12
REMARK SMILES IDX 7 13 6 14 5 15 4 16 3 17 2 18 1 19
REMARK H PARENT
REMARK Flexibility Score: inf
ROOT
ATOM      1  C   UNL     1      26.198  32.534  37.122  1.00  0.00     0.000 C 
ENDROOT
BRANCH   1   2
ATOM      2  C   UNL     1      25.606  32.740  35.719  1.00  0.00     0.000 C 
BRANCH   2   3
ATOM      3  C   UNL     1      25.673  34.203  35.257  1.00  0.00     0.000 C 
BRANCH   3   4
ATOM      4  C   UNL     1      26.923  34.450  34.397  1.00  0.00     0.000 C 
BRANCH   4   5
ATOM      5  C   UNL     1      26.844  35.757  33.592  1.00  0.00     0.001 C 
BRANCH   5   6
ATOM      6  C   UNL     1      27.175  35.555  32.101  1.00  0.00     0.009 C 
BRANCH   6   7
ATOM      7  C   UNL     1      27.183  34.066  31.690  1.00  0.00     0.032 C 
ATOM      8  C   UNL     1      28.284  33.746  30.669  1.00  0.00     0.014 C 
BRANCH   7   9
ATOM      9  C   UNL     1      25.843  33.682  31.126  1.00  0.00     0.044 C 
ATOM     10  O   UNL     1      25.095  32.877  31.743  1.00  0.00    -0.550 OA
ATOM     11  O   UNL     1      25.421  34.217  29.915  1.00  0.00    -0.550 OA
ENDBRANCH   7   9
ENDBRANCH   6   7
ENDBRANCH   5   6
ENDBRANCH   4   5
ENDBRANCH   3   4
ENDBRANCH   2   3
ENDBRANCH   1   2
BRANCH   1  12
ATOM     12  C   UNL     1      27.587  31.878  37.089  1.00  0.00     0.000 C 
BRANCH  12  13
ATOM     13  C   UNL     1      27.797  31.104  35.780  1.00  0.00    -0.000 C 
BRANCH  13  14
ATOM     14  C   UNL     1      29.110  30.301  35.758  1.00  0.00    -0.000 C 
BRANCH  14  15
ATOM     15  C   UNL     1      29.553  29.728  37.116  1.00  0.00    -0.000 C 
BRANCH  15  16
ATOM     16  C   UNL     1      30.665  28.672  36.988  1.00  0.00    -0.000 C 
BRANCH  16  17
ATOM     17  C   UNL     1      30.133  27.229  37.080  1.00  0.00    -0.000 C 
BRANCH  17  18
ATOM     18  C   UNL     1      30.720  26.251  36.046  1.00  0.00    -0.003 C 
ATOM     19  C   UNL     1      29.833  26.077  34.814  1.00  0.00     0.004 C 
ENDBRANCH  17  18
ENDBRANCH  16  17
ENDBRANCH  15  16
ENDBRANCH  14  15
ENDBRANCH  13  14
ENDBRANCH  12  13
ENDBRANCH   1  12
TORSDOF 14
ENDMDL
MODEL 9
REMARK VINA RESULT:    -3.309      2.054      5.517
REMARK INTER + INTRA:          -7.930
REMARK INTER:                  -6.312
REMARK INTRA:                  -1.618
REMARK UNBOUND:                -1.913
REMARK SMILES CCCCCCCCCCCCCC[C@H](C)C(=O)[O-]
REMARK SMILES IDX 9 1 10 2 11 3 12 4 13 5 14 6 15 7 16 8 17 9 18 10 19 11 8 12
REMARK SMILES IDX 7 13 6 14 5 15 4 16 3 17 2 18 1 19
REMARK H PARENT
REMARK Flexibility Score: inf
ROOT
ATOM      1  C   UNL     1      27.419  32.726  36.971  1.00  0.00     0.000 C 
ENDROOT
BRANCH   1   2
ATOM      2  C   UNL     1      26.423  33.887  37.125  1.00  0.00     0.000 C 
BRANCH   2   3
ATOM      3  C   UNL     1      25.545  34.082  35.880  1.00  0.00     0.000 C 
BRANCH   3   4
ATOM      4  C   UNL     1      25.650  32.872  34.940  1.00  0.00     0.000 C 
BRANCH   4   5
ATOM      5  C   UNL     1      26.108  33.255  33.523  1.00  0.00     0.001 C 
BRANCH   5   6
ATOM      6  C   UNL     1      27.455  34.002  33.517  1.00  0.00     0.009 C 
BRANCH   6   7
ATOM      7  C   UNL     1      27.544  35.059  32.395  1.00  0.00     0.032 C 
ATOM      8  C   UNL     1      26.628  36.264  32.651  1.00  0.00     0.014 C 
BRANCH   7   9
ATOM      9  C   UNL     1      27.199  34.433  31.071  1.00  0.00     0.044 C 
ATOM     10  O   UNL     1      26.107  34.700  30.502  1.00  0.00    -0.550 OA
ATOM     11  O   UNL     1      28.089  33.554  30.467  1.00  0.00    -0.550 OA
ENDBRANCH   7   9
ENDBRANCH   6   7
ENDBRANCH   5   6
ENDBRANCH   4   5
ENDBRANCH   3   4
ENDBRANCH   2   3
ENDBRANCH   1   2
BRANCH   1  12
ATOM     12  C   UNL     1      28.821  33.199  36.556  1.00  0.00     0.000 C 
BRANCH  12  13
ATOM     13  C   UNL     1      29.686  32.015  36.098  1.00  0.00    -0.000 C 
BRANCH  13  14
ATOM     14  C   UNL     1      28.902  30.692  36.021  1.00  0.00    -0.000 C 
BRANCH  14  15
ATOM     15  C   UNL     1      29.676  29.443  36.480  1.00  0.00    -0.000 C 
BRANCH  15  16
ATOM     16  C   UNL     1      30.032  28.498  35.319  1.00  0.00    -0.000 C 
BRANCH  16  17
ATOM     17  C   UNL     1      30.987  29.140  34.295  1.00  0.00    -0.000 C 
BRANCH  17  18
ATOM     18  C   UNL     1      30.370  29.421  32.913  1.00  0.00    -0.003 C 
ATOM     19  C   UNL     1      30.705  30.812  32.378  1.00  0.00     0.004 C 
ENDBRANCH  17  18
ENDBRANCH  16  17
ENDBRANCH  15  16
ENDBRANCH  14  15
ENDBRANCH  13  14
ENDBRANCH  12  13
ENDBRANCH   1  12
TORSDOF 14
ENDMDL
