MODEL 1
REMARK VINA RESULT:    -3.623      0.000      0.000
REMARK INTER + INTRA:          -3.959
REMARK INTER:                  -3.941
REMARK INTRA:                  -0.018
REMARK UNBOUND:                -0.018
REMARK SMILES OCc1ccccc1
REMARK SMILES IDX 2 1 3 2 6 3 5 4 7 5 4 6 8 7 1 8
REMARK H PARENT 1 9
REMARK Flexibility Score: inf
ROOT
ATOM      1  C   UNL     1      20.114  27.010  43.302  1.00  0.00     0.191 C 
ENDROOT
BRANCH   1   2
ATOM      2  C   UNL     1      18.758  27.658  43.355  1.00  0.00    -0.023 A 
ATOM      3  C   UNL     1      16.241  28.900  43.384  1.00  0.00     0.000 A 
ATOM      4  C   UNL     1      16.376  27.605  42.874  1.00  0.00     0.000 A 
ATOM      5  C   UNL     1      17.362  29.580  43.870  1.00  0.00     0.000 A 
ATOM      6  C   UNL     1      17.631  26.987  42.854  1.00  0.00     0.006 A 
ATOM      7  C   UNL     1      18.618  28.965  43.852  1.00  0.00     0.006 A 
ENDBRANCH   1   2
BRANCH   1   8
ATOM      8  O   UNL     1      21.115  27.990  43.305  1.00  0.00    -0.392 OA
ATOM      9  H   UNL     1      20.653  28.868  43.268  1.00  0.00     0.211 HD
ENDBRANCH   1   8
TORSDOF 2
ENDMDL
MODEL 2
REMARK VINA RESULT:    -3.613      0.068      1.715
REMARK INTER + INTRA:          -3.948
REMARK INTER:                  -3.931
REMARK INTRA:                  -0.016
REMARK UNBOUND:                -0.018
REMARK SMILES OCc1ccccc1
REMARK SMILES IDX 2 1 3 2 6 3 5 4 7 5 4 6 8 7 1 8
REMARK H PARENT 1 9
REMARK Flexibility Score: inf
ROOT
ATOM      1  C   UNL     1      20.132  26.983  43.343  1.00  0.00     0.191 C 
ENDROOT
BRANCH   1   2
ATOM      2  C   UNL     1      18.779  27.641  43.319  1.00  0.00    -0.023 A 
ATOM      3  C   UNL     1      16.241  28.837  43.343  1.00  0.00     0.000 A 
ATOM      4  C   UNL     1      17.345  29.531  43.847  1.00  0.00     0.000 A 
ATOM      5  C   UNL     1      16.399  27.544  42.837  1.00  0.00     0.000 A 
ATOM      6  C   UNL     1      18.611  28.934  43.841  1.00  0.00     0.006 A 
ATOM      7  C   UNL     1      17.662  26.944  42.828  1.00  0.00     0.006 A 
ENDBRANCH   1   2
BRANCH   1   8
ATOM      8  O   UNL     1      21.138  27.948  43.203  1.00  0.00    -0.392 OA
ATOM      9  H   UNL     1      21.977  27.456  43.004  1.00  0.00     0.211 HD
ENDBRANCH   1   8
TORSDOF 2
ENDMDL
MODEL 3
REMARK VINA RESULT:    -3.481      1.841      3.584
REMARK INTER + INTRA:          -3.804
REMARK INTER:                  -3.785
REMARK INTRA:                  -0.019
REMARK UNBOUND:                -0.018
REMARK SMILES OCc1ccccc1
REMARK SMILES IDX 2 1 3 2 6 3 5 4 7 5 4 6 8 7 1 8
REMARK H PARENT 1 9
REMARK Flexibility Score: inf
ROOT
ATOM      1  C   UNL     1      16.895  29.088  43.627  1.00  0.00     0.191 C 
ENDROOT
BRANCH   1   2
ATOM      2  C   UNL     1      18.060  28.200  43.285  1.00  0.00    -0.023 A 
ATOM      3  C   UNL     1      20.253  26.593  42.591  1.00  0.00     0.000 A 
ATOM      4  C   UNL     1      20.390  27.575  43.577  1.00  0.00     0.000 A 
ATOM      5  C   UNL     1      19.027  26.419  41.944  1.00  0.00     0.000 A 
ATOM      6  C   UNL     1      19.299  28.381  43.921  1.00  0.00     0.006 A 
ATOM      7  C   UNL     1      17.934  27.222  42.284  1.00  0.00     0.006 A 
ENDBRANCH   1   2
BRANCH   1   8
ATOM      8  O   UNL     1      17.342  30.219  44.323  1.00  0.00    -0.392 OA
ATOM      9  H   UNL     1      17.918  30.729  43.695  1.00  0.00     0.211 HD
ENDBRANCH   1   8
TORSDOF 2
ENDMDL
MODEL 4
REMARK VINA RESULT:    -3.415      1.199      1.427
REMARK INTER + INTRA:          -3.732
REMARK INTER:                  -3.720
REMARK INTRA:                  -0.013
REMARK UNBOUND:                -0.018
REMARK SMILES OCc1ccccc1
REMARK SMILES IDX 2 1 3 2 6 3 5 4 7 5 4 6 8 7 1 8
REMARK H PARENT 1 9
REMARK Flexibility Score: inf
ROOT
ATOM      1  C   UNL     1      21.395  27.009  43.270  1.00  0.00     0.191 C 
ENDROOT
BRANCH   1   2
ATOM      2  C   UNL     1      19.943  27.399  43.317  1.00  0.00    -0.023 A 
ATOM      3  C   UNL     1      17.244  28.166  43.337  1.00  0.00     0.000 A 
ATOM      4  C   UNL     1      17.624  26.962  42.737  1.00  0.00     0.000 A 
ATOM      5  C   UNL     1      18.209  28.993  43.918  1.00  0.00     0.000 A 
ATOM      6  C   UNL     1      18.970  26.581  42.721  1.00  0.00     0.006 A 
ATOM      7  C   UNL     1      19.556  28.615  43.905  1.00  0.00     0.006 A 
ENDBRANCH   1   2
BRANCH   1   8
ATOM      8  O   UNL     1      21.560  25.712  43.773  1.00  0.00    -0.392 OA
ATOM      9  H   UNL     1      22.537  25.534  43.784  1.00  0.00     0.211 HD
ENDBRANCH   1   8
TORSDOF 2
ENDMDL
MODEL 5
REMARK VINA RESULT:    -3.387      1.146      2.145
REMARK INTER + INTRA:          -3.702
REMARK INTER:                  -3.688
REMARK INTRA:                  -0.014
REMARK UNBOUND:                -0.018
REMARK SMILES OCc1ccccc1
REMARK SMILES IDX 2 1 3 2 6 3 5 4 7 5 4 6 8 7 1 8
REMARK H PARENT 1 9
REMARK Flexibility Score: inf
ROOT
ATOM      1  C   UNL     1      20.774  26.162  42.593  1.00  0.00     0.191 C 
ENDROOT
BRANCH   1   2
ATOM      2  C   UNL     1      19.540  26.973  42.878  1.00  0.00    -0.023 A 
ATOM      3  C   UNL     1      17.225  28.443  43.473  1.00  0.00     0.000 A 
ATOM      4  C   UNL     1      18.464  28.862  43.965  1.00  0.00     0.000 A 
ATOM      5  C   UNL     1      17.137  27.286  42.694  1.00  0.00     0.000 A 
ATOM      6  C   UNL     1      19.619  28.127  43.674  1.00  0.00     0.006 A 
ATOM      7  C   UNL     1      18.289  26.549  42.400  1.00  0.00     0.006 A 
ENDBRANCH   1   2
BRANCH   1   8
ATOM      8  O   UNL     1      21.441  25.867  43.789  1.00  0.00    -0.392 OA
ATOM      9  H   UNL     1      21.048  25.022  44.133  1.00  0.00     0.211 HD
ENDBRANCH   1   8
TORSDOF 2
ENDMDL
MODEL 6
REMARK VINA RESULT:    -3.345      2.129      4.302
REMARK INTER + INTRA:          -3.656
REMARK INTER:                  -3.646
REMARK INTRA:                  -0.010
REMARK UNBOUND:                -0.018
REMARK SMILES OCc1ccccc1
REMARK SMILES IDX 2 1 3 2 6 3 5 4 7 5 4 6 8 7 1 8
REMARK H PARENT 1 9
REMARK Flexibility Score: inf
ROOT
ATOM      1  C   UNL     1      19.089  28.594  43.128  1.00  0.00     0.191 C 
ENDROOT
BRANCH   1   2
ATOM      2  C   UNL     1      20.406  27.871  43.169  1.00  0.00    -0.023 A 
ATOM      3  C   UNL     1      22.874  26.543  43.322  1.00  0.00     0.000 A 
ATOM      4  C   UNL     1      21.693  25.860  43.628  1.00  0.00     0.000 A 
ATOM      5  C   UNL     1      22.827  27.889  42.951  1.00  0.00     0.000 A 
ATOM      6  C   UNL     1      20.462  26.522  43.558  1.00  0.00     0.006 A 
ATOM      7  C   UNL     1      21.599  28.555  42.879  1.00  0.00     0.006 A 
ENDBRANCH   1   2
BRANCH   1   8
ATOM      8  O   UNL     1      18.742  29.035  44.412  1.00  0.00    -0.392 OA
ATOM      9  H   UNL     1      17.893  28.576  44.649  1.00  0.00     0.211 HD
ENDBRANCH   1   8
TORSDOF 2
ENDMDL
MODEL 7
REMARK VINA RESULT:    -3.285      3.173      4.559
REMARK INTER + INTRA:          -3.591
REMARK INTER:                  -3.574
REMARK INTRA:                  -0.018
REMARK UNBOUND:                -0.018
REMARK SMILES OCc1ccccc1
REMARK SMILES IDX 2 1 3 2 6 3 5 4 7 5 4 6 8 7 1 8
REMARK H PARENT 1 9
REMARK Flexibility Score: inf
ROOT
ATOM      1  C   UNL     1      23.915  29.190  42.804  1.00  0.00     0.191 C 
ENDROOT
BRANCH   1   2
ATOM      2  C   UNL     1      22.840  28.177  43.090  1.00  0.00    -0.023 A 
ATOM      3  C   UNL     1      20.824  26.279  43.547  1.00  0.00     0.000 A 
ATOM      4  C   UNL     1      22.156  25.870  43.435  1.00  0.00     0.000 A 
ATOM      5  C   UNL     1      20.495  27.631  43.420  1.00  0.00     0.000 A 
ATOM      6  C   UNL     1      23.162  26.815  43.202  1.00  0.00     0.006 A 
ATOM      7  C   UNL     1      21.497  28.579  43.187  1.00  0.00     0.006 A 
ENDBRANCH   1   2
BRANCH   1   8
ATOM      8  O   UNL     1      23.492  30.464  43.204  1.00  0.00    -0.392 OA
ATOM      9  H   UNL     1      23.716  30.548  44.168  1.00  0.00     0.211 HD
ENDBRANCH   1   8
TORSDOF 2
ENDMDL
MODEL 8
REMARK VINA RESULT:    -3.283      2.000      2.895
REMARK INTER + INTRA:          -3.589
REMARK INTER:                  -3.571
REMARK INTRA:                  -0.018
REMARK UNBOUND:                -0.018
REMARK SMILES OCc1ccccc1
REMARK SMILES IDX 2 1 3 2 6 3 5 4 7 5 4 6 8 7 1 8
REMARK H PARENT 1 9
REMARK Flexibility Score: inf
ROOT
ATOM      1  C   UNL     1      16.452  25.805  41.994  1.00  0.00     0.191 C 
ENDROOT
BRANCH   1   2
ATOM      2  C   UNL     1      17.072  26.992  42.678  1.00  0.00    -0.023 A 
ATOM      3  C   UNL     1      18.248  29.238  43.883  1.00  0.00     0.000 A 
ATOM      4  C   UNL     1      16.878  29.231  43.605  1.00  0.00     0.000 A 
ATOM      5  C   UNL     1      19.034  28.131  43.551  1.00  0.00     0.000 A 
ATOM      6  C   UNL     1      16.291  28.114  42.999  1.00  0.00     0.006 A 
ATOM      7  C   UNL     1      18.452  27.013  42.946  1.00  0.00     0.006 A 
ENDBRANCH   1   2
BRANCH   1   8
ATOM      8  O   UNL     1      17.412  25.139  41.221  1.00  0.00    -0.392 OA
ATOM      9  H   UNL     1      17.149  24.182  41.204  1.00  0.00     0.211 HD
ENDBRANCH   1   8
TORSDOF 2
ENDMDL
MODEL 9
REMARK VINA RESULT:    -3.210      3.366      4.753
REMARK INTER + INTRA:          -3.510
REMARK INTER:                  -3.497
REMARK INTRA:                  -0.013
REMARK UNBOUND:                -0.018
REMARK SMILES OCc1ccccc1
REMARK SMILES IDX 2 1 3 2 6 3 5 4 7 5 4 6 8 7 1 8
REMARK H PARENT 1 9
REMARK Flexibility Score: inf
ROOT
ATOM      1  C   UNL     1      24.634  27.644  42.535  1.00  0.00     0.191 C 
ENDROOT
BRANCH   1   2
ATOM      2  C   UNL     1      23.190  27.416  42.885  1.00  0.00    -0.023 A 
ATOM      3  C   UNL     1      20.511  27.004  43.614  1.00  0.00     0.000 A 
ATOM      4  C   UNL     1      20.952  28.285  43.266  1.00  0.00     0.000 A 
ATOM      5  C   UNL     1      21.407  25.932  43.610  1.00  0.00     0.000 A 
ATOM      6  C   UNL     1      22.288  28.493  42.907  1.00  0.00     0.006 A 
ATOM      7  C   UNL     1      22.744  26.135  43.251  1.00  0.00     0.006 A 
ENDBRANCH   1   2
BRANCH   1   8
ATOM      8  O   UNL     1      25.172  28.653  43.344  1.00  0.00    -0.392 OA
ATOM      9  H   UNL     1      26.119  28.764  43.068  1.00  0.00     0.211 HD
ENDBRANCH   1   8
TORSDOF 2
ENDMDL
