MODEL 1
REMARK VINA RESULT:    -5.666      0.000      0.000
REMARK INTER + INTRA:          -6.603
REMARK INTER:                  -6.163
REMARK INTRA:                  -0.440
REMARK UNBOUND:                -0.440
REMARK SMILES C=C(C)[C@@H]1CC[C@@]2(C)CC[C@@]3(C)[C@H](CC[C@@H]4[C@]5(C)CC[C@@H](O)C(C)(C)[C@@H]5CC[C@@]43C)[C@@H]12
REMARK SMILES IDX 4 1 5 2 6 3 7 4 31 5 13 6 14 7 15 8 16 9 17 10 19 11 20 12
REMARK SMILES IDX 21 13 23 14 26 15 27 16 28 17 29 18 11 19 10 20 9 21 12 22
REMARK SMILES IDX 30 23 24 24 25 25 18 26 8 27 2 28 3 29 1 30 22 31
REMARK H PARENT 22 32
REMARK Flexibility Score: inf
ROOT
ATOM      1  C   UNL     1      -8.762   1.543  -5.010  1.00  0.00     0.018 C 
ATOM      2  C   UNL     1      -8.545   3.017  -4.647  1.00  0.00     0.009 C 
ATOM      3  C   UNL     1      -7.381   3.491  -5.497  1.00  0.00     0.008 C 
ATOM      4  C   UNL     1      -6.523   2.242  -5.794  1.00  0.00    -0.029 C 
ATOM      5  C   UNL     1      -7.580   1.122  -5.929  1.00  0.00     0.006 C 
ATOM      6  C   UNL     1      -7.103  -0.348  -5.664  1.00  0.00    -0.000 C 
ATOM      7  C   UNL     1      -6.688  -1.053  -6.953  1.00  0.00     0.005 C 
ATOM      8  C   UNL     1      -6.308  -2.495  -6.643  1.00  0.00     0.005 C 
ATOM      9  C   UNL     1      -4.908  -2.534  -5.994  1.00  0.00     0.002 C 
ATOM     10  C   UNL     1      -4.328  -4.006  -5.724  1.00  0.00    -0.026 C 
ATOM     11  C   UNL     1      -5.302  -4.897  -4.881  1.00  0.00     0.010 C 
ATOM     12  C   UNL     1      -4.613  -5.797  -3.832  1.00  0.00     0.033 C 
ATOM     13  C   UNL     1      -3.297  -6.427  -4.319  1.00  0.00     0.120 C 
ATOM     14  C   UNL     1      -2.217  -5.339  -4.710  1.00  0.00    -0.006 C 
ATOM     15  C   UNL     1      -2.901  -3.916  -5.025  1.00  0.00     0.003 C 
ATOM     16  C   UNL     1      -2.897  -2.951  -3.789  1.00  0.00     0.005 C 
ATOM     17  C   UNL     1      -4.166  -2.136  -3.569  1.00  0.00     0.008 C 
ATOM     18  C   UNL     1      -4.734  -1.436  -4.836  1.00  0.00    -0.024 C 
ATOM     19  C   UNL     1      -6.103  -0.593  -4.449  1.00  0.00    -0.024 C 
ATOM     20  C   UNL     1      -5.791   0.776  -3.736  1.00  0.00     0.008 C 
ATOM     21  C   UNL     1      -5.502   1.994  -4.637  1.00  0.00     0.007 C 
ATOM     22  C   UNL     1      -6.932  -1.393  -3.384  1.00  0.00     0.012 C 
ATOM     23  C   UNL     1      -3.613  -0.466  -5.320  1.00  0.00     0.012 C 
ATOM     24  C   UNL     1      -1.179  -5.261  -3.542  1.00  0.00     0.014 C 
ATOM     25  C   UNL     1      -1.343  -5.796  -5.922  1.00  0.00     0.014 C 
ATOM     26  C   UNL     1      -4.166  -4.685  -7.125  1.00  0.00     0.012 C 
ATOM     27  C   UNL     1      -5.765   2.482  -7.122  1.00  0.00     0.011 C 
ENDROOT
BRANCH   1  28
ATOM     28  C   UNL     1     -10.125   1.284  -5.643  1.00  0.00    -0.077 C 
ATOM     29  C   UNL     1     -11.015   0.220  -5.057  1.00  0.00     0.039 C 
ATOM     30  C   UNL     1     -10.516   1.940  -6.750  1.00  0.00     0.008 C 
ENDBRANCH   1  28
BRANCH  13  31
ATOM     31  O   UNL     1      -3.578  -7.319  -5.369  1.00  0.00    -0.393 OA
ATOM     32  H   UNL     1      -3.330  -6.869  -6.218  1.00  0.00     0.210 HD
ENDBRANCH  13  31
TORSDOF 2
ENDMDL
MODEL 2
REMARK VINA RESULT:    -5.312      1.502      3.595
REMARK INTER + INTRA:          -6.217
REMARK INTER:                  -5.805
REMARK INTRA:                  -0.412
REMARK UNBOUND:                -0.440
REMARK SMILES C=C(C)[C@@H]1CC[C@@]2(C)CC[C@@]3(C)[C@H](CC[C@@H]4[C@]5(C)CC[C@@H](O)C(C)(C)[C@@H]5CC[C@@]43C)[C@@H]12
REMARK SMILES IDX 4 1 5 2 6 3 7 4 31 5 13 6 14 7 15 8 16 9 17 10 19 11 20 12
REMARK SMILES IDX 21 13 23 14 26 15 27 16 28 17 29 18 11 19 10 20 9 21 12 22
REMARK SMILES IDX 30 23 24 24 25 25 18 26 8 27 2 28 3 29 1 30 22 31
REMARK H PARENT 22 32
REMARK Flexibility Score: inf
ROOT
ATOM      1  C   UNL     1      -8.719   2.697  -5.648  1.00  0.00     0.018 C 
ATOM      2  C   UNL     1     -10.152   2.795  -6.183  1.00  0.00     0.009 C 
ATOM      3  C   UNL     1     -10.930   1.684  -5.502  1.00  0.00     0.008 C 
ATOM      4  C   UNL     1      -9.905   0.583  -5.159  1.00  0.00    -0.029 C 
ATOM      5  C   UNL     1      -8.635   1.392  -4.806  1.00  0.00     0.006 C 
ATOM      6  C   UNL     1      -7.256   0.662  -4.959  1.00  0.00    -0.000 C 
ATOM      7  C   UNL     1      -6.800   0.026  -3.649  1.00  0.00     0.005 C 
ATOM      8  C   UNL     1      -5.425  -0.599  -3.840  1.00  0.00     0.005 C 
ATOM      9  C   UNL     1      -5.563  -1.929  -4.612  1.00  0.00     0.002 C 
ATOM     10  C   UNL     1      -4.199  -2.760  -4.779  1.00  0.00    -0.026 C 
ATOM     11  C   UNL     1      -3.050  -1.916  -5.427  1.00  0.00     0.010 C 
ATOM     12  C   UNL     1      -2.170  -2.685  -6.436  1.00  0.00     0.033 C 
ATOM     13  C   UNL     1      -1.854  -4.130  -6.013  1.00  0.00     0.120 C 
ATOM     14  C   UNL     1      -3.160  -5.006  -5.844  1.00  0.00    -0.006 C 
ATOM     15  C   UNL     1      -4.462  -4.087  -5.617  1.00  0.00     0.003 C 
ATOM     16  C   UNL     1      -5.255  -3.815  -6.942  1.00  0.00     0.005 C 
ATOM     17  C   UNL     1      -5.792  -2.400  -7.125  1.00  0.00     0.008 C 
ATOM     18  C   UNL     1      -6.525  -1.804  -5.890  1.00  0.00    -0.024 C 
ATOM     19  C   UNL     1      -7.052  -0.273  -6.231  1.00  0.00    -0.024 C 
ATOM     20  C   UNL     1      -8.357  -0.263  -7.112  1.00  0.00     0.008 C 
ATOM     21  C   UNL     1      -9.708  -0.379  -6.376  1.00  0.00     0.007 C 
ATOM     22  C   UNL     1      -5.990   0.463  -7.123  1.00  0.00     0.012 C 
ATOM     23  C   UNL     1      -7.735  -2.749  -5.620  1.00  0.00     0.012 C 
ATOM     24  C   UNL     1      -3.284  -5.921  -7.107  1.00  0.00     0.014 C 
ATOM     25  C   UNL     1      -3.021  -6.039  -4.680  1.00  0.00     0.014 C 
ATOM     26  C   UNL     1      -3.736  -3.152  -3.336  1.00  0.00     0.012 C 
ATOM     27  C   UNL     1     -10.438  -0.211  -3.942  1.00  0.00     0.011 C 
ENDROOT
BRANCH   1  28
ATOM     28  C   UNL     1      -8.295   3.935  -4.864  1.00  0.00    -0.077 C 
ATOM     29  C   UNL     1      -9.345   4.738  -4.140  1.00  0.00     0.039 C 
ATOM     30  C   UNL     1      -7.019   4.357  -4.861  1.00  0.00     0.008 C 
ENDBRANCH   1  28
BRANCH  13  31
ATOM     31  O   UNL     1      -1.060  -4.103  -4.853  1.00  0.00    -0.393 OA
ATOM     32  H   UNL     1      -0.165  -4.457  -5.097  1.00  0.00     0.210 HD
ENDBRANCH  13  31
TORSDOF 2
ENDMDL
MODEL 3
REMARK VINA RESULT:    -4.531      1.498      3.533
REMARK INTER + INTRA:          -5.368
REMARK INTER:                  -4.949
REMARK INTRA:                  -0.419
REMARK UNBOUND:                -0.440
REMARK SMILES C=C(C)[C@@H]1CC[C@@]2(C)CC[C@@]3(C)[C@H](CC[C@@H]4[C@]5(C)CC[C@@H](O)C(C)(C)[C@@H]5CC[C@@]43C)[C@@H]12
REMARK SMILES IDX 4 1 5 2 6 3 7 4 31 5 13 6 14 7 15 8 16 9 17 10 19 11 20 12
REMARK SMILES IDX 21 13 23 14 26 15 27 16 28 17 29 18 11 19 10 20 9 21 12 22
REMARK SMILES IDX 30 23 24 24 25 25 18 26 8 27 2 28 3 29 1 30 22 31
REMARK H PARENT 22 32
REMARK Flexibility Score: inf
ROOT
ATOM      1  C   UNL     1      -7.801   1.494  -5.747  1.00  0.00     0.018 C 
ATOM      2  C   UNL     1      -9.229   1.558  -6.303  1.00  0.00     0.009 C 
ATOM      3  C   UNL     1     -10.000   0.455  -5.602  1.00  0.00     0.008 C 
ATOM      4  C   UNL     1      -8.964  -0.622  -5.216  1.00  0.00    -0.029 C 
ATOM      5  C   UNL     1      -7.711   0.213  -4.868  1.00  0.00     0.006 C 
ATOM      6  C   UNL     1      -6.320  -0.501  -4.984  1.00  0.00    -0.000 C 
ATOM      7  C   UNL     1      -5.873  -1.095  -3.651  1.00  0.00     0.005 C 
ATOM      8  C   UNL     1      -4.487  -1.706  -3.807  1.00  0.00     0.005 C 
ATOM      9  C   UNL     1      -4.597  -3.059  -4.544  1.00  0.00     0.002 C 
ATOM     10  C   UNL     1      -3.220  -3.875  -4.671  1.00  0.00    -0.026 C 
ATOM     11  C   UNL     1      -2.074  -3.032  -5.327  1.00  0.00     0.010 C 
ATOM     12  C   UNL     1      -1.171  -3.816  -6.303  1.00  0.00     0.033 C 
ATOM     13  C   UNL     1      -0.841  -5.245  -5.837  1.00  0.00     0.120 C 
ATOM     14  C   UNL     1      -2.137  -6.134  -5.661  1.00  0.00    -0.006 C 
ATOM     15  C   UNL     1      -3.454  -5.228  -5.475  1.00  0.00     0.003 C 
ATOM     16  C   UNL     1      -4.233  -5.003  -6.818  1.00  0.00     0.005 C 
ATOM     17  C   UNL     1      -4.786  -3.600  -7.046  1.00  0.00     0.008 C 
ATOM     18  C   UNL     1      -5.543  -2.981  -5.838  1.00  0.00    -0.024 C 
ATOM     19  C   UNL     1      -6.086  -1.468  -6.227  1.00  0.00    -0.024 C 
ATOM     20  C   UNL     1      -7.380  -1.499  -7.124  1.00  0.00     0.008 C 
ATOM     21  C   UNL     1      -8.739  -1.614  -6.403  1.00  0.00     0.007 C 
ATOM     22  C   UNL     1      -5.023  -0.742  -7.125  1.00  0.00     0.012 C 
ATOM     23  C   UNL     1      -6.744  -3.936  -5.557  1.00  0.00     0.012 C 
ATOM     24  C   UNL     1      -2.231  -7.085  -6.900  1.00  0.00     0.014 C 
ATOM     25  C   UNL     1      -1.999  -7.133  -4.467  1.00  0.00     0.014 C 
ATOM     26  C   UNL     1      -2.771  -4.221  -3.212  1.00  0.00     0.012 C 
ATOM     27  C   UNL     1      -9.503  -1.390  -3.984  1.00  0.00     0.011 C 
ENDROOT
BRANCH   1  28
ATOM     28  C   UNL     1      -7.404   2.758  -4.991  1.00  0.00    -0.077 C 
ATOM     29  C   UNL     1      -8.444   3.478  -4.172  1.00  0.00     0.039 C 
ATOM     30  C   UNL     1      -6.168   3.276  -5.097  1.00  0.00     0.008 C 
ENDBRANCH   1  28
BRANCH  13  31
ATOM     31  O   UNL     1      -0.062  -5.176  -4.668  1.00  0.00    -0.393 OA
ATOM     32  H   UNL     1       0.744  -5.737  -4.814  1.00  0.00     0.210 HD
ENDBRANCH  13  31
TORSDOF 2
ENDMDL
MODEL 4
REMARK VINA RESULT:    -4.530      2.436      8.686
REMARK INTER + INTRA:          -5.367
REMARK INTER:                  -4.947
REMARK INTRA:                  -0.420
REMARK UNBOUND:                -0.440
REMARK SMILES C=C(C)[C@@H]1CC[C@@]2(C)CC[C@@]3(C)[C@H](CC[C@@H]4[C@]5(C)CC[C@@H](O)C(C)(C)[C@@H]5CC[C@@]43C)[C@@H]12
REMARK SMILES IDX 4 1 5 2 6 3 7 4 31 5 13 6 14 7 15 8 16 9 17 10 19 11 20 12
REMARK SMILES IDX 21 13 23 14 26 15 27 16 28 17 29 18 11 19 10 20 9 21 12 22
REMARK SMILES IDX 30 23 24 24 25 25 18 26 8 27 2 28 3 29 1 30 22 31
REMARK H PARENT 22 32
REMARK Flexibility Score: inf
ROOT
ATOM      1  C   UNL     1      -1.019  -7.755  -3.438  1.00  0.00     0.018 C 
ATOM      2  C   UNL     1      -0.877  -9.120  -4.123  1.00  0.00     0.009 C 
ATOM      3  C   UNL     1      -0.552  -8.828  -5.576  1.00  0.00     0.008 C 
ATOM      4  C   UNL     1      -1.160  -7.444  -5.887  1.00  0.00    -0.029 C 
ATOM      5  C   UNL     1      -0.971  -6.677  -4.558  1.00  0.00     0.006 C 
ATOM      6  C   UNL     1      -1.940  -5.476  -4.281  1.00  0.00    -0.000 C 
ATOM      7  C   UNL     1      -1.343  -4.147  -4.736  1.00  0.00     0.005 C 
ATOM      8  C   UNL     1      -2.293  -3.013  -4.373  1.00  0.00     0.005 C 
ATOM      9  C   UNL     1      -3.478  -2.992  -5.363  1.00  0.00     0.002 C 
ATOM     10  C   UNL     1      -4.498  -1.768  -5.172  1.00  0.00    -0.026 C 
ATOM     11  C   UNL     1      -5.056  -1.666  -3.712  1.00  0.00     0.010 C 
ATOM     12  C   UNL     1      -6.550  -1.286  -3.614  1.00  0.00     0.033 C 
ATOM     13  C   UNL     1      -6.990  -0.220  -4.632  1.00  0.00     0.120 C 
ATOM     14  C   UNL     1      -6.775  -0.690  -6.127  1.00  0.00    -0.006 C 
ATOM     15  C   UNL     1      -5.688  -1.874  -6.223  1.00  0.00     0.003 C 
ATOM     16  C   UNL     1      -6.341  -3.300  -6.251  1.00  0.00     0.005 C 
ATOM     17  C   UNL     1      -5.638  -4.376  -5.430  1.00  0.00     0.008 C 
ATOM     18  C   UNL     1      -4.096  -4.451  -5.615  1.00  0.00    -0.024 C 
ATOM     19  C   UNL     1      -3.473  -5.657  -4.670  1.00  0.00    -0.024 C 
ATOM     20  C   UNL     1      -3.697  -7.089  -5.287  1.00  0.00     0.008 C 
ATOM     21  C   UNL     1      -2.658  -7.588  -6.311  1.00  0.00     0.007 C 
ATOM     22  C   UNL     1      -4.246  -5.710  -3.305  1.00  0.00     0.012 C 
ATOM     23  C   UNL     1      -3.867  -4.767  -7.125  1.00  0.00     0.012 C 
ATOM     24  C   UNL     1      -8.171  -1.109  -6.698  1.00  0.00     0.014 C 
ATOM     25  C   UNL     1      -6.362   0.496  -7.056  1.00  0.00     0.014 C 
ATOM     26  C   UNL     1      -3.684  -0.461  -5.455  1.00  0.00     0.012 C 
ATOM     27  C   UNL     1      -0.346  -6.807  -7.039  1.00  0.00     0.011 C 
ENDROOT
BRANCH   1  28
ATOM     28  C   UNL     1       0.027  -7.528  -2.352  1.00  0.00    -0.077 C 
ATOM     29  C   UNL     1       1.056  -6.444  -2.543  1.00  0.00     0.039 C 
ATOM     30  C   UNL     1       0.088  -8.316  -1.265  1.00  0.00     0.008 C 
ENDBRANCH   1  28
BRANCH  13  31
ATOM     31  O   UNL     1      -6.335   0.989  -4.340  1.00  0.00    -0.393 OA
ATOM     32  H   UNL     1      -5.765   0.834  -3.542  1.00  0.00     0.210 HD
ENDBRANCH  13  31
TORSDOF 2
ENDMDL
MODEL 5
REMARK VINA RESULT:    -3.893      2.768      7.903
REMARK INTER + INTRA:          -4.675
REMARK INTER:                  -4.251
REMARK INTRA:                  -0.424
REMARK UNBOUND:                -0.440
REMARK SMILES C=C(C)[C@@H]1CC[C@@]2(C)CC[C@@]3(C)[C@H](CC[C@@H]4[C@]5(C)CC[C@@H](O)C(C)(C)[C@@H]5CC[C@@]43C)[C@@H]12
REMARK SMILES IDX 4 1 5 2 6 3 7 4 31 5 13 6 14 7 15 8 16 9 17 10 19 11 20 12
REMARK SMILES IDX 21 13 23 14 26 15 27 16 28 17 29 18 11 19 10 20 9 21 12 22
REMARK SMILES IDX 30 23 24 24 25 25 18 26 8 27 2 28 3 29 1 30 22 31
REMARK H PARENT 22 32
REMARK Flexibility Score: inf
ROOT
ATOM      1  C   UNL     1      -4.607  -4.137  -5.819  1.00  0.00     0.018 C 
ATOM      2  C   UNL     1      -3.235  -4.520  -6.387  1.00  0.00     0.009 C 
ATOM      3  C   UNL     1      -2.225  -3.646  -5.667  1.00  0.00     0.008 C 
ATOM      4  C   UNL     1      -2.979  -2.365  -5.249  1.00  0.00    -0.029 C 
ATOM      5  C   UNL     1      -4.393  -2.892  -4.911  1.00  0.00     0.006 C 
ATOM      6  C   UNL     1      -5.578  -1.869  -5.000  1.00  0.00    -0.000 C 
ATOM      7  C   UNL     1      -5.870  -1.219  -3.650  1.00  0.00     0.005 C 
ATOM      8  C   UNL     1      -7.075  -0.296  -3.782  1.00  0.00     0.005 C 
ATOM      9  C   UNL     1      -6.652   1.010  -4.489  1.00  0.00     0.002 C 
ATOM     10  C   UNL     1      -7.799   2.129  -4.587  1.00  0.00    -0.026 C 
ATOM     11  C   UNL     1      -9.112   1.594  -5.253  1.00  0.00     0.010 C 
ATOM     12  C   UNL     1      -9.809   2.591  -6.205  1.00  0.00     0.033 C 
ATOM     13  C   UNL     1      -9.793   4.046  -5.703  1.00  0.00     0.120 C 
ATOM     14  C   UNL     1      -8.325   4.602  -5.517  1.00  0.00    -0.006 C 
ATOM     15  C   UNL     1      -7.256   3.408  -5.362  1.00  0.00     0.003 C 
ATOM     16  C   UNL     1      -6.555   3.039  -6.715  1.00  0.00     0.005 C 
ATOM     17  C   UNL     1      -6.346   1.552  -6.979  1.00  0.00     0.008 C 
ATOM     18  C   UNL     1      -5.753   0.744  -5.791  1.00  0.00    -0.024 C 
ATOM     19  C   UNL     1      -5.581  -0.845  -6.219  1.00  0.00    -0.024 C 
ATOM     20  C   UNL     1      -4.317  -1.096  -7.125  1.00  0.00     0.008 C 
ATOM     21  C   UNL     1      -2.968  -1.320  -6.411  1.00  0.00     0.007 C 
ATOM     22  C   UNL     1      -6.786  -1.280  -7.125  1.00  0.00     0.012 C 
ATOM     23  C   UNL     1      -4.361   1.384  -5.498  1.00  0.00     0.012 C 
ATOM     24  C   UNL     1      -8.012   5.534  -6.734  1.00  0.00     0.014 C 
ATOM     25  C   UNL     1      -8.222   5.576  -4.299  1.00  0.00     0.014 C 
ATOM     26  C   UNL     1      -8.152   2.536  -3.117  1.00  0.00     0.012 C 
ATOM     27  C   UNL     1      -2.273  -1.775  -4.005  1.00  0.00     0.011 C 
ENDROOT
BRANCH   1  28
ATOM     28  C   UNL     1      -5.288  -5.290  -5.090  1.00  0.00    -0.077 C 
ATOM     29  C   UNL     1      -4.488  -6.113  -4.113  1.00  0.00     0.039 C 
ATOM     30  C   UNL     1      -6.563  -5.626  -5.351  1.00  0.00     0.008 C 
ENDBRANCH   1  28
BRANCH  13  31
ATOM     31  O   UNL     1     -10.564   4.133  -4.530  1.00  0.00    -0.393 OA
ATOM     32  H   UNL     1      -9.936   4.175  -3.763  1.00  0.00     0.210 HD
ENDBRANCH  13  31
TORSDOF 2
ENDMDL
MODEL 6
REMARK VINA RESULT:    -3.823      2.024      4.679
REMARK INTER + INTRA:          -4.598
REMARK INTER:                  -4.179
REMARK INTRA:                  -0.419
REMARK UNBOUND:                -0.440
REMARK SMILES C=C(C)[C@@H]1CC[C@@]2(C)CC[C@@]3(C)[C@H](CC[C@@H]4[C@]5(C)CC[C@@H](O)C(C)(C)[C@@H]5CC[C@@]43C)[C@@H]12
REMARK SMILES IDX 4 1 5 2 6 3 7 4 31 5 13 6 14 7 15 8 16 9 17 10 19 11 20 12
REMARK SMILES IDX 21 13 23 14 26 15 27 16 28 17 29 18 11 19 10 20 9 21 12 22
REMARK SMILES IDX 30 23 24 24 25 25 18 26 8 27 2 28 3 29 1 30 22 31
REMARK H PARENT 22 32
REMARK Flexibility Score: inf
ROOT
ATOM      1  C   UNL     1      -5.115   0.214  -6.300  1.00  0.00     0.018 C 
ATOM      2  C   UNL     1      -6.512   0.371  -6.912  1.00  0.00     0.009 C 
ATOM      3  C   UNL     1      -7.444  -0.457  -6.046  1.00  0.00     0.008 C 
ATOM      4  C   UNL     1      -6.580  -1.575  -5.425  1.00  0.00    -0.029 C 
ATOM      5  C   UNL     1      -5.222  -0.874  -5.193  1.00  0.00     0.006 C 
ATOM      6  C   UNL     1      -3.949  -1.786  -5.119  1.00  0.00    -0.000 C 
ATOM      7  C   UNL     1      -3.608  -2.170  -3.682  1.00  0.00     0.005 C 
ATOM      8  C   UNL     1      -2.323  -2.989  -3.666  1.00  0.00     0.005 C 
ATOM      9  C   UNL     1      -2.621  -4.429  -4.140  1.00  0.00     0.002 C 
ATOM     10  C   UNL     1      -1.377  -5.439  -4.058  1.00  0.00    -0.026 C 
ATOM     11  C   UNL     1      -0.114  -4.909  -4.816  1.00  0.00     0.010 C 
ATOM     12  C   UNL     1       0.677  -5.985  -5.592  1.00  0.00     0.033 C 
ATOM     13  C   UNL     1       0.789  -7.329  -4.853  1.00  0.00     0.120 C 
ATOM     14  C   UNL     1      -0.624  -7.977  -4.562  1.00  0.00    -0.006 C 
ATOM     15  C   UNL     1      -1.797  -6.875  -4.601  1.00  0.00     0.003 C 
ATOM     16  C   UNL     1      -2.520  -6.804  -5.991  1.00  0.00     0.005 C 
ATOM     17  C   UNL     1      -2.861  -5.408  -6.500  1.00  0.00     0.008 C 
ATOM     18  C   UNL     1      -3.533  -4.468  -5.460  1.00  0.00    -0.024 C 
ATOM     19  C   UNL     1      -3.845  -2.996  -6.148  1.00  0.00    -0.024 C 
ATOM     20  C   UNL     1      -5.120  -3.017  -7.072  1.00  0.00     0.008 C 
ATOM     21  C   UNL     1      -6.488  -2.798  -6.395  1.00  0.00     0.007 C 
ATOM     22  C   UNL     1      -2.678  -2.613  -7.125  1.00  0.00     0.012 C 
ATOM     23  C   UNL     1      -4.863  -5.172  -5.051  1.00  0.00     0.012 C 
ATOM     24  C   UNL     1      -0.843  -9.124  -5.603  1.00  0.00     0.014 C 
ATOM     25  C   UNL     1      -0.646  -8.737  -3.197  1.00  0.00     0.014 C 
ATOM     26  C   UNL     1      -0.999  -5.559  -2.544  1.00  0.00     0.012 C 
ATOM     27  C   UNL     1      -7.238  -2.009  -4.093  1.00  0.00     0.011 C 
ENDROOT
BRANCH   1  28
ATOM     28  C   UNL     1      -4.547   1.531  -5.781  1.00  0.00    -0.077 C 
ATOM     29  C   UNL     1      -5.476   2.527  -5.138  1.00  0.00     0.039 C 
ATOM     30  C   UNL     1      -3.250   1.846  -5.947  1.00  0.00     0.008 C 
ENDBRANCH   1  28
BRANCH  13  31
ATOM     31  O   UNL     1       1.557  -7.148  -3.689  1.00  0.00    -0.393 OA
ATOM     32  H   UNL     1       1.253  -7.819  -3.023  1.00  0.00     0.210 HD
ENDBRANCH  13  31
TORSDOF 2
ENDMDL
MODEL 7
REMARK VINA RESULT:    -3.744      3.436      8.752
REMARK INTER + INTRA:          -4.513
REMARK INTER:                  -4.230
REMARK INTRA:                  -0.283
REMARK UNBOUND:                -0.440
REMARK SMILES C=C(C)[C@@H]1CC[C@@]2(C)CC[C@@]3(C)[C@H](CC[C@@H]4[C@]5(C)CC[C@@H](O)C(C)(C)[C@@H]5CC[C@@]43C)[C@@H]12
REMARK SMILES IDX 4 1 5 2 6 3 7 4 31 5 13 6 14 7 15 8 16 9 17 10 19 11 20 12
REMARK SMILES IDX 21 13 23 14 26 15 27 16 28 17 29 18 11 19 10 20 9 21 12 22
REMARK SMILES IDX 30 23 24 24 25 25 18 26 8 27 2 28 3 29 1 30 22 31
REMARK H PARENT 22 32
REMARK Flexibility Score: inf
ROOT
ATOM      1  C   UNL     1      -4.267  -1.598  -4.947  1.00  0.00     0.018 C 
ATOM      2  C   UNL     1      -4.606  -3.033  -4.525  1.00  0.00     0.009 C 
ATOM      3  C   UNL     1      -5.840  -3.423  -5.318  1.00  0.00     0.008 C 
ATOM      4  C   UNL     1      -6.589  -2.109  -5.629  1.00  0.00    -0.029 C 
ATOM      5  C   UNL     1      -5.438  -1.098  -5.840  1.00  0.00     0.006 C 
ATOM      6  C   UNL     1      -5.766   0.418  -5.611  1.00  0.00    -0.000 C 
ATOM      7  C   UNL     1      -6.161   1.117  -6.909  1.00  0.00     0.005 C 
ATOM      8  C   UNL     1      -6.394   2.598  -6.638  1.00  0.00     0.005 C 
ATOM      9  C   UNL     1      -7.759   2.789  -5.943  1.00  0.00     0.002 C 
ATOM     10  C   UNL     1      -8.190   4.317  -5.706  1.00  0.00    -0.026 C 
ATOM     11  C   UNL     1      -7.107   5.139  -4.929  1.00  0.00     0.010 C 
ATOM     12  C   UNL     1      -7.669   6.133  -3.889  1.00  0.00     0.033 C 
ATOM     13  C   UNL     1      -8.938   6.868  -4.353  1.00  0.00     0.120 C 
ATOM     14  C   UNL     1     -10.128   5.875  -4.668  1.00  0.00    -0.006 C 
ATOM     15  C   UNL     1      -9.592   4.385  -4.956  1.00  0.00     0.003 C 
ATOM     16  C   UNL     1      -9.640   3.464  -3.687  1.00  0.00     0.005 C 
ATOM     17  C   UNL     1      -8.444   2.541  -3.482  1.00  0.00     0.008 C 
ATOM     18  C   UNL     1      -7.991   1.751  -4.742  1.00  0.00    -0.024 C 
ATOM     19  C   UNL     1      -6.693   0.795  -4.372  1.00  0.00    -0.024 C 
ATOM     20  C   UNL     1      -7.104  -0.515  -3.600  1.00  0.00     0.008 C 
ATOM     21  C   UNL     1      -7.538  -1.729  -4.447  1.00  0.00     0.007 C 
ATOM     22  C   UNL     1      -5.754   1.547  -3.365  1.00  0.00     0.012 C 
ATOM     23  C   UNL     1      -9.215   0.875  -5.153  1.00  0.00     0.012 C 
ATOM     24  C   UNL     1     -11.125   5.933  -3.463  1.00  0.00     0.014 C 
ATOM     25  C   UNL     1     -11.000   6.373  -5.865  1.00  0.00     0.014 C 
ATOM     26  C   UNL     1      -8.340   4.964  -7.123  1.00  0.00     0.012 C 
ATOM     27  C   UNL     1      -7.414  -2.319  -6.921  1.00  0.00     0.011 C 
ENDROOT
BRANCH   1  28
ATOM     28  C   UNL     1      -2.910  -1.490  -5.636  1.00  0.00    -0.077 C 
ATOM     29  C   UNL     1      -2.587  -0.248  -6.425  1.00  0.00     0.039 C 
ATOM     30  C   UNL     1      -2.029  -2.505  -5.606  1.00  0.00     0.008 C 
ENDBRANCH   1  28
BRANCH  13  31
ATOM     31  O   UNL     1      -8.615   7.696  -5.443  1.00  0.00    -0.393 OA
ATOM     32  H   UNL     1      -9.380   7.671  -6.074  1.00  0.00     0.210 HD
ENDBRANCH  13  31
TORSDOF 2
ENDMDL
MODEL 8
REMARK VINA RESULT:    -3.605      2.277      3.955
REMARK INTER + INTRA:          -4.361
REMARK INTER:                  -3.941
REMARK INTRA:                  -0.420
REMARK UNBOUND:                -0.440
REMARK SMILES C=C(C)[C@@H]1CC[C@@]2(C)CC[C@@]3(C)[C@H](CC[C@@H]4[C@]5(C)CC[C@@H](O)C(C)(C)[C@@H]5CC[C@@]43C)[C@@H]12
REMARK SMILES IDX 4 1 5 2 6 3 7 4 31 5 13 6 14 7 15 8 16 9 17 10 19 11 20 12
REMARK SMILES IDX 21 13 23 14 26 15 27 16 28 17 29 18 11 19 10 20 9 21 12 22
REMARK SMILES IDX 30 23 24 24 25 25 18 26 8 27 2 28 3 29 1 30 22 31
REMARK H PARENT 22 32
REMARK Flexibility Score: inf
ROOT
ATOM      1  C   UNL     1      -7.333  -2.624  -5.385  1.00  0.00     0.018 C 
ATOM      2  C   UNL     1      -7.708  -1.236  -4.851  1.00  0.00     0.009 C 
ATOM      3  C   UNL     1      -6.667  -0.280  -5.404  1.00  0.00     0.008 C 
ATOM      4  C   UNL     1      -5.390  -1.116  -5.637  1.00  0.00    -0.029 C 
ATOM      5  C   UNL     1      -5.951  -2.485  -6.084  1.00  0.00     0.006 C 
ATOM      6  C   UNL     1      -5.036  -3.740  -5.866  1.00  0.00    -0.000 C 
ATOM      7  C   UNL     1      -4.205  -4.060  -7.106  1.00  0.00     0.005 C 
ATOM      8  C   UNL     1      -3.396  -5.327  -6.861  1.00  0.00     0.005 C 
ATOM      9  C   UNL     1      -2.190  -5.005  -5.951  1.00  0.00     0.002 C 
ATOM     10  C   UNL     1      -1.180  -6.228  -5.708  1.00  0.00    -0.026 C 
ATOM     11  C   UNL     1      -1.897  -7.509  -5.162  1.00  0.00     0.010 C 
ATOM     12  C   UNL     1      -1.109  -8.285  -4.084  1.00  0.00     0.033 C 
ATOM     13  C   UNL     1       0.403  -8.364  -4.355  1.00  0.00     0.120 C 
ATOM     14  C   UNL     1       1.079  -6.936  -4.419  1.00  0.00    -0.006 C 
ATOM     15  C   UNL     1      -0.003  -5.785  -4.732  1.00  0.00     0.003 C 
ATOM     16  C   UNL     1      -0.531  -5.077  -3.436  1.00  0.00     0.005 C 
ATOM     17  C   UNL     1      -2.023  -4.768  -3.400  1.00  0.00     0.008 C 
ATOM     18  C   UNL     1      -2.595  -4.106  -4.685  1.00  0.00    -0.024 C 
ATOM     19  C   UNL     1      -4.216  -3.829  -4.504  1.00  0.00    -0.024 C 
ATOM     20  C   UNL     1      -4.520  -2.562  -3.619  1.00  0.00     0.008 C 
ATOM     21  C   UNL     1      -4.540  -1.192  -4.327  1.00  0.00     0.007 C 
ATOM     22  C   UNL     1      -4.866  -5.012  -3.704  1.00  0.00     0.012 C 
ATOM     23  C   UNL     1      -1.826  -2.758  -4.844  1.00  0.00     0.012 C 
ATOM     24  C   UNL     1       1.828  -6.704  -3.066  1.00  0.00     0.014 C 
ATOM     25  C   UNL     1       2.235  -6.886  -5.469  1.00  0.00     0.014 C 
ATOM     26  C   UNL     1      -0.573  -6.590  -7.105  1.00  0.00     0.012 C 
ATOM     27  C   UNL     1      -4.567  -0.438  -6.759  1.00  0.00     0.011 C 
ENDROOT
BRANCH   1  28
ATOM     28  C   UNL     1      -8.402  -3.214  -6.299  1.00  0.00    -0.077 C 
ATOM     29  C   UNL     1      -8.508  -4.711  -6.431  1.00  0.00     0.039 C 
ATOM     30  C   UNL     1      -9.203  -2.425  -7.036  1.00  0.00     0.008 C 
ENDBRANCH   1  28
BRANCH  13  31
ATOM     31  O   UNL     1       0.620  -9.125  -5.517  1.00  0.00    -0.393 OA
ATOM     32  H   UNL     1       0.109  -9.971  -5.421  1.00  0.00     0.210 HD
ENDBRANCH  13  31
TORSDOF 2
ENDMDL
MODEL 9
REMARK VINA RESULT:    -3.575      2.379      8.246
REMARK INTER + INTRA:          -4.328
REMARK INTER:                  -3.917
REMARK INTRA:                  -0.411
REMARK UNBOUND:                -0.440
REMARK SMILES C=C(C)[C@@H]1CC[C@@]2(C)CC[C@@]3(C)[C@H](CC[C@@H]4[C@]5(C)CC[C@@H](O)C(C)(C)[C@@H]5CC[C@@]43C)[C@@H]12
REMARK SMILES IDX 4 1 5 2 6 3 7 4 31 5 13 6 14 7 15 8 16 9 17 10 19 11 20 12
REMARK SMILES IDX 21 13 23 14 26 15 27 16 28 17 29 18 11 19 10 20 9 21 12 22
REMARK SMILES IDX 30 23 24 24 25 25 18 26 8 27 2 28 3 29 1 30 22 31
REMARK H PARENT 22 32
REMARK Flexibility Score: inf
ROOT
ATOM      1  C   UNL     1      -1.017  -6.032  -3.899  1.00  0.00     0.018 C 
ATOM      2  C   UNL     1      -1.324  -7.530  -3.792  1.00  0.00     0.009 C 
ATOM      3  C   UNL     1      -2.028  -7.906  -5.082  1.00  0.00     0.008 C 
ATOM      4  C   UNL     1      -2.723  -6.624  -5.587  1.00  0.00    -0.029 C 
ATOM      5  C   UNL     1      -1.732  -5.510  -5.177  1.00  0.00     0.006 C 
ATOM      6  C   UNL     1      -2.314  -4.066  -4.997  1.00  0.00    -0.000 C 
ATOM      7  C   UNL     1      -2.186  -3.237  -6.272  1.00  0.00     0.005 C 
ATOM      8  C   UNL     1      -2.697  -1.825  -6.014  1.00  0.00     0.005 C 
ATOM      9  C   UNL     1      -4.241  -1.829  -5.991  1.00  0.00     0.002 C 
ATOM     10  C   UNL     1      -4.919  -0.381  -5.849  1.00  0.00    -0.026 C 
ATOM     11  C   UNL     1      -4.396   0.413  -4.604  1.00  0.00     0.010 C 
ATOM     12  C   UNL     1      -5.476   1.220  -3.849  1.00  0.00     0.033 C 
ATOM     13  C   UNL     1      -6.495   1.911  -4.771  1.00  0.00     0.120 C 
ATOM     14  C   UNL     1      -7.293   0.880  -5.665  1.00  0.00    -0.006 C 
ATOM     15  C   UNL     1      -6.504  -0.517  -5.803  1.00  0.00     0.003 C 
ATOM     16  C   UNL     1      -6.986  -1.594  -4.770  1.00  0.00     0.005 C 
ATOM     17  C   UNL     1      -5.895  -2.443  -4.127  1.00  0.00     0.008 C 
ATOM     18  C   UNL     1      -4.843  -3.028  -5.111  1.00  0.00    -0.024 C 
ATOM     19  C   UNL     1      -3.728  -3.923  -4.278  1.00  0.00    -0.024 C 
ATOM     20  C   UNL     1      -4.268  -5.348  -3.882  1.00  0.00     0.008 C 
ATOM     21  C   UNL     1      -4.133  -6.472  -4.930  1.00  0.00     0.007 C 
ATOM     22  C   UNL     1      -3.426  -3.237  -2.899  1.00  0.00     0.012 C 
ATOM     23  C   UNL     1      -5.643  -3.933  -6.096  1.00  0.00     0.012 C 
ATOM     24  C   UNL     1      -8.715   0.706  -5.035  1.00  0.00     0.014 C 
ATOM     25  C   UNL     1      -7.610   1.460  -7.081  1.00  0.00     0.014 C 
ATOM     26  C   UNL     1      -4.514   0.429  -7.125  1.00  0.00     0.012 C 
ATOM     27  C   UNL     1      -2.868  -6.727  -7.125  1.00  0.00     0.011 C 
ENDROOT
BRANCH   1  28
ATOM     28  C   UNL     1       0.479  -5.733  -3.894  1.00  0.00    -0.077 C 
ATOM     29  C   UNL     1       1.249  -5.871  -2.607  1.00  0.00     0.039 C 
ATOM     30  C   UNL     1       1.105  -5.287  -4.998  1.00  0.00     0.008 C 
ENDBRANCH   1  28
BRANCH  13  31
ATOM     31  O   UNL     1      -5.835   2.894  -5.528  1.00  0.00    -0.393 OA
ATOM     32  H   UNL     1      -5.680   3.674  -4.934  1.00  0.00     0.210 HD
ENDBRANCH  13  31
TORSDOF 2
ENDMDL
