MODEL 1
REMARK VINA RESULT:    -3.609      0.000      0.000
REMARK INTER + INTRA:          -4.285
REMARK INTER:                  -4.242
REMARK INTRA:                  -0.042
REMARK UNBOUND:                -0.042
REMARK SMILES CCCCC(=O)[O-]
REMARK SMILES IDX 4 1 5 2 6 3 7 4 3 5 2 6 1 7
REMARK H PARENT
REMARK Flexibility Score: inf
ROOT
ATOM      1  C   UNL     1       6.542  23.794  -7.506  1.00  0.00     0.053 C 
ENDROOT
BRANCH   1   2
ATOM      2  C   UNL     1       6.914  24.149  -6.102  1.00  0.00     0.041 C 
ATOM      3  O   UNL     1       6.582  25.266  -5.622  1.00  0.00    -0.550 OA
ATOM      4  O   UNL     1       7.669  23.268  -5.338  1.00  0.00    -0.550 OA
ENDBRANCH   1   2
BRANCH   1   5
ATOM      5  C   UNL     1       7.596  24.324  -8.489  1.00  0.00     0.006 C 
BRANCH   5   6
ATOM      6  C   UNL     1       8.389  23.195  -9.167  1.00  0.00    -0.003 C 
ATOM      7  C   UNL     1       7.552  22.408 -10.174  1.00  0.00     0.004 C 
ENDBRANCH   5   6
ENDBRANCH   1   5
TORSDOF 3
ENDMDL
MODEL 2
REMARK VINA RESULT:    -3.534      3.428      4.526
REMARK INTER + INTRA:          -4.196
REMARK INTER:                  -4.118
REMARK INTRA:                  -0.078
REMARK UNBOUND:                -0.042
REMARK SMILES CCCCC(=O)[O-]
REMARK SMILES IDX 4 1 5 2 6 3 7 4 3 5 2 6 1 7
REMARK H PARENT
REMARK Flexibility Score: inf
ROOT
ATOM      1  C   UNL     1      10.737  22.431  -9.408  1.00  0.00     0.053 C 
ENDROOT
BRANCH   1   2
ATOM      2  C   UNL     1       9.280  22.513  -9.079  1.00  0.00     0.041 C 
ATOM      3  O   UNL     1       8.416  22.252  -9.958  1.00  0.00    -0.550 OA
ATOM      4  O   UNL     1       8.874  22.922  -7.815  1.00  0.00    -0.550 OA
ENDBRANCH   1   2
BRANCH   1   5
ATOM      5  C   UNL     1      11.116  23.513 -10.428  1.00  0.00     0.006 C 
BRANCH   5   6
ATOM      6  C   UNL     1      11.966  24.634  -9.810  1.00  0.00    -0.003 C 
ATOM      7  C   UNL     1      12.672  24.201  -8.526  1.00  0.00     0.004 C 
ENDBRANCH   5   6
ENDBRANCH   1   5
TORSDOF 3
ENDMDL
MODEL 3
REMARK VINA RESULT:    -3.527      1.187      1.537
REMARK INTER + INTRA:          -4.188
REMARK INTER:                  -4.128
REMARK INTRA:                  -0.060
REMARK UNBOUND:                -0.042
REMARK SMILES CCCCC(=O)[O-]
REMARK SMILES IDX 4 1 5 2 6 3 7 4 3 5 2 6 1 7
REMARK H PARENT
REMARK Flexibility Score: inf
ROOT
ATOM      1  C   UNL     1       7.463  23.644  -7.288  1.00  0.00     0.053 C 
ENDROOT
BRANCH   1   2
ATOM      2  C   UNL     1       6.446  23.974  -6.242  1.00  0.00     0.041 C 
ATOM      3  O   UNL     1       5.493  23.182  -6.013  1.00  0.00    -0.550 OA
ATOM      4  O   UNL     1       6.521  25.178  -5.554  1.00  0.00    -0.550 OA
ENDBRANCH   1   2
BRANCH   1   5
ATOM      5  C   UNL     1       7.190  24.442  -8.570  1.00  0.00     0.006 C 
BRANCH   5   6
ATOM      6  C   UNL     1       6.400  23.633  -9.611  1.00  0.00    -0.003 C 
ATOM      7  C   UNL     1       7.195  22.456 -10.172  1.00  0.00     0.004 C 
ENDBRANCH   5   6
ENDBRANCH   1   5
TORSDOF 3
ENDMDL
MODEL 4
REMARK VINA RESULT:    -3.509      4.187      5.035
REMARK INTER + INTRA:          -4.166
REMARK INTER:                  -4.084
REMARK INTRA:                  -0.082
REMARK UNBOUND:                -0.042
REMARK SMILES CCCCC(=O)[O-]
REMARK SMILES IDX 4 1 5 2 6 3 7 4 3 5 2 6 1 7
REMARK H PARENT
REMARK Flexibility Score: inf
ROOT
ATOM      1  C   UNL     1       9.891  22.253  -9.172  1.00  0.00     0.053 C 
ENDROOT
BRANCH   1   2
ATOM      2  C   UNL     1      11.024  23.173  -9.496  1.00  0.00     0.041 C 
ATOM      3  O   UNL     1      11.211  23.554 -10.683  1.00  0.00    -0.550 OA
ATOM      4  O   UNL     1      11.904  23.572  -8.498  1.00  0.00    -0.550 OA
ENDBRANCH   1   2
BRANCH   1   5
ATOM      5  C   UNL     1       9.975  21.795  -7.710  1.00  0.00     0.006 C 
BRANCH   5   6
ATOM      6  C   UNL     1      10.191  20.279  -7.579  1.00  0.00    -0.003 C 
ATOM      7  C   UNL     1      11.545  19.826  -8.121  1.00  0.00     0.004 C 
ENDBRANCH   5   6
ENDBRANCH   1   5
TORSDOF 3
ENDMDL
MODEL 5
REMARK VINA RESULT:    -3.488      3.578      4.415
REMARK INTER + INTRA:          -4.142
REMARK INTER:                  -4.037
REMARK INTRA:                  -0.105
REMARK UNBOUND:                -0.042
REMARK SMILES CCCCC(=O)[O-]
REMARK SMILES IDX 4 1 5 2 6 3 7 4 3 5 2 6 1 7
REMARK H PARENT
REMARK Flexibility Score: inf
ROOT
ATOM      1  C   UNL     1       9.580  21.751  -8.930  1.00  0.00     0.053 C 
ENDROOT
BRANCH   1   2
ATOM      2  C   UNL     1      10.230  21.185  -7.707  1.00  0.00     0.041 C 
ATOM      3  O   UNL     1      10.232  19.941  -7.509  1.00  0.00    -0.550 OA
ATOM      4  O   UNL     1      10.791  22.034  -6.762  1.00  0.00    -0.550 OA
ENDBRANCH   1   2
BRANCH   1   5
ATOM      5  C   UNL     1       9.870  23.254  -9.043  1.00  0.00     0.006 C 
BRANCH   5   6
ATOM      6  C   UNL     1      11.036  23.559  -9.996  1.00  0.00    -0.003 C 
ATOM      7  C   UNL     1      12.149  24.365  -9.329  1.00  0.00     0.004 C 
ENDBRANCH   5   6
ENDBRANCH   1   5
TORSDOF 3
ENDMDL
MODEL 6
REMARK VINA RESULT:    -3.484      2.732      3.592
REMARK INTER + INTRA:          -4.137
REMARK INTER:                  -4.070
REMARK INTRA:                  -0.067
REMARK UNBOUND:                -0.042
REMARK SMILES CCCCC(=O)[O-]
REMARK SMILES IDX 4 1 5 2 6 3 7 4 3 5 2 6 1 7
REMARK H PARENT
REMARK Flexibility Score: inf
ROOT
ATOM      1  C   UNL     1      10.036  21.099  -8.135  1.00  0.00     0.053 C 
ENDROOT
BRANCH   1   2
ATOM      2  C   UNL     1      10.422  21.743  -6.841  1.00  0.00     0.041 C 
ATOM      3  O   UNL     1      11.570  22.242  -6.700  1.00  0.00    -0.550 OA
ATOM      4  O   UNL     1       9.532  21.749  -5.775  1.00  0.00    -0.550 OA
ENDBRANCH   1   2
BRANCH   1   5
ATOM      5  C   UNL     1       9.890  22.157  -9.237  1.00  0.00     0.006 C 
BRANCH   5   6
ATOM      6  C   UNL     1       8.524  22.860  -9.203  1.00  0.00    -0.003 C 
ATOM      7  C   UNL     1       7.547  22.304 -10.236  1.00  0.00     0.004 C 
ENDBRANCH   5   6
ENDBRANCH   1   5
TORSDOF 3
ENDMDL
MODEL 7
REMARK VINA RESULT:    -3.483      4.148      4.965
REMARK INTER + INTRA:          -4.137
REMARK INTER:                  -4.092
REMARK INTRA:                  -0.045
REMARK UNBOUND:                -0.042
REMARK SMILES CCCCC(=O)[O-]
REMARK SMILES IDX 4 1 5 2 6 3 7 4 3 5 2 6 1 7
REMARK H PARENT
REMARK Flexibility Score: inf
ROOT
ATOM      1  C   UNL     1      11.520  22.852  -8.697  1.00  0.00     0.053 C 
ENDROOT
BRANCH   1   2
ATOM      2  C   UNL     1      12.317  24.088  -8.967  1.00  0.00     0.041 C 
ATOM      3  O   UNL     1      13.194  24.468  -8.147  1.00  0.00    -0.550 OA
ATOM      4  O   UNL     1      12.058  24.849 -10.100  1.00  0.00    -0.550 OA
ENDBRANCH   1   2
BRANCH   1   5
ATOM      5  C   UNL     1      10.417  22.685  -9.750  1.00  0.00     0.006 C 
BRANCH   5   6
ATOM      6  C   UNL     1       9.007  22.856  -9.161  1.00  0.00    -0.003 C 
ATOM      7  C   UNL     1       7.911  22.345 -10.093  1.00  0.00     0.004 C 
ENDBRANCH   5   6
ENDBRANCH   1   5
TORSDOF 3
ENDMDL
MODEL 8
REMARK VINA RESULT:    -3.399      2.373      3.501
REMARK INTER + INTRA:          -4.037
REMARK INTER:                  -3.947
REMARK INTRA:                  -0.090
REMARK UNBOUND:                -0.042
REMARK SMILES CCCCC(=O)[O-]
REMARK SMILES IDX 4 1 5 2 6 3 7 4 3 5 2 6 1 7
REMARK H PARENT
REMARK Flexibility Score: inf
ROOT
ATOM      1  C   UNL     1       9.501  22.957  -8.878  1.00  0.00     0.053 C 
ENDROOT
BRANCH   1   2
ATOM      2  C   UNL     1       9.882  21.934  -7.855  1.00  0.00     0.041 C 
ATOM      3  O   UNL     1       9.599  22.117  -6.641  1.00  0.00    -0.550 OA
ATOM      4  O   UNL     1      10.590  20.801  -8.234  1.00  0.00    -0.550 OA
ENDBRANCH   1   2
BRANCH   1   5
ATOM      5  C   UNL     1       8.260  22.500  -9.656  1.00  0.00     0.006 C 
BRANCH   5   6
ATOM      6  C   UNL     1       7.021  23.356  -9.346  1.00  0.00    -0.003 C 
ATOM      7  C   UNL     1       7.357  24.612  -8.544  1.00  0.00     0.004 C 
ENDBRANCH   5   6
ENDBRANCH   1   5
TORSDOF 3
ENDMDL
MODEL 9
REMARK VINA RESULT:    -3.364      2.967      4.095
REMARK INTER + INTRA:          -3.997
REMARK INTER:                  -3.951
REMARK INTRA:                  -0.046
REMARK UNBOUND:                -0.042
REMARK SMILES CCCCC(=O)[O-]
REMARK SMILES IDX 4 1 5 2 6 3 7 4 3 5 2 6 1 7
REMARK H PARENT
REMARK Flexibility Score: inf
ROOT
ATOM      1  C   UNL     1       8.626  23.221  -8.139  1.00  0.00     0.053 C 
ENDROOT
BRANCH   1   2
ATOM      2  C   UNL     1       8.818  22.486  -9.427  1.00  0.00     0.041 C 
ATOM      3  O   UNL     1       9.973  22.145  -9.796  1.00  0.00    -0.550 OA
ATOM      4  O   UNL     1       7.727  22.219 -10.245  1.00  0.00    -0.550 OA
ENDBRANCH   1   2
BRANCH   1   5
ATOM      5  C   UNL     1       7.296  23.986  -8.152  1.00  0.00     0.006 C 
BRANCH   5   6
ATOM      6  C   UNL     1       6.721  24.194  -6.742  1.00  0.00    -0.003 C 
ATOM      7  C   UNL     1       7.422  23.341  -5.686  1.00  0.00     0.004 C 
ENDBRANCH   5   6
ENDBRANCH   1   5
TORSDOF 3
ENDMDL
