MODEL 1
REMARK VINA RESULT:     2.877      0.000      0.000
REMARK INTER + INTRA:           4.608
REMARK INTER:                   5.231
REMARK INTRA:                  -0.623
REMARK UNBOUND:                -0.623
REMARK SMILES CCCCCCCCCCCCCC[C@@H](C)C(=O)[O-]
REMARK SMILES IDX 9 1 10 2 11 3 12 4 13 5 14 6 15 7 16 8 17 9 18 10 19 11 8 12
REMARK SMILES IDX 7 13 6 14 5 15 4 16 3 17 2 18 1 19
REMARK H PARENT
REMARK Flexibility Score: inf
ROOT
ATOM      1  C   UNL     1      92.621  16.228 119.398  1.00  0.00     0.000 C 
ENDROOT
BRANCH   1   2
ATOM      2  C   UNL     1      93.460  14.942 119.405  1.00  0.00     0.000 C 
BRANCH   2   3
ATOM      3  C   UNL     1      93.898  14.516 120.818  1.00  0.00     0.000 C 
BRANCH   3   4
ATOM      4  C   UNL     1      94.337  13.043 120.961  1.00  0.00     0.000 C 
BRANCH   4   5
ATOM      5  C   UNL     1      93.186  12.030 121.124  1.00  0.00     0.001 C 
BRANCH   5   6
ATOM      6  C   UNL     1      93.422  10.695 120.380  1.00  0.00     0.009 C 
BRANCH   6   7
ATOM      7  C   UNL     1      92.249   9.698 120.517  1.00  0.00     0.032 C 
ATOM      8  C   UNL     1      90.885  10.371 120.322  1.00  0.00     0.014 C 
BRANCH   7   9
ATOM      9  C   UNL     1      92.410   8.575 119.527  1.00  0.00     0.044 C 
ATOM     10  O   UNL     1      93.388   7.785 119.609  1.00  0.00    -0.550 OA
ATOM     11  O   UNL     1      91.472   8.401 118.517  1.00  0.00    -0.550 OA
ENDBRANCH   7   9
ENDBRANCH   6   7
ENDBRANCH   5   6
ENDBRANCH   4   5
ENDBRANCH   3   4
ENDBRANCH   2   3
ENDBRANCH   1   2
BRANCH   1  12
ATOM     12  C   UNL     1      93.073  17.186 120.507  1.00  0.00     0.000 C 
BRANCH  12  13
ATOM     13  C   UNL     1      92.095  18.361 120.652  1.00  0.00    -0.000 C 
BRANCH  13  14
ATOM     14  C   UNL     1      90.699  17.922 121.125  1.00  0.00    -0.000 C 
BRANCH  14  15
ATOM     15  C   UNL     1      89.561  18.148 120.108  1.00  0.00    -0.000 C 
BRANCH  15  16
ATOM     16  C   UNL     1      88.168  18.379 120.723  1.00  0.00    -0.000 C 
BRANCH  16  17
ATOM     17  C   UNL     1      87.026  17.922 119.800  1.00  0.00    -0.000 C 
BRANCH  17  18
ATOM     18  C   UNL     1      86.026  16.999 120.514  1.00  0.00    -0.003 C 
ATOM     19  C   UNL     1      84.666  17.658 120.739  1.00  0.00     0.004 C 
ENDBRANCH  17  18
ENDBRANCH  16  17
ENDBRANCH  15  16
ENDBRANCH  14  15
ENDBRANCH  13  14
ENDBRANCH  12  13
ENDBRANCH   1  12
TORSDOF 14
ENDMDL
