MODEL 1
REMARK VINA RESULT:    -4.044      0.000      0.000
REMARK INTER + INTRA:          -8.560
REMARK INTER:                  -6.881
REMARK INTRA:                  -1.679
REMARK UNBOUND:                -1.679
REMARK SMILES CCCCCCCCCCCCCC(=O)[O-]
REMARK SMILES IDX 8 1 9 2 10 3 11 4 12 5 13 6 14 7 15 8 16 9 7 10 6 11 5 12
REMARK SMILES IDX 4 13 3 14 2 15 1 16
REMARK H PARENT
REMARK Flexibility Score: inf
ROOT
ATOM      1  C   UNL     1     173.685 171.072 150.126  1.00  0.00     0.000 C 
ENDROOT
BRANCH   1   2
ATOM      2  C   UNL     1     173.335 172.571 150.133  1.00  0.00     0.000 C 
BRANCH   2   3
ATOM      3  C   UNL     1     174.521 173.466 149.742  1.00  0.00     0.000 C 
BRANCH   3   4
ATOM      4  C   UNL     1     175.000 174.296 150.943  1.00  0.00     0.000 C 
BRANCH   4   5
ATOM      5  C   UNL     1     174.330 173.874 152.264  1.00  0.00     0.006 C 
BRANCH   5   6
ATOM      6  C   UNL     1     175.272 173.173 153.255  1.00  0.00     0.053 C 
BRANCH   6   7
ATOM      7  C   UNL     1     174.737 171.845 153.695  1.00  0.00     0.041 C 
ATOM      8  O   UNL     1     175.511 170.977 154.176  1.00  0.00    -0.550 OA
ATOM      9  O   UNL     1     173.377 171.579 153.603  1.00  0.00    -0.550 OA
ENDBRANCH   6   7
ENDBRANCH   5   6
ENDBRANCH   4   5
ENDBRANCH   3   4
ENDBRANCH   2   3
ENDBRANCH   1   2
BRANCH   1  10
ATOM     10  C   UNL     1     175.192 170.755 150.092  1.00  0.00     0.000 C 
BRANCH  10  11
ATOM     11  C   UNL     1     175.551 169.474 150.867  1.00  0.00    -0.000 C 
BRANCH  11  12
ATOM     12  C   UNL     1     174.306 168.723 151.370  1.00  0.00    -0.000 C 
BRANCH  12  13
ATOM     13  C   UNL     1     174.273 167.260 150.896  1.00  0.00    -0.000 C 
BRANCH  13  14
ATOM     14  C   UNL     1     174.351 167.126 149.364  1.00  0.00    -0.000 C 
BRANCH  14  15
ATOM     15  C   UNL     1     173.139 167.691 148.601  1.00  0.00    -0.003 C 
ATOM     16  C   UNL     1     171.805 167.142 149.106  1.00  0.00     0.004 C 
ENDBRANCH  14  15
ENDBRANCH  13  14
ENDBRANCH  12  13
ENDBRANCH  11  12
ENDBRANCH  10  11
ENDBRANCH   1  10
TORSDOF 12
ENDMDL
MODEL 2
REMARK VINA RESULT:    -3.923      1.953      4.768
REMARK INTER + INTRA:          -8.355
REMARK INTER:                  -6.410
REMARK INTRA:                  -1.945
REMARK UNBOUND:                -1.679
REMARK SMILES CCCCCCCCCCCCCC(=O)[O-]
REMARK SMILES IDX 8 1 9 2 10 3 11 4 12 5 13 6 14 7 15 8 16 9 7 10 6 11 5 12
REMARK SMILES IDX 4 13 3 14 2 15 1 16
REMARK H PARENT
REMARK Flexibility Score: inf
ROOT
ATOM      1  C   UNL     1     175.124 174.358 150.689  1.00  0.00     0.000 C 
ENDROOT
BRANCH   1   2
ATOM      2  C   UNL     1     174.617 173.338 149.654  1.00  0.00     0.000 C 
BRANCH   2   3
ATOM      3  C   UNL     1     173.248 172.743 150.019  1.00  0.00     0.000 C 
BRANCH   3   4
ATOM      4  C   UNL     1     173.365 171.238 150.306  1.00  0.00     0.000 C 
BRANCH   4   5
ATOM      5  C   UNL     1     174.826 170.763 150.410  1.00  0.00     0.006 C 
BRANCH   5   6
ATOM      6  C   UNL     1     175.008 169.243 150.283  1.00  0.00     0.053 C 
BRANCH   6   7
ATOM      7  C   UNL     1     175.007 168.563 151.618  1.00  0.00     0.041 C 
ATOM      8  O   UNL     1     174.059 167.801 151.942  1.00  0.00    -0.550 OA
ATOM      9  O   UNL     1     176.072 168.747 152.490  1.00  0.00    -0.550 OA
ENDBRANCH   6   7
ENDBRANCH   5   6
ENDBRANCH   4   5
ENDBRANCH   3   4
ENDBRANCH   2   3
ENDBRANCH   1   2
BRANCH   1  10
ATOM     10  C   UNL     1     174.450 174.274 152.072  1.00  0.00     0.000 C 
BRANCH  10  11
ATOM     11  C   UNL     1     175.462 174.147 153.224  1.00  0.00    -0.000 C 
BRANCH  11  12
ATOM     12  C   UNL     1     174.955 173.234 154.353  1.00  0.00    -0.000 C 
BRANCH  12  13
ATOM     13  C   UNL     1     174.809 171.769 153.903  1.00  0.00    -0.000 C 
BRANCH  13  14
ATOM     14  C   UNL     1     173.356 171.266 153.968  1.00  0.00    -0.000 C 
BRANCH  14  15
ATOM     15  C   UNL     1     172.320 172.325 154.388  1.00  0.00    -0.003 C 
ATOM     16  C   UNL     1     171.358 172.700 153.262  1.00  0.00     0.004 C 
ENDBRANCH  14  15
ENDBRANCH  13  14
ENDBRANCH  12  13
ENDBRANCH  11  12
ENDBRANCH  10  11
ENDBRANCH   1  10
TORSDOF 12
ENDMDL
MODEL 3
REMARK VINA RESULT:    -3.901      2.365      6.099
REMARK INTER + INTRA:          -8.316
REMARK INTER:                  -6.847
REMARK INTRA:                  -1.469
REMARK UNBOUND:                -1.679
REMARK SMILES CCCCCCCCCCCCCC(=O)[O-]
REMARK SMILES IDX 8 1 9 2 10 3 11 4 12 5 13 6 14 7 15 8 16 9 7 10 6 11 5 12
REMARK SMILES IDX 4 13 3 14 2 15 1 16
REMARK H PARENT
REMARK Flexibility Score: inf
ROOT
ATOM      1  C   UNL     1     173.481 171.208 150.163  1.00  0.00     0.000 C 
ENDROOT
BRANCH   1   2
ATOM      2  C   UNL     1     174.925 170.757 150.450  1.00  0.00     0.000 C 
BRANCH   2   3
ATOM      3  C   UNL     1     175.043 169.245 150.695  1.00  0.00     0.000 C 
BRANCH   3   4
ATOM      4  C   UNL     1     175.156 168.482 149.366  1.00  0.00     0.000 C 
BRANCH   4   5
ATOM      5  C   UNL     1     174.171 167.301 149.271  1.00  0.00     0.006 C 
BRANCH   5   6
ATOM      6  C   UNL     1     173.034 167.505 148.259  1.00  0.00     0.053 C 
BRANCH   6   7
ATOM      7  C   UNL     1     171.698 167.606 148.928  1.00  0.00     0.041 C 
ATOM      8  O   UNL     1     171.594 168.150 150.058  1.00  0.00    -0.550 OA
ATOM      9  O   UNL     1     170.563 167.128 148.287  1.00  0.00    -0.550 OA
ENDBRANCH   6   7
ENDBRANCH   5   6
ENDBRANCH   4   5
ENDBRANCH   3   4
ENDBRANCH   2   3
ENDBRANCH   1   2
BRANCH   1  10
ATOM     10  C   UNL     1     173.253 172.731 150.212  1.00  0.00     0.000 C 
BRANCH  10  11
ATOM     11  C   UNL     1     174.454 173.533 149.681  1.00  0.00    -0.000 C 
BRANCH  11  12
ATOM     12  C   UNL     1     175.199 174.285 150.797  1.00  0.00    -0.000 C 
BRANCH  12  13
ATOM     13  C   UNL     1     174.487 174.170 152.157  1.00  0.00    -0.000 C 
BRANCH  13  14
ATOM     14  C   UNL     1     175.439 173.762 153.297  1.00  0.00    -0.000 C 
BRANCH  14  15
ATOM     15  C   UNL     1     175.112 172.413 153.963  1.00  0.00    -0.003 C 
ATOM     16  C   UNL     1     173.638 172.027 153.839  1.00  0.00     0.004 C 
ENDBRANCH  14  15
ENDBRANCH  13  14
ENDBRANCH  12  13
ENDBRANCH  11  12
ENDBRANCH  10  11
ENDBRANCH   1  10
TORSDOF 12
ENDMDL
MODEL 4
REMARK VINA RESULT:    -3.900      1.338      1.874
REMARK INTER + INTRA:          -8.316
REMARK INTER:                  -7.039
REMARK INTRA:                  -1.277
REMARK UNBOUND:                -1.679
REMARK SMILES CCCCCCCCCCCCCC(=O)[O-]
REMARK SMILES IDX 8 1 9 2 10 3 11 4 12 5 13 6 14 7 15 8 16 9 7 10 6 11 5 12
REMARK SMILES IDX 4 13 3 14 2 15 1 16
REMARK H PARENT
REMARK Flexibility Score: inf
ROOT
ATOM      1  C   UNL     1     172.549 172.180 150.516  1.00  0.00     0.000 C 
ENDROOT
BRANCH   1   2
ATOM      2  C   UNL     1     173.305 173.492 150.241  1.00  0.00     0.000 C 
BRANCH   2   3
ATOM      3  C   UNL     1     173.653 174.264 151.522  1.00  0.00     0.000 C 
BRANCH   3   4
ATOM      4  C   UNL     1     175.172 174.284 151.754  1.00  0.00     0.000 C 
BRANCH   4   5
ATOM      5  C   UNL     1     175.553 174.047 153.228  1.00  0.00     0.006 C 
BRANCH   5   6
ATOM      6  C   UNL     1     174.866 172.833 153.871  1.00  0.00     0.053 C 
BRANCH   6   7
ATOM      7  C   UNL     1     174.025 173.222 155.048  1.00  0.00     0.041 C 
ATOM      8  O   UNL     1     173.370 172.350 155.675  1.00  0.00    -0.550 OA
ATOM      9  O   UNL     1     173.992 174.544 155.471  1.00  0.00    -0.550 OA
ENDBRANCH   6   7
ENDBRANCH   5   6
ENDBRANCH   4   5
ENDBRANCH   3   4
ENDBRANCH   2   3
ENDBRANCH   1   2
BRANCH   1  10
ATOM     10  C   UNL     1     173.309 170.897 150.131  1.00  0.00     0.000 C 
BRANCH  10  11
ATOM     11  C   UNL     1     174.837 171.060 150.208  1.00  0.00    -0.000 C 
BRANCH  11  12
ATOM     12  C   UNL     1     175.571 169.709 150.272  1.00  0.00    -0.000 C 
BRANCH  12  13
ATOM     13  C   UNL     1     174.877 168.709 151.213  1.00  0.00    -0.000 C 
BRANCH  13  14
ATOM     14  C   UNL     1     174.489 167.396 150.509  1.00  0.00    -0.000 C 
BRANCH  14  15
ATOM     15  C   UNL     1     174.426 167.477 148.973  1.00  0.00    -0.003 C 
ATOM     16  C   UNL     1     172.997 167.568 148.438  1.00  0.00     0.004 C 
ENDBRANCH  14  15
ENDBRANCH  13  14
ENDBRANCH  12  13
ENDBRANCH  11  12
ENDBRANCH  10  11
ENDBRANCH   1  10
TORSDOF 12
ENDMDL
MODEL 5
REMARK VINA RESULT:    -3.854      1.899      5.463
REMARK INTER + INTRA:          -8.238
REMARK INTER:                  -6.614
REMARK INTRA:                  -1.624
REMARK UNBOUND:                -1.679
REMARK SMILES CCCCCCCCCCCCCC(=O)[O-]
REMARK SMILES IDX 8 1 9 2 10 3 11 4 12 5 13 6 14 7 15 8 16 9 7 10 6 11 5 12
REMARK SMILES IDX 4 13 3 14 2 15 1 16
REMARK H PARENT
REMARK Flexibility Score: inf
ROOT
ATOM      1  C   UNL     1     173.485 171.343 150.098  1.00  0.00     0.000 C 
ENDROOT
BRANCH   1   2
ATOM      2  C   UNL     1     175.010 171.153 150.189  1.00  0.00     0.000 C 
BRANCH   2   3
ATOM      3  C   UNL     1     175.429 169.676 150.223  1.00  0.00     0.000 C 
BRANCH   3   4
ATOM      4  C   UNL     1     174.224 168.758 149.966  1.00  0.00     0.000 C 
BRANCH   4   5
ATOM      5  C   UNL     1     174.621 167.277 149.820  1.00  0.00     0.006 C 
BRANCH   5   6
ATOM      6  C   UNL     1     173.977 166.344 150.856  1.00  0.00     0.053 C 
BRANCH   6   7
ATOM      7  C   UNL     1     174.207 166.818 152.259  1.00  0.00     0.041 C 
ATOM      8  O   UNL     1     175.371 166.846 152.736  1.00  0.00    -0.550 OA
ATOM      9  O   UNL     1     173.137 167.259 153.026  1.00  0.00    -0.550 OA
ENDBRANCH   6   7
ENDBRANCH   5   6
ENDBRANCH   4   5
ENDBRANCH   3   4
ENDBRANCH   2   3
ENDBRANCH   1   2
BRANCH   1  10
ATOM     10  C   UNL     1     173.009 172.808 150.107  1.00  0.00     0.000 C 
BRANCH  10  11
ATOM     11  C   UNL     1     174.117 173.794 150.517  1.00  0.00    -0.000 C 
BRANCH  11  12
ATOM     12  C   UNL     1     174.005 174.225 151.989  1.00  0.00    -0.000 C 
BRANCH  12  13
ATOM     13  C   UNL     1     175.348 174.125 152.733  1.00  0.00    -0.000 C 
BRANCH  13  14
ATOM     14  C   UNL     1     175.368 172.999 153.783  1.00  0.00    -0.000 C 
BRANCH  14  15
ATOM     15  C   UNL     1     174.159 172.047 153.736  1.00  0.00    -0.003 C 
ATOM     16  C   UNL     1     174.552 170.575 153.853  1.00  0.00     0.004 C 
ENDBRANCH  14  15
ENDBRANCH  13  14
ENDBRANCH  12  13
ENDBRANCH  11  12
ENDBRANCH  10  11
ENDBRANCH   1  10
TORSDOF 12
ENDMDL
MODEL 6
REMARK VINA RESULT:    -3.822      2.291      5.892
REMARK INTER + INTRA:          -8.182
REMARK INTER:                  -6.648
REMARK INTRA:                  -1.534
REMARK UNBOUND:                -1.679
REMARK SMILES CCCCCCCCCCCCCC(=O)[O-]
REMARK SMILES IDX 8 1 9 2 10 3 11 4 12 5 13 6 14 7 15 8 16 9 7 10 6 11 5 12
REMARK SMILES IDX 4 13 3 14 2 15 1 16
REMARK H PARENT
REMARK Flexibility Score: inf
ROOT
ATOM      1  C   UNL     1     174.014 170.563 150.924  1.00  0.00     0.000 C 
ENDROOT
BRANCH   1   2
ATOM      2  C   UNL     1     172.556 170.804 150.493  1.00  0.00     0.000 C 
BRANCH   2   3
ATOM      3  C   UNL     1     172.102 169.867 149.363  1.00  0.00     0.000 C 
BRANCH   3   4
ATOM      4  C   UNL     1     172.376 168.400 149.726  1.00  0.00     0.000 C 
BRANCH   4   5
ATOM      5  C   UNL     1     173.252 167.682 148.681  1.00  0.00     0.006 C 
BRANCH   5   6
ATOM      6  C   UNL     1     174.591 167.163 149.227  1.00  0.00     0.053 C 
BRANCH   6   7
ATOM      7  C   UNL     1     174.438 166.519 150.571  1.00  0.00     0.041 C 
ATOM      8  O   UNL     1     174.909 167.073 151.598  1.00  0.00    -0.550 OA
ATOM      9  O   UNL     1     173.746 165.321 150.691  1.00  0.00    -0.550 OA
ENDBRANCH   6   7
ENDBRANCH   5   6
ENDBRANCH   4   5
ENDBRANCH   3   4
ENDBRANCH   2   3
ENDBRANCH   1   2
BRANCH   1  10
ATOM     10  C   UNL     1     175.057 171.449 150.217  1.00  0.00     0.000 C 
BRANCH  10  11
ATOM     11  C   UNL     1     174.502 172.828 149.822  1.00  0.00    -0.000 C 
BRANCH  11  12
ATOM     12  C   UNL     1     174.858 173.920 150.846  1.00  0.00    -0.000 C 
BRANCH  12  13
ATOM     13  C   UNL     1     173.683 174.252 151.783  1.00  0.00    -0.000 C 
BRANCH  13  14
ATOM     14  C   UNL     1     173.825 173.603 153.171  1.00  0.00    -0.000 C 
BRANCH  14  15
ATOM     15  C   UNL     1     175.261 173.210 153.561  1.00  0.00    -0.003 C 
ATOM     16  C   UNL     1     175.313 172.105 154.616  1.00  0.00     0.004 C 
ENDBRANCH  14  15
ENDBRANCH  13  14
ENDBRANCH  12  13
ENDBRANCH  11  12
ENDBRANCH  10  11
ENDBRANCH   1  10
TORSDOF 12
ENDMDL
MODEL 7
REMARK VINA RESULT:    -3.807      2.089      5.628
REMARK INTER + INTRA:          -8.157
REMARK INTER:                  -6.611
REMARK INTRA:                  -1.546
REMARK UNBOUND:                -1.679
REMARK SMILES CCCCCCCCCCCCCC(=O)[O-]
REMARK SMILES IDX 8 1 9 2 10 3 11 4 12 5 13 6 14 7 15 8 16 9 7 10 6 11 5 12
REMARK SMILES IDX 4 13 3 14 2 15 1 16
REMARK H PARENT
REMARK Flexibility Score: inf
ROOT
ATOM      1  C   UNL     1     174.881 170.060 152.172  1.00  0.00     0.000 C 
ENDROOT
BRANCH   1   2
ATOM      2  C   UNL     1     175.357 170.383 150.744  1.00  0.00     0.000 C 
BRANCH   2   3
ATOM      3  C   UNL     1     175.133 169.224 149.761  1.00  0.00     0.000 C 
BRANCH   3   4
ATOM      4  C   UNL     1     173.683 168.721 149.828  1.00  0.00     0.000 C 
BRANCH   4   5
ATOM      5  C   UNL     1     173.558 167.218 149.517  1.00  0.00     0.006 C 
BRANCH   5   6
ATOM      6  C   UNL     1     174.555 166.329 150.276  1.00  0.00     0.053 C 
BRANCH   6   7
ATOM      7  C   UNL     1     174.239 166.254 151.739  1.00  0.00     0.041 C 
ATOM      8  O   UNL     1     173.090 165.912 152.123  1.00  0.00    -0.550 OA
ATOM      9  O   UNL     1     175.224 166.531 152.676  1.00  0.00    -0.550 OA
ENDBRANCH   6   7
ENDBRANCH   5   6
ENDBRANCH   4   5
ENDBRANCH   3   4
ENDBRANCH   2   3
ENDBRANCH   1   2
BRANCH   1  10
ATOM     10  C   UNL     1     174.110 171.194 152.874  1.00  0.00     0.000 C 
BRANCH  10  11
ATOM     11  C   UNL     1     174.972 171.966 153.888  1.00  0.00    -0.000 C 
BRANCH  11  12
ATOM     12  C   UNL     1     175.271 173.404 153.431  1.00  0.00    -0.000 C 
BRANCH  12  13
ATOM     13  C   UNL     1     174.373 173.847 152.262  1.00  0.00    -0.000 C 
BRANCH  13  14
ATOM     14  C   UNL     1     175.174 174.202 150.996  1.00  0.00    -0.000 C 
BRANCH  14  15
ATOM     15  C   UNL     1     174.533 173.744 149.673  1.00  0.00    -0.003 C 
ATOM     16  C   UNL     1     173.127 173.173 149.857  1.00  0.00     0.004 C 
ENDBRANCH  14  15
ENDBRANCH  13  14
ENDBRANCH  12  13
ENDBRANCH  11  12
ENDBRANCH  10  11
ENDBRANCH   1  10
TORSDOF 12
ENDMDL
MODEL 8
REMARK VINA RESULT:    -3.794      1.650      2.967
REMARK INTER + INTRA:          -8.135
REMARK INTER:                  -6.462
REMARK INTRA:                  -1.673
REMARK UNBOUND:                -1.679
REMARK SMILES CCCCCCCCCCCCCC(=O)[O-]
REMARK SMILES IDX 8 1 9 2 10 3 11 4 12 5 13 6 14 7 15 8 16 9 7 10 6 11 5 12
REMARK SMILES IDX 4 13 3 14 2 15 1 16
REMARK H PARENT
REMARK Flexibility Score: inf
ROOT
ATOM      1  C   UNL     1     171.506 170.461 150.436  1.00  0.00     0.000 C 
ENDROOT
BRANCH   1   2
ATOM      2  C   UNL     1     172.217 171.605 151.182  1.00  0.00     0.000 C 
BRANCH   2   3
ATOM      3  C   UNL     1     172.131 172.948 150.441  1.00  0.00     0.000 C 
BRANCH   3   4
ATOM      4  C   UNL     1     173.450 173.259 149.717  1.00  0.00     0.000 C 
BRANCH   4   5
ATOM      5  C   UNL     1     174.684 173.076 150.620  1.00  0.00     0.006 C 
BRANCH   5   6
ATOM      6  C   UNL     1     174.903 174.214 151.629  1.00  0.00     0.053 C 
BRANCH   6   7
ATOM      7  C   UNL     1     175.150 173.697 153.013  1.00  0.00     0.041 C 
ATOM      8  O   UNL     1     175.425 172.482 153.197  1.00  0.00    -0.550 OA
ATOM      9  O   UNL     1     175.108 174.565 154.096  1.00  0.00    -0.550 OA
ENDBRANCH   6   7
ENDBRANCH   5   6
ENDBRANCH   4   5
ENDBRANCH   3   4
ENDBRANCH   2   3
ENDBRANCH   1   2
BRANCH   1  10
ATOM     10  C   UNL     1     172.325 169.815 149.302  1.00  0.00     0.000 C 
BRANCH  10  11
ATOM     11  C   UNL     1     172.578 168.314 149.527  1.00  0.00    -0.000 C 
BRANCH  11  12
ATOM     12  C   UNL     1     174.069 167.994 149.735  1.00  0.00    -0.000 C 
BRANCH  12  13
ATOM     13  C   UNL     1     174.945 169.259 149.740  1.00  0.00    -0.000 C 
BRANCH  13  14
ATOM     14  C   UNL     1     175.615 169.516 151.102  1.00  0.00    -0.000 C 
BRANCH  14  15
ATOM     15  C   UNL     1     174.762 169.140 152.326  1.00  0.00    -0.003 C 
ATOM     16  C   UNL     1     175.566 168.440 153.422  1.00  0.00     0.004 C 
ENDBRANCH  14  15
ENDBRANCH  13  14
ENDBRANCH  12  13
ENDBRANCH  11  12
ENDBRANCH  10  11
ENDBRANCH   1  10
TORSDOF 12
ENDMDL
MODEL 9
REMARK VINA RESULT:    -3.730      2.066      5.253
REMARK INTER + INTRA:          -8.026
REMARK INTER:                  -5.941
REMARK INTRA:                  -2.085
REMARK UNBOUND:                -1.679
REMARK SMILES CCCCCCCCCCCCCC(=O)[O-]
REMARK SMILES IDX 8 1 9 2 10 3 11 4 12 5 13 6 14 7 15 8 16 9 7 10 6 11 5 12
REMARK SMILES IDX 4 13 3 14 2 15 1 16
REMARK H PARENT
REMARK Flexibility Score: inf
ROOT
ATOM      1  C   UNL     1     171.154 172.337 152.129  1.00  0.00     0.000 C 
ENDROOT
BRANCH   1   2
ATOM      2  C   UNL     1     171.892 170.995 151.975  1.00  0.00     0.000 C 
BRANCH   2   3
ATOM      3  C   UNL     1     171.856 170.452 150.538  1.00  0.00     0.000 C 
BRANCH   3   4
ATOM      4  C   UNL     1     173.274 170.143 150.033  1.00  0.00     0.000 C 
BRANCH   4   5
ATOM      5  C   UNL     1     174.352 170.370 151.110  1.00  0.00     0.006 C 
BRANCH   5   6
ATOM      6  C   UNL     1     175.364 169.222 151.243  1.00  0.00     0.053 C 
BRANCH   6   7
ATOM      7  C   UNL     1     175.014 168.292 152.365  1.00  0.00     0.041 C 
ATOM      8  O   UNL     1     175.887 167.958 153.208  1.00  0.00    -0.550 OA
ATOM      9  O   UNL     1     173.715 167.821 152.496  1.00  0.00    -0.550 OA
ENDBRANCH   6   7
ENDBRANCH   5   6
ENDBRANCH   4   5
ENDBRANCH   3   4
ENDBRANCH   2   3
ENDBRANCH   1   2
BRANCH   1  10
ATOM     10  C   UNL     1     171.190 173.247 150.887  1.00  0.00     0.000 C 
BRANCH  10  11
ATOM     11  C   UNL     1     172.356 174.251 150.915  1.00  0.00    -0.000 C 
BRANCH  11  12
ATOM     12  C   UNL     1     173.483 173.869 149.940  1.00  0.00    -0.000 C 
BRANCH  12  13
ATOM     13  C   UNL     1     174.854 173.782 150.634  1.00  0.00    -0.000 C 
BRANCH  13  14
ATOM     14  C   UNL     1     174.827 174.315 152.078  1.00  0.00    -0.000 C 
BRANCH  14  15
ATOM     15  C   UNL     1     175.368 173.341 153.140  1.00  0.00    -0.003 C 
ATOM     16  C   UNL     1     174.314 172.931 154.167  1.00  0.00     0.004 C 
ENDBRANCH  14  15
ENDBRANCH  13  14
ENDBRANCH  12  13
ENDBRANCH  11  12
ENDBRANCH  10  11
ENDBRANCH   1  10
TORSDOF 12
ENDMDL
