MODEL 1
REMARK VINA RESULT:    -5.526      0.000      0.000
REMARK INTER + INTRA:          -6.386
REMARK INTER:                  -6.334
REMARK INTRA:                  -0.052
REMARK UNBOUND:                -0.052
REMARK SMILES O=C([O-])c1cc(O)c(O)c(O)c1
REMARK SMILES IDX 4 1 5 2 12 3 6 4 10 5 8 6 2 7 1 8 3 9 7 10 11 12 9 14
REMARK H PARENT 7 11 11 13 9 15
REMARK Flexibility Score: inf
ROOT
ATOM      1  C   UNL     1     -32.989  -3.398 -17.962  1.00  0.00     0.005 A 
ATOM      2  C   UNL     1     -33.392  -2.790 -19.164  1.00  0.00     0.060 A 
ATOM      3  C   UNL     1     -31.617  -3.500 -17.678  1.00  0.00     0.060 A 
ATOM      4  C   UNL     1     -32.442  -2.293 -20.067  1.00  0.00     0.162 A 
ATOM      5  C   UNL     1     -30.662  -3.006 -18.573  1.00  0.00     0.162 A 
ATOM      6  C   UNL     1     -31.072  -2.400 -19.773  1.00  0.00     0.200 A 
ENDROOT
BRANCH   1   7
ATOM      7  C   UNL     1     -33.991  -3.922 -17.009  1.00  0.00     0.072 C 
ATOM      8  O   UNL     1     -35.201  -4.028 -17.344  1.00  0.00    -0.545 OA
ATOM      9  O   UNL     1     -33.611  -4.308 -15.729  1.00  0.00    -0.545 OA
ENDBRANCH   1   7
BRANCH   4  10
ATOM     10  O   UNL     1     -32.856  -1.692 -21.256  1.00  0.00    -0.504 OA
ATOM     11  H   UNL     1     -32.209  -1.519 -22.016  1.00  0.00     0.293 HD
ENDBRANCH   4  10
BRANCH   5  12
ATOM     12  O   UNL     1     -29.311  -3.127 -18.253  1.00  0.00    -0.504 OA
ATOM     13  H   UNL     1     -28.689  -3.743 -18.763  1.00  0.00     0.293 HD
ENDBRANCH   5  12
BRANCH   6  14
ATOM     14  O   UNL     1     -30.113  -1.910 -20.661  1.00  0.00    -0.502 OA
ATOM     15  H   UNL     1     -29.817  -2.431 -21.477  1.00  0.00     0.293 HD
ENDBRANCH   6  14
TORSDOF 4
ENDMDL
MODEL 2
REMARK VINA RESULT:    -5.524      0.051      2.430
REMARK INTER + INTRA:          -6.384
REMARK INTER:                  -6.331
REMARK INTRA:                  -0.053
REMARK UNBOUND:                -0.052
REMARK SMILES O=C([O-])c1cc(O)c(O)c(O)c1
REMARK SMILES IDX 4 1 5 2 12 3 6 4 10 5 8 6 2 7 1 8 3 9 7 10 11 12 9 14
REMARK H PARENT 7 11 11 13 9 15
REMARK Flexibility Score: inf
ROOT
ATOM      1  C   UNL     1     -32.953  -3.417 -17.981  1.00  0.00     0.005 A 
ATOM      2  C   UNL     1     -31.582  -3.504 -17.683  1.00  0.00     0.060 A 
ATOM      3  C   UNL     1     -33.351  -2.815 -19.186  1.00  0.00     0.060 A 
ATOM      4  C   UNL     1     -30.625  -2.999 -18.572  1.00  0.00     0.162 A 
ATOM      5  C   UNL     1     -32.402  -2.308 -20.080  1.00  0.00     0.162 A 
ATOM      6  C   UNL     1     -31.033  -2.399 -19.776  1.00  0.00     0.200 A 
ENDROOT
BRANCH   1   7
ATOM      7  C   UNL     1     -33.965  -3.950 -17.042  1.00  0.00     0.072 C 
ATOM      8  O   UNL     1     -35.161  -4.105 -17.409  1.00  0.00    -0.545 OA
ATOM      9  O   UNL     1     -33.610  -4.290 -15.742  1.00  0.00    -0.545 OA
ENDBRANCH   1   7
BRANCH   4  10
ATOM     10  O   UNL     1     -29.267  -3.092 -18.265  1.00  0.00    -0.504 OA
ATOM     11  H   UNL     1     -28.696  -3.857 -18.606  1.00  0.00     0.293 HD
ENDBRANCH   4  10
BRANCH   5  12
ATOM     12  O   UNL     1     -32.838  -1.718 -21.265  1.00  0.00    -0.504 OA
ATOM     13  H   UNL     1     -33.816  -1.698 -21.530  1.00  0.00     0.293 HD
ENDBRANCH   5  12
BRANCH   6  14
ATOM     14  O   UNL     1     -30.092  -1.890 -20.673  1.00  0.00    -0.502 OA
ATOM     15  H   UNL     1     -29.308  -2.439 -21.002  1.00  0.00     0.293 HD
ENDBRANCH   6  14
TORSDOF 4
ENDMDL
MODEL 3
REMARK VINA RESULT:    -5.177      1.380      4.163
REMARK INTER + INTRA:          -5.986
REMARK INTER:                  -5.933
REMARK INTRA:                  -0.053
REMARK UNBOUND:                -0.052
REMARK SMILES O=C([O-])c1cc(O)c(O)c(O)c1
REMARK SMILES IDX 4 1 5 2 12 3 6 4 10 5 8 6 2 7 1 8 3 9 7 10 11 12 9 14
REMARK H PARENT 7 11 11 13 9 15
REMARK Flexibility Score: inf
ROOT
ATOM      1  C   UNL     1     -31.077  -2.345 -19.913  1.00  0.00     0.005 A 
ATOM      2  C   UNL     1     -32.447  -2.396 -20.225  1.00  0.00     0.060 A 
ATOM      3  C   UNL     1     -30.660  -2.690 -18.617  1.00  0.00     0.060 A 
ATOM      4  C   UNL     1     -33.385  -2.782 -19.258  1.00  0.00     0.162 A 
ATOM      5  C   UNL     1     -31.590  -3.077 -17.646  1.00  0.00     0.162 A 
ATOM      6  C   UNL     1     -32.958  -3.125 -17.964  1.00  0.00     0.200 A 
ENDROOT
BRANCH   1   7
ATOM      7  C   UNL     1     -30.086  -1.937 -20.932  1.00  0.00     0.072 C 
ATOM      8  O   UNL     1     -30.462  -1.472 -22.042  1.00  0.00    -0.545 OA
ATOM      9  O   UNL     1     -28.725  -2.059 -20.680  1.00  0.00    -0.545 OA
ENDBRANCH   1   7
BRANCH   4  10
ATOM     10  O   UNL     1     -34.742  -2.828 -19.580  1.00  0.00    -0.504 OA
ATOM     11  H   UNL     1     -35.136  -3.594 -20.114  1.00  0.00     0.293 HD
ENDBRANCH   4  10
BRANCH   5  12
ATOM     12  O   UNL     1     -31.136  -3.411 -16.371  1.00  0.00    -0.504 OA
ATOM     13  H   UNL     1     -30.341  -4.021 -16.224  1.00  0.00     0.293 HD
ENDBRANCH   5  12
BRANCH   6  14
ATOM     14  O   UNL     1     -33.880  -3.513 -16.989  1.00  0.00    -0.502 OA
ATOM     15  H   UNL     1     -34.484  -2.848 -16.523  1.00  0.00     0.293 HD
ENDBRANCH   6  14
TORSDOF 4
ENDMDL
MODEL 4
REMARK VINA RESULT:    -5.172      1.390      4.811
REMARK INTER + INTRA:          -5.980
REMARK INTER:                  -5.927
REMARK INTRA:                  -0.053
REMARK UNBOUND:                -0.052
REMARK SMILES O=C([O-])c1cc(O)c(O)c(O)c1
REMARK SMILES IDX 4 1 5 2 12 3 6 4 10 5 8 6 2 7 1 8 3 9 7 10 11 12 9 14
REMARK H PARENT 7 11 11 13 9 15
REMARK Flexibility Score: inf
ROOT
ATOM      1  C   UNL     1     -31.018  -2.374 -19.868  1.00  0.00     0.005 A 
ATOM      2  C   UNL     1     -30.607  -2.742 -18.575  1.00  0.00     0.060 A 
ATOM      3  C   UNL     1     -32.387  -2.395 -20.179  1.00  0.00     0.060 A 
ATOM      4  C   UNL     1     -31.547  -3.125 -17.609  1.00  0.00     0.162 A 
ATOM      5  C   UNL     1     -33.333  -2.775 -19.221  1.00  0.00     0.162 A 
ATOM      6  C   UNL     1     -32.916  -3.142 -17.931  1.00  0.00     0.200 A 
ENDROOT
BRANCH   1   7
ATOM      7  C   UNL     1     -30.026  -1.970 -20.889  1.00  0.00     0.072 C 
ATOM      8  O   UNL     1     -30.401  -1.560 -22.020  1.00  0.00    -0.545 OA
ATOM      9  O   UNL     1     -28.665  -2.035 -20.613  1.00  0.00    -0.545 OA
ENDBRANCH   1   7
BRANCH   4  10
ATOM     10  O   UNL     1     -31.127  -3.488 -16.330  1.00  0.00    -0.504 OA
ATOM     11  H   UNL     1     -31.190  -2.846 -15.548  1.00  0.00     0.293 HD
ENDBRANCH   4  10
BRANCH   5  12
ATOM     12  O   UNL     1     -34.682  -2.783 -19.570  1.00  0.00    -0.504 OA
ATOM     13  H   UNL     1     -35.303  -3.540 -19.311  1.00  0.00     0.293 HD
ENDBRANCH   5  12
BRANCH   6  14
ATOM     14  O   UNL     1     -33.865  -3.521 -16.980  1.00  0.00    -0.502 OA
ATOM     15  H   UNL     1     -34.154  -4.484 -16.859  1.00  0.00     0.293 HD
ENDBRANCH   6  14
TORSDOF 4
ENDMDL
MODEL 5
REMARK VINA RESULT:    -5.129      4.763      6.643
REMARK INTER + INTRA:          -5.931
REMARK INTER:                  -5.882
REMARK INTRA:                  -0.049
REMARK UNBOUND:                -0.052
REMARK SMILES O=C([O-])c1cc(O)c(O)c(O)c1
REMARK SMILES IDX 4 1 5 2 12 3 6 4 10 5 8 6 2 7 1 8 3 9 7 10 11 12 9 14
REMARK H PARENT 7 11 11 13 9 15
REMARK Flexibility Score: inf
ROOT
ATOM      1  C   UNL     1     -36.697  -6.992 -14.812  1.00  0.00     0.005 A 
ATOM      2  C   UNL     1     -36.324  -6.135 -13.761  1.00  0.00     0.060 A 
ATOM      3  C   UNL     1     -36.099  -6.825 -16.072  1.00  0.00     0.060 A 
ATOM      4  C   UNL     1     -35.371  -5.129 -13.966  1.00  0.00     0.162 A 
ATOM      5  C   UNL     1     -35.146  -5.823 -16.284  1.00  0.00     0.162 A 
ATOM      6  C   UNL     1     -34.778  -4.970 -15.230  1.00  0.00     0.200 A 
ENDROOT
BRANCH   1   7
ATOM      7  C   UNL     1     -37.702  -8.055 -14.598  1.00  0.00     0.072 C 
ATOM      8  O   UNL     1     -37.683  -8.754 -13.549  1.00  0.00    -0.545 OA
ATOM      9  O   UNL     1     -38.685  -8.299 -15.550  1.00  0.00    -0.545 OA
ENDBRANCH   1   7
BRANCH   4  10
ATOM     10  O   UNL     1     -35.009  -4.285 -12.915  1.00  0.00    -0.504 OA
ATOM     11  H   UNL     1     -34.818  -4.644 -11.987  1.00  0.00     0.293 HD
ENDBRANCH   4  10
BRANCH   5  12
ATOM     12  O   UNL     1     -34.577  -5.690 -17.550  1.00  0.00    -0.504 OA
ATOM     13  H   UNL     1     -35.127  -5.755 -18.398  1.00  0.00     0.293 HD
ENDBRANCH   5  12
BRANCH   6  14
ATOM     14  O   UNL     1     -33.827  -3.971 -15.450  1.00  0.00    -0.502 OA
ATOM     15  H   UNL     1     -33.430  -3.796 -16.365  1.00  0.00     0.293 HD
ENDBRANCH   6  14
TORSDOF 4
ENDMDL
MODEL 6
REMARK VINA RESULT:    -5.085      4.744      6.417
REMARK INTER + INTRA:          -5.881
REMARK INTER:                  -5.832
REMARK INTRA:                  -0.049
REMARK UNBOUND:                -0.052
REMARK SMILES O=C([O-])c1cc(O)c(O)c(O)c1
REMARK SMILES IDX 4 1 5 2 12 3 6 4 10 5 8 6 2 7 1 8 3 9 7 10 11 12 9 14
REMARK H PARENT 7 11 11 13 9 15
REMARK Flexibility Score: inf
ROOT
ATOM      1  C   UNL     1     -36.646  -6.986 -14.743  1.00  0.00     0.005 A 
ATOM      2  C   UNL     1     -36.138  -6.819 -16.042  1.00  0.00     0.060 A 
ATOM      3  C   UNL     1     -36.228  -6.107 -13.729  1.00  0.00     0.060 A 
ATOM      4  C   UNL     1     -35.228  -5.791 -16.326  1.00  0.00     0.162 A 
ATOM      5  C   UNL     1     -35.321  -5.079 -14.004  1.00  0.00     0.162 A 
ATOM      6  C   UNL     1     -34.817  -4.917 -15.306  1.00  0.00     0.200 A 
ENDROOT
BRANCH   1   7
ATOM      7  C   UNL     1     -37.606  -8.071 -14.442  1.00  0.00     0.072 C 
ATOM      8  O   UNL     1     -37.497  -8.749 -13.385  1.00  0.00    -0.545 OA
ATOM      9  O   UNL     1     -38.644  -8.356 -15.320  1.00  0.00    -0.545 OA
ENDBRANCH   1   7
BRANCH   4  10
ATOM     10  O   UNL     1     -34.731  -5.635 -17.621  1.00  0.00    -0.504 OA
ATOM     11  H   UNL     1     -34.471  -6.432 -18.190  1.00  0.00     0.293 HD
ENDBRANCH   4  10
BRANCH   5  12
ATOM     12  O   UNL     1     -34.931  -4.228 -12.971  1.00  0.00    -0.504 OA
ATOM     13  H   UNL     1     -35.323  -4.296 -12.039  1.00  0.00     0.293 HD
ENDBRANCH   5  12
BRANCH   6  14
ATOM     14  O   UNL     1     -33.911  -3.888 -15.572  1.00  0.00    -0.502 OA
ATOM     15  H   UNL     1     -33.905  -3.024 -15.045  1.00  0.00     0.293 HD
ENDBRANCH   6  14
TORSDOF 4
ENDMDL
MODEL 7
REMARK VINA RESULT:    -4.993      7.187      9.032
REMARK INTER + INTRA:          -5.775
REMARK INTER:                  -5.724
REMARK INTRA:                  -0.050
REMARK UNBOUND:                -0.052
REMARK SMILES O=C([O-])c1cc(O)c(O)c(O)c1
REMARK SMILES IDX 4 1 5 2 12 3 6 4 10 5 8 6 2 7 1 8 3 9 7 10 11 12 9 14
REMARK H PARENT 7 11 11 13 9 15
REMARK Flexibility Score: inf
ROOT
ATOM      1  C   UNL     1     -37.192  -5.679 -13.467  1.00  0.00     0.005 A 
ATOM      2  C   UNL     1     -36.597  -6.819 -14.034  1.00  0.00     0.060 A 
ATOM      3  C   UNL     1     -38.594  -5.588 -13.435  1.00  0.00     0.060 A 
ATOM      4  C   UNL     1     -37.387  -7.850 -14.561  1.00  0.00     0.162 A 
ATOM      5  C   UNL     1     -39.389  -6.612 -13.958  1.00  0.00     0.162 A 
ATOM      6  C   UNL     1     -38.788  -7.749 -14.524  1.00  0.00     0.200 A 
ENDROOT
BRANCH   1   7
ATOM      7  C   UNL     1     -36.360  -4.590 -12.911  1.00  0.00     0.072 C 
ATOM      8  O   UNL     1     -35.232  -4.328 -13.408  1.00  0.00    -0.545 OA
ATOM      9  O   UNL     1     -36.811  -3.839 -11.832  1.00  0.00    -0.545 OA
ENDBRANCH   1   7
BRANCH   4  10
ATOM     10  O   UNL     1     -36.783  -8.976 -15.121  1.00  0.00    -0.504 OA
ATOM     11  H   UNL     1     -37.108  -9.913 -14.912  1.00  0.00     0.293 HD
ENDBRANCH   4  10
BRANCH   5  12
ATOM     12  O   UNL     1     -40.777  -6.483 -13.907  1.00  0.00    -0.504 OA
ATOM     13  H   UNL     1     -41.236  -5.580 -13.936  1.00  0.00     0.293 HD
ENDBRANCH   5  12
BRANCH   6  14
ATOM     14  O   UNL     1     -39.589  -8.767 -15.044  1.00  0.00    -0.502 OA
ATOM     15  H   UNL     1     -40.419  -8.575 -15.591  1.00  0.00     0.293 HD
ENDBRANCH   6  14
TORSDOF 4
ENDMDL
MODEL 8
REMARK VINA RESULT:    -4.962      6.568      8.561
REMARK INTER + INTRA:          -5.739
REMARK INTER:                  -5.691
REMARK INTRA:                  -0.049
REMARK UNBOUND:                -0.052
REMARK SMILES O=C([O-])c1cc(O)c(O)c(O)c1
REMARK SMILES IDX 4 1 5 2 12 3 6 4 10 5 8 6 2 7 1 8 3 9 7 10 11 12 9 14
REMARK H PARENT 7 11 11 13 9 15
REMARK Flexibility Score: inf
ROOT
ATOM      1  C   UNL     1     -36.873  -5.713 -13.822  1.00  0.00     0.005 A 
ATOM      2  C   UNL     1     -38.263  -5.510 -13.761  1.00  0.00     0.060 A 
ATOM      3  C   UNL     1     -36.385  -6.932 -14.323  1.00  0.00     0.060 A 
ATOM      4  C   UNL     1     -39.150  -6.505 -14.192  1.00  0.00     0.162 A 
ATOM      5  C   UNL     1     -37.264  -7.930 -14.756  1.00  0.00     0.162 A 
ATOM      6  C   UNL     1     -38.652  -7.720 -14.692  1.00  0.00     0.200 A 
ENDROOT
BRANCH   1   7
ATOM      7  C   UNL     1     -35.935  -4.664 -13.366  1.00  0.00     0.072 C 
ATOM      8  O   UNL     1     -36.148  -4.036 -12.295  1.00  0.00    -0.545 OA
ATOM      9  O   UNL     1     -34.805  -4.356 -14.114  1.00  0.00    -0.545 OA
ENDBRANCH   1   7
BRANCH   4  10
ATOM     10  O   UNL     1     -40.527  -6.290 -14.126  1.00  0.00    -0.504 OA
ATOM     11  H   UNL     1     -41.160  -7.004 -13.786  1.00  0.00     0.293 HD
ENDBRANCH   4  10
BRANCH   5  12
ATOM     12  O   UNL     1     -36.739  -9.125 -15.246  1.00  0.00    -0.504 OA
ATOM     13  H   UNL     1     -36.173  -9.162 -16.086  1.00  0.00     0.293 HD
ENDBRANCH   5  12
BRANCH   6  14
ATOM     14  O   UNL     1     -39.522  -8.722 -15.126  1.00  0.00    -0.502 OA
ATOM     15  H   UNL     1     -40.518  -8.567 -15.222  1.00  0.00     0.293 HD
ENDBRANCH   6  14
TORSDOF 4
ENDMDL
MODEL 9
REMARK VINA RESULT:    -4.920      2.376      3.990
REMARK INTER + INTRA:          -5.692
REMARK INTER:                  -5.645
REMARK INTRA:                  -0.046
REMARK UNBOUND:                -0.052
REMARK SMILES O=C([O-])c1cc(O)c(O)c(O)c1
REMARK SMILES IDX 4 1 5 2 12 3 6 4 10 5 8 6 2 7 1 8 3 9 7 10 11 12 9 14
REMARK H PARENT 7 11 11 13 9 15
REMARK Flexibility Score: inf
ROOT
ATOM      1  C   UNL     1     -35.149  -5.064 -16.875  1.00  0.00     0.005 A 
ATOM      2  C   UNL     1     -33.771  -4.840 -17.043  1.00  0.00     0.060 A 
ATOM      3  C   UNL     1     -36.056  -4.389 -17.710  1.00  0.00     0.060 A 
ATOM      4  C   UNL     1     -33.307  -3.957 -18.027  1.00  0.00     0.162 A 
ATOM      5  C   UNL     1     -35.600  -3.506 -18.694  1.00  0.00     0.162 A 
ATOM      6  C   UNL     1     -34.222  -3.287 -18.857  1.00  0.00     0.200 A 
ENDROOT
BRANCH   1   7
ATOM      7  C   UNL     1     -35.641  -5.996 -15.837  1.00  0.00     0.072 C 
ATOM      8  O   UNL     1     -36.320  -7.009 -16.155  1.00  0.00    -0.545 OA
ATOM      9  O   UNL     1     -35.361  -5.768 -14.495  1.00  0.00    -0.545 OA
ENDBRANCH   1   7
BRANCH   4  10
ATOM     10  O   UNL     1     -31.937  -3.744 -18.184  1.00  0.00    -0.504 OA
ATOM     11  H   UNL     1     -31.296  -3.809 -17.401  1.00  0.00     0.293 HD
ENDBRANCH   4  10
BRANCH   5  12
ATOM     12  O   UNL     1     -36.532  -2.856 -19.501  1.00  0.00    -0.504 OA
ATOM     13  H   UNL     1     -36.562  -2.988 -20.505  1.00  0.00     0.293 HD
ENDBRANCH   5  12
BRANCH   6  14
ATOM     14  O   UNL     1     -33.775  -2.403 -19.842  1.00  0.00    -0.502 OA
ATOM     15  H   UNL     1     -33.007  -1.763 -19.684  1.00  0.00     0.293 HD
ENDBRANCH   6  14
TORSDOF 4
ENDMDL
