MODEL 1
REMARK VINA RESULT:    -4.701      0.000      0.000
REMARK INTER + INTRA:          -5.961
REMARK INTER:                  -5.525
REMARK INTRA:                  -0.436
REMARK UNBOUND:                -0.436
REMARK SMILES CCCC[C@@H]1OC(=O)C2=C1CCC=C2
REMARK SMILES IDX 3 1 2 2 1 3 4 4 5 5 10 6 6 7 9 8 11 9 7 10 14 11 12 12 8 13
REMARK SMILES IDX 13 14
REMARK H PARENT
REMARK Flexibility Score: inf
ROOT
ATOM      1  C   UNL     1     -16.999 -19.593  13.557  1.00  0.00     0.004 C 
ENDROOT
BRANCH   1   2
ATOM      2  C   UNL     1     -17.084 -21.127  13.543  1.00  0.00    -0.003 C 
ATOM      3  C   UNL     1     -16.866 -21.717  12.149  1.00  0.00     0.004 C 
ENDBRANCH   1   2
BRANCH   1   4
ATOM      4  C   UNL     1     -16.062 -19.066  14.655  1.00  0.00     0.050 C 
BRANCH   4   5
ATOM      5  C   UNL     1     -14.712 -18.627  14.070  1.00  0.00     0.204 C 
ATOM      6  C   UNL     1     -13.562 -19.357  14.721  1.00  0.00    -0.015 C 
ATOM      7  O   UNL     1     -14.607 -19.023  12.698  1.00  0.00    -0.454 OA
ATOM      8  C   UNL     1     -12.913 -20.095  13.837  1.00  0.00     0.062 C 
ATOM      9  C   UNL     1     -13.240 -19.428  16.189  1.00  0.00     0.040 C 
ATOM     10  C   UNL     1     -13.546 -19.901  12.559  1.00  0.00     0.338 C 
ATOM     11  C   UNL     1     -11.788 -20.965  14.200  1.00  0.00     0.011 C 
ATOM     12  C   UNL     1     -11.764 -19.832  16.414  1.00  0.00     0.032 C 
ATOM     13  O   UNL     1     -13.206 -20.439  11.473  1.00  0.00    -0.246 OA
ATOM     14  C   UNL     1     -11.291 -20.896  15.442  1.00  0.00    -0.026 C 
ENDBRANCH   4   5
ENDBRANCH   1   4
TORSDOF 3
ENDMDL
MODEL 2
REMARK VINA RESULT:    -4.532      1.385      4.731
REMARK INTER + INTRA:          -5.763
REMARK INTER:                  -5.392
REMARK INTRA:                  -0.371
REMARK UNBOUND:                -0.436
REMARK SMILES CCCC[C@@H]1OC(=O)C2=C1CCC=C2
REMARK SMILES IDX 3 1 2 2 1 3 4 4 5 5 10 6 6 7 9 8 11 9 7 10 14 11 12 12 8 13
REMARK SMILES IDX 13 14
REMARK H PARENT
REMARK Flexibility Score: inf
ROOT
ATOM      1  C   UNL     1     -11.359 -18.981  14.810  1.00  0.00     0.004 C 
ENDROOT
BRANCH   1   2
ATOM      2  C   UNL     1     -11.439 -19.256  16.319  1.00  0.00    -0.003 C 
ATOM      3  C   UNL     1     -11.904 -20.677  16.637  1.00  0.00     0.004 C 
ENDBRANCH   1   2
BRANCH   1   4
ATOM      4  C   UNL     1     -12.122 -20.026  13.980  1.00  0.00     0.050 C 
BRANCH   4   5
ATOM      5  C   UNL     1     -13.175 -19.361  13.082  1.00  0.00     0.204 C 
ATOM      6  C   UNL     1     -14.461 -20.151  13.056  1.00  0.00    -0.015 C 
ATOM      7  O   UNL     1     -13.583 -18.103  13.633  1.00  0.00    -0.454 OA
ATOM      8  C   UNL     1     -15.458 -19.443  13.558  1.00  0.00     0.062 C 
ATOM      9  C   UNL     1     -14.633 -21.601  12.692  1.00  0.00     0.040 C 
ATOM     10  C   UNL     1     -14.935 -18.154  13.924  1.00  0.00     0.338 C 
ATOM     11  C   UNL     1     -16.814 -19.982  13.719  1.00  0.00     0.011 C 
ATOM     12  C   UNL     1     -16.102 -21.906  12.312  1.00  0.00     0.032 C 
ATOM     13  O   UNL     1     -15.588 -17.206  14.435  1.00  0.00    -0.246 OA
ATOM     14  C   UNL     1     -17.100 -21.181  13.195  1.00  0.00    -0.026 C 
ENDBRANCH   4   5
ENDBRANCH   1   4
TORSDOF 3
ENDMDL
MODEL 3
REMARK VINA RESULT:    -4.473      1.215      4.785
REMARK INTER + INTRA:          -5.694
REMARK INTER:                  -5.266
REMARK INTRA:                  -0.428
REMARK UNBOUND:                -0.436
REMARK SMILES CCCC[C@@H]1OC(=O)C2=C1CCC=C2
REMARK SMILES IDX 3 1 2 2 1 3 4 4 5 5 10 6 6 7 9 8 11 9 7 10 14 11 12 12 8 13
REMARK SMILES IDX 13 14
REMARK H PARENT
REMARK Flexibility Score: inf
ROOT
ATOM      1  C   UNL     1     -11.225 -20.803  14.620  1.00  0.00     0.004 C 
ENDROOT
BRANCH   1   2
ATOM      2  C   UNL     1     -11.670 -20.627  16.081  1.00  0.00    -0.003 C 
ATOM      3  C   UNL     1     -11.740 -19.159  16.503  1.00  0.00     0.004 C 
ENDBRANCH   1   2
BRANCH   1   4
ATOM      4  C   UNL     1     -12.262 -21.558  13.776  1.00  0.00     0.050 C 
BRANCH   4   5
ATOM      5  C   UNL     1     -12.956 -20.619  12.778  1.00  0.00     0.204 C 
ATOM      6  C   UNL     1     -14.459 -20.755  12.841  1.00  0.00    -0.015 C 
ATOM      7  O   UNL     1     -12.742 -19.251  13.144  1.00  0.00    -0.454 OA
ATOM      8  C   UNL     1     -15.016 -19.619  13.225  1.00  0.00     0.062 C 
ATOM      9  C   UNL     1     -15.269 -22.012  12.678  1.00  0.00     0.040 C 
ATOM     10  C   UNL     1     -13.962 -18.659  13.419  1.00  0.00     0.338 C 
ATOM     11  C   UNL     1     -16.462 -19.476  13.438  1.00  0.00     0.011 C 
ATOM     12  C   UNL     1     -16.738 -21.681  12.322  1.00  0.00     0.032 C 
ATOM     13  O   UNL     1     -14.106 -17.463  13.784  1.00  0.00    -0.246 OA
ATOM     14  C   UNL     1     -17.272 -20.481  13.080  1.00  0.00    -0.026 C 
ENDBRANCH   4   5
ENDBRANCH   1   4
TORSDOF 3
ENDMDL
MODEL 4
REMARK VINA RESULT:    -4.423      2.228      4.475
REMARK INTER + INTRA:          -5.635
REMARK INTER:                  -5.446
REMARK INTRA:                  -0.189
REMARK UNBOUND:                -0.436
REMARK SMILES CCCC[C@@H]1OC(=O)C2=C1CCC=C2
REMARK SMILES IDX 3 1 2 2 1 3 4 4 5 5 10 6 6 7 9 8 11 9 7 10 14 11 12 12 8 13
REMARK SMILES IDX 13 14
REMARK H PARENT
REMARK Flexibility Score: inf
ROOT
ATOM      1  C   UNL     1     -14.305 -16.163  13.346  1.00  0.00     0.004 C 
ENDROOT
BRANCH   1   2
ATOM      2  C   UNL     1     -14.570 -14.649  13.381  1.00  0.00    -0.003 C 
ATOM      3  C   UNL     1     -13.478 -13.877  14.122  1.00  0.00     0.004 C 
ENDBRANCH   1   2
BRANCH   1   4
ATOM      4  C   UNL     1     -15.536 -16.985  13.755  1.00  0.00     0.050 C 
BRANCH   4   5
ATOM      5  C   UNL     1     -15.127 -18.278  14.474  1.00  0.00     0.204 C 
ATOM      6  C   UNL     1     -15.613 -19.502  13.736  1.00  0.00    -0.015 C 
ATOM      7  O   UNL     1     -13.703 -18.435  14.453  1.00  0.00    -0.454 OA
ATOM      8  C   UNL     1     -14.594 -20.236  13.322  1.00  0.00     0.062 C 
ATOM      9  C   UNL     1     -17.026 -19.823  13.332  1.00  0.00     0.040 C 
ATOM     10  C   UNL     1     -13.385 -19.591  13.762  1.00  0.00     0.338 C 
ATOM     11  C   UNL     1     -14.765 -21.453  12.519  1.00  0.00     0.011 C 
ATOM     12  C   UNL     1     -17.192 -21.335  13.050  1.00  0.00     0.032 C 
ATOM     13  O   UNL     1     -12.211 -19.997  13.557  1.00  0.00    -0.246 OA
ATOM     14  C   UNL     1     -16.001 -21.932  12.326  1.00  0.00    -0.026 C 
ENDBRANCH   4   5
ENDBRANCH   1   4
TORSDOF 3
ENDMDL
MODEL 5
REMARK VINA RESULT:    -4.398      2.129      5.188
REMARK INTER + INTRA:          -5.606
REMARK INTER:                  -5.376
REMARK INTRA:                  -0.229
REMARK UNBOUND:                -0.436
REMARK SMILES CCCC[C@@H]1OC(=O)C2=C1CCC=C2
REMARK SMILES IDX 3 1 2 2 1 3 4 4 5 5 10 6 6 7 9 8 11 9 7 10 14 11 12 12 8 13
REMARK SMILES IDX 13 14
REMARK H PARENT
REMARK Flexibility Score: inf
ROOT
ATOM      1  C   UNL     1     -12.990 -19.829  14.352  1.00  0.00     0.004 C 
ENDROOT
BRANCH   1   2
ATOM      2  C   UNL     1     -11.737 -19.721  15.234  1.00  0.00    -0.003 C 
ATOM      3  C   UNL     1     -11.814 -20.604  16.480  1.00  0.00     0.004 C 
ENDBRANCH   1   2
BRANCH   1   4
ATOM      4  C   UNL     1     -13.661 -18.467  14.114  1.00  0.00     0.050 C 
BRANCH   4   5
ATOM      5  C   UNL     1     -15.145 -18.503  14.507  1.00  0.00     0.204 C 
ATOM      6  C   UNL     1     -16.011 -17.834  13.467  1.00  0.00    -0.015 C 
ATOM      7  O   UNL     1     -15.631 -19.850  14.510  1.00  0.00    -0.454 OA
ATOM      8  C   UNL     1     -16.853 -18.699  12.929  1.00  0.00     0.062 C 
ATOM      9  C   UNL     1     -15.879 -16.433  12.934  1.00  0.00     0.040 C 
ATOM     10  C   UNL     1     -16.638 -19.971  13.568  1.00  0.00     0.338 C 
ATOM     11  C   UNL     1     -17.773 -18.343  11.842  1.00  0.00     0.011 C 
ATOM     12  C   UNL     1     -17.199 -15.963  12.278  1.00  0.00     0.032 C 
ATOM     13  O   UNL     1     -17.256 -21.039  13.321  1.00  0.00    -0.246 OA
ATOM     14  C   UNL     1     -17.883 -17.058  11.481  1.00  0.00    -0.026 C 
ENDBRANCH   4   5
ENDBRANCH   1   4
TORSDOF 3
ENDMDL
MODEL 6
REMARK VINA RESULT:    -4.242      2.397      3.704
REMARK INTER + INTRA:          -5.422
REMARK INTER:                  -5.120
REMARK INTRA:                  -0.302
REMARK UNBOUND:                -0.436
REMARK SMILES CCCC[C@@H]1OC(=O)C2=C1CCC=C2
REMARK SMILES IDX 3 1 2 2 1 3 4 4 5 5 10 6 6 7 9 8 11 9 7 10 14 11 12 12 8 13
REMARK SMILES IDX 13 14
REMARK H PARENT
REMARK Flexibility Score: inf
ROOT
ATOM      1  C   UNL     1     -15.621 -16.671  13.901  1.00  0.00     0.004 C 
ENDROOT
BRANCH   1   2
ATOM      2  C   UNL     1     -16.150 -16.064  12.592  1.00  0.00    -0.003 C 
ATOM      3  C   UNL     1     -15.331 -14.859  12.127  1.00  0.00     0.004 C 
ENDBRANCH   1   2
BRANCH   1   4
ATOM      4  C   UNL     1     -15.908 -18.176  14.010  1.00  0.00     0.050 C 
BRANCH   4   5
ATOM      5  C   UNL     1     -15.681 -18.884  12.667  1.00  0.00     0.204 C 
ATOM      6  C   UNL     1     -14.714 -20.036  12.803  1.00  0.00    -0.015 C 
ATOM      7  O   UNL     1     -16.884 -19.524  12.227  1.00  0.00    -0.454 OA
ATOM      8  C   UNL     1     -15.306 -21.182  12.510  1.00  0.00     0.062 C 
ATOM      9  C   UNL     1     -13.316 -19.993  13.356  1.00  0.00     0.040 C 
ATOM     10  C   UNL     1     -16.666 -20.889  12.143  1.00  0.00     0.338 C 
ATOM     11  C   UNL     1     -14.626 -22.478  12.620  1.00  0.00     0.011 C 
ATOM     12  C   UNL     1     -12.497 -21.219  12.886  1.00  0.00     0.032 C 
ATOM     13  O   UNL     1     -17.539 -21.728  11.799  1.00  0.00    -0.246 OA
ATOM     14  C   UNL     1     -13.310 -22.499  12.873  1.00  0.00    -0.026 C 
ENDBRANCH   4   5
ENDBRANCH   1   4
TORSDOF 3
ENDMDL
MODEL 7
REMARK VINA RESULT:    -4.116      3.617      5.831
REMARK INTER + INTRA:          -5.274
REMARK INTER:                  -5.065
REMARK INTRA:                  -0.210
REMARK UNBOUND:                -0.436
REMARK SMILES CCCC[C@@H]1OC(=O)C2=C1CCC=C2
REMARK SMILES IDX 3 1 2 2 1 3 4 4 5 5 10 6 6 7 9 8 11 9 7 10 14 11 12 12 8 13
REMARK SMILES IDX 13 14
REMARK H PARENT
REMARK Flexibility Score: inf
ROOT
ATOM      1  C   UNL     1     -13.604 -14.644  13.708  1.00  0.00     0.004 C 
ENDROOT
BRANCH   1   2
ATOM      2  C   UNL     1     -13.488 -13.192  14.199  1.00  0.00    -0.003 C 
ATOM      3  C   UNL     1     -13.563 -12.176  13.058  1.00  0.00     0.004 C 
ENDBRANCH   1   2
BRANCH   1   4
ATOM      4  C   UNL     1     -15.062 -15.076  13.489  1.00  0.00     0.050 C 
BRANCH   4   5
ATOM      5  C   UNL     1     -15.180 -16.051  12.309  1.00  0.00     0.204 C 
ATOM      6  C   UNL     1     -15.689 -17.402  12.753  1.00  0.00    -0.015 C 
ATOM      7  O   UNL     1     -16.192 -15.612  11.395  1.00  0.00    -0.454 OA
ATOM      8  C   UNL     1     -16.853 -17.674  12.189  1.00  0.00     0.062 C 
ATOM      9  C   UNL     1     -15.104 -18.292  13.816  1.00  0.00     0.040 C 
ATOM     10  C   UNL     1     -17.190 -16.570  11.330  1.00  0.00     0.338 C 
ATOM     11  C   UNL     1     -17.616 -18.892  12.488  1.00  0.00     0.011 C 
ATOM     12  C   UNL     1     -15.587 -19.752  13.642  1.00  0.00     0.032 C 
ATOM     13  O   UNL     1     -18.227 -16.469  10.624  1.00  0.00    -0.246 OA
ATOM     14  C   UNL     1     -17.046 -19.845  13.239  1.00  0.00    -0.026 C 
ENDBRANCH   4   5
ENDBRANCH   1   4
TORSDOF 3
ENDMDL
MODEL 8
REMARK VINA RESULT:    -4.033     13.919     15.874
REMARK INTER + INTRA:          -5.176
REMARK INTER:                  -4.924
REMARK INTRA:                  -0.252
REMARK UNBOUND:                -0.436
REMARK SMILES CCCC[C@@H]1OC(=O)C2=C1CCC=C2
REMARK SMILES IDX 3 1 2 2 1 3 4 4 5 5 10 6 6 7 9 8 11 9 7 10 14 11 12 12 8 13
REMARK SMILES IDX 13 14
REMARK H PARENT
REMARK Flexibility Score: inf
ROOT
ATOM      1  C   UNL     1     -19.100 -15.838   3.257  1.00  0.00     0.004 C 
ENDROOT
BRANCH   1   2
ATOM      2  C   UNL     1     -18.128 -16.805   3.952  1.00  0.00    -0.003 C 
ATOM      3  C   UNL     1     -18.463 -18.272   3.683  1.00  0.00     0.004 C 
ENDBRANCH   1   2
BRANCH   1   4
ATOM      4  C   UNL     1     -19.244 -16.126   1.755  1.00  0.00     0.050 C 
BRANCH   4   5
ATOM      5  C   UNL     1     -18.353 -15.194   0.922  1.00  0.00     0.204 C 
ATOM      6  C   UNL     1     -18.986 -14.863  -0.408  1.00  0.00    -0.015 C 
ATOM      7  O   UNL     1     -18.242 -13.912   1.552  1.00  0.00    -0.454 OA
ATOM      8  C   UNL     1     -19.231 -13.568  -0.503  1.00  0.00     0.062 C 
ATOM      9  C   UNL     1     -19.464 -15.831  -1.456  1.00  0.00     0.040 C 
ATOM     10  C   UNL     1     -18.771 -12.947   0.711  1.00  0.00     0.338 C 
ATOM     11  C   UNL     1     -19.904 -12.968  -1.662  1.00  0.00     0.011 C 
ATOM     12  C   UNL     1     -19.586 -15.138  -2.835  1.00  0.00     0.032 C 
ATOM     13  O   UNL     1     -18.833 -11.721   0.988  1.00  0.00    -0.246 OA
ATOM     14  C   UNL     1     -20.140 -13.730  -2.738  1.00  0.00    -0.026 C 
ENDBRANCH   4   5
ENDBRANCH   1   4
TORSDOF 3
ENDMDL
MODEL 9
REMARK VINA RESULT:    -4.011      2.918      4.467
REMARK INTER + INTRA:          -5.151
REMARK INTER:                  -4.718
REMARK INTRA:                  -0.433
REMARK UNBOUND:                -0.436
REMARK SMILES CCCC[C@@H]1OC(=O)C2=C1CCC=C2
REMARK SMILES IDX 3 1 2 2 1 3 4 4 5 5 10 6 6 7 9 8 11 9 7 10 14 11 12 12 8 13
REMARK SMILES IDX 13 14
REMARK H PARENT
REMARK Flexibility Score: inf
ROOT
ATOM      1  C   UNL     1     -14.803 -14.618  12.243  1.00  0.00     0.004 C 
ENDROOT
BRANCH   1   2
ATOM      2  C   UNL     1     -13.787 -13.546  12.669  1.00  0.00    -0.003 C 
ATOM      3  C   UNL     1     -13.586 -13.493  14.183  1.00  0.00     0.004 C 
ENDBRANCH   1   2
BRANCH   1   4
ATOM      4  C   UNL     1     -15.227 -15.523  13.409  1.00  0.00     0.050 C 
BRANCH   4   5
ATOM      5  C   UNL     1     -15.129 -17.007  13.025  1.00  0.00     0.204 C 
ATOM      6  C   UNL     1     -14.009 -17.699  13.766  1.00  0.00    -0.015 C 
ATOM      7  O   UNL     1     -16.292 -17.717  13.466  1.00  0.00    -0.454 OA
ATOM      8  C   UNL     1     -14.483 -18.653  14.547  1.00  0.00     0.062 C 
ATOM      9  C   UNL     1     -12.558 -17.305  13.800  1.00  0.00     0.040 C 
ATOM     10  C   UNL     1     -15.912 -18.688  14.376  1.00  0.00     0.338 C 
ATOM     11  C   UNL     1     -13.629 -19.450  15.436  1.00  0.00     0.011 C 
ATOM     12  C   UNL     1     -11.671 -18.495  14.237  1.00  0.00     0.032 C 
ATOM     13  O   UNL     1     -16.710 -19.470  14.956  1.00  0.00    -0.246 OA
ATOM     14  C   UNL     1     -12.299 -19.321  15.343  1.00  0.00    -0.026 C 
ENDBRANCH   4   5
ENDBRANCH   1   4
TORSDOF 3
ENDMDL
