MODEL 1
REMARK VINA RESULT:    -5.793      0.000      0.000
REMARK INTER + INTRA:          -7.287
REMARK INTER:                  -8.502
REMARK INTRA:                   1.215
REMARK UNBOUND:                 1.215
REMARK SMILES O=c1c(O[C@H]2O[C@@H](CO)[C@H](O)[C@@H](O)[C@@H]2O)c(-c2ccc(O)c(O)c2)oc2cc(O)cc(O)c12
REMARK SMILES IDX 4 1 3 2 16 3 25 4 2 5 26 6 1 7 33 8 27 9 31 10 28 11 30 12
REMARK SMILES IDX 17 13 18 14 19 15 20 16 24 17 22 18 21 19 23 21 32 23 29 25
REMARK SMILES IDX 5 27 14 28 6 29 12 30 7 31 10 32 15 33 13 35 8 37 9 38 11 40
REMARK H PARENT 21 20 23 22 32 24 29 26 15 34 13 36 9 39 11 41
REMARK Flexibility Score: inf
ROOT
ATOM      1  O   UNL     1     112.462 111.108 109.707  1.00  0.00    -0.454 OA
ENDROOT
BRANCH   1   2
ATOM      2  C   UNL     1     111.512 110.831 108.728  1.00  0.00     0.214 A 
ATOM      3  C   UNL     1     110.155 111.258 108.870  1.00  0.00     0.180 A 
ATOM      4  O   UNL     1     109.363 111.217 107.818  1.00  0.00    -0.452 OA
ATOM      5  C   UNL     1     111.857 110.201 107.478  1.00  0.00     0.239 A 
ATOM      6  C   UNL     1     109.661 110.693 106.643  1.00  0.00     0.146 A 
ATOM      7  O   UNL     1     113.008 109.698 107.294  1.00  0.00    -0.285 OA
ATOM      8  C   UNL     1     110.945 110.173 106.409  1.00  0.00     0.111 A 
ATOM      9  C   UNL     1     108.735 110.841 105.599  1.00  0.00     0.094 A 
ATOM     10  C   UNL     1     111.266 109.750 105.065  1.00  0.00     0.134 A 
ATOM     11  C   UNL     1     109.186 110.738 104.288  1.00  0.00     0.123 A 
ATOM     12  C   UNL     1     110.411 110.123 104.018  1.00  0.00     0.093 A 
BRANCH   3  13
ATOM     13  C   UNL     1     109.591 111.876 110.122  1.00  0.00     0.025 A 
ATOM     14  C   UNL     1     109.862 113.244 110.325  1.00  0.00     0.016 A 
ATOM     15  C   UNL     1     109.580 113.864 111.545  1.00  0.00     0.051 A 
ATOM     16  C   UNL     1     109.073 113.106 112.611  1.00  0.00     0.157 A 
ATOM     17  C   UNL     1     108.820 111.214 111.110  1.00  0.00     0.062 A 
ATOM     18  C   UNL     1     108.715 111.767 112.400  1.00  0.00     0.158 A 
BRANCH  16  19
ATOM     19  O   UNL     1     108.901 113.690 113.863  1.00  0.00    -0.504 OA
ATOM     20  H   UNL     1     108.475 113.198 114.635  1.00  0.00     0.293 HD
ENDBRANCH  16  19
BRANCH  18  21
ATOM     21  O   UNL     1     108.245 111.002 113.482  1.00  0.00    -0.504 OA
ATOM     22  H   UNL     1     108.314 111.352 114.434  1.00  0.00     0.293 HD
ENDBRANCH  18  21
ENDBRANCH   3  13
BRANCH  10  23
ATOM     23  O   UNL     1     112.419 109.035 104.713  1.00  0.00    -0.507 OA
ATOM     24  H   UNL     1     113.122 109.388 104.081  1.00  0.00     0.293 HD
ENDBRANCH  10  23
BRANCH  11  25
ATOM     25  O   UNL     1     108.451 111.294 103.241  1.00  0.00    -0.508 OA
ATOM     26  H   UNL     1     108.773 112.100 102.721  1.00  0.00     0.293 HD
ENDBRANCH  11  25
ENDBRANCH   1   2
BRANCH   1  27
ATOM     27  C   UNL     1     113.223 110.155 110.467  1.00  0.00     0.339 C 
ATOM     28  C   UNL     1     112.346 108.978 110.923  1.00  0.00     0.214 C 
ATOM     29  O   UNL     1     114.011 110.763 111.504  1.00  0.00    -0.332 OA
ATOM     30  C   UNL     1     111.602 109.231 112.297  1.00  0.00     0.180 C 
ATOM     31  C   UNL     1     113.413 110.946 112.801  1.00  0.00     0.179 C 
ATOM     32  C   UNL     1     112.668 109.713 113.329  1.00  0.00     0.177 C 
BRANCH  28  33
ATOM     33  O   UNL     1     113.224 107.860 111.026  1.00  0.00    -0.384 OA
ATOM     34  H   UNL     1     112.801 107.207 111.642  1.00  0.00     0.211 HD
ENDBRANCH  28  33
BRANCH  30  35
ATOM     35  O   UNL     1     110.502 110.122 112.156  1.00  0.00    -0.387 OA
ATOM     36  H   UNL     1     110.499 110.695 112.978  1.00  0.00     0.211 HD
ENDBRANCH  30  35
BRANCH  31  37
ATOM     37  C   UNL     1     112.609 112.267 112.929  1.00  0.00     0.191 C 
BRANCH  37  38
ATOM     38  O   UNL     1     111.803 112.212 114.093  1.00  0.00    -0.394 OA
ATOM     39  H   UNL     1     110.933 111.847 113.757  1.00  0.00     0.210 HD
ENDBRANCH  37  38
ENDBRANCH  31  37
BRANCH  32  40
ATOM     40  O   UNL     1     113.604 108.652 113.550  1.00  0.00    -0.387 OA
ATOM     41  H   UNL     1     114.187 108.902 114.320  1.00  0.00     0.211 HD
ENDBRANCH  32  40
ENDBRANCH   1  27
TORSDOF 12
ENDMDL
MODEL 2
REMARK VINA RESULT:    -5.757      1.738      4.518
REMARK INTER + INTRA:          -7.235
REMARK INTER:                  -8.292
REMARK INTRA:                   1.057
REMARK UNBOUND:                 1.215
REMARK SMILES O=c1c(O[C@H]2O[C@@H](CO)[C@H](O)[C@@H](O)[C@@H]2O)c(-c2ccc(O)c(O)c2)oc2cc(O)cc(O)c12
REMARK SMILES IDX 4 1 3 2 16 3 25 4 2 5 26 6 1 7 33 8 27 9 31 10 28 11 30 12
REMARK SMILES IDX 17 13 18 14 19 15 20 16 24 17 22 18 21 19 23 21 32 23 29 25
REMARK SMILES IDX 5 27 14 28 6 29 12 30 7 31 10 32 15 33 13 35 8 37 9 38 11 40
REMARK H PARENT 21 20 23 22 32 24 29 26 15 34 13 36 9 39 11 41
REMARK Flexibility Score: inf
ROOT
ATOM      1  O   UNL     1     109.800 111.158 109.862  1.00  0.00    -0.454 OA
ENDROOT
BRANCH   1   2
ATOM      2  C   UNL     1     110.747 111.415 108.873  1.00  0.00     0.214 A 
ATOM      3  C   UNL     1     112.094 110.955 109.001  1.00  0.00     0.180 A 
ATOM      4  O   UNL     1     112.877 110.980 107.940  1.00  0.00    -0.452 OA
ATOM      5  C   UNL     1     110.404 112.056 107.628  1.00  0.00     0.239 A 
ATOM      6  C   UNL     1     112.578 111.514 106.770  1.00  0.00     0.146 A 
ATOM      7  O   UNL     1     109.263 112.587 107.458  1.00  0.00    -0.285 OA
ATOM      8  C   UNL     1     111.306 112.065 106.550  1.00  0.00     0.111 A 
ATOM      9  C   UNL     1     113.490 111.346 105.716  1.00  0.00     0.094 A 
ATOM     10  C   UNL     1     110.981 112.499 105.211  1.00  0.00     0.134 A 
ATOM     11  C   UNL     1     113.028 111.463 104.409  1.00  0.00     0.123 A 
ATOM     12  C   UNL     1     111.815 112.109 104.154  1.00  0.00     0.093 A 
BRANCH   3  13
ATOM     13  C   UNL     1     112.657 110.320 110.245  1.00  0.00     0.025 A 
ATOM     14  C   UNL     1     112.343 108.962 110.455  1.00  0.00     0.016 A 
ATOM     15  C   UNL     1     112.623 108.336 111.672  1.00  0.00     0.051 A 
ATOM     16  C   UNL     1     113.171 109.077 112.728  1.00  0.00     0.157 A 
ATOM     17  C   UNL     1     113.465 110.958 111.220  1.00  0.00     0.062 A 
ATOM     18  C   UNL     1     113.571 110.404 112.509  1.00  0.00     0.158 A 
BRANCH  16  19
ATOM     19  O   UNL     1     113.343 108.490 113.978  1.00  0.00    -0.504 OA
ATOM     20  H   UNL     1     113.902 108.916 114.704  1.00  0.00     0.293 HD
ENDBRANCH  16  19
BRANCH  18  21
ATOM     21  O   UNL     1     114.083 111.154 113.582  1.00  0.00    -0.504 OA
ATOM     22  H   UNL     1     113.612 111.160 114.483  1.00  0.00     0.293 HD
ENDBRANCH  18  21
ENDBRANCH   3  13
BRANCH  10  23
ATOM     23  O   UNL     1     109.842 113.242 104.873  1.00  0.00    -0.507 OA
ATOM     24  H   UNL     1     108.958 113.158 105.354  1.00  0.00     0.293 HD
ENDBRANCH  10  23
BRANCH  11  25
ATOM     25  O   UNL     1     113.738 110.893 103.354  1.00  0.00    -0.508 OA
ATOM     26  H   UNL     1     113.311 110.258 102.693  1.00  0.00     0.293 HD
ENDBRANCH  11  25
ENDBRANCH   1   2
BRANCH   1  27
ATOM     27  C   UNL     1     109.065 112.126 110.626  1.00  0.00     0.339 C 
ATOM     28  C   UNL     1     109.970 113.284 111.078  1.00  0.00     0.214 C 
ATOM     29  O   UNL     1     108.269 111.535 111.667  1.00  0.00    -0.332 OA
ATOM     30  C   UNL     1     110.715 113.014 112.449  1.00  0.00     0.180 C 
ATOM     31  C   UNL     1     108.869 111.338 112.961  1.00  0.00     0.179 C 
ATOM     32  C   UNL     1     109.644 112.554 113.485  1.00  0.00     0.177 C 
BRANCH  28  33
ATOM     33  O   UNL     1     109.116 114.421 111.187  1.00  0.00    -0.384 OA
ATOM     34  H   UNL     1     109.342 114.880 112.037  1.00  0.00     0.211 HD
ENDBRANCH  28  33
BRANCH  30  35
ATOM     35  O   UNL     1     111.795 112.099 112.301  1.00  0.00    -0.387 OA
ATOM     36  H   UNL     1     111.767 111.784 111.351  1.00  0.00     0.211 HD
ENDBRANCH  30  35
BRANCH  31  37
ATOM     37  C   UNL     1     109.645 110.000 113.084  1.00  0.00     0.191 C 
BRANCH  37  38
ATOM     38  O   UNL     1     110.473 110.044 114.234  1.00  0.00    -0.394 OA
ATOM     39  H   UNL     1     110.625 109.077 114.449  1.00  0.00     0.210 HD
ENDBRANCH  37  38
ENDBRANCH  31  37
BRANCH  32  40
ATOM     40  O   UNL     1     108.732 113.635 113.712  1.00  0.00    -0.387 OA
ATOM     41  H   UNL     1     107.836 113.369 113.366  1.00  0.00     0.211 HD
ENDBRANCH  32  40
ENDBRANCH   1  27
TORSDOF 12
ENDMDL
MODEL 3
REMARK VINA RESULT:    -5.728      3.332      6.660
REMARK INTER + INTRA:          -7.192
REMARK INTER:                  -8.356
REMARK INTRA:                   1.164
REMARK UNBOUND:                 1.215
REMARK SMILES O=c1c(O[C@H]2O[C@@H](CO)[C@H](O)[C@@H](O)[C@@H]2O)c(-c2ccc(O)c(O)c2)oc2cc(O)cc(O)c12
REMARK SMILES IDX 4 1 3 2 16 3 25 4 2 5 26 6 1 7 33 8 27 9 31 10 28 11 30 12
REMARK SMILES IDX 17 13 18 14 19 15 20 16 24 17 22 18 21 19 23 21 32 23 29 25
REMARK SMILES IDX 5 27 14 28 6 29 12 30 7 31 10 32 15 33 13 35 8 37 9 38 11 40
REMARK H PARENT 21 20 23 22 32 24 29 26 15 34 13 36 9 39 11 41
REMARK Flexibility Score: inf
ROOT
ATOM      1  O   UNL     1     109.810 111.171 114.595  1.00  0.00    -0.454 OA
ENDROOT
BRANCH   1   2
ATOM      2  C   UNL     1     110.770 111.419 113.617  1.00  0.00     0.214 A 
ATOM      3  C   UNL     1     112.117 110.965 113.768  1.00  0.00     0.180 A 
ATOM      4  O   UNL     1     112.914 110.981 112.718  1.00  0.00    -0.452 OA
ATOM      5  C   UNL     1     110.442 112.045 112.360  1.00  0.00     0.239 A 
ATOM      6  C   UNL     1     112.630 111.501 111.538  1.00  0.00     0.146 A 
ATOM      7  O   UNL     1     109.302 112.571 112.167  1.00  0.00    -0.285 OA
ATOM      8  C   UNL     1     111.359 112.045 111.294  1.00  0.00     0.111 A 
ATOM      9  C   UNL     1     113.557 111.324 110.499  1.00  0.00     0.094 A 
ATOM     10  C   UNL     1     111.051 112.463 109.946  1.00  0.00     0.134 A 
ATOM     11  C   UNL     1     113.113 111.425 109.184  1.00  0.00     0.123 A 
ATOM     12  C   UNL     1     111.902 112.063 108.905  1.00  0.00     0.093 A 
BRANCH   3  13
ATOM     13  C   UNL     1     112.664 110.347 115.027  1.00  0.00     0.025 A 
ATOM     14  C   UNL     1     112.364 108.986 115.241  1.00  0.00     0.016 A 
ATOM     15  C   UNL     1     112.629 108.372 116.467  1.00  0.00     0.051 A 
ATOM     16  C   UNL     1     113.147 109.128 117.528  1.00  0.00     0.157 A 
ATOM     17  C   UNL     1     113.444 111.002 116.013  1.00  0.00     0.062 A 
ATOM     18  C   UNL     1     113.534 110.458 117.307  1.00  0.00     0.158 A 
BRANCH  16  19
ATOM     19  O   UNL     1     113.303 108.552 118.786  1.00  0.00    -0.504 OA
ATOM     20  H   UNL     1     114.041 107.893 118.991  1.00  0.00     0.293 HD
ENDBRANCH  16  19
BRANCH  18  21
ATOM     21  O   UNL     1     114.015 111.222 118.385  1.00  0.00    -0.504 OA
ATOM     22  H   UNL     1     114.294 110.776 119.254  1.00  0.00     0.293 HD
ENDBRANCH  18  21
ENDBRANCH   3  13
BRANCH  10  23
ATOM     23  O   UNL     1     109.915 113.198 109.583  1.00  0.00    -0.507 OA
ATOM     24  H   UNL     1     109.875 113.802 108.775  1.00  0.00     0.293 HD
ENDBRANCH  10  23
BRANCH  11  25
ATOM     25  O   UNL     1     113.840 110.845 108.146  1.00  0.00    -0.508 OA
ATOM     26  H   UNL     1     114.851 110.800 108.150  1.00  0.00     0.293 HD
ENDBRANCH  11  25
ENDBRANCH   1   2
BRANCH   1  27
ATOM     27  C   UNL     1     109.063 112.145 115.340  1.00  0.00     0.339 C 
ATOM     28  C   UNL     1     109.965 113.298 115.812  1.00  0.00     0.214 C 
ATOM     29  O   UNL     1     108.238 111.561 116.362  1.00  0.00    -0.332 OA
ATOM     30  C   UNL     1     110.675 113.024 117.201  1.00  0.00     0.180 C 
ATOM     31  C   UNL     1     108.805 111.362 117.670  1.00  0.00     0.179 C 
ATOM     32  C   UNL     1     109.576 112.574 118.211  1.00  0.00     0.177 C 
BRANCH  28  33
ATOM     33  O   UNL     1     109.117 114.440 115.898  1.00  0.00    -0.384 OA
ATOM     34  H   UNL     1     109.467 115.116 115.261  1.00  0.00     0.211 HD
ENDBRANCH  28  33
BRANCH  30  35
ATOM     35  O   UNL     1     111.751 112.101 117.081  1.00  0.00    -0.387 OA
ATOM     36  H   UNL     1     112.083 111.937 118.012  1.00  0.00     0.211 HD
ENDBRANCH  30  35
BRANCH  31  37
ATOM     37  C   UNL     1     109.568 110.018 117.813  1.00  0.00     0.191 C 
BRANCH  37  38
ATOM     38  O   UNL     1     110.409 110.078 118.954  1.00  0.00    -0.394 OA
ATOM     39  H   UNL     1     110.909 109.211 118.920  1.00  0.00     0.210 HD
ENDBRANCH  37  38
ENDBRANCH  31  37
BRANCH  32  40
ATOM     40  O   UNL     1     108.666 113.661 118.414  1.00  0.00    -0.387 OA
ATOM     41  H   UNL     1     108.416 114.033 117.524  1.00  0.00     0.211 HD
ENDBRANCH  32  40
ENDBRANCH   1  27
TORSDOF 12
ENDMDL
MODEL 4
REMARK VINA RESULT:    -5.616      3.235      4.881
REMARK INTER + INTRA:          -7.027
REMARK INTER:                  -8.112
REMARK INTRA:                   1.085
REMARK UNBOUND:                 1.215
REMARK SMILES O=c1c(O[C@H]2O[C@@H](CO)[C@H](O)[C@@H](O)[C@@H]2O)c(-c2ccc(O)c(O)c2)oc2cc(O)cc(O)c12
REMARK SMILES IDX 4 1 3 2 16 3 25 4 2 5 26 6 1 7 33 8 27 9 31 10 28 11 30 12
REMARK SMILES IDX 17 13 18 14 19 15 20 16 24 17 22 18 21 19 23 21 32 23 29 25
REMARK SMILES IDX 5 27 14 28 6 29 12 30 7 31 10 32 15 33 13 35 8 37 9 38 11 40
REMARK H PARENT 21 20 23 22 32 24 29 26 15 34 13 36 9 39 11 41
REMARK Flexibility Score: inf
ROOT
ATOM      1  O   UNL     1     112.459 111.105 114.582  1.00  0.00    -0.454 OA
ENDROOT
BRANCH   1   2
ATOM      2  C   UNL     1     111.496 110.855 113.607  1.00  0.00     0.214 A 
ATOM      3  C   UNL     1     110.145 111.289 113.772  1.00  0.00     0.180 A 
ATOM      4  O   UNL     1     109.341 111.275 112.727  1.00  0.00    -0.452 OA
ATOM      5  C   UNL     1     111.824 110.247 112.341  1.00  0.00     0.239 A 
ATOM      6  C   UNL     1     109.624 110.773 111.539  1.00  0.00     0.146 A 
ATOM      7  O   UNL     1     112.969 109.739 112.136  1.00  0.00    -0.285 OA
ATOM      8  C   UNL     1     110.901 110.248 111.282  1.00  0.00     0.111 A 
ATOM      9  C   UNL     1     108.688 110.949 110.509  1.00  0.00     0.094 A 
ATOM     10  C   UNL     1     111.205 109.849 109.927  1.00  0.00     0.134 A 
ATOM     11  C   UNL     1     109.125 110.869 109.190  1.00  0.00     0.123 A 
ATOM     12  C   UNL     1     110.342 110.250 108.896  1.00  0.00     0.093 A 
BRANCH   3  13
ATOM     13  C   UNL     1     109.598 111.886 115.042  1.00  0.00     0.025 A 
ATOM     14  C   UNL     1     109.875 113.250 115.266  1.00  0.00     0.016 A 
ATOM     15  C   UNL     1     109.610 113.848 116.500  1.00  0.00     0.051 A 
ATOM     16  C   UNL     1     109.115 113.073 117.559  1.00  0.00     0.157 A 
ATOM     17  C   UNL     1     108.838 111.209 116.028  1.00  0.00     0.062 A 
ATOM     18  C   UNL     1     108.750 111.739 117.329  1.00  0.00     0.158 A 
BRANCH  16  19
ATOM     19  O   UNL     1     108.960 113.635 118.823  1.00  0.00    -0.504 OA
ATOM     20  H   UNL     1     109.291 113.179 119.662  1.00  0.00     0.293 HD
ENDBRANCH  16  19
BRANCH  18  21
ATOM     21  O   UNL     1     108.292 110.956 118.403  1.00  0.00    -0.504 OA
ATOM     22  H   UNL     1     107.737 110.120 118.237  1.00  0.00     0.293 HD
ENDBRANCH  18  21
ENDBRANCH   3  13
BRANCH  10  23
ATOM     23  O   UNL     1     112.348 109.134 109.549  1.00  0.00    -0.507 OA
ATOM     24  H   UNL     1     113.248 109.563 109.387  1.00  0.00     0.293 HD
ENDBRANCH  10  23
BRANCH  11  25
ATOM     25  O   UNL     1     108.384 111.451 108.163  1.00  0.00    -0.508 OA
ATOM     26  H   UNL     1     107.406 111.239 108.013  1.00  0.00     0.293 HD
ENDBRANCH  11  25
ENDBRANCH   1   2
BRANCH   1  27
ATOM     27  C   UNL     1     113.228 110.132 115.307  1.00  0.00     0.339 C 
ATOM     28  C   UNL     1     112.361 108.930 115.718  1.00  0.00     0.214 C 
ATOM     29  O   UNL     1     114.009 110.708 116.367  1.00  0.00    -0.332 OA
ATOM     30  C   UNL     1     111.613 109.125 117.100  1.00  0.00     0.180 C 
ATOM     31  C   UNL     1     113.408 110.837 117.669  1.00  0.00     0.179 C 
ATOM     32  C   UNL     1     112.674 109.578 118.150  1.00  0.00     0.177 C 
BRANCH  28  33
ATOM     33  O   UNL     1     113.250 107.817 115.780  1.00  0.00    -0.384 OA
ATOM     34  H   UNL     1     112.971 107.260 116.553  1.00  0.00     0.211 HD
ENDBRANCH  28  33
BRANCH  30  35
ATOM     35  O   UNL     1     110.505 110.011 116.990  1.00  0.00    -0.387 OA
ATOM     36  H   UNL     1     110.885 110.937 117.013  1.00  0.00     0.211 HD
ENDBRANCH  30  35
BRANCH  31  37
ATOM     37  C   UNL     1     112.591 112.145 117.845  1.00  0.00     0.191 C 
BRANCH  37  38
ATOM     38  O   UNL     1     111.804 112.050 119.020  1.00  0.00    -0.394 OA
ATOM     39  H   UNL     1     111.770 112.993 119.355  1.00  0.00     0.210 HD
ENDBRANCH  37  38
ENDBRANCH  31  37
BRANCH  32  40
ATOM     40  O   UNL     1     113.620 108.519 118.333  1.00  0.00    -0.387 OA
ATOM     41  H   UNL     1     113.180 107.790 118.851  1.00  0.00     0.211 HD
ENDBRANCH  32  40
ENDBRANCH   1  27
TORSDOF 12
ENDMDL
MODEL 5
REMARK VINA RESULT:    -4.233      2.426      7.847
REMARK INTER + INTRA:          -4.998
REMARK INTER:                  -6.802
REMARK INTRA:                   1.804
REMARK UNBOUND:                 1.215
REMARK SMILES O=c1c(O[C@H]2O[C@@H](CO)[C@H](O)[C@@H](O)[C@@H]2O)c(-c2ccc(O)c(O)c2)oc2cc(O)cc(O)c12
REMARK SMILES IDX 4 1 3 2 16 3 25 4 2 5 26 6 1 7 33 8 27 9 31 10 28 11 30 12
REMARK SMILES IDX 17 13 18 14 19 15 20 16 24 17 22 18 21 19 23 21 32 23 29 25
REMARK SMILES IDX 5 27 14 28 6 29 12 30 7 31 10 32 15 33 13 35 8 37 9 38 11 40
REMARK H PARENT 21 20 23 22 32 24 29 26 15 34 13 36 9 39 11 41
REMARK Flexibility Score: inf
ROOT
ATOM      1  O   UNL     1     109.739 111.586 111.443  1.00  0.00    -0.454 OA
ENDROOT
BRANCH   1   2
ATOM      2  C   UNL     1     110.444 111.308 112.612  1.00  0.00     0.214 A 
ATOM      3  C   UNL     1     111.854 111.073 112.588  1.00  0.00     0.180 A 
ATOM      4  O   UNL     1     112.519 111.084 113.726  1.00  0.00    -0.452 OA
ATOM      5  C   UNL     1     109.823 111.349 113.912  1.00  0.00     0.239 A 
ATOM      6  C   UNL     1     111.988 111.169 114.932  1.00  0.00     0.146 A 
ATOM      7  O   UNL     1     108.563 111.451 114.033  1.00  0.00    -0.285 OA
ATOM      8  C   UNL     1     110.601 111.328 115.083  1.00  0.00     0.111 A 
ATOM      9  C   UNL     1     112.856 111.283 116.029  1.00  0.00     0.094 A 
ATOM     10  C   UNL     1     110.090 111.566 116.413  1.00  0.00     0.134 A 
ATOM     11  C   UNL     1     112.370 111.834 117.210  1.00  0.00     0.123 A 
ATOM     12  C   UNL     1     110.992 111.901 117.433  1.00  0.00     0.093 A 
BRANCH   3  13
ATOM     13  C   UNL     1     112.666 110.933 111.328  1.00  0.00     0.025 A 
ATOM     14  C   UNL     1     113.222 112.117 110.804  1.00  0.00     0.016 A 
ATOM     15  C   UNL     1     113.804 112.143 109.534  1.00  0.00     0.051 A 
ATOM     16  C   UNL     1     113.786 110.990 108.736  1.00  0.00     0.157 A 
ATOM     17  C   UNL     1     112.920 109.730 110.623  1.00  0.00     0.062 A 
ATOM     18  C   UNL     1     113.318 109.782 109.274  1.00  0.00     0.158 A 
BRANCH  16  19
ATOM     19  O   UNL     1     114.257 111.039 107.427  1.00  0.00    -0.504 OA
ATOM     20  H   UNL     1     114.070 111.821 106.814  1.00  0.00     0.293 HD
ENDBRANCH  16  19
BRANCH  18  21
ATOM     21  O   UNL     1     113.266 108.640 108.456  1.00  0.00    -0.504 OA
ATOM     22  H   UNL     1     113.806 107.810 108.687  1.00  0.00     0.293 HD
ENDBRANCH  18  21
ENDBRANCH   3  13
BRANCH  10  23
ATOM     23  O   UNL     1     108.731 111.549 116.755  1.00  0.00    -0.507 OA
ATOM     24  H   UNL     1     107.984 111.615 116.079  1.00  0.00     0.293 HD
ENDBRANCH  10  23
BRANCH  11  25
ATOM     25  O   UNL     1     113.245 112.371 118.153  1.00  0.00    -0.508 OA
ATOM     26  H   UNL     1     114.246 112.226 118.109  1.00  0.00     0.293 HD
ENDBRANCH  11  25
ENDBRANCH   1   2
BRANCH   1  27
ATOM     27  C   UNL     1     109.056 110.643 110.601  1.00  0.00     0.339 C 
ATOM     28  C   UNL     1     110.046 109.868 109.715  1.00  0.00     0.214 C 
ATOM     29  O   UNL     1     107.938 111.219 109.904  1.00  0.00    -0.332 OA
ATOM     30  C   UNL     1     110.382 110.594 108.349  1.00  0.00     0.180 C 
ATOM     31  C   UNL     1     108.169 111.822 108.618  1.00  0.00     0.179 C 
ATOM     32  C   UNL     1     109.030 110.975 107.671  1.00  0.00     0.177 C 
BRANCH  28  33
ATOM     33  O   UNL     1     109.437 108.602 109.475  1.00  0.00    -0.384 OA
ATOM     34  H   UNL     1     109.936 107.929 110.006  1.00  0.00     0.211 HD
ENDBRANCH  28  33
BRANCH  30  35
ATOM     35  O   UNL     1     111.259 111.700 108.529  1.00  0.00    -0.387 OA
ATOM     36  H   UNL     1     110.754 112.510 108.228  1.00  0.00     0.211 HD
ENDBRANCH  30  35
BRANCH  31  37
ATOM     37  C   UNL     1     108.609 113.308 108.704  1.00  0.00     0.191 C 
BRANCH  37  38
ATOM     38  O   UNL     1     109.118 113.718 107.446  1.00  0.00    -0.394 OA
ATOM     39  H   UNL     1     108.848 112.975 106.831  1.00  0.00     0.210 HD
ENDBRANCH  37  38
ENDBRANCH  31  37
BRANCH  32  40
ATOM     40  O   UNL     1     108.327 109.771 107.343  1.00  0.00    -0.387 OA
ATOM     41  H   UNL     1     108.658 109.041 107.936  1.00  0.00     0.211 HD
ENDBRANCH  32  40
ENDBRANCH   1  27
TORSDOF 12
ENDMDL
MODEL 6
REMARK VINA RESULT:    -4.209      2.414      7.137
REMARK INTER + INTRA:          -4.963
REMARK INTER:                  -6.632
REMARK INTRA:                   1.668
REMARK UNBOUND:                 1.215
REMARK SMILES O=c1c(O[C@H]2O[C@@H](CO)[C@H](O)[C@@H](O)[C@@H]2O)c(-c2ccc(O)c(O)c2)oc2cc(O)cc(O)c12
REMARK SMILES IDX 4 1 3 2 16 3 25 4 2 5 26 6 1 7 33 8 27 9 31 10 28 11 30 12
REMARK SMILES IDX 17 13 18 14 19 15 20 16 24 17 22 18 21 19 23 21 32 23 29 25
REMARK SMILES IDX 5 27 14 28 6 29 12 30 7 31 10 32 15 33 13 35 8 37 9 38 11 40
REMARK H PARENT 21 20 23 22 32 24 29 26 15 34 13 36 9 39 11 41
REMARK Flexibility Score: inf
ROOT
ATOM      1  O   UNL     1     112.540 110.628 111.321  1.00  0.00    -0.454 OA
ENDROOT
BRANCH   1   2
ATOM      2  C   UNL     1     111.845 110.919 112.492  1.00  0.00     0.214 A 
ATOM      3  C   UNL     1     110.436 111.157 112.478  1.00  0.00     0.180 A 
ATOM      4  O   UNL     1     109.780 111.159 113.621  1.00  0.00    -0.452 OA
ATOM      5  C   UNL     1     112.477 110.892 113.788  1.00  0.00     0.239 A 
ATOM      6  C   UNL     1     110.321 111.086 114.824  1.00  0.00     0.146 A 
ATOM      7  O   UNL     1     113.738 110.789 113.900  1.00  0.00    -0.285 OA
ATOM      8  C   UNL     1     111.709 110.926 114.965  1.00  0.00     0.111 A 
ATOM      9  C   UNL     1     109.461 110.985 115.929  1.00  0.00     0.094 A 
ATOM     10  C   UNL     1     112.231 110.702 116.293  1.00  0.00     0.134 A 
ATOM     11  C   UNL     1     109.956 110.446 117.112  1.00  0.00     0.123 A 
ATOM     12  C   UNL     1     111.336 110.380 117.324  1.00  0.00     0.093 A 
BRANCH   3  13
ATOM     13  C   UNL     1     109.613 111.284 111.223  1.00  0.00     0.025 A 
ATOM     14  C   UNL     1     109.075 110.091 110.700  1.00  0.00     0.016 A 
ATOM     15  C   UNL     1     108.486 110.058 109.433  1.00  0.00     0.051 A 
ATOM     16  C   UNL     1     108.479 111.212 108.638  1.00  0.00     0.157 A 
ATOM     17  C   UNL     1     109.333 112.484 110.522  1.00  0.00     0.062 A 
ATOM     18  C   UNL     1     108.928 112.427 109.175  1.00  0.00     0.158 A 
BRANCH  16  19
ATOM     19  O   UNL     1     108.001 111.157 107.331  1.00  0.00    -0.504 OA
ATOM     20  H   UNL     1     108.239 110.405 106.699  1.00  0.00     0.293 HD
ENDBRANCH  16  19
BRANCH  18  21
ATOM     21  O   UNL     1     108.955 113.572 108.360  1.00  0.00    -0.504 OA
ATOM     22  H   UNL     1     108.109 114.111 108.193  1.00  0.00     0.293 HD
ENDBRANCH  18  21
ENDBRANCH   3  13
BRANCH  10  23
ATOM     23  O   UNL     1     113.592 110.720 116.624  1.00  0.00    -0.507 OA
ATOM     24  H   UNL     1     113.949 110.465 117.533  1.00  0.00     0.293 HD
ENDBRANCH  10  23
BRANCH  11  25
ATOM     25  O   UNL     1     109.088 109.921 118.067  1.00  0.00    -0.508 OA
ATOM     26  H   UNL     1     108.099 110.135 118.078  1.00  0.00     0.293 HD
ENDBRANCH  11  25
ENDBRANCH   1   2
BRANCH   1  27
ATOM     27  C   UNL     1     113.254 111.554 110.487  1.00  0.00     0.339 C 
ATOM     28  C   UNL     1     112.291 112.378 109.616  1.00  0.00     0.214 C 
ATOM     29  O   UNL     1     114.346 110.945 109.777  1.00  0.00    -0.332 OA
ATOM     30  C   UNL     1     111.920 111.683 108.243  1.00  0.00     0.180 C 
ATOM     31  C   UNL     1     114.085 110.367 108.484  1.00  0.00     0.179 C 
ATOM     32  C   UNL     1     113.253 111.259 107.553  1.00  0.00     0.177 C 
BRANCH  28  33
ATOM     33  O   UNL     1     112.947 113.623 109.388  1.00  0.00    -0.384 OA
ATOM     34  H   UNL     1     112.250 114.330 109.400  1.00  0.00     0.211 HD
ENDBRANCH  28  33
BRANCH  30  35
ATOM     35  O   UNL     1     111.001 110.610 108.415  1.00  0.00    -0.387 OA
ATOM     36  H   UNL     1     110.755 110.303 107.494  1.00  0.00     0.211 HD
ENDBRANCH  30  35
BRANCH  31  37
ATOM     37  C   UNL     1     113.588 108.899 108.554  1.00  0.00     0.191 C 
BRANCH  37  38
ATOM     38  O   UNL     1     113.048 108.527 107.297  1.00  0.00    -0.394 OA
ATOM     39  H   UNL     1     113.427 107.613 107.141  1.00  0.00     0.210 HD
ENDBRANCH  37  38
ENDBRANCH  31  37
BRANCH  32  40
ATOM     40  O   UNL     1     114.000 112.439 107.236  1.00  0.00    -0.387 OA
ATOM     41  H   UNL     1     113.463 113.234 107.507  1.00  0.00     0.211 HD
ENDBRANCH  32  40
ENDBRANCH   1  27
TORSDOF 12
ENDMDL
MODEL 7
REMARK VINA RESULT:    -4.195      1.888      4.673
REMARK INTER + INTRA:          -4.941
REMARK INTER:                  -6.260
REMARK INTRA:                   1.319
REMARK UNBOUND:                 1.215
REMARK SMILES O=c1c(O[C@H]2O[C@@H](CO)[C@H](O)[C@@H](O)[C@@H]2O)c(-c2ccc(O)c(O)c2)oc2cc(O)cc(O)c12
REMARK SMILES IDX 4 1 3 2 16 3 25 4 2 5 26 6 1 7 33 8 27 9 31 10 28 11 30 12
REMARK SMILES IDX 17 13 18 14 19 15 20 16 24 17 22 18 21 19 23 21 32 23 29 25
REMARK SMILES IDX 5 27 14 28 6 29 12 30 7 31 10 32 15 33 13 35 8 37 9 38 11 40
REMARK H PARENT 21 20 23 22 32 24 29 26 15 34 13 36 9 39 11 41
REMARK Flexibility Score: inf
ROOT
ATOM      1  O   UNL     1     111.180 112.973 110.839  1.00  0.00    -0.454 OA
ENDROOT
BRANCH   1   2
ATOM      2  C   UNL     1     111.860 112.090 110.004  1.00  0.00     0.214 A 
ATOM      3  C   UNL     1     112.732 111.090 110.537  1.00  0.00     0.180 A 
ATOM      4  O   UNL     1     113.137 110.115 109.748  1.00  0.00    -0.452 OA
ATOM      5  C   UNL     1     111.645 112.059 108.579  1.00  0.00     0.239 A 
ATOM      6  C   UNL     1     112.917 110.029 108.448  1.00  0.00     0.146 A 
ATOM      7  O   UNL     1     110.969 112.964 107.999  1.00  0.00    -0.285 OA
ATOM      8  C   UNL     1     112.134 110.997 107.800  1.00  0.00     0.111 A 
ATOM      9  C   UNL     1     113.325 108.860 107.787  1.00  0.00     0.094 A 
ATOM     10  C   UNL     1     111.801 110.775 106.411  1.00  0.00     0.134 A 
ATOM     11  C   UNL     1     112.716 108.529 106.581  1.00  0.00     0.123 A 
ATOM     12  C   UNL     1     112.025 109.505 105.858  1.00  0.00     0.093 A 
BRANCH   3  13
ATOM     13  C   UNL     1     113.127 111.000 111.987  1.00  0.00     0.025 A 
ATOM     14  C   UNL     1     113.098 109.716 112.568  1.00  0.00     0.016 A 
ATOM     15  C   UNL     1     113.231 109.544 113.948  1.00  0.00     0.051 A 
ATOM     16  C   UNL     1     113.337 110.665 114.783  1.00  0.00     0.157 A 
ATOM     17  C   UNL     1     113.522 112.079 112.817  1.00  0.00     0.062 A 
ATOM     18  C   UNL     1     113.458 111.942 114.217  1.00  0.00     0.158 A 
BRANCH  16  19
ATOM     19  O   UNL     1     113.351 110.506 116.166  1.00  0.00    -0.504 OA
ATOM     20  H   UNL     1     112.663 109.950 116.654  1.00  0.00     0.293 HD
ENDBRANCH  16  19
BRANCH  18  21
ATOM     21  O   UNL     1     113.524 113.065 115.060  1.00  0.00    -0.504 OA
ATOM     22  H   UNL     1     114.063 113.884 114.793  1.00  0.00     0.293 HD
ENDBRANCH  18  21
ENDBRANCH   3  13
BRANCH  10  23
ATOM     23  O   UNL     1     111.203 111.728 105.577  1.00  0.00    -0.507 OA
ATOM     24  H   UNL     1     110.261 111.647 105.222  1.00  0.00     0.293 HD
ENDBRANCH  10  23
BRANCH  11  25
ATOM     25  O   UNL     1     112.743 107.217 106.111  1.00  0.00    -0.508 OA
ATOM     26  H   UNL     1     112.898 106.993 105.136  1.00  0.00     0.293 HD
ENDBRANCH  11  25
ENDBRANCH   1   2
BRANCH   1  27
ATOM     27  C   UNL     1     109.766 113.009 111.091  1.00  0.00     0.339 C 
ATOM     28  C   UNL     1     109.462 113.596 112.480  1.00  0.00     0.214 C 
ATOM     29  O   UNL     1     109.111 111.763 110.801  1.00  0.00    -0.332 OA
ATOM     30  C   UNL     1     109.475 112.521 113.643  1.00  0.00     0.180 C 
ATOM     31  C   UNL     1     109.020 110.777 111.846  1.00  0.00     0.179 C 
ATOM     32  C   UNL     1     108.563 111.336 113.200  1.00  0.00     0.177 C 
BRANCH  28  33
ATOM     33  O   UNL     1     108.177 114.201 112.369  1.00  0.00    -0.384 OA
ATOM     34  H   UNL     1     108.266 114.976 111.755  1.00  0.00     0.211 HD
ENDBRANCH  28  33
BRANCH  30  35
ATOM     35  O   UNL     1     110.795 112.124 113.992  1.00  0.00    -0.387 OA
ATOM     36  H   UNL     1     110.783 111.123 114.040  1.00  0.00     0.211 HD
ENDBRANCH  30  35
BRANCH  31  37
ATOM     37  C   UNL     1     110.267 109.858 111.937  1.00  0.00     0.191 C 
BRANCH  37  38
ATOM     38  O   UNL     1     110.312 109.017 110.796  1.00  0.00    -0.394 OA
ATOM     39  H   UNL     1     109.350 108.938 110.527  1.00  0.00     0.210 HD
ENDBRANCH  37  38
ENDBRANCH  31  37
BRANCH  32  40
ATOM     40  O   UNL     1     107.217 111.812 113.085  1.00  0.00    -0.387 OA
ATOM     41  H   UNL     1     106.665 111.098 112.660  1.00  0.00     0.211 HD
ENDBRANCH  32  40
ENDBRANCH   1  27
TORSDOF 12
ENDMDL
MODEL 8
REMARK VINA RESULT:    -4.162      1.866      2.467
REMARK INTER + INTRA:          -4.894
REMARK INTER:                  -6.005
REMARK INTRA:                   1.111
REMARK UNBOUND:                 1.215
REMARK SMILES O=c1c(O[C@H]2O[C@@H](CO)[C@H](O)[C@@H](O)[C@@H]2O)c(-c2ccc(O)c(O)c2)oc2cc(O)cc(O)c12
REMARK SMILES IDX 4 1 3 2 16 3 25 4 2 5 26 6 1 7 33 8 27 9 31 10 28 11 30 12
REMARK SMILES IDX 17 13 18 14 19 15 20 16 24 17 22 18 21 19 23 21 32 23 29 25
REMARK SMILES IDX 5 27 14 28 6 29 12 30 7 31 10 32 15 33 13 35 8 37 9 38 11 40
REMARK H PARENT 21 20 23 22 32 24 29 26 15 34 13 36 9 39 11 41
REMARK Flexibility Score: inf
ROOT
ATOM      1  O   UNL     1     111.109 109.317 111.096  1.00  0.00    -0.454 OA
ENDROOT
BRANCH   1   2
ATOM      2  C   UNL     1     110.428 110.171 110.231  1.00  0.00     0.214 A 
ATOM      3  C   UNL     1     109.556 111.188 110.729  1.00  0.00     0.180 A 
ATOM      4  O   UNL     1     109.150 112.135 109.906  1.00  0.00    -0.452 OA
ATOM      5  C   UNL     1     110.641 110.151 108.805  1.00  0.00     0.239 A 
ATOM      6  C   UNL     1     109.368 112.176 108.604  1.00  0.00     0.146 A 
ATOM      7  O   UNL     1     111.316 109.226 108.257  1.00  0.00    -0.285 OA
ATOM      8  C   UNL     1     110.151 111.185 107.989  1.00  0.00     0.111 A 
ATOM      9  C   UNL     1     108.960 113.320 107.902  1.00  0.00     0.094 A 
ATOM     10  C   UNL     1     110.483 111.358 106.594  1.00  0.00     0.134 A 
ATOM     11  C   UNL     1     109.567 113.608 106.684  1.00  0.00     0.123 A 
ATOM     12  C   UNL     1     110.258 112.607 105.997  1.00  0.00     0.093 A 
BRANCH   3  13
ATOM     13  C   UNL     1     109.162 111.330 112.175  1.00  0.00     0.025 A 
ATOM     14  C   UNL     1     109.206 112.631 112.715  1.00  0.00     0.016 A 
ATOM     15  C   UNL     1     109.076 112.850 114.088  1.00  0.00     0.051 A 
ATOM     16  C   UNL     1     108.957 111.757 114.959  1.00  0.00     0.157 A 
ATOM     17  C   UNL     1     108.755 110.283 113.040  1.00  0.00     0.062 A 
ATOM     18  C   UNL     1     108.821 110.464 114.434  1.00  0.00     0.158 A 
BRANCH  16  19
ATOM     19  O   UNL     1     108.945 111.960 116.336  1.00  0.00    -0.504 OA
ATOM     20  H   UNL     1     109.127 112.863 116.752  1.00  0.00     0.293 HD
ENDBRANCH  16  19
BRANCH  18  21
ATOM     21  O   UNL     1     108.743 109.369 115.313  1.00  0.00    -0.504 OA
ATOM     22  H   UNL     1     109.039 109.459 116.281  1.00  0.00     0.293 HD
ENDBRANCH  18  21
ENDBRANCH   3  13
BRANCH  10  23
ATOM     23  O   UNL     1     111.081 110.375 105.793  1.00  0.00    -0.507 OA
ATOM     24  H   UNL     1     111.906 110.536 105.235  1.00  0.00     0.293 HD
ENDBRANCH  10  23
BRANCH  11  25
ATOM     25  O   UNL     1     109.540 114.902 106.168  1.00  0.00    -0.508 OA
ATOM     26  H   UNL     1     109.688 115.098 105.187  1.00  0.00     0.293 HD
ENDBRANCH  11  25
ENDBRANCH   1   2
BRANCH   1  27
ATOM     27  C   UNL     1     112.524 109.281 111.337  1.00  0.00     0.339 C 
ATOM     28  C   UNL     1     112.835 108.757 112.749  1.00  0.00     0.214 C 
ATOM     29  O   UNL     1     113.187 110.507 110.984  1.00  0.00    -0.332 OA
ATOM     30  C   UNL     1     112.842 109.884 113.861  1.00  0.00     0.180 C 
ATOM     31  C   UNL     1     113.295 111.540 111.981  1.00  0.00     0.179 C 
ATOM     32  C   UNL     1     113.760 111.040 113.355  1.00  0.00     0.177 C 
BRANCH  28  33
ATOM     33  O   UNL     1     114.115 108.136 112.656  1.00  0.00    -0.384 OA
ATOM     34  H   UNL     1     114.691 108.540 113.356  1.00  0.00     0.211 HD
ENDBRANCH  28  33
BRANCH  30  35
ATOM     35  O   UNL     1     111.528 110.309 114.203  1.00  0.00    -0.387 OA
ATOM     36  H   UNL     1     111.627 111.213 114.623  1.00  0.00     0.211 HD
ENDBRANCH  30  35
BRANCH  31  37
ATOM     37  C   UNL     1     112.056 112.472 112.040  1.00  0.00     0.191 C 
BRANCH  37  38
ATOM     38  O   UNL     1     111.998 113.247 110.854  1.00  0.00    -0.394 OA
ATOM     39  H   UNL     1     112.608 114.018 111.049  1.00  0.00     0.210 HD
ENDBRANCH  37  38
ENDBRANCH  31  37
BRANCH  32  40
ATOM     40  O   UNL     1     115.101 110.548 113.252  1.00  0.00    -0.387 OA
ATOM     41  H   UNL     1     115.425 110.320 114.167  1.00  0.00     0.211 HD
ENDBRANCH  32  40
ENDBRANCH   1  27
TORSDOF 12
ENDMDL
MODEL 9
REMARK VINA RESULT:    -3.803      2.118      7.582
REMARK INTER + INTRA:          -4.367
REMARK INTER:                  -5.954
REMARK INTRA:                   1.586
REMARK UNBOUND:                 1.215
REMARK SMILES O=c1c(O[C@H]2O[C@@H](CO)[C@H](O)[C@@H](O)[C@@H]2O)c(-c2ccc(O)c(O)c2)oc2cc(O)cc(O)c12
REMARK SMILES IDX 4 1 3 2 16 3 25 4 2 5 26 6 1 7 33 8 27 9 31 10 28 11 30 12
REMARK SMILES IDX 17 13 18 14 19 15 20 16 24 17 22 18 21 19 23 21 32 23 29 25
REMARK SMILES IDX 5 27 14 28 6 29 12 30 7 31 10 32 15 33 13 35 8 37 9 38 11 40
REMARK H PARENT 21 20 23 22 32 24 29 26 15 34 13 36 9 39 11 41
REMARK Flexibility Score: inf
ROOT
ATOM      1  O   UNL     1     112.550 110.653 106.427  1.00  0.00    -0.454 OA
ENDROOT
BRANCH   1   2
ATOM      2  C   UNL     1     111.848 110.921 107.599  1.00  0.00     0.214 A 
ATOM      3  C   UNL     1     110.433 111.120 107.586  1.00  0.00     0.180 A 
ATOM      4  O   UNL     1     109.778 111.101 108.730  1.00  0.00    -0.452 OA
ATOM      5  C   UNL     1     112.481 110.908 108.895  1.00  0.00     0.239 A 
ATOM      6  C   UNL     1     110.321 111.039 109.932  1.00  0.00     0.146 A 
ATOM      7  O   UNL     1     113.744 110.839 109.006  1.00  0.00    -0.285 OA
ATOM      8  C   UNL     1     111.713 110.917 110.071  1.00  0.00     0.111 A 
ATOM      9  C   UNL     1     109.465 110.912 111.037  1.00  0.00     0.094 A 
ATOM     10  C   UNL     1     112.242 110.703 111.399  1.00  0.00     0.134 A 
ATOM     11  C   UNL     1     109.976 110.383 112.218  1.00  0.00     0.123 A 
ATOM     12  C   UNL     1     111.356 110.354 112.429  1.00  0.00     0.093 A 
BRANCH   3  13
ATOM     13  C   UNL     1     109.607 111.228 106.332  1.00  0.00     0.025 A 
ATOM     14  C   UNL     1     109.118 110.021 105.794  1.00  0.00     0.016 A 
ATOM     15  C   UNL     1     108.531 109.978 104.527  1.00  0.00     0.051 A 
ATOM     16  C   UNL     1     108.477 111.141 103.745  1.00  0.00     0.157 A 
ATOM     17  C   UNL     1     109.279 112.424 105.644  1.00  0.00     0.062 A 
ATOM     18  C   UNL     1     108.876 112.367 104.297  1.00  0.00     0.158 A 
BRANCH  16  19
ATOM     19  O   UNL     1     108.003 111.081 102.438  1.00  0.00    -0.504 OA
ATOM     20  H   UNL     1     108.000 111.885 101.826  1.00  0.00     0.293 HD
ENDBRANCH  16  19
BRANCH  18  21
ATOM     21  O   UNL     1     108.857 113.521 103.495  1.00  0.00    -0.504 OA
ATOM     22  H   UNL     1     109.576 114.233 103.593  1.00  0.00     0.293 HD
ENDBRANCH  18  21
ENDBRANCH   3  13
BRANCH  10  23
ATOM     23  O   UNL     1     113.602 110.758 111.729  1.00  0.00    -0.507 OA
ATOM     24  H   UNL     1     113.962 110.545 112.648  1.00  0.00     0.293 HD
ENDBRANCH  10  23
BRANCH  11  25
ATOM     25  O   UNL     1     109.123 109.831 113.173  1.00  0.00    -0.508 OA
ATOM     26  H   UNL     1     108.632 110.397 113.853  1.00  0.00     0.293 HD
ENDBRANCH  11  25
ENDBRANCH   1   2
BRANCH   1  27
ATOM     27  C   UNL     1     113.240 111.600 105.596  1.00  0.00     0.339 C 
ATOM     28  C   UNL     1     112.255 112.399 104.726  1.00  0.00     0.214 C 
ATOM     29  O   UNL     1     114.349 111.023 104.885  1.00  0.00    -0.332 OA
ATOM     30  C   UNL     1     111.904 111.698 103.351  1.00  0.00     0.180 C 
ATOM     31  C   UNL     1     114.105 110.442 103.591  1.00  0.00     0.179 C 
ATOM     32  C   UNL     1     113.250 111.313 102.661  1.00  0.00     0.177 C 
BRANCH  28  33
ATOM     33  O   UNL     1     112.876 113.662 104.502  1.00  0.00    -0.384 OA
ATOM     34  H   UNL     1     113.025 114.081 105.390  1.00  0.00     0.211 HD
ENDBRANCH  28  33
BRANCH  30  35
ATOM     35  O   UNL     1     111.016 110.600 103.519  1.00  0.00    -0.387 OA
ATOM     36  H   UNL     1     111.511 109.789 103.202  1.00  0.00     0.211 HD
ENDBRANCH  30  35
BRANCH  31  37
ATOM     37  C   UNL     1     113.649 108.960 103.657  1.00  0.00     0.191 C 
BRANCH  37  38
ATOM     38  O   UNL     1     113.063 108.596 102.418  1.00  0.00    -0.394 OA
ATOM     39  H   UNL     1     113.175 109.418 101.856  1.00  0.00     0.210 HD
ENDBRANCH  37  38
ENDBRANCH  31  37
BRANCH  32  40
ATOM     40  O   UNL     1     113.964 112.514 102.348  1.00  0.00    -0.387 OA
ATOM     41  H   UNL     1     113.433 113.291 102.677  1.00  0.00     0.211 HD
ENDBRANCH  32  40
ENDBRANCH   1  27
TORSDOF 12
ENDMDL
