MODEL 1
REMARK VINA RESULT:    -3.770      0.000      0.000
REMARK INTER + INTRA:         -11.724
REMARK INTER:                  -8.618
REMARK INTRA:                  -3.106
REMARK UNBOUND:                -3.106
REMARK SMILES CCCCCCCCCCCCCCCCCCCCCCCC(=O)[O-]
REMARK SMILES IDX 13 1 14 2 15 3 16 4 17 5 18 6 19 7 20 8 21 9 22 10 23 11
REMARK SMILES IDX 24 12 25 13 26 14 12 15 11 16 10 17 9 18 8 19 7 20 6 21 5 22
REMARK SMILES IDX 4 23 3 24 2 25 1 26
REMARK H PARENT
REMARK Flexibility Score: inf
ROOT
ATOM      1  C   UNL     1      46.873  29.081  50.894  1.00  0.00     0.000 C 
ENDROOT
BRANCH   1   2
ATOM      2  C   UNL     1      45.548  29.274  50.135  1.00  0.00     0.000 C 
BRANCH   2   3
ATOM      3  C   UNL     1      45.349  28.344  48.921  1.00  0.00     0.000 C 
BRANCH   3   4
ATOM      4  C   UNL     1      44.914  29.047  47.622  1.00  0.00     0.000 C 
BRANCH   4   5
ATOM      5  C   UNL     1      45.900  30.135  47.171  1.00  0.00     0.000 C 
BRANCH   5   6
ATOM      6  C   UNL     1      45.236  31.520  47.183  1.00  0.00     0.000 C 
BRANCH   6   7
ATOM      7  C   UNL     1      46.173  32.620  47.708  1.00  0.00     0.000 C 
BRANCH   7   8
ATOM      8  C   UNL     1      45.867  33.010  49.164  1.00  0.00     0.000 C 
BRANCH   8   9
ATOM      9  C   UNL     1      44.451  32.600  49.608  1.00  0.00     0.000 C 
BRANCH   9  10
ATOM     10  C   UNL     1      43.472  33.768  49.846  1.00  0.00     0.006 C 
BRANCH  10  11
ATOM     11  C   UNL     1      42.588  34.118  48.639  1.00  0.00     0.053 C 
BRANCH  11  12
ATOM     12  C   UNL     1      43.097  35.315  47.897  1.00  0.00     0.041 C 
ATOM     13  O   UNL     1      43.733  35.168  46.820  1.00  0.00    -0.550 OA
ATOM     14  O   UNL     1      42.895  36.591  48.409  1.00  0.00    -0.550 OA
ENDBRANCH  11  12
ENDBRANCH  10  11
ENDBRANCH   9  10
ENDBRANCH   8   9
ENDBRANCH   7   8
ENDBRANCH   6   7
ENDBRANCH   5   6
ENDBRANCH   4   5
ENDBRANCH   3   4
ENDBRANCH   2   3
ENDBRANCH   1   2
BRANCH   1  15
ATOM     15  C   UNL     1      47.739  30.349  50.908  1.00  0.00     0.000 C 
BRANCH  15  16
ATOM     16  C   UNL     1      48.674  30.388  49.692  1.00  0.00     0.000 C 
BRANCH  16  17
ATOM     17  C   UNL     1      49.447  31.715  49.635  1.00  0.00     0.000 C 
BRANCH  17  18
ATOM     18  C   UNL     1      49.157  32.632  50.838  1.00  0.00    -0.000 C 
BRANCH  18  19
ATOM     19  C   UNL     1      50.325  33.543  51.255  1.00  0.00    -0.000 C 
BRANCH  19  20
ATOM     20  C   UNL     1      50.871  33.215  52.656  1.00  0.00    -0.000 C 
BRANCH  20  21
ATOM     21  C   UNL     1      49.879  32.401  53.504  1.00  0.00    -0.000 C 
BRANCH  21  22
ATOM     22  C   UNL     1      49.630  33.031  54.885  1.00  0.00    -0.000 C 
BRANCH  22  23
ATOM     23  C   UNL     1      50.592  32.497  55.959  1.00  0.00    -0.000 C 
BRANCH  23  24
ATOM     24  C   UNL     1      50.265  31.057  56.385  1.00  0.00    -0.000 C 
BRANCH  24  25
ATOM     25  C   UNL     1      50.937  30.717  57.721  1.00  0.00    -0.003 C 
ATOM     26  C   UNL     1      51.815  31.867  58.206  1.00  0.00     0.004 C 
ENDBRANCH  24  25
ENDBRANCH  23  24
ENDBRANCH  22  23
ENDBRANCH  21  22
ENDBRANCH  20  21
ENDBRANCH  19  20
ENDBRANCH  18  19
ENDBRANCH  17  18
ENDBRANCH  16  17
ENDBRANCH  15  16
ENDBRANCH   1  15
TORSDOF 22
ENDMDL
MODEL 2
REMARK VINA RESULT:    -3.636      4.231      7.001
REMARK INTER + INTRA:         -11.420
REMARK INTER:                  -8.033
REMARK INTRA:                  -3.386
REMARK UNBOUND:                -3.106
REMARK SMILES CCCCCCCCCCCCCCCCCCCCCCCC(=O)[O-]
REMARK SMILES IDX 13 1 14 2 15 3 16 4 17 5 18 6 19 7 20 8 21 9 22 10 23 11
REMARK SMILES IDX 24 12 25 13 26 14 12 15 11 16 10 17 9 18 8 19 7 20 6 21 5 22
REMARK SMILES IDX 4 23 3 24 2 25 1 26
REMARK H PARENT
REMARK Flexibility Score: inf
ROOT
ATOM      1  C   UNL     1      40.839  35.592  47.677  1.00  0.00     0.000 C 
ENDROOT
BRANCH   1   2
ATOM      2  C   UNL     1      40.783  35.233  46.181  1.00  0.00     0.000 C 
BRANCH   2   3
ATOM      3  C   UNL     1      41.462  33.900  45.804  1.00  0.00     0.000 C 
BRANCH   3   4
ATOM      4  C   UNL     1      42.790  34.036  45.037  1.00  0.00     0.000 C 
BRANCH   4   5
ATOM      5  C   UNL     1      43.979  33.414  45.784  1.00  0.00     0.000 C 
BRANCH   5   6
ATOM      6  C   UNL     1      45.057  34.468  46.078  1.00  0.00     0.000 C 
BRANCH   6   7
ATOM      7  C   UNL     1      44.465  35.797  46.573  1.00  0.00     0.000 C 
BRANCH   7   8
ATOM      8  C   UNL     1      45.352  36.481  47.628  1.00  0.00     0.000 C 
BRANCH   8   9
ATOM      9  C   UNL     1      44.661  37.675  48.309  1.00  0.00     0.000 C 
BRANCH   9  10
ATOM     10  C   UNL     1      45.074  37.927  49.774  1.00  0.00     0.006 C 
BRANCH  10  11
ATOM     11  C   UNL     1      44.497  39.211  50.390  1.00  0.00     0.053 C 
BRANCH  11  12
ATOM     12  C   UNL     1      44.759  39.296  51.862  1.00  0.00     0.041 C 
ATOM     13  O   UNL     1      45.929  39.489  52.286  1.00  0.00    -0.550 OA
ATOM     14  O   UNL     1      43.717  39.131  52.766  1.00  0.00    -0.550 OA
ENDBRANCH  11  12
ENDBRANCH  10  11
ENDBRANCH   9  10
ENDBRANCH   8   9
ENDBRANCH   7   8
ENDBRANCH   6   7
ENDBRANCH   5   6
ENDBRANCH   4   5
ENDBRANCH   3   4
ENDBRANCH   2   3
ENDBRANCH   1   2
BRANCH   1  15
ATOM     15  C   UNL     1      41.625  34.566  48.505  1.00  0.00     0.000 C 
BRANCH  15  16
ATOM     16  C   UNL     1      42.213  35.213  49.765  1.00  0.00     0.000 C 
BRANCH  16  17
ATOM     17  C   UNL     1      43.532  34.536  50.167  1.00  0.00     0.000 C 
BRANCH  17  18
ATOM     18  C   UNL     1      43.763  33.194  49.447  1.00  0.00    -0.000 C 
BRANCH  18  19
ATOM     19  C   UNL     1      45.234  32.752  49.356  1.00  0.00    -0.000 C 
BRANCH  19  20
ATOM     20  C   UNL     1      45.415  31.233  49.525  1.00  0.00    -0.000 C 
BRANCH  20  21
ATOM     21  C   UNL     1      46.894  30.813  49.565  1.00  0.00    -0.000 C 
BRANCH  21  22
ATOM     22  C   UNL     1      47.189  29.805  50.688  1.00  0.00    -0.000 C 
BRANCH  22  23
ATOM     23  C   UNL     1      46.136  28.688  50.773  1.00  0.00    -0.000 C 
BRANCH  23  24
ATOM     24  C   UNL     1      46.221  27.703  49.597  1.00  0.00    -0.000 C 
BRANCH  24  25
ATOM     25  C   UNL     1      44.876  27.607  48.866  1.00  0.00    -0.003 C 
ATOM     26  C   UNL     1      44.968  28.198  47.462  1.00  0.00     0.004 C 
ENDBRANCH  24  25
ENDBRANCH  23  24
ENDBRANCH  22  23
ENDBRANCH  21  22
ENDBRANCH  20  21
ENDBRANCH  19  20
ENDBRANCH  18  19
ENDBRANCH  17  18
ENDBRANCH  16  17
ENDBRANCH  15  16
ENDBRANCH   1  15
TORSDOF 22
ENDMDL
MODEL 3
REMARK VINA RESULT:    -3.618      4.294      7.487
REMARK INTER + INTRA:         -11.376
REMARK INTER:                  -7.945
REMARK INTRA:                  -3.431
REMARK UNBOUND:                -3.106
REMARK SMILES CCCCCCCCCCCCCCCCCCCCCCCC(=O)[O-]
REMARK SMILES IDX 13 1 14 2 15 3 16 4 17 5 18 6 19 7 20 8 21 9 22 10 23 11
REMARK SMILES IDX 24 12 25 13 26 14 12 15 11 16 10 17 9 18 8 19 7 20 6 21 5 22
REMARK SMILES IDX 4 23 3 24 2 25 1 26
REMARK H PARENT
REMARK Flexibility Score: inf
ROOT
ATOM      1  C   UNL     1      40.757  35.536  47.420  1.00  0.00     0.000 C 
ENDROOT
BRANCH   1   2
ATOM      2  C   UNL     1      41.194  35.006  48.798  1.00  0.00     0.000 C 
BRANCH   2   3
ATOM      3  C   UNL     1      42.415  34.064  48.778  1.00  0.00     0.000 C 
BRANCH   3   4
ATOM      4  C   UNL     1      43.375  34.210  49.973  1.00  0.00     0.000 C 
BRANCH   4   5
ATOM      5  C   UNL     1      43.736  35.672  50.275  1.00  0.00     0.000 C 
BRANCH   5   6
ATOM      6  C   UNL     1      44.799  36.190  49.295  1.00  0.00     0.000 C 
BRANCH   6   7
ATOM      7  C   UNL     1      44.199  37.048  48.170  1.00  0.00     0.000 C 
BRANCH   7   8
ATOM      8  C   UNL     1      44.166  38.545  48.524  1.00  0.00     0.000 C 
BRANCH   8   9
ATOM      9  C   UNL     1      44.983  38.880  49.785  1.00  0.00     0.000 C 
BRANCH   9  10
ATOM     10  C   UNL     1      44.205  39.612  50.898  1.00  0.00     0.006 C 
BRANCH  10  11
ATOM     11  C   UNL     1      44.291  38.948  52.281  1.00  0.00     0.053 C 
BRANCH  11  12
ATOM     12  C   UNL     1      45.268  39.643  53.178  1.00  0.00     0.041 C 
ATOM     13  O   UNL     1      46.497  39.631  52.905  1.00  0.00    -0.550 OA
ATOM     14  O   UNL     1      44.824  40.279  54.332  1.00  0.00    -0.550 OA
ENDBRANCH  11  12
ENDBRANCH  10  11
ENDBRANCH   9  10
ENDBRANCH   8   9
ENDBRANCH   7   8
ENDBRANCH   6   7
ENDBRANCH   5   6
ENDBRANCH   4   5
ENDBRANCH   3   4
ENDBRANCH   2   3
ENDBRANCH   1   2
BRANCH   1  15
ATOM     15  C   UNL     1      41.330  34.713  46.258  1.00  0.00     0.000 C 
BRANCH  15  16
ATOM     16  C   UNL     1      42.225  35.578  45.362  1.00  0.00     0.000 C 
BRANCH  16  17
ATOM     17  C   UNL     1      43.592  34.913  45.143  1.00  0.00     0.000 C 
BRANCH  17  18
ATOM     18  C   UNL     1      43.496  33.387  44.958  1.00  0.00    -0.000 C 
BRANCH  18  19
ATOM     19  C   UNL     1      44.417  32.563  45.875  1.00  0.00    -0.000 C 
BRANCH  19  20
ATOM     20  C   UNL     1      45.472  33.423  46.593  1.00  0.00    -0.000 C 
BRANCH  20  21
ATOM     21  C   UNL     1      46.001  32.764  47.877  1.00  0.00    -0.000 C 
BRANCH  21  22
ATOM     22  C   UNL     1      45.210  31.501  48.259  1.00  0.00    -0.000 C 
BRANCH  22  23
ATOM     23  C   UNL     1      45.453  31.070  49.716  1.00  0.00    -0.000 C 
BRANCH  23  24
ATOM     24  C   UNL     1      46.945  30.914  50.047  1.00  0.00    -0.000 C 
BRANCH  24  25
ATOM     25  C   UNL     1      47.183  29.682  50.928  1.00  0.00    -0.003 C 
ATOM     26  C   UNL     1      46.178  28.577  50.614  1.00  0.00     0.004 C 
ENDBRANCH  24  25
ENDBRANCH  23  24
ENDBRANCH  22  23
ENDBRANCH  21  22
ENDBRANCH  20  21
ENDBRANCH  19  20
ENDBRANCH  18  19
ENDBRANCH  17  18
ENDBRANCH  16  17
ENDBRANCH  15  16
ENDBRANCH   1  15
TORSDOF 22
ENDMDL
MODEL 4
REMARK VINA RESULT:    -3.600      3.613      6.486
REMARK INTER + INTRA:         -11.337
REMARK INTER:                  -6.873
REMARK INTRA:                  -4.464
REMARK UNBOUND:                -3.106
REMARK SMILES CCCCCCCCCCCCCCCCCCCCCCCC(=O)[O-]
REMARK SMILES IDX 13 1 14 2 15 3 16 4 17 5 18 6 19 7 20 8 21 9 22 10 23 11
REMARK SMILES IDX 24 12 25 13 26 14 12 15 11 16 10 17 9 18 8 19 7 20 6 21 5 22
REMARK SMILES IDX 4 23 3 24 2 25 1 26
REMARK H PARENT
REMARK Flexibility Score: inf
ROOT
ATOM      1  C   UNL     1      43.855  34.389  50.154  1.00  0.00     0.000 C 
ENDROOT
BRANCH   1   2
ATOM      2  C   UNL     1      42.622  35.232  49.782  1.00  0.00     0.000 C 
BRANCH   2   3
ATOM      3  C   UNL     1      41.691  34.599  48.728  1.00  0.00     0.000 C 
BRANCH   3   4
ATOM      4  C   UNL     1      40.827  35.597  47.934  1.00  0.00     0.000 C 
BRANCH   4   5
ATOM      5  C   UNL     1      40.601  35.166  46.478  1.00  0.00     0.000 C 
BRANCH   5   6
ATOM      6  C   UNL     1      41.596  34.070  46.066  1.00  0.00     0.000 C 
BRANCH   6   7
ATOM      7  C   UNL     1      42.724  34.602  45.168  1.00  0.00     0.000 C 
BRANCH   7   8
ATOM      8  C   UNL     1      44.120  34.342  45.760  1.00  0.00     0.000 C 
BRANCH   8   9
ATOM      9  C   UNL     1      44.664  35.538  46.562  1.00  0.00     0.000 C 
BRANCH   9  10
ATOM     10  C   UNL     1      46.126  35.405  47.033  1.00  0.00     0.006 C 
BRANCH  10  11
ATOM     11  C   UNL     1      46.427  36.073  48.384  1.00  0.00     0.053 C 
BRANCH  11  12
ATOM     12  C   UNL     1      45.898  37.473  48.449  1.00  0.00     0.041 C 
ATOM     13  O   UNL     1      44.992  37.769  49.272  1.00  0.00    -0.550 OA
ATOM     14  O   UNL     1      46.385  38.443  47.582  1.00  0.00    -0.550 OA
ENDBRANCH  11  12
ENDBRANCH  10  11
ENDBRANCH   9  10
ENDBRANCH   8   9
ENDBRANCH   7   8
ENDBRANCH   6   7
ENDBRANCH   5   6
ENDBRANCH   4   5
ENDBRANCH   3   4
ENDBRANCH   2   3
ENDBRANCH   1   2
BRANCH   1  15
ATOM     15  C   UNL     1      43.828  32.989  49.524  1.00  0.00     0.000 C 
BRANCH  15  16
ATOM     16  C   UNL     1      45.243  32.528  49.151  1.00  0.00     0.000 C 
BRANCH  16  17
ATOM     17  C   UNL     1      45.239  31.763  47.819  1.00  0.00     0.000 C 
BRANCH  17  18
ATOM     18  C   UNL     1      46.655  31.491  47.277  1.00  0.00    -0.000 C 
BRANCH  18  19
ATOM     19  C   UNL     1      46.806  30.178  46.490  1.00  0.00    -0.000 C 
BRANCH  19  20
ATOM     20  C   UNL     1      45.456  29.516  46.162  1.00  0.00    -0.000 C 
BRANCH  20  21
ATOM     21  C   UNL     1      45.361  28.072  46.683  1.00  0.00    -0.000 C 
BRANCH  21  22
ATOM     22  C   UNL     1      45.949  27.916  48.096  1.00  0.00    -0.000 C 
BRANCH  22  23
ATOM     23  C   UNL     1      44.975  28.371  49.195  1.00  0.00    -0.000 C 
BRANCH  23  24
ATOM     24  C   UNL     1      45.688  29.046  50.377  1.00  0.00    -0.000 C 
BRANCH  24  25
ATOM     25  C   UNL     1      47.204  29.088  50.148  1.00  0.00    -0.003 C 
ATOM     26  C   UNL     1      47.818  30.348  50.752  1.00  0.00     0.004 C 
ENDBRANCH  24  25
ENDBRANCH  23  24
ENDBRANCH  22  23
ENDBRANCH  21  22
ENDBRANCH  20  21
ENDBRANCH  19  20
ENDBRANCH  18  19
ENDBRANCH  17  18
ENDBRANCH  16  17
ENDBRANCH  15  16
ENDBRANCH   1  15
TORSDOF 22
ENDMDL
MODEL 5
REMARK VINA RESULT:    -3.590      4.266      8.330
REMARK INTER + INTRA:         -11.313
REMARK INTER:                  -6.714
REMARK INTRA:                  -4.599
REMARK UNBOUND:                -3.106
REMARK SMILES CCCCCCCCCCCCCCCCCCCCCCCC(=O)[O-]
REMARK SMILES IDX 13 1 14 2 15 3 16 4 17 5 18 6 19 7 20 8 21 9 22 10 23 11
REMARK SMILES IDX 24 12 25 13 26 14 12 15 11 16 10 17 9 18 8 19 7 20 6 21 5 22
REMARK SMILES IDX 4 23 3 24 2 25 1 26
REMARK H PARENT
REMARK Flexibility Score: inf
ROOT
ATOM      1  C   UNL     1      44.321  32.264  48.612  1.00  0.00     0.000 C 
ENDROOT
BRANCH   1   2
ATOM      2  C   UNL     1      45.484  31.904  47.669  1.00  0.00     0.000 C 
BRANCH   2   3
ATOM      3  C   UNL     1      46.828  32.586  48.000  1.00  0.00     0.000 C 
BRANCH   3   4
ATOM      4  C   UNL     1      48.079  31.725  47.744  1.00  0.00     0.000 C 
BRANCH   4   5
ATOM      5  C   UNL     1      48.745  31.238  49.039  1.00  0.00     0.000 C 
BRANCH   5   6
ATOM      6  C   UNL     1      49.052  29.735  48.969  1.00  0.00     0.000 C 
BRANCH   6   7
ATOM      7  C   UNL     1      48.260  28.921  50.004  1.00  0.00     0.000 C 
BRANCH   7   8
ATOM      8  C   UNL     1      47.229  29.776  50.762  1.00  0.00     0.000 C 
BRANCH   8   9
ATOM      9  C   UNL     1      45.775  29.402  50.422  1.00  0.00     0.000 C 
BRANCH   9  10
ATOM     10  C   UNL     1      45.609  28.174  49.504  1.00  0.00     0.006 C 
BRANCH  10  11
ATOM     11  C   UNL     1      44.663  28.389  48.312  1.00  0.00     0.053 C 
BRANCH  11  12
ATOM     12  C   UNL     1      45.330  28.096  47.004  1.00  0.00     0.041 C 
ATOM     13  O   UNL     1      44.806  27.284  46.195  1.00  0.00    -0.550 OA
ATOM     14  O   UNL     1      46.544  28.694  46.691  1.00  0.00    -0.550 OA
ENDBRANCH  11  12
ENDBRANCH  10  11
ENDBRANCH   9  10
ENDBRANCH   8   9
ENDBRANCH   7   8
ENDBRANCH   6   7
ENDBRANCH   5   6
ENDBRANCH   4   5
ENDBRANCH   3   4
ENDBRANCH   2   3
ENDBRANCH   1   2
BRANCH   1  15
ATOM     15  C   UNL     1      44.736  33.242  49.721  1.00  0.00     0.000 C 
BRANCH  15  16
ATOM     16  C   UNL     1      43.550  34.108  50.160  1.00  0.00     0.000 C 
BRANCH  16  17
ATOM     17  C   UNL     1      43.865  35.602  49.987  1.00  0.00     0.000 C 
BRANCH  17  18
ATOM     18  C   UNL     1      45.023  35.862  49.005  1.00  0.00    -0.000 C 
BRANCH  18  19
ATOM     19  C   UNL     1      44.592  36.330  47.604  1.00  0.00    -0.000 C 
BRANCH  19  20
ATOM     20  C   UNL     1      45.001  35.347  46.492  1.00  0.00    -0.000 C 
BRANCH  20  21
ATOM     21  C   UNL     1      43.932  35.215  45.394  1.00  0.00    -0.000 C 
BRANCH  21  22
ATOM     22  C   UNL     1      43.146  33.897  45.494  1.00  0.00    -0.000 C 
BRANCH  22  23
ATOM     23  C   UNL     1      41.664  34.118  45.841  1.00  0.00    -0.000 C 
BRANCH  23  24
ATOM     24  C   UNL     1      41.427  34.278  47.350  1.00  0.00    -0.000 C 
BRANCH  24  25
ATOM     25  C   UNL     1      40.889  35.678  47.673  1.00  0.00    -0.003 C 
ATOM     26  C   UNL     1      40.695  36.501  46.403  1.00  0.00     0.004 C 
ENDBRANCH  24  25
ENDBRANCH  23  24
ENDBRANCH  22  23
ENDBRANCH  21  22
ENDBRANCH  20  21
ENDBRANCH  19  20
ENDBRANCH  18  19
ENDBRANCH  17  18
ENDBRANCH  16  17
ENDBRANCH  15  16
ENDBRANCH   1  15
TORSDOF 22
ENDMDL
MODEL 6
REMARK VINA RESULT:    -3.553      3.829      8.281
REMARK INTER + INTRA:         -11.230
REMARK INTER:                  -7.434
REMARK INTRA:                  -3.796
REMARK UNBOUND:                -3.106
REMARK SMILES CCCCCCCCCCCCCCCCCCCCCCCC(=O)[O-]
REMARK SMILES IDX 13 1 14 2 15 3 16 4 17 5 18 6 19 7 20 8 21 9 22 10 23 11
REMARK SMILES IDX 24 12 25 13 26 14 12 15 11 16 10 17 9 18 8 19 7 20 6 21 5 22
REMARK SMILES IDX 4 23 3 24 2 25 1 26
REMARK H PARENT
REMARK Flexibility Score: inf
ROOT
ATOM      1  C   UNL     1      41.972  34.133  48.655  1.00  0.00     0.000 C 
ENDROOT
BRANCH   1   2
ATOM      2  C   UNL     1      43.348  34.246  49.335  1.00  0.00     0.000 C 
BRANCH   2   3
ATOM      3  C   UNL     1      44.148  32.929  49.414  1.00  0.00     0.000 C 
BRANCH   3   4
ATOM      4  C   UNL     1      45.484  32.928  48.648  1.00  0.00     0.000 C 
BRANCH   4   5
ATOM      5  C   UNL     1      46.408  34.085  49.056  1.00  0.00     0.000 C 
BRANCH   5   6
ATOM      6  C   UNL     1      47.834  33.581  49.328  1.00  0.00     0.000 C 
BRANCH   6   7
ATOM      7  C   UNL     1      47.945  32.050  49.252  1.00  0.00     0.000 C 
BRANCH   7   8
ATOM      8  C   UNL     1      47.876  31.385  50.638  1.00  0.00     0.000 C 
BRANCH   8   9
ATOM      9  C   UNL     1      48.249  29.892  50.605  1.00  0.00     0.000 C 
BRANCH   9  10
ATOM     10  C   UNL     1      47.223  28.972  49.913  1.00  0.00     0.006 C 
BRANCH  10  11
ATOM     11  C   UNL     1      45.774  29.480  49.960  1.00  0.00     0.053 C 
BRANCH  11  12
ATOM     12  C   UNL     1      44.955  28.951  48.824  1.00  0.00     0.041 C 
ATOM     13  O   UNL     1      44.375  27.837  48.927  1.00  0.00    -0.550 OA
ATOM     14  O   UNL     1      44.855  29.672  47.641  1.00  0.00    -0.550 OA
ENDBRANCH  11  12
ENDBRANCH  10  11
ENDBRANCH   9  10
ENDBRANCH   8   9
ENDBRANCH   7   8
ENDBRANCH   6   7
ENDBRANCH   5   6
ENDBRANCH   4   5
ENDBRANCH   3   4
ENDBRANCH   2   3
ENDBRANCH   1   2
BRANCH   1  15
ATOM     15  C   UNL     1      41.386  35.498  48.271  1.00  0.00     0.000 C 
BRANCH  15  16
ATOM     16  C   UNL     1      40.902  35.497  46.815  1.00  0.00     0.000 C 
BRANCH  16  17
ATOM     17  C   UNL     1      41.178  34.143  46.145  1.00  0.00     0.000 C 
BRANCH  17  18
ATOM     18  C   UNL     1      42.207  34.235  45.003  1.00  0.00    -0.000 C 
BRANCH  18  19
ATOM     19  C   UNL     1      43.512  33.455  45.242  1.00  0.00    -0.000 C 
BRANCH  19  20
ATOM     20  C   UNL     1      44.699  34.367  45.597  1.00  0.00    -0.000 C 
BRANCH  20  21
ATOM     21  C   UNL     1      44.372  35.860  45.425  1.00  0.00    -0.000 C 
BRANCH  21  22
ATOM     22  C   UNL     1      44.637  36.672  46.705  1.00  0.00    -0.000 C 
BRANCH  22  23
ATOM     23  C   UNL     1      43.704  37.887  46.836  1.00  0.00    -0.000 C 
BRANCH  23  24
ATOM     24  C   UNL     1      43.726  38.502  48.244  1.00  0.00    -0.000 C 
BRANCH  24  25
ATOM     25  C   UNL     1      44.555  37.639  49.203  1.00  0.00    -0.003 C 
ATOM     26  C   UNL     1      44.711  38.318  50.561  1.00  0.00     0.004 C 
ENDBRANCH  24  25
ENDBRANCH  23  24
ENDBRANCH  22  23
ENDBRANCH  21  22
ENDBRANCH  20  21
ENDBRANCH  19  20
ENDBRANCH  18  19
ENDBRANCH  17  18
ENDBRANCH  16  17
ENDBRANCH  15  16
ENDBRANCH   1  15
TORSDOF 22
ENDMDL
MODEL 7
REMARK VINA RESULT:    -3.553      3.421      5.995
REMARK INTER + INTRA:         -11.228
REMARK INTER:                  -7.192
REMARK INTRA:                  -4.037
REMARK UNBOUND:                -3.106
REMARK SMILES CCCCCCCCCCCCCCCCCCCCCCCC(=O)[O-]
REMARK SMILES IDX 13 1 14 2 15 3 16 4 17 5 18 6 19 7 20 8 21 9 22 10 23 11
REMARK SMILES IDX 24 12 25 13 26 14 12 15 11 16 10 17 9 18 8 19 7 20 6 21 5 22
REMARK SMILES IDX 4 23 3 24 2 25 1 26
REMARK H PARENT
REMARK Flexibility Score: inf
ROOT
ATOM      1  C   UNL     1      45.365  33.617  49.058  1.00  0.00     0.000 C 
ENDROOT
BRANCH   1   2
ATOM      2  C   UNL     1      43.927  33.436  49.576  1.00  0.00     0.000 C 
BRANCH   2   3
ATOM      3  C   UNL     1      43.240  34.728  50.064  1.00  0.00     0.000 C 
BRANCH   3   4
ATOM      4  C   UNL     1      41.985  35.142  49.273  1.00  0.00     0.000 C 
BRANCH   4   5
ATOM      5  C   UNL     1      41.602  34.127  48.186  1.00  0.00     0.000 C 
BRANCH   5   6
ATOM      6  C   UNL     1      40.891  34.818  47.013  1.00  0.00     0.000 C 
BRANCH   6   7
ATOM      7  C   UNL     1      41.489  34.434  45.650  1.00  0.00     0.000 C 
BRANCH   7   8
ATOM      8  C   UNL     1      42.954  33.975  45.757  1.00  0.00     0.000 C 
BRANCH   8   9
ATOM      9  C   UNL     1      43.957  35.077  45.372  1.00  0.00     0.000 C 
BRANCH   9  10
ATOM     10  C   UNL     1      44.400  35.997  46.527  1.00  0.00     0.006 C 
BRANCH  10  11
ATOM     11  C   UNL     1      43.633  37.325  46.619  1.00  0.00     0.053 C 
BRANCH  11  12
ATOM     12  C   UNL     1      44.207  38.237  47.658  1.00  0.00     0.041 C 
ATOM     13  O   UNL     1      44.050  37.980  48.882  1.00  0.00    -0.550 OA
ATOM     14  O   UNL     1      44.891  39.385  47.278  1.00  0.00    -0.550 OA
ENDBRANCH  11  12
ENDBRANCH  10  11
ENDBRANCH   9  10
ENDBRANCH   8   9
ENDBRANCH   7   8
ENDBRANCH   6   7
ENDBRANCH   5   6
ENDBRANCH   4   5
ENDBRANCH   3   4
ENDBRANCH   2   3
ENDBRANCH   1   2
BRANCH   1  15
ATOM     15  C   UNL     1      45.689  32.698  47.872  1.00  0.00     0.000 C 
BRANCH  15  16
ATOM     16  C   UNL     1      44.991  31.340  48.023  1.00  0.00     0.000 C 
BRANCH  16  17
ATOM     17  C   UNL     1      45.729  30.251  47.231  1.00  0.00     0.000 C 
BRANCH  17  18
ATOM     18  C   UNL     1      44.998  28.895  47.248  1.00  0.00    -0.000 C 
BRANCH  18  19
ATOM     19  C   UNL     1      44.737  28.317  48.649  1.00  0.00    -0.000 C 
BRANCH  19  20
ATOM     20  C   UNL     1      45.749  27.227  49.045  1.00  0.00    -0.000 C 
BRANCH  20  21
ATOM     21  C   UNL     1      46.495  27.555  50.349  1.00  0.00    -0.000 C 
BRANCH  21  22
ATOM     22  C   UNL     1      46.344  29.029  50.759  1.00  0.00    -0.000 C 
BRANCH  22  23
ATOM     23  C   UNL     1      47.699  29.726  50.966  1.00  0.00    -0.000 C 
BRANCH  23  24
ATOM     24  C   UNL     1      47.685  31.196  50.518  1.00  0.00    -0.000 C 
BRANCH  24  25
ATOM     25  C   UNL     1      48.910  31.515  49.653  1.00  0.00    -0.003 C 
ATOM     26  C   UNL     1      49.104  30.464  48.563  1.00  0.00     0.004 C 
ENDBRANCH  24  25
ENDBRANCH  23  24
ENDBRANCH  22  23
ENDBRANCH  21  22
ENDBRANCH  20  21
ENDBRANCH  19  20
ENDBRANCH  18  19
ENDBRANCH  17  18
ENDBRANCH  16  17
ENDBRANCH  15  16
ENDBRANCH   1  15
TORSDOF 22
ENDMDL
MODEL 8
REMARK VINA RESULT:    -3.478      4.563      6.893
REMARK INTER + INTRA:         -11.057
REMARK INTER:                  -6.207
REMARK INTRA:                  -4.850
REMARK UNBOUND:                -3.106
REMARK SMILES CCCCCCCCCCCCCCCCCCCCCCCC(=O)[O-]
REMARK SMILES IDX 13 1 14 2 15 3 16 4 17 5 18 6 19 7 20 8 21 9 22 10 23 11
REMARK SMILES IDX 24 12 25 13 26 14 12 15 11 16 10 17 9 18 8 19 7 20 6 21 5 22
REMARK SMILES IDX 4 23 3 24 2 25 1 26
REMARK H PARENT
REMARK Flexibility Score: inf
ROOT
ATOM      1  C   UNL     1      42.637  35.202  49.958  1.00  0.00     0.000 C 
ENDROOT
BRANCH   1   2
ATOM      2  C   UNL     1      41.677  34.615  48.907  1.00  0.00     0.000 C 
BRANCH   2   3
ATOM      3  C   UNL     1      40.926  35.658  48.054  1.00  0.00     0.000 C 
BRANCH   3   4
ATOM      4  C   UNL     1      40.826  35.327  46.554  1.00  0.00     0.000 C 
BRANCH   4   5
ATOM      5  C   UNL     1      41.384  33.938  46.209  1.00  0.00     0.000 C 
BRANCH   5   6
ATOM      6  C   UNL     1      42.646  34.052  45.341  1.00  0.00     0.000 C 
BRANCH   6   7
ATOM      7  C   UNL     1      43.094  35.508  45.135  1.00  0.00     0.000 C 
BRANCH   7   8
ATOM      8  C   UNL     1      44.465  35.797  45.770  1.00  0.00     0.000 C 
BRANCH   8   9
ATOM      9  C   UNL     1      44.377  36.747  46.979  1.00  0.00     0.000 C 
BRANCH   9  10
ATOM     10  C   UNL     1      45.580  36.699  47.942  1.00  0.00     0.006 C 
BRANCH  10  11
ATOM     11  C   UNL     1      45.475  37.649  49.145  1.00  0.00     0.053 C 
BRANCH  11  12
ATOM     12  C   UNL     1      45.075  39.033  48.736  1.00  0.00     0.041 C 
ATOM     13  O   UNL     1      45.886  39.766  48.110  1.00  0.00    -0.550 OA
ATOM     14  O   UNL     1      43.819  39.523  49.071  1.00  0.00    -0.550 OA
ENDBRANCH  11  12
ENDBRANCH  10  11
ENDBRANCH   9  10
ENDBRANCH   8   9
ENDBRANCH   7   8
ENDBRANCH   6   7
ENDBRANCH   5   6
ENDBRANCH   4   5
ENDBRANCH   3   4
ENDBRANCH   2   3
ENDBRANCH   1   2
BRANCH   1  15
ATOM     15  C   UNL     1      43.916  34.370  50.125  1.00  0.00     0.000 C 
BRANCH  15  16
ATOM     16  C   UNL     1      43.812  33.045  49.358  1.00  0.00     0.000 C 
BRANCH  16  17
ATOM     17  C   UNL     1      44.804  33.009  48.186  1.00  0.00     0.000 C 
BRANCH  17  18
ATOM     18  C   UNL     1      46.273  33.115  48.638  1.00  0.00    -0.000 C 
BRANCH  18  19
ATOM     19  C   UNL     1      47.311  32.810  47.545  1.00  0.00    -0.000 C 
BRANCH  19  20
ATOM     20  C   UNL     1      46.710  32.821  46.128  1.00  0.00    -0.000 C 
BRANCH  20  21
ATOM     21  C   UNL     1      46.908  31.487  45.389  1.00  0.00    -0.000 C 
BRANCH  21  22
ATOM     22  C   UNL     1      46.770  30.271  46.321  1.00  0.00    -0.000 C 
BRANCH  22  23
ATOM     23  C   UNL     1      45.314  29.793  46.456  1.00  0.00    -0.000 C 
BRANCH  23  24
ATOM     24  C   UNL     1      44.997  29.245  47.855  1.00  0.00    -0.000 C 
BRANCH  24  25
ATOM     25  C   UNL     1      46.213  29.375  48.781  1.00  0.00    -0.003 C 
ATOM     26  C   UNL     1      45.794  29.785  50.190  1.00  0.00     0.004 C 
ENDBRANCH  24  25
ENDBRANCH  23  24
ENDBRANCH  22  23
ENDBRANCH  21  22
ENDBRANCH  20  21
ENDBRANCH  19  20
ENDBRANCH  18  19
ENDBRANCH  17  18
ENDBRANCH  16  17
ENDBRANCH  15  16
ENDBRANCH   1  15
TORSDOF 22
ENDMDL
MODEL 9
REMARK VINA RESULT:    -3.421      5.079      7.917
REMARK INTER + INTRA:         -10.927
REMARK INTER:                  -7.082
REMARK INTRA:                  -3.845
REMARK UNBOUND:                -3.106
REMARK SMILES CCCCCCCCCCCCCCCCCCCCCCCC(=O)[O-]
REMARK SMILES IDX 13 1 14 2 15 3 16 4 17 5 18 6 19 7 20 8 21 9 22 10 23 11
REMARK SMILES IDX 24 12 25 13 26 14 12 15 11 16 10 17 9 18 8 19 7 20 6 21 5 22
REMARK SMILES IDX 4 23 3 24 2 25 1 26
REMARK H PARENT
REMARK Flexibility Score: inf
ROOT
ATOM      1  C   UNL     1      43.345  34.716  50.089  1.00  0.00     0.000 C 
ENDROOT
BRANCH   1   2
ATOM      2  C   UNL     1      42.351  34.260  49.005  1.00  0.00     0.000 C 
BRANCH   2   3
ATOM      3  C   UNL     1      41.221  35.262  48.692  1.00  0.00     0.000 C 
BRANCH   3   4
ATOM      4  C   UNL     1      40.853  35.389  47.202  1.00  0.00     0.000 C 
BRANCH   4   5
ATOM      5  C   UNL     1      41.228  34.144  46.385  1.00  0.00     0.000 C 
BRANCH   5   6
ATOM      6  C   UNL     1      42.337  34.463  45.371  1.00  0.00     0.000 C 
BRANCH   6   7
ATOM      7  C   UNL     1      43.544  33.520  45.498  1.00  0.00     0.000 C 
BRANCH   7   8
ATOM      8  C   UNL     1      44.792  34.231  46.046  1.00  0.00     0.000 C 
BRANCH   8   9
ATOM      9  C   UNL     1      45.471  33.454  47.190  1.00  0.00     0.000 C 
BRANCH   9  10
ATOM     10  C   UNL     1      44.856  32.075  47.503  1.00  0.00     0.006 C 
BRANCH  10  11
ATOM     11  C   UNL     1      45.022  31.616  48.960  1.00  0.00     0.053 C 
BRANCH  11  12
ATOM     12  C   UNL     1      46.217  30.732  49.138  1.00  0.00     0.041 C 
ATOM     13  O   UNL     1      46.813  30.262  48.132  1.00  0.00    -0.550 OA
ATOM     14  O   UNL     1      46.656  30.402  50.414  1.00  0.00    -0.550 OA
ENDBRANCH  11  12
ENDBRANCH  10  11
ENDBRANCH   9  10
ENDBRANCH   8   9
ENDBRANCH   7   8
ENDBRANCH   6   7
ENDBRANCH   5   6
ENDBRANCH   4   5
ENDBRANCH   3   4
ENDBRANCH   2   3
ENDBRANCH   1   2
BRANCH   1  15
ATOM     15  C   UNL     1      43.715  36.201  49.968  1.00  0.00     0.000 C 
BRANCH  15  16
ATOM     16  C   UNL     1      45.090  36.371  49.309  1.00  0.00     0.000 C 
BRANCH  16  17
ATOM     17  C   UNL     1      44.992  37.245  48.049  1.00  0.00     0.000 C 
BRANCH  17  18
ATOM     18  C   UNL     1      43.598  37.871  47.858  1.00  0.00    -0.000 C 
BRANCH  18  19
ATOM     19  C   UNL     1      43.565  39.408  47.909  1.00  0.00    -0.000 C 
BRANCH  19  20
ATOM     20  C   UNL     1      44.894  40.021  48.384  1.00  0.00    -0.000 C 
BRANCH  20  21
ATOM     21  C   UNL     1      44.704  41.054  49.507  1.00  0.00    -0.000 C 
BRANCH  21  22
ATOM     22  C   UNL     1      43.361  40.888  50.239  1.00  0.00    -0.000 C 
BRANCH  22  23
ATOM     23  C   UNL     1      43.528  40.795  51.765  1.00  0.00    -0.000 C 
BRANCH  23  24
ATOM     24  C   UNL     1      44.994  40.620  52.191  1.00  0.00    -0.000 C 
BRANCH  24  25
ATOM     25  C   UNL     1      45.230  39.219  52.771  1.00  0.00    -0.003 C 
ATOM     26  C   UNL     1      43.931  38.421  52.831  1.00  0.00     0.004 C 
ENDBRANCH  24  25
ENDBRANCH  23  24
ENDBRANCH  22  23
ENDBRANCH  21  22
ENDBRANCH  20  21
ENDBRANCH  19  20
ENDBRANCH  18  19
ENDBRANCH  17  18
ENDBRANCH  16  17
ENDBRANCH  15  16
ENDBRANCH   1  15
TORSDOF 22
ENDMDL
