MODEL 1
REMARK VINA RESULT:    -4.620      0.000      0.000
REMARK INTER + INTRA:          -6.536
REMARK INTER:                  -6.240
REMARK INTRA:                  -0.296
REMARK UNBOUND:                -0.296
REMARK SMILES O=C[C@@H](O)[C@H](O)[C@@H](O)CO
REMARK SMILES IDX 7 1 9 2 10 3 5 5 3 6 2 7 1 8 4 9 6 11 8 13
REMARK H PARENT 10 4 4 10 6 12 8 14
REMARK Flexibility Score: inf
ROOT
ATOM      1  C   UNL     1       2.803   4.319  38.304  1.00  0.00     0.171 C 
ENDROOT
BRANCH   1   2
ATOM      2  C   UNL     1       3.266   3.355  37.200  1.00  0.00     0.190 C 
BRANCH   2   3
ATOM      3  O   UNL     1       2.203   2.526  36.821  1.00  0.00    -0.394 OA
ATOM      4  H   UNL     1       1.634   3.066  36.214  1.00  0.00     0.210 HD
ENDBRANCH   2   3
ENDBRANCH   1   2
BRANCH   1   5
ATOM      5  C   UNL     1       2.467   5.720  37.736  1.00  0.00     0.181 C 
BRANCH   5   6
ATOM      6  C   UNL     1       3.716   6.406  37.135  1.00  0.00     0.209 C 
BRANCH   6   7
ATOM      7  C   UNL     1       3.371   7.768  36.595  1.00  0.00     0.258 C 
ATOM      8  O   UNL     1       3.444   8.754  37.310  1.00  0.00    -0.300 OA
ENDBRANCH   6   7
BRANCH   6   9
ATOM      9  O   UNL     1       4.713   6.530  38.118  1.00  0.00    -0.383 OA
ATOM     10  H   UNL     1       5.513   6.051  37.778  1.00  0.00     0.211 HD
ENDBRANCH   6   9
ENDBRANCH   5   6
BRANCH   5  11
ATOM     11  O   UNL     1       1.906   6.526  38.745  1.00  0.00    -0.387 OA
ATOM     12  H   UNL     1       2.215   7.455  38.581  1.00  0.00     0.211 HD
ENDBRANCH   5  11
ENDBRANCH   1   5
BRANCH   1  13
ATOM     13  O   UNL     1       1.716   3.775  39.014  1.00  0.00    -0.388 OA
ATOM     14  H   UNL     1       0.964   3.660  38.377  1.00  0.00     0.211 HD
ENDBRANCH   1  13
TORSDOF 8
ENDMDL
MODEL 2
REMARK VINA RESULT:    -4.430      1.331      2.003
REMARK INTER + INTRA:          -6.280
REMARK INTER:                  -5.377
REMARK INTRA:                  -0.903
REMARK UNBOUND:                -0.296
REMARK SMILES O=C[C@@H](O)[C@H](O)[C@@H](O)CO
REMARK SMILES IDX 7 1 9 2 10 3 5 5 3 6 2 7 1 8 4 9 6 11 8 13
REMARK H PARENT 10 4 4 10 6 12 8 14
REMARK Flexibility Score: inf
ROOT
ATOM      1  C   UNL     1       2.548   5.742  38.649  1.00  0.00     0.171 C 
ENDROOT
BRANCH   1   2
ATOM      2  C   UNL     1       2.917   4.329  38.168  1.00  0.00     0.190 C 
BRANCH   2   3
ATOM      3  O   UNL     1       2.796   4.258  36.775  1.00  0.00    -0.394 OA
ATOM      4  H   UNL     1       2.535   3.323  36.568  1.00  0.00     0.210 HD
ENDBRANCH   2   3
ENDBRANCH   1   2
BRANCH   1   5
ATOM      5  C   UNL     1       3.616   6.784  38.234  1.00  0.00     0.181 C 
BRANCH   5   6
ATOM      6  C   UNL     1       3.085   7.738  37.138  1.00  0.00     0.209 C 
BRANCH   6   7
ATOM      7  C   UNL     1       3.843   9.039  37.149  1.00  0.00     0.258 C 
ATOM      8  O   UNL     1       4.674   9.263  38.014  1.00  0.00    -0.300 OA
ENDBRANCH   6   7
BRANCH   6   9
ATOM      9  O   UNL     1       3.208   7.134  35.876  1.00  0.00    -0.383 OA
ATOM     10  H   UNL     1       2.812   6.226  35.952  1.00  0.00     0.211 HD
ENDBRANCH   6   9
ENDBRANCH   5   6
BRANCH   5  11
ATOM     11  O   UNL     1       4.779   6.128  37.787  1.00  0.00    -0.387 OA
ATOM     12  H   UNL     1       4.590   5.792  36.872  1.00  0.00     0.211 HD
ENDBRANCH   5  11
ENDBRANCH   1   5
BRANCH   1  13
ATOM     13  O   UNL     1       1.267   6.103  38.191  1.00  0.00    -0.388 OA
ATOM     14  H   UNL     1       1.203   5.846  37.234  1.00  0.00     0.211 HD
ENDBRANCH   1  13
TORSDOF 8
ENDMDL
MODEL 3
REMARK VINA RESULT:    -4.241      1.161      4.215
REMARK INTER + INTRA:          -6.024
REMARK INTER:                  -5.924
REMARK INTRA:                  -0.101
REMARK UNBOUND:                -0.296
REMARK SMILES O=C[C@@H](O)[C@H](O)[C@@H](O)CO
REMARK SMILES IDX 7 1 9 2 10 3 5 5 3 6 2 7 1 8 4 9 6 11 8 13
REMARK H PARENT 10 4 4 10 6 12 8 14
REMARK Flexibility Score: inf
ROOT
ATOM      1  C   UNL     1       3.610   6.148  37.338  1.00  0.00     0.171 C 
ENDROOT
BRANCH   1   2
ATOM      2  C   UNL     1       3.312   7.152  36.212  1.00  0.00     0.190 C 
BRANCH   2   3
ATOM      3  O   UNL     1       3.775   8.422  36.577  1.00  0.00    -0.394 OA
ATOM      4  H   UNL     1       2.975   9.009  36.604  1.00  0.00     0.210 HD
ENDBRANCH   2   3
ENDBRANCH   1   2
BRANCH   1   5
ATOM      5  C   UNL     1       3.627   4.690  36.815  1.00  0.00     0.181 C 
BRANCH   5   6
ATOM      6  C   UNL     1       2.990   3.713  37.830  1.00  0.00     0.209 C 
BRANCH   6   7
ATOM      7  C   UNL     1       2.184   4.460  38.859  1.00  0.00     0.258 C 
ATOM      8  O   UNL     1       1.849   3.914  39.898  1.00  0.00    -0.300 OA
ENDBRANCH   6   7
BRANCH   6   9
ATOM      9  O   UNL     1       2.161   2.799  37.158  1.00  0.00    -0.383 OA
ATOM     10  H   UNL     1       1.946   2.076  37.805  1.00  0.00     0.211 HD
ENDBRANCH   6   9
ENDBRANCH   5   6
BRANCH   5  11
ATOM     11  O   UNL     1       4.948   4.300  36.526  1.00  0.00    -0.387 OA
ATOM     12  H   UNL     1       5.416   5.099  36.167  1.00  0.00     0.211 HD
ENDBRANCH   5  11
ENDBRANCH   1   5
BRANCH   1  13
ATOM     13  O   UNL     1       4.812   6.478  37.991  1.00  0.00    -0.388 OA
ATOM     14  H   UNL     1       5.370   5.658  38.034  1.00  0.00     0.211 HD
ENDBRANCH   1  13
TORSDOF 8
ENDMDL
MODEL 4
REMARK VINA RESULT:    -4.204      1.435      2.072
REMARK INTER + INTRA:          -5.975
REMARK INTER:                  -5.614
REMARK INTRA:                  -0.361
REMARK UNBOUND:                -0.296
REMARK SMILES O=C[C@@H](O)[C@H](O)[C@@H](O)CO
REMARK SMILES IDX 7 1 9 2 10 3 5 5 3 6 2 7 1 8 4 9 6 11 8 13
REMARK H PARENT 10 4 4 10 6 12 8 14
REMARK Flexibility Score: inf
ROOT
ATOM      1  C   UNL     1       3.548   4.533  36.813  1.00  0.00     0.171 C 
ENDROOT
BRANCH   1   2
ATOM      2  C   UNL     1       3.034   3.350  37.650  1.00  0.00     0.190 C 
BRANCH   2   3
ATOM      3  O   UNL     1       2.134   2.590  36.891  1.00  0.00    -0.394 OA
ATOM      4  H   UNL     1       2.678   2.129  36.201  1.00  0.00     0.210 HD
ENDBRANCH   2   3
ENDBRANCH   1   2
BRANCH   1   5
ATOM      5  C   UNL     1       3.530   5.854  37.621  1.00  0.00     0.181 C 
BRANCH   5   6
ATOM      6  C   UNL     1       2.912   7.013  36.804  1.00  0.00     0.209 C 
BRANCH   6   7
ATOM      7  C   UNL     1       3.350   8.346  37.349  1.00  0.00     0.258 C 
ATOM      8  O   UNL     1       4.101   9.061  36.705  1.00  0.00    -0.300 OA
ENDBRANCH   6   7
BRANCH   6   9
ATOM      9  O   UNL     1       3.297   6.908  35.457  1.00  0.00    -0.383 OA
ATOM     10  H   UNL     1       4.267   6.695  35.451  1.00  0.00     0.211 HD
ENDBRANCH   6   9
ENDBRANCH   5   6
BRANCH   5  11
ATOM     11  O   UNL     1       4.836   6.186  38.026  1.00  0.00    -0.387 OA
ATOM     12  H   UNL     1       5.219   5.380  38.461  1.00  0.00     0.211 HD
ENDBRANCH   5  11
ENDBRANCH   1   5
BRANCH   1  13
ATOM     13  O   UNL     1       4.829   4.257  36.300  1.00  0.00    -0.388 OA
ATOM     14  H   UNL     1       5.174   3.449  36.761  1.00  0.00     0.211 HD
ENDBRANCH   1  13
TORSDOF 8
ENDMDL
MODEL 5
REMARK VINA RESULT:    -4.182      1.403      4.140
REMARK INTER + INTRA:          -5.945
REMARK INTER:                  -5.850
REMARK INTRA:                  -0.094
REMARK UNBOUND:                -0.296
REMARK SMILES O=C[C@@H](O)[C@H](O)[C@@H](O)CO
REMARK SMILES IDX 7 1 9 2 10 3 5 5 3 6 2 7 1 8 4 9 6 11 8 13
REMARK H PARENT 10 4 4 10 6 12 8 14
REMARK Flexibility Score: inf
ROOT
ATOM      1  C   UNL     1       3.386   7.654  37.488  1.00  0.00     0.171 C 
ENDROOT
BRANCH   1   2
ATOM      2  C   UNL     1       3.298   7.570  35.955  1.00  0.00     0.190 C 
BRANCH   2   3
ATOM      3  O   UNL     1       3.724   8.780  35.391  1.00  0.00    -0.394 OA
ATOM      4  H   UNL     1       4.699   8.683  35.235  1.00  0.00     0.210 HD
ENDBRANCH   2   3
ENDBRANCH   1   2
BRANCH   1   5
ATOM      5  C   UNL     1       3.688   6.272  38.118  1.00  0.00     0.181 C 
BRANCH   5   6
ATOM      6  C   UNL     1       3.155   5.116  37.240  1.00  0.00     0.209 C 
BRANCH   6   7
ATOM      7  C   UNL     1       4.261   4.156  36.891  1.00  0.00     0.258 C 
ATOM      8  O   UNL     1       4.181   2.980  37.209  1.00  0.00    -0.300 OA
ENDBRANCH   6   7
BRANCH   6   9
ATOM      9  O   UNL     1       2.135   4.430  37.919  1.00  0.00    -0.383 OA
ATOM     10  H   UNL     1       2.441   4.313  38.856  1.00  0.00     0.211 HD
ENDBRANCH   6   9
ENDBRANCH   5   6
BRANCH   5  11
ATOM     11  O   UNL     1       3.129   6.201  39.408  1.00  0.00    -0.387 OA
ATOM     12  H   UNL     1       2.300   6.747  39.397  1.00  0.00     0.211 HD
ENDBRANCH   5  11
ENDBRANCH   1   5
BRANCH   1  13
ATOM     13  O   UNL     1       4.334   8.619  37.878  1.00  0.00    -0.388 OA
ATOM     14  H   UNL     1       4.000   9.507  37.587  1.00  0.00     0.211 HD
ENDBRANCH   1  13
TORSDOF 8
ENDMDL
MODEL 6
REMARK VINA RESULT:    -4.181      1.187      3.615
REMARK INTER + INTRA:          -5.944
REMARK INTER:                  -5.540
REMARK INTRA:                  -0.404
REMARK UNBOUND:                -0.296
REMARK SMILES O=C[C@@H](O)[C@H](O)[C@@H](O)CO
REMARK SMILES IDX 7 1 9 2 10 3 5 5 3 6 2 7 1 8 4 9 6 11 8 13
REMARK H PARENT 10 4 4 10 6 12 8 14
REMARK Flexibility Score: inf
ROOT
ATOM      1  C   UNL     1       2.068   5.889  38.196  1.00  0.00     0.171 C 
ENDROOT
BRANCH   1   2
ATOM      2  C   UNL     1       3.178   6.913  38.485  1.00  0.00     0.190 C 
BRANCH   2   3
ATOM      3  O   UNL     1       4.048   6.988  37.390  1.00  0.00    -0.394 OA
ATOM      4  H   UNL     1       4.928   6.668  37.715  1.00  0.00     0.210 HD
ENDBRANCH   2   3
ENDBRANCH   1   2
BRANCH   1   5
ATOM      5  C   UNL     1       2.565   4.436  38.392  1.00  0.00     0.181 C 
BRANCH   5   6
ATOM      6  C   UNL     1       2.812   3.731  37.038  1.00  0.00     0.209 C 
BRANCH   6   7
ATOM      7  C   UNL     1       4.283   3.500  36.816  1.00  0.00     0.258 C 
ATOM      8  O   UNL     1       5.007   4.419  36.465  1.00  0.00    -0.300 OA
ENDBRANCH   6   7
BRANCH   6   9
ATOM      9  O   UNL     1       2.135   2.500  37.009  1.00  0.00    -0.383 OA
ATOM     10  H   UNL     1       2.403   2.004  37.826  1.00  0.00     0.211 HD
ENDBRANCH   6   9
ENDBRANCH   5   6
BRANCH   5  11
ATOM     11  O   UNL     1       1.634   3.709  39.158  1.00  0.00    -0.387 OA
ATOM     12  H   UNL     1       0.942   4.353  39.462  1.00  0.00     0.211 HD
ENDBRANCH   5  11
ENDBRANCH   1   5
BRANCH   1  13
ATOM     13  O   UNL     1       0.930   6.158  38.980  1.00  0.00    -0.388 OA
ATOM     14  H   UNL     1       0.412   5.315  39.062  1.00  0.00     0.211 HD
ENDBRANCH   1  13
TORSDOF 8
ENDMDL
MODEL 7
REMARK VINA RESULT:    -4.181      1.537      4.090
REMARK INTER + INTRA:          -5.943
REMARK INTER:                  -5.129
REMARK INTRA:                  -0.814
REMARK UNBOUND:                -0.296
REMARK SMILES O=C[C@@H](O)[C@H](O)[C@@H](O)CO
REMARK SMILES IDX 7 1 9 2 10 3 5 5 3 6 2 7 1 8 4 9 6 11 8 13
REMARK H PARENT 10 4 4 10 6 12 8 14
REMARK Flexibility Score: inf
ROOT
ATOM      1  C   UNL     1       3.860   7.602  37.948  1.00  0.00     0.171 C 
ENDROOT
BRANCH   1   2
ATOM      2  C   UNL     1       3.996   8.993  37.308  1.00  0.00     0.190 C 
BRANCH   2   3
ATOM      3  O   UNL     1       3.853   8.890  35.918  1.00  0.00    -0.394 OA
ATOM      4  H   UNL     1       3.358   9.701  35.632  1.00  0.00     0.210 HD
ENDBRANCH   2   3
ENDBRANCH   1   2
BRANCH   1   5
ATOM      5  C   UNL     1       2.835   6.723  37.190  1.00  0.00     0.181 C 
BRANCH   5   6
ATOM      6  C   UNL     1       2.394   5.505  38.036  1.00  0.00     0.209 C 
BRANCH   6   7
ATOM      7  C   UNL     1       2.996   4.234  37.499  1.00  0.00     0.258 C 
ATOM      8  O   UNL     1       4.206   4.130  37.370  1.00  0.00    -0.300 OA
ENDBRANCH   6   7
BRANCH   6   9
ATOM      9  O   UNL     1       2.788   5.683  39.372  1.00  0.00    -0.383 OA
ATOM     10  H   UNL     1       2.002   5.457  39.937  1.00  0.00     0.211 HD
ENDBRANCH   6   9
ENDBRANCH   5   6
BRANCH   5  11
ATOM     11  O   UNL     1       3.381   6.294  35.966  1.00  0.00    -0.387 OA
ATOM     12  H   UNL     1       3.231   7.023  35.309  1.00  0.00     0.211 HD
ENDBRANCH   5  11
ENDBRANCH   1   5
BRANCH   1  13
ATOM     13  O   UNL     1       5.116   6.972  38.036  1.00  0.00    -0.388 OA
ATOM     14  H   UNL     1       5.788   7.665  38.267  1.00  0.00     0.211 HD
ENDBRANCH   1  13
TORSDOF 8
ENDMDL
MODEL 8
REMARK VINA RESULT:    -4.130      1.335      2.023
REMARK INTER + INTRA:          -5.875
REMARK INTER:                  -5.370
REMARK INTRA:                  -0.505
REMARK UNBOUND:                -0.296
REMARK SMILES O=C[C@@H](O)[C@H](O)[C@@H](O)CO
REMARK SMILES IDX 7 1 9 2 10 3 5 5 3 6 2 7 1 8 4 9 6 11 8 13
REMARK H PARENT 10 4 4 10 6 12 8 14
REMARK Flexibility Score: inf
ROOT
ATOM      1  C   UNL     1       2.438   5.523  39.031  1.00  0.00     0.171 C 
ENDROOT
BRANCH   1   2
ATOM      2  C   UNL     1       2.105   4.226  39.786  1.00  0.00     0.190 C 
BRANCH   2   3
ATOM      3  O   UNL     1       1.069   3.550  39.130  1.00  0.00    -0.394 OA
ATOM      4  H   UNL     1       0.225   3.947  39.466  1.00  0.00     0.210 HD
ENDBRANCH   2   3
ENDBRANCH   1   2
BRANCH   1   5
ATOM      5  C   UNL     1       3.419   5.267  37.860  1.00  0.00     0.181 C 
BRANCH   5   6
ATOM      6  C   UNL     1       3.986   6.589  37.292  1.00  0.00     0.209 C 
BRANCH   6   7
ATOM      7  C   UNL     1       3.324   6.938  35.986  1.00  0.00     0.258 C 
ATOM      8  O   UNL     1       3.393   8.073  35.542  1.00  0.00    -0.300 OA
ENDBRANCH   6   7
BRANCH   6   9
ATOM      9  O   UNL     1       3.784   7.631  38.213  1.00  0.00    -0.383 OA
ATOM     10  H   UNL     1       3.293   8.348  37.733  1.00  0.00     0.211 HD
ENDBRANCH   6   9
ENDBRANCH   5   6
BRANCH   5  11
ATOM     11  O   UNL     1       2.773   4.537  36.844  1.00  0.00    -0.387 OA
ATOM     12  H   UNL     1       1.998   4.080  37.262  1.00  0.00     0.211 HD
ENDBRANCH   5  11
ENDBRANCH   1   5
BRANCH   1  13
ATOM     13  O   UNL     1       1.260   6.156  38.590  1.00  0.00    -0.388 OA
ATOM     14  H   UNL     1       0.535   5.925  39.227  1.00  0.00     0.211 HD
ENDBRANCH   1  13
TORSDOF 8
ENDMDL
MODEL 9
REMARK VINA RESULT:    -4.100      1.222      4.237
REMARK INTER + INTRA:          -5.835
REMARK INTER:                  -5.344
REMARK INTRA:                  -0.490
REMARK UNBOUND:                -0.296
REMARK SMILES O=C[C@@H](O)[C@H](O)[C@@H](O)CO
REMARK SMILES IDX 7 1 9 2 10 3 5 5 3 6 2 7 1 8 4 9 6 11 8 13
REMARK H PARENT 10 4 4 10 6 12 8 14
REMARK Flexibility Score: inf
ROOT
ATOM      1  C   UNL     1       2.913   7.420  37.121  1.00  0.00     0.171 C 
ENDROOT
BRANCH   1   2
ATOM      2  C   UNL     1       3.621   8.764  36.881  1.00  0.00     0.190 C 
BRANCH   2   3
ATOM      3  O   UNL     1       4.500   9.030  37.939  1.00  0.00    -0.394 OA
ATOM      4  H   UNL     1       5.198   8.327  37.899  1.00  0.00     0.210 HD
ENDBRANCH   2   3
ENDBRANCH   1   2
BRANCH   1   5
ATOM      5  C   UNL     1       3.907   6.234  37.065  1.00  0.00     0.181 C 
BRANCH   5   6
ATOM      6  C   UNL     1       3.171   4.882  36.907  1.00  0.00     0.209 C 
BRANCH   6   7
ATOM      7  C   UNL     1       4.154   3.745  36.824  1.00  0.00     0.258 C 
ATOM      8  O   UNL     1       4.025   2.763  37.537  1.00  0.00    -0.300 OA
ENDBRANCH   6   7
BRANCH   6   9
ATOM      9  O   UNL     1       2.308   4.677  37.996  1.00  0.00    -0.383 OA
ATOM     10  H   UNL     1       1.407   4.981  37.711  1.00  0.00     0.211 HD
ENDBRANCH   6   9
ENDBRANCH   5   6
BRANCH   5  11
ATOM     11  O   UNL     1       4.706   6.222  38.223  1.00  0.00    -0.387 OA
ATOM     12  H   UNL     1       4.397   5.462  38.782  1.00  0.00     0.211 HD
ENDBRANCH   5  11
ENDBRANCH   1   5
BRANCH   1  13
ATOM     13  O   UNL     1       2.204   7.444  38.337  1.00  0.00    -0.388 OA
ATOM     14  H   UNL     1       2.739   7.964  38.991  1.00  0.00     0.211 HD
ENDBRANCH   1  13
TORSDOF 8
ENDMDL
