MODEL 1
REMARK VINA RESULT:    -2.285      0.000      0.000
REMARK INTER + INTRA:          -2.285
REMARK INTER:                  -2.285
REMARK INTRA:                   0.000
REMARK UNBOUND:                 0.000
REMARK SMILES CC(=O)[O-]
REMARK SMILES IDX 1 1 2 2 3 3 4 4
REMARK H PARENT
REMARK Flexibility Score: inf
ROOT
ATOM      1  C   UNL     1      14.975  32.293  -8.312  1.00  0.00     0.063 C 
ATOM      2  C   UNL     1      16.142  32.616  -9.181  1.00  0.00     0.038 C 
ATOM      3  O   UNL     1      16.739  31.698  -9.804  1.00  0.00    -0.550 OA
ATOM      4  O   UNL     1      16.540  33.936  -9.350  1.00  0.00    -0.550 OA
ENDROOT
TORSDOF 0
ENDMDL
MODEL 2
REMARK VINA RESULT:    -2.235      1.395      1.772
REMARK INTER + INTRA:          -2.235
REMARK INTER:                  -2.235
REMARK INTRA:                   0.000
REMARK UNBOUND:                 0.000
REMARK SMILES CC(=O)[O-]
REMARK SMILES IDX 1 1 2 2 3 3 4 4
REMARK H PARENT
REMARK Flexibility Score: inf
ROOT
ATOM      1  C   UNL     1      16.447  34.121  -9.680  1.00  0.00     0.063 C 
ATOM      2  C   UNL     1      16.069  32.764  -9.191  1.00  0.00     0.038 C 
ATOM      3  O   UNL     1      16.669  31.745  -9.627  1.00  0.00    -0.550 OA
ATOM      4  O   UNL     1      15.092  32.623  -8.213  1.00  0.00    -0.550 OA
ENDROOT
TORSDOF 0
ENDMDL
MODEL 3
REMARK VINA RESULT:    -2.107     21.309     21.694
REMARK INTER + INTRA:          -2.107
REMARK INTER:                  -2.107
REMARK INTRA:                   0.000
REMARK UNBOUND:                 0.000
REMARK SMILES CC(=O)[O-]
REMARK SMILES IDX 1 1 2 2 3 3 4 4
REMARK H PARENT
REMARK Flexibility Score: inf
ROOT
ATOM      1  C   UNL     1      26.157  16.950   1.376  1.00  0.00     0.063 C 
ATOM      2  C   UNL     1      27.429  16.966   0.597  1.00  0.00     0.038 C 
ATOM      3  O   UNL     1      27.401  17.104  -0.655  1.00  0.00    -0.550 OA
ATOM      4  O   UNL     1      28.649  16.884   1.254  1.00  0.00    -0.550 OA
ENDROOT
TORSDOF 0
ENDMDL
MODEL 4
REMARK VINA RESULT:    -1.988     13.688     14.177
REMARK INTER + INTRA:          -1.988
REMARK INTER:                  -1.988
REMARK INTRA:                   0.000
REMARK UNBOUND:                 0.000
REMARK SMILES CC(=O)[O-]
REMARK SMILES IDX 1 1 2 2 3 3 4 4
REMARK H PARENT
REMARK Flexibility Score: inf
ROOT
ATOM      1  C   UNL     1      17.083  18.737 -10.248  1.00  0.00     0.063 C 
ATOM      2  C   UNL     1      15.734  18.553  -9.639  1.00  0.00     0.038 C 
ATOM      3  O   UNL     1      15.497  17.548  -8.918  1.00  0.00    -0.550 OA
ATOM      4  O   UNL     1      14.751  19.517  -9.822  1.00  0.00    -0.550 OA
ENDROOT
TORSDOF 0
ENDMDL
MODEL 5
REMARK VINA RESULT:    -1.981     18.411     18.899
REMARK INTER + INTRA:          -1.981
REMARK INTER:                  -1.981
REMARK INTRA:                   0.000
REMARK UNBOUND:                 0.000
REMARK SMILES CC(=O)[O-]
REMARK SMILES IDX 1 1 2 2 3 3 4 4
REMARK H PARENT
REMARK Flexibility Score: inf
ROOT
ATOM      1  C   UNL     1      28.301  19.147  -4.021  1.00  0.00     0.063 C 
ATOM      2  C   UNL     1      27.985  19.673  -2.662  1.00  0.00     0.038 C 
ATOM      3  O   UNL     1      27.711  20.893  -2.504  1.00  0.00    -0.550 OA
ATOM      4  O   UNL     1      27.939  18.810  -1.574  1.00  0.00    -0.550 OA
ENDROOT
TORSDOF 0
ENDMDL
MODEL 6
REMARK VINA RESULT:    -1.943     18.164     18.626
REMARK INTER + INTRA:          -1.943
REMARK INTER:                  -1.943
REMARK INTRA:                   0.000
REMARK UNBOUND:                 0.000
REMARK SMILES CC(=O)[O-]
REMARK SMILES IDX 1 1 2 2 3 3 4 4
REMARK H PARENT
REMARK Flexibility Score: inf
ROOT
ATOM      1  C   UNL     1      28.003  21.318  -2.652  1.00  0.00     0.063 C 
ATOM      2  C   UNL     1      27.960  19.833  -2.785  1.00  0.00     0.038 C 
ATOM      3  O   UNL     1      27.911  19.108  -1.756  1.00  0.00    -0.550 OA
ATOM      4  O   UNL     1      27.917  19.248  -4.044  1.00  0.00    -0.550 OA
ENDROOT
TORSDOF 0
ENDMDL
MODEL 7
REMARK VINA RESULT:    -1.928      5.636      6.080
REMARK INTER + INTRA:          -1.928
REMARK INTER:                  -1.928
REMARK INTRA:                   0.000
REMARK UNBOUND:                 0.000
REMARK SMILES CC(=O)[O-]
REMARK SMILES IDX 1 1 2 2 3 3 4 4
REMARK H PARENT
REMARK Flexibility Score: inf
ROOT
ATOM      1  C   UNL     1      10.346  28.471  -7.837  1.00  0.00     0.063 C 
ATOM      2  C   UNL     1      11.691  28.825  -8.377  1.00  0.00     0.038 C 
ATOM      3  O   UNL     1      12.613  29.176  -7.595  1.00  0.00    -0.550 OA
ATOM      4  O   UNL     1      11.945  28.715  -9.738  1.00  0.00    -0.550 OA
ENDROOT
TORSDOF 0
ENDMDL
MODEL 8
REMARK VINA RESULT:    -1.918     13.875     14.062
REMARK INTER + INTRA:          -1.918
REMARK INTER:                  -1.918
REMARK INTRA:                   0.000
REMARK UNBOUND:                 0.000
REMARK SMILES CC(=O)[O-]
REMARK SMILES IDX 1 1 2 2 3 3 4 4
REMARK H PARENT
REMARK Flexibility Score: inf
ROOT
ATOM      1  C   UNL     1      15.933  17.928  -9.092  1.00  0.00     0.063 C 
ATOM      2  C   UNL     1      16.410  18.690 -10.281  1.00  0.00     0.038 C 
ATOM      3  O   UNL     1      15.582  19.138 -11.119  1.00  0.00    -0.550 OA
ATOM      4  O   UNL     1      17.764  18.956 -10.440  1.00  0.00    -0.550 OA
ENDROOT
TORSDOF 0
ENDMDL
MODEL 9
REMARK VINA RESULT:    -1.889     18.449     18.853
REMARK INTER + INTRA:          -1.889
REMARK INTER:                  -1.889
REMARK INTRA:                   0.000
REMARK UNBOUND:                 0.000
REMARK SMILES CC(=O)[O-]
REMARK SMILES IDX 1 1 2 2 3 3 4 4
REMARK H PARENT
REMARK Flexibility Score: inf
ROOT
ATOM      1  C   UNL     1      28.333  18.562  -1.739  1.00  0.00     0.063 C 
ATOM      2  C   UNL     1      28.010  19.543  -2.814  1.00  0.00     0.038 C 
ATOM      3  O   UNL     1      27.995  19.178  -4.019  1.00  0.00    -0.550 OA
ATOM      4  O   UNL     1      27.671  20.850  -2.485  1.00  0.00    -0.550 OA
ENDROOT
TORSDOF 0
ENDMDL
