MODEL 1
REMARK VINA RESULT:    -3.660      0.000      0.000
REMARK INTER + INTRA:          -4.579
REMARK INTER:                  -4.409
REMARK INTRA:                  -0.170
REMARK UNBOUND:                -0.170
REMARK SMILES O=c1c(O)c(-c2ccc(O)c(O)c2)oc2cc(O)cc(O)c12
REMARK SMILES IDX 5 1 3 2 2 3 1 4 22 5 20 6 19 7 17 8 16 9 15 10 14 11 6 12
REMARK SMILES IDX 7 13 8 14 9 15 13 16 11 17 10 18 12 20 4 22 21 24 18 26
REMARK H PARENT 10 19 12 21 4 23 21 25 18 27
REMARK Flexibility Score: inf
ROOT
ATOM      1  C   UNL     1     -13.088  -8.944   4.930  1.00  0.00     0.180 A 
ATOM      2  C   UNL     1     -14.106  -9.557   4.178  1.00  0.00     0.208 A 
ATOM      3  C   UNL     1     -15.402  -9.623   4.714  1.00  0.00     0.238 A 
ATOM      4  O   UNL     1     -16.320 -10.124   4.014  1.00  0.00    -0.285 OA
ATOM      5  C   UNL     1     -15.661  -9.092   6.001  1.00  0.00     0.111 A 
ATOM      6  C   UNL     1     -16.927  -9.142   6.658  1.00  0.00     0.134 A 
ATOM      7  C   UNL     1     -17.100  -8.469   7.874  1.00  0.00     0.093 A 
ATOM      8  C   UNL     1     -16.035  -7.804   8.487  1.00  0.00     0.123 A 
ATOM      9  C   UNL     1     -14.780  -7.801   7.882  1.00  0.00     0.094 A 
ATOM     10  C   UNL     1     -14.586  -8.433   6.652  1.00  0.00     0.146 A 
ATOM     11  O   UNL     1     -13.377  -8.397   6.104  1.00  0.00    -0.452 OA
ENDROOT
BRANCH   1  12
ATOM     12  C   UNL     1     -11.692  -8.857   4.443  1.00  0.00     0.025 A 
ATOM     13  C   UNL     1     -11.395  -8.043   3.338  1.00  0.00     0.016 A 
ATOM     14  C   UNL     1     -10.082  -7.931   2.875  1.00  0.00     0.051 A 
ATOM     15  C   UNL     1      -9.044  -8.619   3.518  1.00  0.00     0.157 A 
ATOM     16  C   UNL     1     -10.645  -9.530   5.098  1.00  0.00     0.062 A 
ATOM     17  C   UNL     1      -9.328  -9.417   4.639  1.00  0.00     0.158 A 
BRANCH  15  18
ATOM     18  O   UNL     1      -7.735  -8.506   3.053  1.00  0.00    -0.504 OA
ATOM     19  H   UNL     1      -7.112  -9.306   3.022  1.00  0.00     0.293 HD
ENDBRANCH  15  18
BRANCH  17  20
ATOM     20  O   UNL     1      -8.316 -10.103   5.309  1.00  0.00    -0.504 OA
ATOM     21  H   UNL     1      -7.644 -10.684   4.822  1.00  0.00     0.293 HD
ENDBRANCH  17  20
ENDBRANCH   1  12
BRANCH   2  22
ATOM     22  O   UNL     1     -13.834 -10.055   2.901  1.00  0.00    -0.502 OA
ATOM     23  H   UNL     1     -13.069  -9.710   2.334  1.00  0.00     0.293 HD
ENDBRANCH   2  22
BRANCH   6  24
ATOM     24  O   UNL     1     -18.028  -9.855   6.177  1.00  0.00    -0.507 OA
ATOM     25  H   UNL     1     -18.100 -10.861   6.162  1.00  0.00     0.293 HD
ENDBRANCH   6  24
BRANCH   8  26
ATOM     26  O   UNL     1     -16.212  -7.151   9.705  1.00  0.00    -0.508 OA
ATOM     27  H   UNL     1     -16.835  -6.356   9.795  1.00  0.00     0.293 HD
ENDBRANCH   8  26
TORSDOF 6
ENDMDL
MODEL 2
REMARK VINA RESULT:    -0.699      1.558      2.053
REMARK INTER + INTRA:          -1.011
REMARK INTER:                  -1.486
REMARK INTRA:                   0.474
REMARK UNBOUND:                -0.170
REMARK SMILES O=c1c(O)c(-c2ccc(O)c(O)c2)oc2cc(O)cc(O)c12
REMARK SMILES IDX 5 1 3 2 2 3 1 4 22 5 20 6 19 7 17 8 16 9 15 10 14 11 6 12
REMARK SMILES IDX 7 13 8 14 9 15 13 16 11 17 10 18 12 20 4 22 21 24 18 26
REMARK H PARENT 10 19 12 21 4 23 21 25 18 27
REMARK Flexibility Score: inf
ROOT
ATOM      1  C   UNL     1     -13.298  -9.879   5.563  1.00  0.00     0.180 A 
ATOM      2  C   UNL     1     -14.132  -9.764   4.436  1.00  0.00     0.208 A 
ATOM      3  C   UNL     1     -15.524  -9.793   4.615  1.00  0.00     0.238 A 
ATOM      4  O   UNL     1     -16.266  -9.635   3.610  1.00  0.00    -0.285 OA
ATOM      5  C   UNL     1     -16.066  -9.954   5.913  1.00  0.00     0.111 A 
ATOM      6  C   UNL     1     -17.460 -10.037   6.205  1.00  0.00     0.134 A 
ATOM      7  C   UNL     1     -17.886 -10.064   7.539  1.00  0.00     0.093 A 
ATOM      8  C   UNL     1     -16.964 -10.076   8.589  1.00  0.00     0.123 A 
ATOM      9  C   UNL     1     -15.599 -10.055   8.312  1.00  0.00     0.094 A 
ATOM     10  C   UNL     1     -15.145  -9.992   6.993  1.00  0.00     0.146 A 
ATOM     11  O   UNL     1     -13.836  -9.961   6.773  1.00  0.00    -0.452 OA
ENDROOT
BRANCH   1  12
ATOM     12  C   UNL     1     -11.821  -9.881   5.453  1.00  0.00     0.025 A 
ATOM     13  C   UNL     1     -11.043 -10.097   6.602  1.00  0.00     0.016 A 
ATOM     14  C   UNL     1      -9.649 -10.124   6.517  1.00  0.00     0.051 A 
ATOM     15  C   UNL     1      -9.012  -9.951   5.281  1.00  0.00     0.157 A 
ATOM     16  C   UNL     1     -11.179  -9.729   4.210  1.00  0.00     0.062 A 
ATOM     17  C   UNL     1      -9.782  -9.759   4.122  1.00  0.00     0.158 A 
BRANCH  15  18
ATOM     18  O   UNL     1      -7.620  -9.977   5.200  1.00  0.00    -0.504 OA
ATOM     19  H   UNL     1      -7.141 -10.471   4.455  1.00  0.00     0.293 HD
ENDBRANCH  15  18
BRANCH  17  20
ATOM     20  O   UNL     1      -9.179  -9.598   2.875  1.00  0.00    -0.504 OA
ATOM     21  H   UNL     1      -9.669  -9.191   2.088  1.00  0.00     0.293 HD
ENDBRANCH  17  20
ENDBRANCH   1  12
BRANCH   2  22
ATOM     22  O   UNL     1     -13.577  -9.585   3.166  1.00  0.00    -0.502 OA
ATOM     23  H   UNL     1     -12.632  -9.870   2.940  1.00  0.00     0.293 HD
ENDBRANCH   2  22
BRANCH   6  24
ATOM     24  O   UNL     1     -18.457 -10.125   5.230  1.00  0.00    -0.507 OA
ATOM     25  H   UNL     1     -19.149 -10.857   5.179  1.00  0.00     0.293 HD
ENDBRANCH   6  24
BRANCH   8  26
ATOM     26  O   UNL     1     -17.396 -10.119   9.913  1.00  0.00    -0.508 OA
ATOM     27  H   UNL     1     -17.586 -10.999  10.380  1.00  0.00     0.293 HD
ENDBRANCH   8  26
TORSDOF 6
ENDMDL
