MODEL 1
REMARK VINA RESULT:    -7.130      0.000      0.000
REMARK INTER + INTRA:         -10.973
REMARK INTER:                  -9.423
REMARK INTRA:                  -1.550
REMARK UNBOUND:                -1.550
REMARK SMILES CC[C@@H](C=C[C@H](C)[C@H]1CC[C@H]2[C@H]3CC=C4C[C@@H](O)CC[C@@]4(C)[C@H]3CC[C@]12C)C(C)C
REMARK SMILES IDX 6 1 7 2 5 3 4 4 3 5 2 6 1 7 28 8 29 9 30 10 8 11 9 12 26 13
REMARK SMILES IDX 10 14 11 15 25 16 27 17 12 18 24 19 23 20 13 21 21 22 14 23
REMARK SMILES IDX 15 24 20 25 22 26 16 27 19 28 17 29 18 30
REMARK H PARENT 18 31
REMARK Flexibility Score: inf
ROOT
ATOM      1  C   UNL     1      48.320   8.153  22.438  1.00  0.00     0.012 C 
ATOM      2  C   UNL     1      47.996   9.320  23.399  1.00  0.00     0.012 C 
ENDROOT
BRANCH   1   3
ATOM      3  C   UNL     1      48.814   8.725  21.122  1.00  0.00    -0.028 C 
ATOM      4  C   UNL     1      50.011   8.381  20.622  1.00  0.00    -0.027 C 
BRANCH   4   5
ATOM      5  C   UNL     1      50.554   9.016  19.359  1.00  0.00     0.014 C 
BRANCH   5   6
ATOM      6  C   UNL     1      49.472   9.909  18.697  1.00  0.00     0.004 C 
ATOM      7  C   UNL     1      49.984  11.326  18.414  1.00  0.00     0.004 C 
ENDBRANCH   5   6
BRANCH   5   8
ATOM      8  C   UNL     1      51.109   7.914  18.406  1.00  0.00    -0.011 C 
ATOM      9  C   UNL     1      51.308   6.555  19.099  1.00  0.00     0.008 C 
ATOM     10  C   UNL     1      50.246   7.752  17.143  1.00  0.00     0.008 C 
ENDBRANCH   5   8
ENDBRANCH   4   5
ENDBRANCH   1   3
BRANCH   1  11
ATOM     11  C   UNL     1      49.347   7.099  22.989  1.00  0.00     0.002 C 
ATOM     12  C   UNL     1      49.873   7.305  24.438  1.00  0.00     0.005 C 
ATOM     13  C   UNL     1      48.937   5.598  22.936  1.00  0.00    -0.026 C 
ATOM     14  C   UNL     1      50.277   5.907  24.954  1.00  0.00     0.005 C 
ATOM     15  C   UNL     1      50.106   5.003  23.739  1.00  0.00    -0.001 C 
ATOM     16  C   UNL     1      48.966   4.964  21.525  1.00  0.00     0.007 C 
ATOM     17  C   UNL     1      47.532   5.408  23.587  1.00  0.00     0.012 C 
ATOM     18  C   UNL     1      50.164   3.465  23.883  1.00  0.00     0.000 C 
ATOM     19  C   UNL     1      48.921   3.416  21.598  1.00  0.00     0.005 C 
ATOM     20  C   UNL     1      50.057   2.798  22.478  1.00  0.00     0.003 C 
ATOM     21  C   UNL     1      49.186   2.823  24.867  1.00  0.00     0.031 C 
ATOM     22  C   UNL     1      50.100   1.194  22.550  1.00  0.00    -0.008 C 
ATOM     23  C   UNL     1      49.533   1.380  25.019  1.00  0.00    -0.027 C 
ATOM     24  C   UNL     1      49.970   0.636  23.983  1.00  0.00    -0.065 C 
ATOM     25  C   UNL     1      48.954   0.512  21.727  1.00  0.00     0.014 C 
ATOM     26  C   UNL     1      51.470   0.758  21.960  1.00  0.00     0.016 C 
ATOM     27  C   UNL     1      49.994  -0.869  24.150  1.00  0.00     0.063 C 
ATOM     28  C   UNL     1      48.904  -1.027  21.866  1.00  0.00     0.033 C 
ATOM     29  C   UNL     1      48.841  -1.485  23.336  1.00  0.00     0.118 C 
BRANCH  29  30
ATOM     30  O   UNL     1      47.594  -1.126  23.882  1.00  0.00    -0.393 OA
ATOM     31  H   UNL     1      47.018  -0.839  23.128  1.00  0.00     0.210 HD
ENDBRANCH  29  30
ENDBRANCH   1  11
TORSDOF 6
ENDMDL
MODEL 2
REMARK VINA RESULT:    -7.049      3.333      5.558
REMARK INTER + INTRA:         -10.866
REMARK INTER:                  -9.769
REMARK INTRA:                  -1.097
REMARK UNBOUND:                -1.550
REMARK SMILES CC[C@@H](C=C[C@H](C)[C@H]1CC[C@H]2[C@H]3CC=C4C[C@@H](O)CC[C@@]4(C)[C@H]3CC[C@]12C)C(C)C
REMARK SMILES IDX 6 1 7 2 5 3 4 4 3 5 2 6 1 7 28 8 29 9 30 10 8 11 9 12 26 13
REMARK SMILES IDX 10 14 11 15 25 16 27 17 12 18 24 19 23 20 13 21 21 22 14 23
REMARK SMILES IDX 15 24 20 25 22 26 16 27 19 28 17 29 18 30
REMARK H PARENT 18 31
REMARK Flexibility Score: inf
ROOT
ATOM      1  C   UNL     1      46.691  11.220  21.057  1.00  0.00     0.012 C 
ATOM      2  C   UNL     1      45.376  12.031  21.116  1.00  0.00     0.012 C 
ENDROOT
BRANCH   1   3
ATOM      3  C   UNL     1      47.668  11.935  20.142  1.00  0.00    -0.028 C 
ATOM      4  C   UNL     1      47.626  13.268  19.991  1.00  0.00    -0.027 C 
BRANCH   4   5
ATOM      5  C   UNL     1      48.532  13.982  19.010  1.00  0.00     0.014 C 
BRANCH   5   6
ATOM      6  C   UNL     1      49.793  13.127  18.720  1.00  0.00     0.004 C 
ATOM      7  C   UNL     1      49.914  12.757  17.237  1.00  0.00     0.004 C 
ENDBRANCH   5   6
BRANCH   5   8
ATOM      8  C   UNL     1      48.866  15.411  19.538  1.00  0.00    -0.011 C 
ATOM      9  C   UNL     1      48.332  15.675  20.957  1.00  0.00     0.008 C 
ATOM     10  C   UNL     1      50.371  15.718  19.466  1.00  0.00     0.008 C 
ENDBRANCH   5   8
ENDBRANCH   4   5
ENDBRANCH   1   3
BRANCH   1  11
ATOM     11  C   UNL     1      47.363  10.934  22.449  1.00  0.00     0.002 C 
ATOM     12  C   UNL     1      46.867  11.767  23.666  1.00  0.00     0.005 C 
ATOM     13  C   UNL     1      47.364   9.464  22.960  1.00  0.00    -0.026 C 
ATOM     14  C   UNL     1      47.141  10.907  24.918  1.00  0.00     0.005 C 
ATOM     15  C   UNL     1      47.907   9.705  24.379  1.00  0.00    -0.001 C 
ATOM     16  C   UNL     1      48.351   8.521  22.233  1.00  0.00     0.007 C 
ATOM     17  C   UNL     1      45.917   8.882  22.905  1.00  0.00     0.012 C 
ATOM     18  C   UNL     1      48.162   8.465  25.267  1.00  0.00     0.000 C 
ATOM     19  C   UNL     1      48.570   7.207  23.027  1.00  0.00     0.005 C 
ATOM     20  C   UNL     1      49.047   7.437  24.498  1.00  0.00     0.003 C 
ATOM     21  C   UNL     1      46.936   7.784  25.874  1.00  0.00     0.031 C 
ATOM     22  C   UNL     1      49.345   6.113  25.359  1.00  0.00    -0.008 C 
ATOM     23  C   UNL     1      47.392   6.753  26.851  1.00  0.00    -0.027 C 
ATOM     24  C   UNL     1      48.494   6.006  26.642  1.00  0.00    -0.065 C 
ATOM     25  C   UNL     1      49.076   4.791  24.562  1.00  0.00     0.014 C 
ATOM     26  C   UNL     1      50.847   6.167  25.752  1.00  0.00     0.016 C 
ATOM     27  C   UNL     1      48.701   4.786  27.515  1.00  0.00     0.063 C 
ATOM     28  C   UNL     1      49.249   3.503  25.398  1.00  0.00     0.033 C 
ATOM     29  C   UNL     1      48.408   3.519  26.690  1.00  0.00     0.118 C 
BRANCH  29  30
ATOM     30  O   UNL     1      47.043   3.441  26.358  1.00  0.00    -0.393 OA
ATOM     31  H   UNL     1      46.743   4.361  26.139  1.00  0.00     0.210 HD
ENDBRANCH  29  30
ENDBRANCH   1  11
TORSDOF 6
ENDMDL
MODEL 3
REMARK VINA RESULT:    -6.823      3.057      8.397
REMARK INTER + INTRA:         -10.566
REMARK INTER:                  -9.447
REMARK INTRA:                  -1.120
REMARK UNBOUND:                -1.550
REMARK SMILES CC[C@@H](C=C[C@H](C)[C@H]1CC[C@H]2[C@H]3CC=C4C[C@@H](O)CC[C@@]4(C)[C@H]3CC[C@]12C)C(C)C
REMARK SMILES IDX 6 1 7 2 5 3 4 4 3 5 2 6 1 7 28 8 29 9 30 10 8 11 9 12 26 13
REMARK SMILES IDX 10 14 11 15 25 16 27 17 12 18 24 19 23 20 13 21 21 22 14 23
REMARK SMILES IDX 15 24 20 25 22 26 16 27 19 28 17 29 18 30
REMARK H PARENT 18 31
REMARK Flexibility Score: inf
ROOT
ATOM      1  C   UNL     1      47.795   0.779  21.333  1.00  0.00     0.012 C 
ATOM      2  C   UNL     1      47.288   0.732  19.873  1.00  0.00     0.012 C 
ENDROOT
BRANCH   1   3
ATOM      3  C   UNL     1      48.371  -0.577  21.695  1.00  0.00    -0.028 C 
ATOM      4  C   UNL     1      49.329  -0.696  22.628  1.00  0.00    -0.027 C 
BRANCH   4   5
ATOM      5  C   UNL     1      49.978  -2.031  22.930  1.00  0.00     0.014 C 
BRANCH   5   6
ATOM      6  C   UNL     1      49.709  -2.439  24.402  1.00  0.00     0.004 C 
ATOM      7  C   UNL     1      51.005  -2.596  25.206  1.00  0.00     0.004 C 
ENDBRANCH   5   6
BRANCH   5   8
ATOM      8  C   UNL     1      51.495  -1.978  22.573  1.00  0.00    -0.011 C 
ATOM      9  C   UNL     1      51.937  -3.108  21.627  1.00  0.00     0.008 C 
ATOM     10  C   UNL     1      51.908  -0.609  22.006  1.00  0.00     0.008 C 
ENDBRANCH   5   8
ENDBRANCH   4   5
ENDBRANCH   1   3
BRANCH   1  11
ATOM     11  C   UNL     1      48.840   1.912  21.640  1.00  0.00     0.002 C 
ATOM     12  C   UNL     1      49.855   2.271  20.517  1.00  0.00     0.005 C 
ATOM     13  C   UNL     1      48.292   3.287  22.121  1.00  0.00    -0.026 C 
ATOM     14  C   UNL     1      50.274   3.736  20.765  1.00  0.00     0.005 C 
ATOM     15  C   UNL     1      49.603   4.091  22.087  1.00  0.00    -0.001 C 
ATOM     16  C   UNL     1      47.767   3.306  23.576  1.00  0.00     0.007 C 
ATOM     17  C   UNL     1      47.190   3.792  21.140  1.00  0.00     0.012 C 
ATOM     18  C   UNL     1      49.556   5.555  22.583  1.00  0.00     0.000 C 
ATOM     19  C   UNL     1      47.599   4.757  24.099  1.00  0.00     0.005 C 
ATOM     20  C   UNL     1      48.903   5.614  23.997  1.00  0.00     0.003 C 
ATOM     21  C   UNL     1      48.923   6.584  21.647  1.00  0.00     0.031 C 
ATOM     22  C   UNL     1      48.810   7.110  24.574  1.00  0.00    -0.008 C 
ATOM     23  C   UNL     1      49.158   7.949  22.202  1.00  0.00    -0.027 C 
ATOM     24  C   UNL     1      49.133   8.197  23.526  1.00  0.00    -0.065 C 
ATOM     25  C   UNL     1      47.389   7.467  25.128  1.00  0.00     0.014 C 
ATOM     26  C   UNL     1      49.840   7.205  25.733  1.00  0.00     0.016 C 
ATOM     27  C   UNL     1      49.065   9.641  23.976  1.00  0.00     0.063 C 
ATOM     28  C   UNL     1      47.240   8.935  25.588  1.00  0.00     0.033 C 
ATOM     29  C   UNL     1      47.646   9.942  24.495  1.00  0.00     0.118 C 
BRANCH  29  30
ATOM     30  O   UNL     1      46.708   9.894  23.447  1.00  0.00    -0.393 OA
ATOM     31  H   UNL     1      45.832  10.160  23.827  1.00  0.00     0.210 HD
ENDBRANCH  29  30
ENDBRANCH   1  11
TORSDOF 6
ENDMDL
MODEL 4
REMARK VINA RESULT:    -6.805      3.461      8.111
REMARK INTER + INTRA:         -10.543
REMARK INTER:                  -9.204
REMARK INTRA:                  -1.339
REMARK UNBOUND:                -1.550
REMARK SMILES CC[C@@H](C=C[C@H](C)[C@H]1CC[C@H]2[C@H]3CC=C4C[C@@H](O)CC[C@@]4(C)[C@H]3CC[C@]12C)C(C)C
REMARK SMILES IDX 6 1 7 2 5 3 4 4 3 5 2 6 1 7 28 8 29 9 30 10 8 11 9 12 26 13
REMARK SMILES IDX 10 14 11 15 25 16 27 17 12 18 24 19 23 20 13 21 21 22 14 23
REMARK SMILES IDX 15 24 20 25 22 26 16 27 19 28 17 29 18 30
REMARK H PARENT 18 31
REMARK Flexibility Score: inf
ROOT
ATOM      1  C   UNL     1      47.511   0.299  22.356  1.00  0.00     0.012 C 
ATOM      2  C   UNL     1      47.847  -1.099  22.925  1.00  0.00     0.012 C 
ENDROOT
BRANCH   1   3
ATOM      3  C   UNL     1      46.241   0.805  23.017  1.00  0.00    -0.028 C 
ATOM      4  C   UNL     1      45.178   1.170  22.284  1.00  0.00    -0.027 C 
BRANCH   4   5
ATOM      5  C   UNL     1      43.941   1.764  22.926  1.00  0.00     0.014 C 
BRANCH   5   6
ATOM      6  C   UNL     1      42.876   0.662  23.164  1.00  0.00     0.004 C 
ATOM      7  C   UNL     1      42.901  -0.414  22.073  1.00  0.00     0.004 C 
ENDBRANCH   5   6
BRANCH   5   8
ATOM      8  C   UNL     1      43.414   2.953  22.065  1.00  0.00    -0.011 C 
ATOM      9  C   UNL     1      43.798   4.331  22.632  1.00  0.00     0.008 C 
ATOM     10  C   UNL     1      43.846   2.838  20.594  1.00  0.00     0.008 C 
ENDBRANCH   5   8
ENDBRANCH   4   5
ENDBRANCH   1   3
BRANCH   1  11
ATOM     11  C   UNL     1      48.654   1.368  22.492  1.00  0.00     0.002 C 
ATOM     12  C   UNL     1      50.115   0.885  22.261  1.00  0.00     0.005 C 
ATOM     13  C   UNL     1      48.535   2.664  21.637  1.00  0.00    -0.026 C 
ATOM     14  C   UNL     1      50.912   2.123  21.798  1.00  0.00     0.005 C 
ATOM     15  C   UNL     1      49.918   3.271  21.930  1.00  0.00    -0.001 C 
ATOM     16  C   UNL     1      47.467   3.670  22.124  1.00  0.00     0.007 C 
ATOM     17  C   UNL     1      48.289   2.291  20.142  1.00  0.00     0.012 C 
ATOM     18  C   UNL     1      50.229   4.661  21.329  1.00  0.00     0.000 C 
ATOM     19  C   UNL     1      47.663   5.065  21.474  1.00  0.00     0.005 C 
ATOM     20  C   UNL     1      49.091   5.662  21.695  1.00  0.00     0.003 C 
ATOM     21  C   UNL     1      50.544   4.716  19.835  1.00  0.00     0.031 C 
ATOM     22  C   UNL     1      49.343   7.131  21.093  1.00  0.00    -0.008 C 
ATOM     23  C   UNL     1      51.016   6.089  19.492  1.00  0.00    -0.027 C 
ATOM     24  C   UNL     1      50.497   7.190  20.071  1.00  0.00    -0.065 C 
ATOM     25  C   UNL     1      48.091   7.711  20.351  1.00  0.00     0.014 C 
ATOM     26  C   UNL     1      49.685   8.052  22.297  1.00  0.00     0.016 C 
ATOM     27  C   UNL     1      50.805   8.533  19.444  1.00  0.00     0.063 C 
ATOM     28  C   UNL     1      48.338   9.075  19.667  1.00  0.00     0.033 C 
ATOM     29  C   UNL     1      49.550   9.049  18.715  1.00  0.00     0.118 C 
BRANCH  29  30
ATOM     30  O   UNL     1      49.249   8.243  17.602  1.00  0.00    -0.393 OA
ATOM     31  H   UNL     1      48.594   8.741  17.049  1.00  0.00     0.210 HD
ENDBRANCH  29  30
ENDBRANCH   1  11
TORSDOF 6
ENDMDL
MODEL 5
REMARK VINA RESULT:    -6.739      3.034      7.648
REMARK INTER + INTRA:         -10.456
REMARK INTER:                  -8.951
REMARK INTRA:                  -1.505
REMARK UNBOUND:                -1.550
REMARK SMILES CC[C@@H](C=C[C@H](C)[C@H]1CC[C@H]2[C@H]3CC=C4C[C@@H](O)CC[C@@]4(C)[C@H]3CC[C@]12C)C(C)C
REMARK SMILES IDX 6 1 7 2 5 3 4 4 3 5 2 6 1 7 28 8 29 9 30 10 8 11 9 12 26 13
REMARK SMILES IDX 10 14 11 15 25 16 27 17 12 18 24 19 23 20 13 21 21 22 14 23
REMARK SMILES IDX 15 24 20 25 22 26 16 27 19 28 17 29 18 30
REMARK H PARENT 18 31
REMARK Flexibility Score: inf
ROOT
ATOM      1  C   UNL     1      49.067   1.732  21.839  1.00  0.00     0.012 C 
ATOM      2  C   UNL     1      48.386   0.345  21.892  1.00  0.00     0.012 C 
ENDROOT
BRANCH   1   3
ATOM      3  C   UNL     1      50.420   1.588  21.168  1.00  0.00    -0.028 C 
ATOM      4  C   UNL     1      50.767   2.370  20.133  1.00  0.00    -0.027 C 
BRANCH   4   5
ATOM      5  C   UNL     1      52.075   2.173  19.396  1.00  0.00     0.014 C 
BRANCH   5   6
ATOM      6  C   UNL     1      53.027   1.267  20.220  1.00  0.00     0.004 C 
ATOM      7  C   UNL     1      53.736   0.226  19.347  1.00  0.00     0.004 C 
ENDBRANCH   5   6
BRANCH   5   8
ATOM      8  C   UNL     1      52.698   3.557  19.039  1.00  0.00    -0.011 C 
ATOM      9  C   UNL     1      51.712   4.728  19.204  1.00  0.00     0.008 C 
ATOM     10  C   UNL     1      53.991   3.829  19.826  1.00  0.00     0.008 C 
ENDBRANCH   5   8
ENDBRANCH   4   5
ENDBRANCH   1   3
BRANCH   1  11
ATOM     11  C   UNL     1      48.230   2.861  21.135  1.00  0.00     0.002 C 
ATOM     12  C   UNL     1      46.809   2.484  20.627  1.00  0.00     0.005 C 
ATOM     13  C   UNL     1      48.023   4.194  21.911  1.00  0.00    -0.026 C 
ATOM     14  C   UNL     1      45.994   3.795  20.611  1.00  0.00     0.005 C 
ATOM     15  C   UNL     1      47.018   4.869  20.962  1.00  0.00    -0.001 C 
ATOM     16  C   UNL     1      49.273   5.102  21.992  1.00  0.00     0.007 C 
ATOM     17  C   UNL     1      47.475   3.897  23.341  1.00  0.00     0.012 C 
ATOM     18  C   UNL     1      46.570   6.309  21.302  1.00  0.00     0.000 C 
ATOM     19  C   UNL     1      48.902   6.542  22.432  1.00  0.00     0.005 C 
ATOM     20  C   UNL     1      47.821   7.213  21.523  1.00  0.00     0.003 C 
ATOM     21  C   UNL     1      45.570   6.472  22.446  1.00  0.00     0.031 C 
ATOM     22  C   UNL     1      47.431   8.728  21.892  1.00  0.00    -0.008 C 
ATOM     23  C   UNL     1      45.107   7.890  22.483  1.00  0.00    -0.027 C 
ATOM     24  C   UNL     1      45.933   8.920  22.212  1.00  0.00    -0.065 C 
ATOM     25  C   UNL     1      48.202   9.272  23.143  1.00  0.00     0.014 C 
ATOM     26  C   UNL     1      47.799   9.596  20.657  1.00  0.00     0.016 C 
ATOM     27  C   UNL     1      45.472  10.315  22.578  1.00  0.00     0.063 C 
ATOM     28  C   UNL     1      47.768  10.687  23.587  1.00  0.00     0.033 C 
ATOM     29  C   UNL     1      46.248  10.793  23.819  1.00  0.00     0.118 C 
BRANCH  29  30
ATOM     30  O   UNL     1      45.897  10.038  24.952  1.00  0.00    -0.393 OA
ATOM     31  H   UNL     1      44.949   9.768  24.842  1.00  0.00     0.210 HD
ENDBRANCH  29  30
ENDBRANCH   1  11
TORSDOF 6
ENDMDL
MODEL 6
REMARK VINA RESULT:    -6.738      2.186      4.193
REMARK INTER + INTRA:         -10.454
REMARK INTER:                  -9.266
REMARK INTRA:                  -1.188
REMARK UNBOUND:                -1.550
REMARK SMILES CC[C@@H](C=C[C@H](C)[C@H]1CC[C@H]2[C@H]3CC=C4C[C@@H](O)CC[C@@]4(C)[C@H]3CC[C@]12C)C(C)C
REMARK SMILES IDX 6 1 7 2 5 3 4 4 3 5 2 6 1 7 28 8 29 9 30 10 8 11 9 12 26 13
REMARK SMILES IDX 10 14 11 15 25 16 27 17 12 18 24 19 23 20 13 21 21 22 14 23
REMARK SMILES IDX 15 24 20 25 22 26 16 27 19 28 17 29 18 30
REMARK H PARENT 18 31
REMARK Flexibility Score: inf
ROOT
ATOM      1  C   UNL     1      48.911   8.614  24.221  1.00  0.00     0.012 C 
ATOM      2  C   UNL     1      50.371   8.987  24.565  1.00  0.00     0.012 C 
ENDROOT
BRANCH   1   3
ATOM      3  C   UNL     1      48.094   9.888  24.103  1.00  0.00    -0.028 C 
ATOM      4  C   UNL     1      47.171  10.032  23.140  1.00  0.00    -0.027 C 
BRANCH   4   5
ATOM      5  C   UNL     1      46.418  11.333  22.954  1.00  0.00     0.014 C 
BRANCH   5   6
ATOM      6  C   UNL     1      44.957  11.186  23.453  1.00  0.00     0.004 C 
ATOM      7  C   UNL     1      44.755  11.799  24.843  1.00  0.00     0.004 C 
ENDBRANCH   5   6
BRANCH   5   8
ATOM      8  C   UNL     1      46.517  11.796  21.468  1.00  0.00    -0.011 C 
ATOM      9  C   UNL     1      47.073  13.222  21.311  1.00  0.00     0.008 C 
ATOM     10  C   UNL     1      47.321  10.808  20.606  1.00  0.00     0.008 C 
ENDBRANCH   5   8
ENDBRANCH   4   5
ENDBRANCH   1   3
BRANCH   1  11
ATOM     11  C   UNL     1      48.732   7.734  22.932  1.00  0.00     0.002 C 
ATOM     12  C   UNL     1      49.793   7.893  21.806  1.00  0.00     0.005 C 
ATOM     13  C   UNL     1      48.598   6.195  23.123  1.00  0.00    -0.026 C 
ATOM     14  C   UNL     1      49.804   6.559  21.030  1.00  0.00     0.005 C 
ATOM     15  C   UNL     1      48.658   5.766  21.647  1.00  0.00    -0.001 C 
ATOM     16  C   UNL     1      47.239   5.725  23.693  1.00  0.00     0.007 C 
ATOM     17  C   UNL     1      49.770   5.666  24.006  1.00  0.00     0.012 C 
ATOM     18  C   UNL     1      48.476   4.263  21.332  1.00  0.00     0.000 C 
ATOM     19  C   UNL     1      47.040   4.199  23.501  1.00  0.00     0.005 C 
ATOM     20  C   UNL     1      47.177   3.734  22.014  1.00  0.00     0.003 C 
ATOM     21  C   UNL     1      49.660   3.344  21.627  1.00  0.00     0.031 C 
ATOM     22  C   UNL     1      46.928   2.171  21.739  1.00  0.00    -0.008 C 
ATOM     23  C   UNL     1      49.371   1.991  21.070  1.00  0.00    -0.027 C 
ATOM     24  C   UNL     1      48.134   1.457  21.093  1.00  0.00    -0.065 C 
ATOM     25  C   UNL     1      46.607   1.362  23.042  1.00  0.00     0.014 C 
ATOM     26  C   UNL     1      45.711   2.077  20.776  1.00  0.00     0.016 C 
ATOM     27  C   UNL     1      47.994  -0.022  20.801  1.00  0.00     0.063 C 
ATOM     28  C   UNL     1      46.470  -0.162  22.822  1.00  0.00     0.033 C 
ATOM     29  C   UNL     1      47.697  -0.770  22.115  1.00  0.00     0.118 C 
BRANCH  29  30
ATOM     30  O   UNL     1      48.805  -0.722  22.980  1.00  0.00    -0.393 OA
ATOM     31  H   UNL     1      49.325   0.088  22.745  1.00  0.00     0.210 HD
ENDBRANCH  29  30
ENDBRANCH   1  11
TORSDOF 6
ENDMDL
MODEL 7
REMARK VINA RESULT:    -6.691      3.737      8.416
REMARK INTER + INTRA:         -10.393
REMARK INTER:                  -9.080
REMARK INTRA:                  -1.313
REMARK UNBOUND:                -1.550
REMARK SMILES CC[C@@H](C=C[C@H](C)[C@H]1CC[C@H]2[C@H]3CC=C4C[C@@H](O)CC[C@@]4(C)[C@H]3CC[C@]12C)C(C)C
REMARK SMILES IDX 6 1 7 2 5 3 4 4 3 5 2 6 1 7 28 8 29 9 30 10 8 11 9 12 26 13
REMARK SMILES IDX 10 14 11 15 25 16 27 17 12 18 24 19 23 20 13 21 21 22 14 23
REMARK SMILES IDX 15 24 20 25 22 26 16 27 19 28 17 29 18 30
REMARK H PARENT 18 31
REMARK Flexibility Score: inf
ROOT
ATOM      1  C   UNL     1      48.460   2.915  20.957  1.00  0.00     0.012 C 
ATOM      2  C   UNL     1      49.326   1.634  20.981  1.00  0.00     0.012 C 
ENDROOT
BRANCH   1   3
ATOM      3  C   UNL     1      47.049   2.545  20.540  1.00  0.00    -0.028 C 
ATOM      4  C   UNL     1      46.176   2.038  21.425  1.00  0.00    -0.027 C 
BRANCH   4   5
ATOM      5  C   UNL     1      44.797   1.578  21.001  1.00  0.00     0.014 C 
BRANCH   5   6
ATOM      6  C   UNL     1      43.966   2.778  20.477  1.00  0.00     0.004 C 
ATOM      7  C   UNL     1      43.395   3.629  21.617  1.00  0.00     0.004 C 
ENDBRANCH   5   6
BRANCH   5   8
ATOM      8  C   UNL     1      44.107   0.816  22.175  1.00  0.00    -0.011 C 
ATOM      9  C   UNL     1      42.911  -0.041  21.723  1.00  0.00     0.008 C 
ATOM     10  C   UNL     1      45.105  -0.034  22.979  1.00  0.00     0.008 C 
ENDBRANCH   5   8
ENDBRANCH   4   5
ENDBRANCH   1   3
BRANCH   1  11
ATOM     11  C   UNL     1      48.433   3.728  22.301  1.00  0.00     0.002 C 
ATOM     12  C   UNL     1      49.719   3.704  23.177  1.00  0.00     0.005 C 
ATOM     13  C   UNL     1      48.045   5.234  22.225  1.00  0.00    -0.026 C 
ATOM     14  C   UNL     1      49.703   5.006  24.005  1.00  0.00     0.005 C 
ATOM     15  C   UNL     1      48.352   5.633  23.679  1.00  0.00    -0.001 C 
ATOM     16  C   UNL     1      46.545   5.508  21.970  1.00  0.00     0.007 C 
ATOM     17  C   UNL     1      48.919   5.953  21.152  1.00  0.00     0.012 C 
ATOM     18  C   UNL     1      48.029   7.083  24.104  1.00  0.00     0.000 C 
ATOM     19  C   UNL     1      46.177   6.982  22.281  1.00  0.00     0.005 C 
ATOM     20  C   UNL     1      46.555   7.428  23.732  1.00  0.00     0.003 C 
ATOM     21  C   UNL     1      48.983   8.176  23.624  1.00  0.00     0.031 C 
ATOM     22  C   UNL     1      46.150   8.929  24.136  1.00  0.00    -0.008 C 
ATOM     23  C   UNL     1      48.628   9.458  24.301  1.00  0.00    -0.027 C 
ATOM     24  C   UNL     1      47.351   9.801  24.560  1.00  0.00    -0.065 C 
ATOM     25  C   UNL     1      45.451   9.711  22.971  1.00  0.00     0.014 C 
ATOM     26  C   UNL     1      45.161   8.817  25.330  1.00  0.00     0.016 C 
ATOM     27  C   UNL     1      47.067  11.235  24.953  1.00  0.00     0.063 C 
ATOM     28  C   UNL     1      45.149  11.192  23.296  1.00  0.00     0.033 C 
ATOM     29  C   UNL     1      46.398  11.960  23.770  1.00  0.00     0.118 C 
BRANCH  29  30
ATOM     30  O   UNL     1      47.295  12.099  22.695  1.00  0.00    -0.393 OA
ATOM     31  H   UNL     1      47.417  13.071  22.541  1.00  0.00     0.210 HD
ENDBRANCH  29  30
ENDBRANCH   1  11
TORSDOF 6
ENDMDL
MODEL 8
REMARK VINA RESULT:    -6.608      3.346      8.482
REMARK INTER + INTRA:         -10.282
REMARK INTER:                  -8.842
REMARK INTRA:                  -1.441
REMARK UNBOUND:                -1.550
REMARK SMILES CC[C@@H](C=C[C@H](C)[C@H]1CC[C@H]2[C@H]3CC=C4C[C@@H](O)CC[C@@]4(C)[C@H]3CC[C@]12C)C(C)C
REMARK SMILES IDX 6 1 7 2 5 3 4 4 3 5 2 6 1 7 28 8 29 9 30 10 8 11 9 12 26 13
REMARK SMILES IDX 10 14 11 15 25 16 27 17 12 18 24 19 23 20 13 21 21 22 14 23
REMARK SMILES IDX 15 24 20 25 22 26 16 27 19 28 17 29 18 30
REMARK H PARENT 18 31
REMARK Flexibility Score: inf
ROOT
ATOM      1  C   UNL     1      48.040  -0.497  22.261  1.00  0.00     0.012 C 
ATOM      2  C   UNL     1      48.815  -1.832  22.353  1.00  0.00     0.012 C 
ENDROOT
BRANCH   1   3
ATOM      3  C   UNL     1      46.787  -0.598  23.110  1.00  0.00    -0.028 C 
ATOM      4  C   UNL     1      45.571  -0.406  22.576  1.00  0.00    -0.027 C 
BRANCH   4   5
ATOM      5  C   UNL     1      44.321  -0.411  23.432  1.00  0.00     0.014 C 
BRANCH   5   6
ATOM      6  C   UNL     1      43.222   0.472  22.785  1.00  0.00     0.004 C 
ATOM      7  C   UNL     1      43.731   1.216  21.546  1.00  0.00     0.004 C 
ENDBRANCH   5   6
BRANCH   5   8
ATOM      8  C   UNL     1      44.673   0.015  24.890  1.00  0.00    -0.011 C 
ATOM      9  C   UNL     1      44.068   1.372  25.291  1.00  0.00     0.008 C 
ATOM     10  C   UNL     1      44.294  -1.066  25.916  1.00  0.00     0.008 C 
ENDBRANCH   5   8
ENDBRANCH   4   5
ENDBRANCH   1   3
BRANCH   1  11
ATOM     11  C   UNL     1      48.862   0.781  22.658  1.00  0.00     0.002 C 
ATOM     12  C   UNL     1      50.412   0.699  22.542  1.00  0.00     0.005 C 
ATOM     13  C   UNL     1      48.493   2.122  21.959  1.00  0.00    -0.026 C 
ATOM     14  C   UNL     1      50.907   2.145  22.330  1.00  0.00     0.005 C 
ATOM     15  C   UNL     1      49.648   2.991  22.484  1.00  0.00    -0.001 C 
ATOM     16  C   UNL     1      47.169   2.763  22.437  1.00  0.00     0.007 C 
ATOM     17  C   UNL     1      48.473   1.926  20.412  1.00  0.00     0.012 C 
ATOM     18  C   UNL     1      49.648   4.488  22.097  1.00  0.00     0.000 C 
ATOM     19  C   UNL     1      47.061   4.244  21.989  1.00  0.00     0.005 C 
ATOM     20  C   UNL     1      48.269   5.125  22.447  1.00  0.00     0.003 C 
ATOM     21  C   UNL     1      50.062   4.835  20.668  1.00  0.00     0.031 C 
ATOM     22  C   UNL     1      48.192   6.683  22.062  1.00  0.00    -0.008 C 
ATOM     23  C   UNL     1      50.200   6.316  20.552  1.00  0.00    -0.027 C 
ATOM     24  C   UNL     1      49.375   7.165  21.196  1.00  0.00    -0.065 C 
ATOM     25  C   UNL     1      46.900   7.052  21.255  1.00  0.00     0.014 C 
ATOM     26  C   UNL     1      48.190   7.473  23.400  1.00  0.00     0.016 C 
ATOM     27  C   UNL     1      49.385   8.620  20.778  1.00  0.00     0.063 C 
ATOM     28  C   UNL     1      46.852   8.520  20.776  1.00  0.00     0.033 C 
ATOM     29  C   UNL     1      48.106   8.923  19.976  1.00  0.00     0.118 C 
BRANCH  29  30
ATOM     30  O   UNL     1      48.111   8.241  18.746  1.00  0.00    -0.393 OA
ATOM     31  H   UNL     1      47.904   8.908  18.041  1.00  0.00     0.210 HD
ENDBRANCH  29  30
ENDBRANCH   1  11
TORSDOF 6
ENDMDL
MODEL 9
REMARK VINA RESULT:    -6.506      3.319      8.441
REMARK INTER + INTRA:         -10.148
REMARK INTER:                  -8.690
REMARK INTRA:                  -1.458
REMARK UNBOUND:                -1.550
REMARK SMILES CC[C@@H](C=C[C@H](C)[C@H]1CC[C@H]2[C@H]3CC=C4C[C@@H](O)CC[C@@]4(C)[C@H]3CC[C@]12C)C(C)C
REMARK SMILES IDX 6 1 7 2 5 3 4 4 3 5 2 6 1 7 28 8 29 9 30 10 8 11 9 12 26 13
REMARK SMILES IDX 10 14 11 15 25 16 27 17 12 18 24 19 23 20 13 21 21 22 14 23
REMARK SMILES IDX 15 24 20 25 22 26 16 27 19 28 17 29 18 30
REMARK H PARENT 18 31
REMARK Flexibility Score: inf
ROOT
ATOM      1  C   UNL     1      44.301   0.486  23.049  1.00  0.00     0.012 C 
ATOM      2  C   UNL     1      43.119  -0.379  22.555  1.00  0.00     0.012 C 
ENDROOT
BRANCH   1   3
ATOM      3  C   UNL     1      45.392  -0.429  23.574  1.00  0.00    -0.028 C 
ATOM      4  C   UNL     1      46.356  -0.893  22.763  1.00  0.00    -0.027 C 
BRANCH   4   5
ATOM      5  C   UNL     1      47.394  -1.881  23.253  1.00  0.00     0.014 C 
BRANCH   5   6
ATOM      6  C   UNL     1      47.366  -1.970  24.801  1.00  0.00     0.004 C 
ATOM      7  C   UNL     1      48.551  -1.242  25.446  1.00  0.00     0.004 C 
ENDBRANCH   5   6
BRANCH   5   8
ATOM      8  C   UNL     1      48.797  -1.505  22.684  1.00  0.00    -0.011 C 
ATOM      9  C   UNL     1      49.550  -2.703  22.081  1.00  0.00     0.008 C 
ATOM     10  C   UNL     1      48.718  -0.353  21.668  1.00  0.00     0.008 C 
ENDBRANCH   5   8
ENDBRANCH   4   5
ENDBRANCH   1   3
BRANCH   1  11
ATOM     11  C   UNL     1      44.893   1.480  21.986  1.00  0.00     0.002 C 
ATOM     12  C   UNL     1      43.924   2.017  20.893  1.00  0.00     0.005 C 
ATOM     13  C   UNL     1      45.623   2.750  22.513  1.00  0.00    -0.026 C 
ATOM     14  C   UNL     1      44.495   3.377  20.439  1.00  0.00     0.005 C 
ATOM     15  C   UNL     1      45.826   3.481  21.176  1.00  0.00    -0.001 C 
ATOM     16  C   UNL     1      47.020   2.492  23.124  1.00  0.00     0.007 C 
ATOM     17  C   UNL     1      44.713   3.498  23.536  1.00  0.00     0.012 C 
ATOM     18  C   UNL     1      46.614   4.811  21.201  1.00  0.00     0.000 C 
ATOM     19  C   UNL     1      47.826   3.808  23.273  1.00  0.00     0.005 C 
ATOM     20  C   UNL     1      47.974   4.606  21.936  1.00  0.00     0.003 C 
ATOM     21  C   UNL     1      45.883   6.040  21.740  1.00  0.00     0.031 C 
ATOM     22  C   UNL     1      48.846   5.953  22.011  1.00  0.00    -0.008 C 
ATOM     23  C   UNL     1      46.724   7.248  21.492  1.00  0.00    -0.027 C 
ATOM     24  C   UNL     1      48.067   7.217  21.588  1.00  0.00    -0.065 C 
ATOM     25  C   UNL     1      49.389   6.253  23.450  1.00  0.00     0.014 C 
ATOM     26  C   UNL     1      50.051   5.757  21.050  1.00  0.00     0.016 C 
ATOM     27  C   UNL     1      48.806   8.538  21.633  1.00  0.00     0.063 C 
ATOM     28  C   UNL     1      50.138   7.599  23.575  1.00  0.00     0.033 C 
ATOM     29  C   UNL     1      49.302   8.790  23.069  1.00  0.00     0.118 C 
BRANCH  29  30
ATOM     30  O   UNL     1      48.221   9.005  23.942  1.00  0.00    -0.393 OA
ATOM     31  H   UNL     1      48.553   9.572  24.685  1.00  0.00     0.210 HD
ENDBRANCH  29  30
ENDBRANCH   1  11
TORSDOF 6
ENDMDL
