MODEL 1
REMARK VINA RESULT:     1.303      0.000      0.000
REMARK INTER + INTRA:           1.417
REMARK INTER:                   1.417
REMARK INTRA:                   0.000
REMARK UNBOUND:                 0.000
REMARK SMILES Cc1cc(O)c2c(c1)C(=O)c1cc(O)cc(O)c1C2=O
REMARK SMILES IDX 1 1 2 2 8 3 7 4 6 5 4 6 3 7 19 8 20 9 18 10 11 11 9 12 10 13
REMARK SMILES IDX 12 14 13 15 15 16 16 17 5 18 17 20 14 22
REMARK H PARENT 5 19 17 21 14 23
REMARK Flexibility Score: inf
ROOT
ATOM      1  C   UNL     1     -13.897  41.876  27.016  1.00  0.00     0.044 C 
ATOM      2  C   UNL     1     -14.829  42.599  27.944  1.00  0.00    -0.047 A 
ATOM      3  C   UNL     1     -15.038  43.975  27.801  1.00  0.00     0.016 A 
ATOM      4  C   UNL     1     -15.881  44.671  28.685  1.00  0.00     0.038 A 
ATOM      5  C   UNL     1     -16.515  43.980  29.741  1.00  0.00     0.076 A 
ATOM      6  C   UNL     1     -16.284  42.592  29.893  1.00  0.00     0.127 A 
ATOM      7  C   UNL     1     -15.441  41.918  29.000  1.00  0.00     0.050 A 
ATOM      8  C   UNL     1     -17.409  44.729  30.670  1.00  0.00     0.201 C 
ATOM      9  O   UNL     1     -17.985  44.117  31.610  1.00  0.00    -0.288 OA
ATOM     10  C   UNL     1     -17.628  46.192  30.498  1.00  0.00     0.076 A 
ATOM     11  C   UNL     1     -16.982  46.868  29.438  1.00  0.00     0.041 A 
ATOM     12  C   UNL     1     -16.098  46.126  28.510  1.00  0.00     0.194 C 
ATOM     13  O   UNL     1     -15.527  46.737  27.565  1.00  0.00    -0.289 OA
ATOM     14  C   UNL     1     -17.182  48.249  29.265  1.00  0.00     0.059 A 
ATOM     15  C   UNL     1     -18.013  48.962  30.133  1.00  0.00     0.120 A 
ATOM     16  C   UNL     1     -18.652  48.301  31.180  1.00  0.00     0.093 A 
ATOM     17  C   UNL     1     -18.468  46.925  31.371  1.00  0.00     0.131 A 
ENDROOT
BRANCH   6  18
ATOM     18  O   UNL     1     -16.884  41.875  30.929  1.00  0.00    -0.507 OA
ATOM     19  H   UNL     1     -17.803  41.460  30.829  1.00  0.00     0.293 HD
ENDBRANCH   6  18
BRANCH  17  20
ATOM     20  O   UNL     1     -19.124  46.295  32.430  1.00  0.00    -0.507 OA
ATOM     21  H   UNL     1     -18.703  45.527  32.939  1.00  0.00     0.293 HD
ENDBRANCH  17  20
BRANCH  15  22
ATOM     22  O   UNL     1     -18.212  50.331  29.963  1.00  0.00    -0.508 OA
ATOM     23  H   UNL     1     -18.992  50.691  29.427  1.00  0.00     0.293 HD
ENDBRANCH  15  22
TORSDOF 3
ENDMDL
MODEL 2
REMARK VINA RESULT:     2.005      1.138      5.486
REMARK INTER + INTRA:           2.181
REMARK INTER:                   2.181
REMARK INTRA:                   0.000
REMARK UNBOUND:                 0.000
REMARK SMILES Cc1cc(O)c2c(c1)C(=O)c1cc(O)cc(O)c1C2=O
REMARK SMILES IDX 1 1 2 2 8 3 7 4 6 5 4 6 3 7 19 8 20 9 18 10 11 11 9 12 10 13
REMARK SMILES IDX 12 14 13 15 15 16 16 17 5 18 17 20 14 22
REMARK H PARENT 5 19 17 21 14 23
REMARK Flexibility Score: inf
ROOT
ATOM      1  C   UNL     1     -18.302  50.426  29.910  1.00  0.00     0.044 C 
ATOM      2  C   UNL     1     -18.054  48.965  30.149  1.00  0.00    -0.047 A 
ATOM      3  C   UNL     1     -17.247  48.235  29.269  1.00  0.00     0.016 A 
ATOM      4  C   UNL     1     -17.035  46.858  29.461  1.00  0.00     0.038 A 
ATOM      5  C   UNL     1     -17.655  46.196  30.544  1.00  0.00     0.076 A 
ATOM      6  C   UNL     1     -18.486  46.936  31.419  1.00  0.00     0.127 A 
ATOM      7  C   UNL     1     -18.683  48.307  31.210  1.00  0.00     0.050 A 
ATOM      8  C   UNL     1     -17.420  44.737  30.739  1.00  0.00     0.201 C 
ATOM      9  O   UNL     1     -17.963  44.141  31.708  1.00  0.00    -0.288 OA
ATOM     10  C   UNL     1     -16.550  43.977  29.799  1.00  0.00     0.076 A 
ATOM     11  C   UNL     1     -15.941  44.654  28.718  1.00  0.00     0.041 A 
ATOM     12  C   UNL     1     -16.168  46.105  28.525  1.00  0.00     0.194 C 
ATOM     13  O   UNL     1     -15.619  46.703  27.559  1.00  0.00    -0.289 OA
ATOM     14  C   UNL     1     -15.118  43.947  27.824  1.00  0.00     0.059 A 
ATOM     15  C   UNL     1     -14.894  42.578  27.993  1.00  0.00     0.120 A 
ATOM     16  C   UNL     1     -15.492  41.905  29.057  1.00  0.00     0.093 A 
ATOM     17  C   UNL     1     -16.317  42.589  29.960  1.00  0.00     0.131 A 
ENDROOT
BRANCH   6  18
ATOM     18  O   UNL     1     -19.124  46.317  32.495  1.00  0.00    -0.507 OA
ATOM     19  H   UNL     1     -18.749  46.360  33.435  1.00  0.00     0.293 HD
ENDBRANCH   6  18
BRANCH  17  20
ATOM     20  O   UNL     1     -16.899  41.883  31.013  1.00  0.00    -0.507 OA
ATOM     21  H   UNL     1     -16.617  42.027  31.975  1.00  0.00     0.293 HD
ENDBRANCH  17  20
BRANCH  15  22
ATOM     22  O   UNL     1     -14.078  41.876  27.108  1.00  0.00    -0.508 OA
ATOM     23  H   UNL     1     -13.082  41.786  27.264  1.00  0.00     0.293 HD
ENDBRANCH  15  22
TORSDOF 3
ENDMDL
MODEL 3
REMARK VINA RESULT:     3.883      1.730      6.101
REMARK INTER + INTRA:           4.223
REMARK INTER:                   4.223
REMARK INTRA:                   0.000
REMARK UNBOUND:                 0.000
REMARK SMILES Cc1cc(O)c2c(c1)C(=O)c1cc(O)cc(O)c1C2=O
REMARK SMILES IDX 1 1 2 2 8 3 7 4 6 5 4 6 3 7 19 8 20 9 18 10 11 11 9 12 10 13
REMARK SMILES IDX 12 14 13 15 15 16 16 17 5 18 17 20 14 22
REMARK H PARENT 5 19 17 21 14 23
REMARK Flexibility Score: inf
ROOT
ATOM      1  C   UNL     1     -19.125  51.275  29.520  1.00  0.00     0.044 C 
ATOM      2  C   UNL     1     -18.474  49.947  29.265  1.00  0.00    -0.047 A 
ATOM      3  C   UNL     1     -18.675  48.882  30.150  1.00  0.00     0.016 A 
ATOM      4  C   UNL     1     -18.043  47.644  29.941  1.00  0.00     0.038 A 
ATOM      5  C   UNL     1     -17.182  47.472  28.835  1.00  0.00     0.076 A 
ATOM      6  C   UNL     1     -16.967  48.559  27.955  1.00  0.00     0.127 A 
ATOM      7  C   UNL     1     -17.607  49.784  28.180  1.00  0.00     0.050 A 
ATOM      8  C   UNL     1     -16.520  46.153  28.623  1.00  0.00     0.201 C 
ATOM      9  O   UNL     1     -15.757  45.990  27.634  1.00  0.00    -0.288 OA
ATOM     10  C   UNL     1     -16.754  45.027  29.570  1.00  0.00     0.076 A 
ATOM     11  C   UNL     1     -17.615  45.218  30.674  1.00  0.00     0.041 A 
ATOM     12  C   UNL     1     -18.279  46.525  30.883  1.00  0.00     0.194 C 
ATOM     13  O   UNL     1     -19.048  46.687  31.870  1.00  0.00    -0.289 OA
ATOM     14  C   UNL     1     -17.843  44.161  31.573  1.00  0.00     0.059 A 
ATOM     15  C   UNL     1     -17.224  42.922  31.388  1.00  0.00     0.120 A 
ATOM     16  C   UNL     1     -16.374  42.729  30.302  1.00  0.00     0.093 A 
ATOM     17  C   UNL     1     -16.131  43.767  29.392  1.00  0.00     0.131 A 
ENDROOT
BRANCH   6  18
ATOM     18  O   UNL     1     -16.115  48.433  26.856  1.00  0.00    -0.507 OA
ATOM     19  H   UNL     1     -15.155  48.757  26.884  1.00  0.00     0.293 HD
ENDBRANCH   6  18
BRANCH  17  20
ATOM     20  O   UNL     1     -15.273  43.537  28.316  1.00  0.00    -0.507 OA
ATOM     21  H   UNL     1     -15.546  43.741  27.362  1.00  0.00     0.293 HD
ENDBRANCH  17  20
BRANCH  15  22
ATOM     22  O   UNL     1     -17.449  41.875  32.279  1.00  0.00    -0.508 OA
ATOM     23  H   UNL     1     -18.111  41.137  32.073  1.00  0.00     0.293 HD
ENDBRANCH  15  22
TORSDOF 3
ENDMDL
