MODEL 1
REMARK VINA RESULT:    -5.432      0.000      0.000
REMARK INTER + INTRA:          -7.393
REMARK INTER:                  -6.702
REMARK INTRA:                  -0.691
REMARK UNBOUND:                -0.691
REMARK SMILES CC(C)=CCC[C@H](C)c1ccc(C)cc1
REMARK SMILES IDX 6 1 7 2 8 3 9 4 13 5 12 6 11 7 14 8 10 9 15 10 5 11 4 12
REMARK SMILES IDX 2 13 1 14 3 15
REMARK H PARENT
REMARK Flexibility Score: inf
ROOT
ATOM      1  C   UNL     1     -24.792  -1.829   7.871  1.00  0.00     0.012 C 
ENDROOT
BRANCH   1   2
ATOM      2  C   UNL     1     -26.113  -1.288   8.468  1.00  0.00     0.016 C 
ATOM      3  C   UNL     1     -26.982  -0.567   7.425  1.00  0.00     0.013 C 
BRANCH   2   4
ATOM      4  C   UNL     1     -25.820  -0.366   9.639  1.00  0.00    -0.045 A 
ATOM      5  C   UNL     1     -25.004   2.279  12.956  1.00  0.00     0.044 C 
ATOM      6  C   UNL     1     -25.310   1.347  11.821  1.00  0.00    -0.051 A 
ATOM      7  C   UNL     1     -24.611   0.138  11.693  1.00  0.00     0.004 A 
ATOM      8  C   UNL     1     -26.248   1.707  10.843  1.00  0.00     0.004 A 
ATOM      9  C   UNL     1     -24.869  -0.715  10.617  1.00  0.00     0.004 A 
ATOM     10  C   UNL     1     -26.506   0.855   9.765  1.00  0.00     0.004 A 
ENDBRANCH   2   4
ENDBRANCH   1   2
BRANCH   1  11
ATOM     11  C   UNL     1     -24.984  -3.023   6.914  1.00  0.00     0.028 C 
BRANCH  11  12
ATOM     12  C   UNL     1     -24.571  -2.695   5.498  1.00  0.00    -0.028 C 
ATOM     13  C   UNL     1     -25.379  -2.812   4.420  1.00  0.00    -0.080 C 
ATOM     14  C   UNL     1     -24.822  -2.462   3.064  1.00  0.00     0.039 C 
ATOM     15  C   UNL     1     -26.821  -3.250   4.541  1.00  0.00     0.039 C 
ENDBRANCH  11  12
ENDBRANCH   1  11
TORSDOF 4
ENDMDL
MODEL 2
REMARK VINA RESULT:    -5.330      2.254      6.749
REMARK INTER + INTRA:          -7.268
REMARK INTER:                  -6.539
REMARK INTRA:                  -0.728
REMARK UNBOUND:                -0.691
REMARK SMILES CC(C)=CCC[C@H](C)c1ccc(C)cc1
REMARK SMILES IDX 6 1 7 2 8 3 9 4 13 5 12 6 11 7 14 8 10 9 15 10 5 11 4 12
REMARK SMILES IDX 2 13 1 14 3 15
REMARK H PARENT
REMARK Flexibility Score: inf
ROOT
ATOM      1  C   UNL     1     -24.723  -0.539  12.492  1.00  0.00     0.012 C 
ENDROOT
BRANCH   1   2
ATOM      2  C   UNL     1     -25.329   0.290  11.335  1.00  0.00     0.016 C 
ATOM      3  C   UNL     1     -26.780   0.714  11.608  1.00  0.00     0.013 C 
BRANCH   2   4
ATOM      4  C   UNL     1     -25.242  -0.488  10.032  1.00  0.00    -0.045 A 
ATOM      5  C   UNL     1     -24.967  -2.708   6.337  1.00  0.00     0.044 C 
ATOM      6  C   UNL     1     -25.077  -1.961   7.634  1.00  0.00    -0.051 A 
ATOM      7  C   UNL     1     -26.180  -1.132   7.879  1.00  0.00     0.004 A 
ATOM      8  C   UNL     1     -24.046  -2.033   8.581  1.00  0.00     0.004 A 
ATOM      9  C   UNL     1     -26.267  -0.408   9.071  1.00  0.00     0.004 A 
ATOM     10  C   UNL     1     -24.131  -1.309   9.774  1.00  0.00     0.004 A 
ENDBRANCH   2   4
ENDBRANCH   1   2
BRANCH   1  11
ATOM     11  C   UNL     1     -23.688   0.232  13.336  1.00  0.00     0.028 C 
BRANCH  11  12
ATOM     12  C   UNL     1     -22.736  -0.691  14.060  1.00  0.00    -0.028 C 
ATOM     13  C   UNL     1     -21.595  -1.183  13.528  1.00  0.00    -0.080 C 
ATOM     14  C   UNL     1     -20.752  -2.108  14.367  1.00  0.00     0.039 C 
ATOM     15  C   UNL     1     -21.130  -0.809  12.139  1.00  0.00     0.039 C 
ENDBRANCH  11  12
ENDBRANCH   1  11
TORSDOF 4
ENDMDL
MODEL 3
REMARK VINA RESULT:    -5.329      1.132      1.556
REMARK INTER + INTRA:          -7.266
REMARK INTER:                  -6.725
REMARK INTRA:                  -0.541
REMARK UNBOUND:                -0.691
REMARK SMILES CC(C)=CCC[C@H](C)c1ccc(C)cc1
REMARK SMILES IDX 6 1 7 2 8 3 9 4 13 5 12 6 11 7 14 8 10 9 15 10 5 11 4 12
REMARK SMILES IDX 2 13 1 14 3 15
REMARK H PARENT
REMARK Flexibility Score: inf
ROOT
ATOM      1  C   UNL     1     -24.272  -1.926   7.614  1.00  0.00     0.012 C 
ENDROOT
BRANCH   1   2
ATOM      2  C   UNL     1     -24.465  -2.417   9.069  1.00  0.00     0.016 C 
ATOM      3  C   UNL     1     -25.655  -3.379   9.215  1.00  0.00     0.013 C 
BRANCH   2   4
ATOM      4  C   UNL     1     -24.628  -1.231  10.004  1.00  0.00    -0.045 A 
ATOM      5  C   UNL     1     -25.113   2.153  12.645  1.00  0.00     0.044 C 
ATOM      6  C   UNL     1     -24.964   0.961  11.747  1.00  0.00    -0.051 A 
ATOM      7  C   UNL     1     -23.907   0.059  11.940  1.00  0.00     0.004 A 
ATOM      8  C   UNL     1     -25.837   0.776  10.666  1.00  0.00     0.004 A 
ATOM      9  C   UNL     1     -23.745  -1.031  11.082  1.00  0.00     0.004 A 
ATOM     10  C   UNL     1     -25.676  -0.315   9.806  1.00  0.00     0.004 A 
ENDBRANCH   2   4
ENDBRANCH   1   2
BRANCH   1  11
ATOM     11  C   UNL     1     -25.474  -2.216   6.693  1.00  0.00     0.028 C 
BRANCH  11  12
ATOM     12  C   UNL     1     -25.046  -2.644   5.309  1.00  0.00    -0.028 C 
ATOM     13  C   UNL     1     -25.208  -1.897   4.194  1.00  0.00    -0.080 C 
ATOM     14  C   UNL     1     -24.745  -2.465   2.876  1.00  0.00     0.039 C 
ATOM     15  C   UNL     1     -25.805  -0.510   4.236  1.00  0.00     0.039 C 
ENDBRANCH  11  12
ENDBRANCH   1  11
TORSDOF 4
ENDMDL
MODEL 4
REMARK VINA RESULT:    -5.328      3.345      6.283
REMARK INTER + INTRA:          -7.265
REMARK INTER:                  -6.448
REMARK INTRA:                  -0.817
REMARK UNBOUND:                -0.691
REMARK SMILES CC(C)=CCC[C@H](C)c1ccc(C)cc1
REMARK SMILES IDX 6 1 7 2 8 3 9 4 13 5 12 6 11 7 14 8 10 9 15 10 5 11 4 12
REMARK SMILES IDX 2 13 1 14 3 15
REMARK H PARENT
REMARK Flexibility Score: inf
ROOT
ATOM      1  C   UNL     1     -25.070  -0.892  12.249  1.00  0.00     0.012 C 
ENDROOT
BRANCH   1   2
ATOM      2  C   UNL     1     -24.716   0.513  11.708  1.00  0.00     0.016 C 
ATOM      3  C   UNL     1     -24.672   1.579  12.814  1.00  0.00     0.013 C 
BRANCH   2   4
ATOM      4  C   UNL     1     -25.699   0.919  10.622  1.00  0.00    -0.045 A 
ATOM      5  C   UNL     1     -28.496   2.101   7.550  1.00  0.00     0.044 C 
ATOM      6  C   UNL     1     -27.501   1.699   8.598  1.00  0.00    -0.051 A 
ATOM      7  C   UNL     1     -27.017   0.384   8.646  1.00  0.00     0.004 A 
ATOM      8  C   UNL     1     -27.098   2.616   9.580  1.00  0.00     0.004 A 
ATOM      9  C   UNL     1     -26.118  -0.001   9.643  1.00  0.00     0.004 A 
ATOM     10  C   UNL     1     -26.199   2.232  10.579  1.00  0.00     0.004 A 
ENDBRANCH   2   4
ENDBRANCH   1   2
BRANCH   1  11
ATOM     11  C   UNL     1     -23.923  -1.915  12.126  1.00  0.00     0.028 C 
BRANCH  11  12
ATOM     12  C   UNL     1     -23.013  -1.906  13.333  1.00  0.00    -0.028 C 
ATOM     13  C   UNL     1     -21.762  -1.393  13.342  1.00  0.00    -0.080 C 
ATOM     14  C   UNL     1     -20.966  -1.471  14.620  1.00  0.00     0.039 C 
ATOM     15  C   UNL     1     -21.159  -0.724  12.129  1.00  0.00     0.039 C 
ENDBRANCH  11  12
ENDBRANCH   1  11
TORSDOF 4
ENDMDL
MODEL 5
REMARK VINA RESULT:    -5.328      3.994      7.294
REMARK INTER + INTRA:          -7.265
REMARK INTER:                  -6.548
REMARK INTRA:                  -0.717
REMARK UNBOUND:                -0.691
REMARK SMILES CC(C)=CCC[C@H](C)c1ccc(C)cc1
REMARK SMILES IDX 6 1 7 2 8 3 9 4 13 5 12 6 11 7 14 8 10 9 15 10 5 11 4 12
REMARK SMILES IDX 2 13 1 14 3 15
REMARK H PARENT
REMARK Flexibility Score: inf
ROOT
ATOM      1  C   UNL     1     -22.219  -0.383  12.885  1.00  0.00     0.012 C 
ENDROOT
BRANCH   1   2
ATOM      2  C   UNL     1     -23.718  -0.722  13.063  1.00  0.00     0.016 C 
ATOM      3  C   UNL     1     -24.026  -2.202  12.787  1.00  0.00     0.013 C 
BRANCH   2   4
ATOM      4  C   UNL     1     -24.567   0.169  12.172  1.00  0.00    -0.045 A 
ATOM      5  C   UNL     1     -26.980   2.678   9.615  1.00  0.00     0.044 C 
ATOM      6  C   UNL     1     -26.168   1.798  10.519  1.00  0.00    -0.051 A 
ATOM      7  C   UNL     1     -25.595   2.322  11.686  1.00  0.00     0.004 A 
ATOM      8  C   UNL     1     -25.918   0.463  10.169  1.00  0.00     0.004 A 
ATOM      9  C   UNL     1     -24.808   1.513  12.510  1.00  0.00     0.004 A 
ATOM     10  C   UNL     1     -25.131  -0.347  10.992  1.00  0.00     0.004 A 
ENDBRANCH   2   4
ENDBRANCH   1   2
BRANCH   1  11
ATOM     11  C   UNL     1     -21.273  -1.563  13.183  1.00  0.00     0.028 C 
BRANCH  11  12
ATOM     12  C   UNL     1     -20.718  -1.513  14.588  1.00  0.00    -0.028 C 
ATOM     13  C   UNL     1     -20.934  -2.460  15.528  1.00  0.00    -0.080 C 
ATOM     14  C   UNL     1     -20.328  -2.265  16.894  1.00  0.00     0.039 C 
ATOM     15  C   UNL     1     -21.732  -3.711  15.241  1.00  0.00     0.039 C 
ENDBRANCH  11  12
ENDBRANCH   1  11
TORSDOF 4
ENDMDL
MODEL 6
REMARK VINA RESULT:    -5.281      2.447      6.326
REMARK INTER + INTRA:          -7.207
REMARK INTER:                  -5.911
REMARK INTRA:                  -1.296
REMARK UNBOUND:                -0.691
REMARK SMILES CC(C)=CCC[C@H](C)c1ccc(C)cc1
REMARK SMILES IDX 6 1 7 2 8 3 9 4 13 5 12 6 11 7 14 8 10 9 15 10 5 11 4 12
REMARK SMILES IDX 2 13 1 14 3 15
REMARK H PARENT
REMARK Flexibility Score: inf
ROOT
ATOM      1  C   UNL     1     -23.394   0.378  12.801  1.00  0.00     0.012 C 
ENDROOT
BRANCH   1   2
ATOM      2  C   UNL     1     -23.800  -1.105  12.979  1.00  0.00     0.016 C 
ATOM      3  C   UNL     1     -22.720  -1.931  13.695  1.00  0.00     0.013 C 
BRANCH   2   4
ATOM      4  C   UNL     1     -24.130  -1.723  11.631  1.00  0.00    -0.045 A 
ATOM      5  C   UNL     1     -25.080  -3.507   7.813  1.00  0.00     0.044 C 
ATOM      6  C   UNL     1     -24.777  -2.871   9.138  1.00  0.00    -0.051 A 
ATOM      7  C   UNL     1     -24.018  -1.693   9.198  1.00  0.00     0.004 A 
ATOM      8  C   UNL     1     -25.191  -3.484  10.328  1.00  0.00     0.004 A 
ATOM      9  C   UNL     1     -23.703  -1.120  10.433  1.00  0.00     0.004 A 
ATOM     10  C   UNL     1     -24.877  -2.912  11.564  1.00  0.00     0.004 A 
ENDBRANCH   2   4
ENDBRANCH   1   2
BRANCH   1  11
ATOM     11  C   UNL     1     -24.523   1.377  13.125  1.00  0.00     0.028 C 
BRANCH  11  12
ATOM     12  C   UNL     1     -25.123   1.988  11.881  1.00  0.00    -0.028 C 
ATOM     13  C   UNL     1     -26.264   1.561  11.293  1.00  0.00    -0.080 C 
ATOM     14  C   UNL     1     -26.732   2.262  10.044  1.00  0.00     0.039 C 
ATOM     15  C   UNL     1     -27.089   0.433  11.867  1.00  0.00     0.039 C 
ENDBRANCH  11  12
ENDBRANCH   1  11
TORSDOF 4
ENDMDL
MODEL 7
REMARK VINA RESULT:    -5.220      2.840      5.225
REMARK INTER + INTRA:          -7.132
REMARK INTER:                  -5.628
REMARK INTRA:                  -1.504
REMARK UNBOUND:                -0.691
REMARK SMILES CC(C)=CCC[C@H](C)c1ccc(C)cc1
REMARK SMILES IDX 6 1 7 2 8 3 9 4 13 5 12 6 11 7 14 8 10 9 15 10 5 11 4 12
REMARK SMILES IDX 2 13 1 14 3 15
REMARK H PARENT
REMARK Flexibility Score: inf
ROOT
ATOM      1  C   UNL     1     -25.653  -1.100   8.826  1.00  0.00     0.012 C 
ENDROOT
BRANCH   1   2
ATOM      2  C   UNL     1     -25.404  -2.260   9.819  1.00  0.00     0.016 C 
ATOM      3  C   UNL     1     -26.698  -2.757  10.483  1.00  0.00     0.013 C 
BRANCH   2   4
ATOM      4  C   UNL     1     -24.397  -1.837  10.876  1.00  0.00    -0.045 A 
ATOM      5  C   UNL     1     -21.517  -0.625  13.857  1.00  0.00     0.044 C 
ATOM      6  C   UNL     1     -22.533  -1.019  12.827  1.00  0.00    -0.051 A 
ATOM      7  C   UNL     1     -23.636  -1.806  13.189  1.00  0.00     0.004 A 
ATOM      8  C   UNL     1     -22.353  -0.663  11.483  1.00  0.00     0.004 A 
ATOM      9  C   UNL     1     -24.565  -2.204  12.224  1.00  0.00     0.004 A 
ATOM     10  C   UNL     1     -23.281  -1.062  10.516  1.00  0.00     0.004 A 
ENDBRANCH   2   4
ENDBRANCH   1   2
BRANCH   1  11
ATOM     11  C   UNL     1     -26.666  -0.052   9.331  1.00  0.00     0.028 C 
BRANCH  11  12
ATOM     12  C   UNL     1     -26.003   1.050  10.125  1.00  0.00    -0.028 C 
ATOM     13  C   UNL     1     -26.215   1.278  11.440  1.00  0.00    -0.080 C 
ATOM     14  C   UNL     1     -25.493   2.428  12.094  1.00  0.00     0.039 C 
ATOM     15  C   UNL     1     -27.121   0.400  12.272  1.00  0.00     0.039 C 
ENDBRANCH  11  12
ENDBRANCH   1  11
TORSDOF 4
ENDMDL
MODEL 8
REMARK VINA RESULT:    -5.215      5.336      7.641
REMARK INTER + INTRA:          -7.126
REMARK INTER:                  -5.577
REMARK INTRA:                  -1.549
REMARK UNBOUND:                -0.691
REMARK SMILES CC(C)=CCC[C@H](C)c1ccc(C)cc1
REMARK SMILES IDX 6 1 7 2 8 3 9 4 13 5 12 6 11 7 14 8 10 9 15 10 5 11 4 12
REMARK SMILES IDX 2 13 1 14 3 15
REMARK H PARENT
REMARK Flexibility Score: inf
ROOT
ATOM      1  C   UNL     1     -23.784  -0.616  12.838  1.00  0.00     0.012 C 
ENDROOT
BRANCH   1   2
ATOM      2  C   UNL     1     -22.305  -0.338  13.199  1.00  0.00     0.016 C 
ATOM      3  C   UNL     1     -21.339  -0.717  12.066  1.00  0.00     0.013 C 
BRANCH   2   4
ATOM      4  C   UNL     1     -21.932  -1.069  14.478  1.00  0.00    -0.045 A 
ATOM      5  C   UNL     1     -20.899  -3.137  18.126  1.00  0.00     0.044 C 
ATOM      6  C   UNL     1     -21.268  -2.446  16.847  1.00  0.00    -0.051 A 
ATOM      7  C   UNL     1     -20.326  -2.317  15.817  1.00  0.00     0.004 A 
ATOM      8  C   UNL     1     -22.535  -1.864  16.698  1.00  0.00     0.004 A 
ATOM      9  C   UNL     1     -20.657  -1.642  14.639  1.00  0.00     0.004 A 
ATOM     10  C   UNL     1     -22.867  -1.187  15.521  1.00  0.00     0.004 A 
ENDBRANCH   2   4
ENDBRANCH   1   2
BRANCH   1  11
ATOM     11  C   UNL     1     -24.010  -1.966  12.130  1.00  0.00     0.028 C 
BRANCH  11  12
ATOM     12  C   UNL     1     -24.796  -2.936  12.981  1.00  0.00    -0.028 C 
ATOM     13  C   UNL     1     -24.276  -4.045  13.554  1.00  0.00    -0.080 C 
ATOM     14  C   UNL     1     -25.190  -4.928  14.365  1.00  0.00     0.039 C 
ATOM     15  C   UNL     1     -22.813  -4.402  13.432  1.00  0.00     0.039 C 
ENDBRANCH  11  12
ENDBRANCH   1  11
TORSDOF 4
ENDMDL
MODEL 9
REMARK VINA RESULT:    -5.180      5.014      7.351
REMARK INTER + INTRA:          -7.082
REMARK INTER:                  -6.576
REMARK INTRA:                  -0.506
REMARK UNBOUND:                -0.691
REMARK SMILES CC(C)=CCC[C@H](C)c1ccc(C)cc1
REMARK SMILES IDX 6 1 7 2 8 3 9 4 13 5 12 6 11 7 14 8 10 9 15 10 5 11 4 12
REMARK SMILES IDX 2 13 1 14 3 15
REMARK H PARENT
REMARK Flexibility Score: inf
ROOT
ATOM      1  C   UNL     1     -23.550  -0.399  12.588  1.00  0.00     0.012 C 
ENDROOT
BRANCH   1   2
ATOM      2  C   UNL     1     -22.045  -0.512  12.932  1.00  0.00     0.016 C 
ATOM      3  C   UNL     1     -21.165  -0.688  11.685  1.00  0.00     0.013 C 
BRANCH   2   4
ATOM      4  C   UNL     1     -21.815  -1.654  13.907  1.00  0.00    -0.045 A 
ATOM      5  C   UNL     1     -21.136  -4.887  16.691  1.00  0.00     0.044 C 
ATOM      6  C   UNL     1     -21.394  -3.753  15.742  1.00  0.00    -0.051 A 
ATOM      7  C   UNL     1     -22.292  -3.915  14.678  1.00  0.00     0.004 A 
ATOM      8  C   UNL     1     -20.691  -2.547  15.872  1.00  0.00     0.004 A 
ATOM      9  C   UNL     1     -22.507  -2.873  13.772  1.00  0.00     0.004 A 
ATOM     10  C   UNL     1     -20.904  -1.504  14.967  1.00  0.00     0.004 A 
ENDBRANCH   2   4
ENDBRANCH   1   2
BRANCH   1  11
ATOM     11  C   UNL     1     -24.201   0.916  13.060  1.00  0.00     0.028 C 
BRANCH  11  12
ATOM     12  C   UNL     1     -24.861   1.668  11.928  1.00  0.00    -0.028 C 
ATOM     13  C   UNL     1     -26.124   1.448  11.499  1.00  0.00    -0.080 C 
ATOM     14  C   UNL     1     -26.643   2.268  10.345  1.00  0.00     0.039 C 
ATOM     15  C   UNL     1     -27.032   0.435  12.158  1.00  0.00     0.039 C 
ENDBRANCH  11  12
ENDBRANCH   1  11
TORSDOF 4
ENDMDL
