MODEL 1
REMARK VINA RESULT:    -6.771      0.000      0.000
REMARK INTER + INTRA:          -9.967
REMARK INTER:                  -9.146
REMARK INTRA:                  -0.821
REMARK UNBOUND:                -0.821
REMARK SMILES CC(=O)CCC=C(C)CCC=C(C)C
REMARK SMILES IDX 7 1 6 2 8 3 9 4 10 5 11 6 13 7 12 8 14 9 5 10 4 11 2 12 3 13
REMARK SMILES IDX 1 14
REMARK H PARENT
REMARK Flexibility Score: inf
ROOT
ATOM      1  C   UNL     1     109.594  48.566  61.551  1.00  0.00    -0.077 C 
ATOM      2  C   UNL     1     110.096  47.822  62.562  1.00  0.00    -0.028 C 
ATOM      3  C   UNL     1     108.399  48.102  60.753  1.00  0.00     0.039 C 
ENDROOT
BRANCH   1   4
ATOM      4  C   UNL     1     110.250  49.885  61.208  1.00  0.00     0.034 C 
BRANCH   4   5
ATOM      5  C   UNL     1     109.823  50.981  62.192  1.00  0.00     0.032 C 
BRANCH   5   6
ATOM      6  C   UNL     1     108.972  52.026  61.512  1.00  0.00    -0.028 C 
ATOM      7  C   UNL     1     106.864  50.981  62.349  1.00  0.00     0.039 C 
ATOM      8  C   UNL     1     107.624  52.034  61.578  1.00  0.00    -0.080 C 
ATOM      9  C   UNL     1     106.870  53.125  60.862  1.00  0.00     0.039 C 
ENDBRANCH   5   6
ENDBRANCH   4   5
ENDBRANCH   1   4
BRANCH   2  10
ATOM     10  C   UNL     1     109.510  46.493  62.978  1.00  0.00     0.035 C 
BRANCH  10  11
ATOM     11  C   UNL     1     109.514  46.340  64.505  1.00  0.00     0.079 C 
BRANCH  11  12
ATOM     12  C   UNL     1     108.977  47.539  65.256  1.00  0.00     0.130 C 
ATOM     13  O   UNL     1     109.527  47.865  66.297  1.00  0.00    -0.300 OA
ATOM     14  C   UNL     1     107.801  48.345  64.777  1.00  0.00     0.087 C 
ENDBRANCH  11  12
ENDBRANCH  10  11
ENDBRANCH   2  10
TORSDOF 6
ENDMDL
MODEL 2
REMARK VINA RESULT:    -6.344      1.229      3.312
REMARK INTER + INTRA:          -9.390
REMARK INTER:                  -8.594
REMARK INTRA:                  -0.796
REMARK UNBOUND:                -0.821
REMARK SMILES CC(=O)CCC=C(C)CCC=C(C)C
REMARK SMILES IDX 7 1 6 2 8 3 9 4 10 5 11 6 13 7 12 8 14 9 5 10 4 11 2 12 3 13
REMARK SMILES IDX 1 14
REMARK H PARENT
REMARK Flexibility Score: inf
ROOT
ATOM      1  C   UNL     1     108.511  51.226  63.639  1.00  0.00    -0.077 C 
ATOM      2  C   UNL     1     107.499  50.486  64.142  1.00  0.00    -0.028 C 
ATOM      3  C   UNL     1     109.929  51.054  64.129  1.00  0.00     0.039 C 
ENDROOT
BRANCH   1   4
ATOM      4  C   UNL     1     108.215  52.255  62.569  1.00  0.00     0.034 C 
BRANCH   4   5
ATOM      5  C   UNL     1     108.643  51.746  61.188  1.00  0.00     0.032 C 
BRANCH   5   6
ATOM      6  C   UNL     1     108.018  50.408  60.879  1.00  0.00    -0.028 C 
ATOM      7  C   UNL     1     110.128  49.194  61.434  1.00  0.00     0.039 C 
ATOM      8  C   UNL     1     108.686  49.240  60.987  1.00  0.00    -0.080 C 
ATOM      9  C   UNL     1     107.966  47.959  60.653  1.00  0.00     0.039 C 
ENDBRANCH   5   6
ENDBRANCH   4   5
ENDBRANCH   1   4
BRANCH   2  10
ATOM     10  C   UNL     1     107.696  49.436  65.210  1.00  0.00     0.035 C 
BRANCH  10  11
ATOM     11  C   UNL     1     107.727  48.027  64.604  1.00  0.00     0.079 C 
BRANCH  11  12
ATOM     12  C   UNL     1     109.007  47.263  64.862  1.00  0.00     0.130 C 
ATOM     13  O   UNL     1     109.601  47.466  65.911  1.00  0.00    -0.300 OA
ATOM     14  C   UNL     1     109.578  46.268  63.890  1.00  0.00     0.087 C 
ENDBRANCH  11  12
ENDBRANCH  10  11
ENDBRANCH   2  10
TORSDOF 6
ENDMDL
MODEL 3
REMARK VINA RESULT:    -6.256      1.708      4.576
REMARK INTER + INTRA:          -9.272
REMARK INTER:                  -8.699
REMARK INTRA:                  -0.573
REMARK UNBOUND:                -0.821
REMARK SMILES CC(=O)CCC=C(C)CCC=C(C)C
REMARK SMILES IDX 7 1 6 2 8 3 9 4 10 5 11 6 13 7 12 8 14 9 5 10 4 11 2 12 3 13
REMARK SMILES IDX 1 14
REMARK H PARENT
REMARK Flexibility Score: inf
ROOT
ATOM      1  C   UNL     1     108.807  47.465  64.920  1.00  0.00    -0.077 C 
ATOM      2  C   UNL     1     107.876  48.237  64.317  1.00  0.00    -0.028 C 
ATOM      3  C   UNL     1     109.510  47.919  66.177  1.00  0.00     0.039 C 
ENDROOT
BRANCH   1   4
ATOM      4  C   UNL     1     109.157  46.122  64.317  1.00  0.00     0.034 C 
BRANCH   4   5
ATOM      5  C   UNL     1     109.548  46.269  62.842  1.00  0.00     0.032 C 
BRANCH   5   6
ATOM      6  C   UNL     1     110.181  47.612  62.574  1.00  0.00    -0.028 C 
ATOM      7  C   UNL     1     108.585  48.093  60.715  1.00  0.00     0.039 C 
ATOM      8  C   UNL     1     109.750  48.450  61.607  1.00  0.00    -0.080 C 
ATOM      9  C   UNL     1     110.455  49.769  61.425  1.00  0.00     0.039 C 
ENDBRANCH   5   6
ENDBRANCH   4   5
ENDBRANCH   1   4
BRANCH   2  10
ATOM     10  C   UNL     1     107.460  49.590  64.843  1.00  0.00     0.035 C 
BRANCH  10  11
ATOM     11  C   UNL     1     107.954  50.717  63.925  1.00  0.00     0.079 C 
BRANCH  11  12
ATOM     12  C   UNL     1     107.100  50.941  62.696  1.00  0.00     0.130 C 
ATOM     13  O   UNL     1     105.983  50.445  62.669  1.00  0.00    -0.300 OA
ATOM     14  C   UNL     1     107.563  51.745  61.513  1.00  0.00     0.087 C 
ENDBRANCH  11  12
ENDBRANCH  10  11
ENDBRANCH   2  10
TORSDOF 6
ENDMDL
MODEL 4
REMARK VINA RESULT:    -6.180      1.726      4.603
REMARK INTER + INTRA:          -9.169
REMARK INTER:                  -8.507
REMARK INTRA:                  -0.662
REMARK UNBOUND:                -0.821
REMARK SMILES CC(=O)CCC=C(C)CCC=C(C)C
REMARK SMILES IDX 7 1 6 2 8 3 9 4 10 5 11 6 13 7 12 8 14 9 5 10 4 11 2 12 3 13
REMARK SMILES IDX 1 14
REMARK H PARENT
REMARK Flexibility Score: inf
ROOT
ATOM      1  C   UNL     1     109.510  48.132  61.516  1.00  0.00    -0.077 C 
ATOM      2  C   UNL     1     110.197  49.205  61.965  1.00  0.00    -0.028 C 
ATOM      3  C   UNL     1     108.373  48.282  60.534  1.00  0.00     0.039 C 
ENDROOT
BRANCH   1   4
ATOM      4  C   UNL     1     109.883  46.753  62.015  1.00  0.00     0.034 C 
BRANCH   4   5
ATOM      5  C   UNL     1     109.397  46.541  63.453  1.00  0.00     0.032 C 
BRANCH   5   6
ATOM      6  C   UNL     1     108.427  47.621  63.869  1.00  0.00    -0.028 C 
ATOM      7  C   UNL     1     109.466  47.807  66.131  1.00  0.00     0.039 C 
ATOM      8  C   UNL     1     108.450  48.202  65.086  1.00  0.00    -0.080 C 
ATOM      9  C   UNL     1     107.435  49.272  65.397  1.00  0.00     0.039 C 
ENDBRANCH   5   6
ENDBRANCH   4   5
ENDBRANCH   1   4
BRANCH   2  10
ATOM     10  C   UNL     1     109.899  50.619  61.525  1.00  0.00     0.035 C 
BRANCH  10  11
ATOM     11  C   UNL     1     108.988  51.332  62.533  1.00  0.00     0.079 C 
BRANCH  11  12
ATOM     12  C   UNL     1     107.583  51.589  62.033  1.00  0.00     0.130 C 
ATOM     13  O   UNL     1     106.695  50.824  62.380  1.00  0.00    -0.300 OA
ATOM     14  C   UNL     1     107.232  52.740  61.131  1.00  0.00     0.087 C 
ENDBRANCH  11  12
ENDBRANCH  10  11
ENDBRANCH   2  10
TORSDOF 6
ENDMDL
MODEL 5
REMARK VINA RESULT:    -6.042      1.671      4.693
REMARK INTER + INTRA:          -8.983
REMARK INTER:                  -8.269
REMARK INTRA:                  -0.714
REMARK UNBOUND:                -0.821
REMARK SMILES CC(=O)CCC=C(C)CCC=C(C)C
REMARK SMILES IDX 7 1 6 2 8 3 9 4 10 5 11 6 13 7 12 8 14 9 5 10 4 11 2 12 3 13
REMARK SMILES IDX 1 14
REMARK H PARENT
REMARK Flexibility Score: inf
ROOT
ATOM      1  C   UNL     1     107.902  48.765  61.242  1.00  0.00    -0.077 C 
ATOM      2  C   UNL     1     108.316  49.983  60.825  1.00  0.00    -0.028 C 
ATOM      3  C   UNL     1     106.680  48.608  62.114  1.00  0.00     0.039 C 
ENDROOT
BRANCH   1   4
ATOM      4  C   UNL     1     108.686  47.537  60.833  1.00  0.00     0.034 C 
BRANCH   4   5
ATOM      5  C   UNL     1     109.858  47.292  61.790  1.00  0.00     0.032 C 
BRANCH   5   6
ATOM      6  C   UNL     1     109.577  47.864  63.158  1.00  0.00    -0.028 C 
ATOM      7  C   UNL     1     109.268  45.591  64.143  1.00  0.00     0.039 C 
ATOM      8  C   UNL     1     109.307  47.098  64.235  1.00  0.00    -0.080 C 
ATOM      9  C   UNL     1     109.041  47.772  65.557  1.00  0.00     0.039 C 
ENDBRANCH   5   6
ENDBRANCH   4   5
ENDBRANCH   1   4
BRANCH   2  10
ATOM     10  C   UNL     1     107.600  51.264  61.181  1.00  0.00     0.035 C 
BRANCH  10  11
ATOM     11  C   UNL     1     108.430  52.109  62.157  1.00  0.00     0.079 C 
BRANCH  11  12
ATOM     12  C   UNL     1     108.820  51.391  63.430  1.00  0.00     0.130 C 
ATOM     13  O   UNL     1     107.931  51.006  64.174  1.00  0.00    -0.300 OA
ATOM     14  C   UNL     1     110.250  51.129  63.817  1.00  0.00     0.087 C 
ENDBRANCH  11  12
ENDBRANCH  10  11
ENDBRANCH   2  10
TORSDOF 6
ENDMDL
MODEL 6
REMARK VINA RESULT:    -5.825      1.638      3.393
REMARK INTER + INTRA:          -8.690
REMARK INTER:                  -7.964
REMARK INTRA:                  -0.726
REMARK UNBOUND:                -0.821
REMARK SMILES CC(=O)CCC=C(C)CCC=C(C)C
REMARK SMILES IDX 7 1 6 2 8 3 9 4 10 5 11 6 13 7 12 8 14 9 5 10 4 11 2 12 3 13
REMARK SMILES IDX 1 14
REMARK H PARENT
REMARK Flexibility Score: inf
ROOT
ATOM      1  C   UNL     1     108.510  48.210  65.129  1.00  0.00    -0.077 C 
ATOM      2  C   UNL     1     108.387  47.410  64.046  1.00  0.00    -0.028 C 
ATOM      3  C   UNL     1     109.514  47.910  66.216  1.00  0.00     0.039 C 
ENDROOT
BRANCH   1   4
ATOM      4  C   UNL     1     107.617  49.425  65.257  1.00  0.00     0.034 C 
BRANCH   4   5
ATOM      5  C   UNL     1     107.286  50.008  63.878  1.00  0.00     0.032 C 
BRANCH   5   6
ATOM      6  C   UNL     1     108.507  50.614  63.231  1.00  0.00    -0.028 C 
ATOM      7  C   UNL     1     107.238  51.177  61.156  1.00  0.00     0.039 C 
ATOM      8  C   UNL     1     108.495  51.148  61.992  1.00  0.00    -0.080 C 
ATOM      9  C   UNL     1     109.773  51.727  61.440  1.00  0.00     0.039 C 
ENDBRANCH   5   6
ENDBRANCH   4   5
ENDBRANCH   1   4
BRANCH   2  10
ATOM     10  C   UNL     1     109.232  46.178  63.831  1.00  0.00     0.035 C 
BRANCH  10  11
ATOM     11  C   UNL     1     109.790  46.131  62.402  1.00  0.00     0.079 C 
BRANCH  11  12
ATOM     12  C   UNL     1     109.721  47.449  61.661  1.00  0.00     0.130 C 
ATOM     13  O   UNL     1     110.550  48.306  61.926  1.00  0.00    -0.300 OA
ATOM     14  C   UNL     1     108.681  47.747  60.616  1.00  0.00     0.087 C 
ENDBRANCH  11  12
ENDBRANCH  10  11
ENDBRANCH   2  10
TORSDOF 6
ENDMDL
MODEL 7
REMARK VINA RESULT:    -5.823      1.962      5.517
REMARK INTER + INTRA:          -8.687
REMARK INTER:                  -8.146
REMARK INTRA:                  -0.541
REMARK UNBOUND:                -0.821
REMARK SMILES CC(=O)CCC=C(C)CCC=C(C)C
REMARK SMILES IDX 7 1 6 2 8 3 9 4 10 5 11 6 13 7 12 8 14 9 5 10 4 11 2 12 3 13
REMARK SMILES IDX 1 14
REMARK H PARENT
REMARK Flexibility Score: inf
ROOT
ATOM      1  C   UNL     1     108.056  50.179  64.120  1.00  0.00    -0.077 C 
ATOM      2  C   UNL     1     107.082  50.379  63.205  1.00  0.00    -0.028 C 
ATOM      3  C   UNL     1     109.355  50.948  64.065  1.00  0.00     0.039 C 
ENDROOT
BRANCH   1   4
ATOM      4  C   UNL     1     107.844  49.157  65.216  1.00  0.00     0.034 C 
BRANCH   4   5
ATOM      5  C   UNL     1     109.162  48.462  65.578  1.00  0.00     0.032 C 
BRANCH   5   6
ATOM      6  C   UNL     1     109.041  46.962  65.458  1.00  0.00    -0.028 C 
ATOM      7  C   UNL     1     109.833  46.999  63.091  1.00  0.00     0.039 C 
ATOM      8  C   UNL     1     109.344  46.287  64.329  1.00  0.00    -0.080 C 
ATOM      9  C   UNL     1     109.187  44.788  64.317  1.00  0.00     0.039 C 
ENDBRANCH   5   6
ENDBRANCH   4   5
ENDBRANCH   1   4
BRANCH   2  10
ATOM     10  C   UNL     1     107.202  51.376  62.077  1.00  0.00     0.035 C 
BRANCH  10  11
ATOM     11  C   UNL     1     107.433  50.669  60.735  1.00  0.00     0.079 C 
BRANCH  11  12
ATOM     12  C   UNL     1     108.446  49.546  60.787  1.00  0.00     0.130 C 
ATOM     13  O   UNL     1     109.602  49.821  61.069  1.00  0.00    -0.300 OA
ATOM     14  C   UNL     1     108.092  48.110  60.509  1.00  0.00     0.087 C 
ENDBRANCH  11  12
ENDBRANCH  10  11
ENDBRANCH   2  10
TORSDOF 6
ENDMDL
MODEL 8
REMARK VINA RESULT:    -5.753      1.353      1.816
REMARK INTER + INTRA:          -8.592
REMARK INTER:                  -7.688
REMARK INTRA:                  -0.904
REMARK UNBOUND:                -0.821
REMARK SMILES CC(=O)CCC=C(C)CCC=C(C)C
REMARK SMILES IDX 7 1 6 2 8 3 9 4 10 5 11 6 13 7 12 8 14 9 5 10 4 11 2 12 3 13
REMARK SMILES IDX 1 14
REMARK H PARENT
REMARK Flexibility Score: inf
ROOT
ATOM      1  C   UNL     1     109.664  48.486  61.495  1.00  0.00    -0.077 C 
ATOM      2  C   UNL     1     110.219  47.602  62.354  1.00  0.00    -0.028 C 
ATOM      3  C   UNL     1     108.421  48.143  60.709  1.00  0.00     0.039 C 
ENDROOT
BRANCH   1   4
ATOM      4  C   UNL     1     110.307  49.844  61.312  1.00  0.00     0.034 C 
BRANCH   4   5
ATOM      5  C   UNL     1     109.333  50.966  61.690  1.00  0.00     0.032 C 
BRANCH   5   6
ATOM      6  C   UNL     1     108.892  50.847  63.129  1.00  0.00    -0.028 C 
ATOM      7  C   UNL     1     106.499  50.583  62.466  1.00  0.00     0.039 C 
ATOM      8  C   UNL     1     107.604  50.674  63.492  1.00  0.00    -0.080 C 
ATOM      9  C   UNL     1     107.272  50.567  64.958  1.00  0.00     0.039 C 
ENDBRANCH   5   6
ENDBRANCH   4   5
ENDBRANCH   1   4
BRANCH   2  10
ATOM     10  C   UNL     1     109.650  46.226  62.602  1.00  0.00     0.035 C 
BRANCH  10  11
ATOM     11  C   UNL     1     109.434  45.978  64.102  1.00  0.00     0.079 C 
BRANCH  11  12
ATOM     12  C   UNL     1     108.795  47.135  64.840  1.00  0.00     0.130 C 
ATOM     13  O   UNL     1     107.702  47.530  64.462  1.00  0.00    -0.300 OA
ATOM     14  C   UNL     1     109.442  47.815  66.014  1.00  0.00     0.087 C 
ENDBRANCH  11  12
ENDBRANCH  10  11
ENDBRANCH   2  10
TORSDOF 6
ENDMDL
MODEL 9
REMARK VINA RESULT:    -5.356      2.369      5.411
REMARK INTER + INTRA:          -8.057
REMARK INTER:                  -7.785
REMARK INTRA:                  -0.272
REMARK UNBOUND:                -0.821
REMARK SMILES CC(=O)CCC=C(C)CCC=C(C)C
REMARK SMILES IDX 7 1 6 2 8 3 9 4 10 5 11 6 13 7 12 8 14 9 5 10 4 11 2 12 3 13
REMARK SMILES IDX 1 14
REMARK H PARENT
REMARK Flexibility Score: inf
ROOT
ATOM      1  C   UNL     1     108.336  49.227  62.010  1.00  0.00    -0.077 C 
ATOM      2  C   UNL     1     109.047  50.193  62.631  1.00  0.00    -0.028 C 
ATOM      3  C   UNL     1     106.835  49.141  62.154  1.00  0.00     0.039 C 
ENDROOT
BRANCH   1   4
ATOM      4  C   UNL     1     109.060  48.206  61.160  1.00  0.00     0.034 C 
BRANCH   4   5
ATOM      5  C   UNL     1     109.761  47.162  62.037  1.00  0.00     0.032 C 
BRANCH   5   6
ATOM      6  C   UNL     1     109.760  47.576  63.488  1.00  0.00    -0.028 C 
ATOM      7  C   UNL     1     109.160  45.271  64.237  1.00  0.00     0.039 C 
ATOM      8  C   UNL     1     109.486  46.722  64.497  1.00  0.00    -0.080 C 
ATOM      9  C   UNL     1     109.512  47.240  65.912  1.00  0.00     0.039 C 
ENDBRANCH   5   6
ENDBRANCH   4   5
ENDBRANCH   1   4
BRANCH   2  10
ATOM     10  C   UNL     1     108.414  51.255  63.499  1.00  0.00     0.035 C 
BRANCH  10  11
ATOM     11  C   UNL     1     108.794  52.663  63.018  1.00  0.00     0.079 C 
BRANCH  11  12
ATOM     12  C   UNL     1     108.506  52.922  61.555  1.00  0.00     0.130 C 
ATOM     13  O   UNL     1     109.449  53.124  60.806  1.00  0.00    -0.300 OA
ATOM     14  C   UNL     1     107.114  52.941  60.986  1.00  0.00     0.087 C 
ENDBRANCH  11  12
ENDBRANCH  10  11
ENDBRANCH   2  10
TORSDOF 6
ENDMDL
