MODEL 1
REMARK VINA RESULT:    -3.334      0.000      0.000
REMARK INTER + INTRA:          -3.673
REMARK INTER:                  -3.627
REMARK INTRA:                  -0.046
REMARK UNBOUND:                -0.046
REMARK SMILES COc1ccccc1O
REMARK SMILES IDX 3 1 4 2 5 3 6 4 7 5 8 6 2 7 1 8 9 9
REMARK H PARENT 9 10
REMARK Flexibility Score: inf
ROOT
ATOM      1  C   UNL     1     -93.947 -18.124 -63.587  1.00  0.00     0.160 A 
ATOM      2  C   UNL     1     -94.797 -18.622 -64.596  1.00  0.00     0.050 A 
ATOM      3  C   UNL     1     -95.754 -17.791 -65.186  1.00  0.00     0.004 A 
ATOM      4  C   UNL     1     -95.873 -16.461 -64.780  1.00  0.00     0.004 A 
ATOM      5  C   UNL     1     -95.036 -15.958 -63.782  1.00  0.00     0.050 A 
ATOM      6  C   UNL     1     -94.075 -16.781 -63.184  1.00  0.00     0.157 A 
ENDROOT
BRANCH   1   7
ATOM      7  O   UNL     1     -92.975 -18.928 -62.971  1.00  0.00    -0.493 OA
ATOM      8  C   UNL     1     -91.707 -19.240 -63.539  1.00  0.00     0.278 C 
ENDBRANCH   1   7
BRANCH   6   9
ATOM      9  O   UNL     1     -93.255 -16.246 -62.190  1.00  0.00    -0.504 OA
ATOM     10  H   UNL     1     -92.335 -16.620 -61.990  1.00  0.00     0.293 HD
ENDBRANCH   6   9
TORSDOF 2
ENDMDL
MODEL 2
REMARK VINA RESULT:    -3.275      2.954      3.873
REMARK INTER + INTRA:          -3.608
REMARK INTER:                  -3.574
REMARK INTRA:                  -0.035
REMARK UNBOUND:                -0.046
REMARK SMILES COc1ccccc1O
REMARK SMILES IDX 3 1 4 2 5 3 6 4 7 5 8 6 2 7 1 8 9 9
REMARK H PARENT 9 10
REMARK Flexibility Score: inf
ROOT
ATOM      1  C   UNL     1     -96.858 -17.526 -64.408  1.00  0.00     0.160 A 
ATOM      2  C   UNL     1     -96.183 -18.312 -63.451  1.00  0.00     0.050 A 
ATOM      3  C   UNL     1     -95.020 -17.835 -62.839  1.00  0.00     0.004 A 
ATOM      4  C   UNL     1     -94.520 -16.575 -63.171  1.00  0.00     0.004 A 
ATOM      5  C   UNL     1     -95.181 -15.789 -64.117  1.00  0.00     0.050 A 
ATOM      6  C   UNL     1     -96.345 -16.256 -64.737  1.00  0.00     0.157 A 
ENDROOT
BRANCH   1   7
ATOM      7  O   UNL     1     -98.027 -17.972 -65.044  1.00  0.00    -0.493 OA
ATOM      8  C   UNL     1     -98.153 -19.220 -65.719  1.00  0.00     0.278 C 
ENDBRANCH   1   7
BRANCH   6   9
ATOM      9  O   UNL     1     -96.980 -15.445 -65.677  1.00  0.00    -0.504 OA
ATOM     10  H   UNL     1     -96.878 -15.593 -66.674  1.00  0.00     0.293 HD
ENDBRANCH   6   9
TORSDOF 2
ENDMDL
MODEL 3
REMARK VINA RESULT:    -3.229     10.948     11.932
REMARK INTER + INTRA:          -3.559
REMARK INTER:                  -3.532
REMARK INTRA:                  -0.027
REMARK UNBOUND:                -0.046
REMARK SMILES COc1ccccc1O
REMARK SMILES IDX 3 1 4 2 5 3 6 4 7 5 8 6 2 7 1 8 9 9
REMARK H PARENT 9 10
REMARK Flexibility Score: inf
ROOT
ATOM      1  C   UNL     1    -101.262  -8.853 -66.324  1.00  0.00     0.160 A 
ATOM      2  C   UNL     1    -101.879  -8.191 -67.406  1.00  0.00     0.050 A 
ATOM      3  C   UNL     1    -101.219  -7.151 -68.066  1.00  0.00     0.004 A 
ATOM      4  C   UNL     1     -99.942  -6.760 -67.659  1.00  0.00     0.004 A 
ATOM      5  C   UNL     1     -99.322  -7.409 -66.589  1.00  0.00     0.050 A 
ATOM      6  C   UNL     1     -99.974  -8.451 -65.920  1.00  0.00     0.157 A 
ENDROOT
BRANCH   1   7
ATOM      7  O   UNL     1    -101.894  -9.901 -65.637  1.00  0.00    -0.493 OA
ATOM      8  C   UNL     1    -103.305 -10.067 -65.540  1.00  0.00     0.278 C 
ENDBRANCH   1   7
BRANCH   6   9
ATOM      9  O   UNL     1     -99.325  -9.078 -64.856  1.00  0.00    -0.504 OA
ATOM     10  H   UNL     1     -98.526  -8.664 -64.392  1.00  0.00     0.293 HD
ENDBRANCH   6   9
TORSDOF 2
ENDMDL
MODEL 4
REMARK VINA RESULT:    -3.173      1.085      2.341
REMARK INTER + INTRA:          -3.497
REMARK INTER:                  -3.452
REMARK INTRA:                  -0.045
REMARK UNBOUND:                -0.046
REMARK SMILES COc1ccccc1O
REMARK SMILES IDX 3 1 4 2 5 3 6 4 7 5 8 6 2 7 1 8 9 9
REMARK H PARENT 9 10
REMARK Flexibility Score: inf
ROOT
ATOM      1  C   UNL     1     -94.168 -18.134 -63.730  1.00  0.00     0.160 A 
ATOM      2  C   UNL     1     -94.288 -16.819 -63.235  1.00  0.00     0.050 A 
ATOM      3  C   UNL     1     -95.194 -15.927 -63.815  1.00  0.00     0.004 A 
ATOM      4  C   UNL     1     -95.988 -16.332 -64.889  1.00  0.00     0.004 A 
ATOM      5  C   UNL     1     -95.877 -17.632 -65.387  1.00  0.00     0.050 A 
ATOM      6  C   UNL     1     -94.973 -18.534 -64.815  1.00  0.00     0.157 A 
ENDROOT
BRANCH   1   7
ATOM      7  O   UNL     1     -93.270 -19.058 -63.174  1.00  0.00    -0.493 OA
ATOM      8  C   UNL     1     -91.889 -19.146 -63.514  1.00  0.00     0.278 C 
ENDBRANCH   1   7
BRANCH   6   9
ATOM      9  O   UNL     1     -94.888 -19.824 -65.337  1.00  0.00    -0.504 OA
ATOM     10  H   UNL     1     -94.287 -20.532 -64.932  1.00  0.00     0.293 HD
ENDBRANCH   6   9
TORSDOF 2
ENDMDL
MODEL 5
REMARK VINA RESULT:    -3.154     15.594     16.107
REMARK INTER + INTRA:          -3.477
REMARK INTER:                  -3.431
REMARK INTRA:                  -0.045
REMARK UNBOUND:                -0.046
REMARK SMILES COc1ccccc1O
REMARK SMILES IDX 3 1 4 2 5 3 6 4 7 5 8 6 2 7 1 8 9 9
REMARK H PARENT 9 10
REMARK Flexibility Score: inf
ROOT
ATOM      1  C   UNL     1     -96.349 -16.357 -79.674  1.00  0.00     0.160 A 
ATOM      2  C   UNL     1     -95.706 -17.540 -80.092  1.00  0.00     0.050 A 
ATOM      3  C   UNL     1     -94.317 -17.663 -79.990  1.00  0.00     0.004 A 
ATOM      4  C   UNL     1     -93.558 -16.613 -79.472  1.00  0.00     0.004 A 
ATOM      5  C   UNL     1     -94.184 -15.436 -79.056  1.00  0.00     0.050 A 
ATOM      6  C   UNL     1     -95.574 -15.303 -79.153  1.00  0.00     0.157 A 
ENDROOT
BRANCH   1   7
ATOM      7  O   UNL     1     -97.741 -16.197 -79.762  1.00  0.00    -0.493 OA
ATOM      8  C   UNL     1     -98.682 -16.826 -78.897  1.00  0.00     0.278 C 
ENDBRANCH   1   7
BRANCH   6   9
ATOM      9  O   UNL     1     -96.168 -14.115 -78.728  1.00  0.00    -0.504 OA
ATOM     10  H   UNL     1     -96.260 -13.878 -77.748  1.00  0.00     0.293 HD
ENDBRANCH   6   9
TORSDOF 2
ENDMDL
MODEL 6
REMARK VINA RESULT:    -3.069      2.191      3.996
REMARK INTER + INTRA:          -3.384
REMARK INTER:                  -3.340
REMARK INTRA:                  -0.044
REMARK UNBOUND:                -0.046
REMARK SMILES COc1ccccc1O
REMARK SMILES IDX 3 1 4 2 5 3 6 4 7 5 8 6 2 7 1 8 9 9
REMARK H PARENT 9 10
REMARK Flexibility Score: inf
ROOT
ATOM      1  C   UNL     1     -95.404 -16.804 -63.915  1.00  0.00     0.160 A 
ATOM      2  C   UNL     1     -94.439 -16.793 -62.886  1.00  0.00     0.050 A 
ATOM      3  C   UNL     1     -93.449 -17.779 -62.837  1.00  0.00     0.004 A 
ATOM      4  C   UNL     1     -93.409 -18.781 -63.808  1.00  0.00     0.004 A 
ATOM      5  C   UNL     1     -94.360 -18.801 -64.831  1.00  0.00     0.050 A 
ATOM      6  C   UNL     1     -95.356 -17.819 -64.890  1.00  0.00     0.157 A 
ENDROOT
BRANCH   1   7
ATOM      7  O   UNL     1     -96.413 -15.831 -63.996  1.00  0.00    -0.493 OA
ATOM      8  C   UNL     1     -97.655 -15.897 -63.303  1.00  0.00     0.278 C 
ENDBRANCH   1   7
BRANCH   6   9
ATOM      9  O   UNL     1     -96.290 -17.868 -65.924  1.00  0.00    -0.504 OA
ATOM     10  H   UNL     1     -96.085 -18.303 -66.816  1.00  0.00     0.293 HD
ENDBRANCH   6   9
TORSDOF 2
ENDMDL
MODEL 7
REMARK VINA RESULT:    -2.916     15.581     16.369
REMARK INTER + INTRA:          -3.218
REMARK INTER:                  -3.185
REMARK INTRA:                  -0.033
REMARK UNBOUND:                -0.046
REMARK SMILES COc1ccccc1O
REMARK SMILES IDX 3 1 4 2 5 3 6 4 7 5 8 6 2 7 1 8 9 9
REMARK H PARENT 9 10
REMARK Flexibility Score: inf
ROOT
ATOM      1  C   UNL     1     -99.222 -16.082 -79.201  1.00  0.00     0.160 A 
ATOM      2  C   UNL     1     -98.860 -14.721 -79.283  1.00  0.00     0.050 A 
ATOM      3  C   UNL     1     -97.524 -14.337 -79.134  1.00  0.00     0.004 A 
ATOM      4  C   UNL     1     -96.539 -15.298 -78.903  1.00  0.00     0.004 A 
ATOM      5  C   UNL     1     -96.887 -16.648 -78.820  1.00  0.00     0.050 A 
ATOM      6  C   UNL     1     -98.221 -17.045 -78.967  1.00  0.00     0.157 A 
ENDROOT
BRANCH   1   7
ATOM      7  O   UNL     1    -100.553 -16.506 -79.344  1.00  0.00    -0.493 OA
ATOM      8  C   UNL     1    -101.662 -15.931 -78.661  1.00  0.00     0.278 C 
ENDBRANCH   1   7
BRANCH   6   9
ATOM      9  O   UNL     1     -98.534 -18.401 -78.879  1.00  0.00    -0.504 OA
ATOM     10  H   UNL     1     -97.841 -19.100 -78.641  1.00  0.00     0.293 HD
ENDBRANCH   6   9
TORSDOF 2
ENDMDL
MODEL 8
REMARK VINA RESULT:    -2.884     12.354     13.606
REMARK INTER + INTRA:          -3.183
REMARK INTER:                  -3.139
REMARK INTRA:                  -0.044
REMARK UNBOUND:                -0.046
REMARK SMILES COc1ccccc1O
REMARK SMILES IDX 3 1 4 2 5 3 6 4 7 5 8 6 2 7 1 8 9 9
REMARK H PARENT 9 10
REMARK Flexibility Score: inf
ROOT
ATOM      1  C   UNL     1    -100.098  -6.529 -68.644  1.00  0.00     0.160 A 
ATOM      2  C   UNL     1    -100.920  -5.386 -68.719  1.00  0.00     0.050 A 
ATOM      3  C   UNL     1    -101.186  -4.631 -67.573  1.00  0.00     0.004 A 
ATOM      4  C   UNL     1    -100.637  -5.004 -66.345  1.00  0.00     0.004 A 
ATOM      5  C   UNL     1     -99.821  -6.134 -66.259  1.00  0.00     0.050 A 
ATOM      6  C   UNL     1     -99.549  -6.898 -67.400  1.00  0.00     0.157 A 
ENDROOT
BRANCH   1   7
ATOM      7  O   UNL     1     -99.809  -7.311 -69.773  1.00  0.00    -0.493 OA
ATOM      8  C   UNL     1    -100.742  -8.172 -70.418  1.00  0.00     0.278 C 
ENDBRANCH   1   7
BRANCH   6   9
ATOM      9  O   UNL     1     -98.730  -8.020 -67.279  1.00  0.00    -0.504 OA
ATOM     10  H   UNL     1     -99.057  -8.885 -66.866  1.00  0.00     0.293 HD
ENDBRANCH   6   9
TORSDOF 2
ENDMDL
