MODEL 1
REMARK VINA RESULT:    -3.328      0.000      0.000
REMARK INTER + INTRA:          -4.168
REMARK INTER:                  -4.106
REMARK INTRA:                  -0.062
REMARK UNBOUND:                -0.062
REMARK SMILES CCCCCC(=O)[O-]
REMARK SMILES IDX 4 1 5 2 6 3 7 4 8 5 3 6 2 7 1 8
REMARK H PARENT
REMARK Flexibility Score: inf
ROOT
ATOM      1  C   UNL     1     -30.763 -14.023  12.920  1.00  0.00     0.006 C 
ENDROOT
BRANCH   1   2
ATOM      2  C   UNL     1     -30.419 -15.154  13.894  1.00  0.00     0.053 C 
BRANCH   2   3
ATOM      3  C   UNL     1     -30.419 -16.473  13.188  1.00  0.00     0.041 C 
ATOM      4  O   UNL     1     -30.785 -16.547  11.985  1.00  0.00    -0.550 OA
ATOM      5  O   UNL     1     -29.968 -17.612  13.842  1.00  0.00    -0.550 OA
ENDBRANCH   2   3
ENDBRANCH   1   2
BRANCH   1   6
ATOM      6  C   UNL     1     -30.795 -12.668  13.642  1.00  0.00     0.000 C 
BRANCH   6   7
ATOM      7  C   UNL     1     -30.941 -11.485  12.672  1.00  0.00    -0.003 C 
ATOM      8  C   UNL     1     -29.598 -10.865  12.291  1.00  0.00     0.004 C 
ENDBRANCH   6   7
ENDBRANCH   1   6
TORSDOF 4
ENDMDL
MODEL 2
REMARK VINA RESULT:    -3.322      2.593      5.217
REMARK INTER + INTRA:          -4.160
REMARK INTER:                  -4.106
REMARK INTRA:                  -0.054
REMARK UNBOUND:                -0.062
REMARK SMILES CCCCCC(=O)[O-]
REMARK SMILES IDX 4 1 5 2 6 3 7 4 8 5 3 6 2 7 1 8
REMARK H PARENT
REMARK Flexibility Score: inf
ROOT
ATOM      1  C   UNL     1     -30.205 -16.068  13.530  1.00  0.00     0.006 C 
ENDROOT
BRANCH   1   2
ATOM      2  C   UNL     1     -30.958 -14.948  12.806  1.00  0.00     0.053 C 
BRANCH   2   3
ATOM      3  C   UNL     1     -30.783 -13.648  13.524  1.00  0.00     0.041 C 
ATOM      4  O   UNL     1     -30.822 -13.608  14.782  1.00  0.00    -0.550 OA
ATOM      5  O   UNL     1     -30.525 -12.486  12.807  1.00  0.00    -0.550 OA
ENDBRANCH   2   3
ENDBRANCH   1   2
BRANCH   1   6
ATOM      6  C   UNL     1     -30.914 -17.417  13.342  1.00  0.00     0.000 C 
BRANCH   6   7
ATOM      7  C   UNL     1     -30.290 -18.535  14.192  1.00  0.00    -0.003 C 
ATOM      8  C   UNL     1     -30.386 -19.907  13.525  1.00  0.00     0.004 C 
ENDBRANCH   6   7
ENDBRANCH   1   6
TORSDOF 4
ENDMDL
MODEL 3
REMARK VINA RESULT:    -3.295      3.198      4.738
REMARK INTER + INTRA:          -4.127
REMARK INTER:                  -4.069
REMARK INTRA:                  -0.058
REMARK UNBOUND:                -0.062
REMARK SMILES CCCCCC(=O)[O-]
REMARK SMILES IDX 4 1 5 2 6 3 7 4 8 5 3 6 2 7 1 8
REMARK H PARENT
REMARK Flexibility Score: inf
ROOT
ATOM      1  C   UNL     1     -30.469 -18.734  14.246  1.00  0.00     0.006 C 
ENDROOT
BRANCH   1   2
ATOM      2  C   UNL     1     -31.065 -19.474  13.045  1.00  0.00     0.053 C 
BRANCH   2   3
ATOM      3  C   UNL     1     -30.749 -20.934  13.118  1.00  0.00     0.041 C 
ATOM      4  O   UNL     1     -30.788 -21.536  14.224  1.00  0.00    -0.550 OA
ATOM      5  O   UNL     1     -30.461 -21.642  11.958  1.00  0.00    -0.550 OA
ENDBRANCH   2   3
ENDBRANCH   1   2
BRANCH   1   6
ATOM      6  C   UNL     1     -31.026 -17.306  14.343  1.00  0.00     0.000 C 
BRANCH   6   7
ATOM      7  C   UNL     1     -30.189 -16.290  13.551  1.00  0.00    -0.003 C 
ATOM      8  C   UNL     1     -30.483 -14.844  13.949  1.00  0.00     0.004 C 
ENDBRANCH   6   7
ENDBRANCH   1   6
TORSDOF 4
ENDMDL
MODEL 4
REMARK VINA RESULT:    -3.170      3.483      6.626
REMARK INTER + INTRA:          -3.973
REMARK INTER:                  -3.929
REMARK INTRA:                  -0.043
REMARK UNBOUND:                -0.062
REMARK SMILES CCCCCC(=O)[O-]
REMARK SMILES IDX 4 1 5 2 6 3 7 4 8 5 3 6 2 7 1 8
REMARK H PARENT
REMARK Flexibility Score: inf
ROOT
ATOM      1  C   UNL     1     -30.475 -19.012  13.590  1.00  0.00     0.006 C 
ENDROOT
BRANCH   1   2
ATOM      2  C   UNL     1     -31.049 -17.718  14.174  1.00  0.00     0.053 C 
BRANCH   2   3
ATOM      3  C   UNL     1     -30.594 -16.536  13.379  1.00  0.00     0.041 C 
ATOM      4  O   UNL     1     -29.995 -15.584  13.945  1.00  0.00    -0.550 OA
ATOM      5  O   UNL     1     -30.785 -16.508  12.003  1.00  0.00    -0.550 OA
ENDBRANCH   2   3
ENDBRANCH   1   2
BRANCH   1   6
ATOM      6  C   UNL     1     -31.125 -20.243  14.238  1.00  0.00     0.000 C 
BRANCH   6   7
ATOM      7  C   UNL     1     -30.751 -21.553  13.527  1.00  0.00    -0.003 C 
ATOM      8  C   UNL     1     -30.852 -22.772  14.442  1.00  0.00     0.004 C 
ENDBRANCH   6   7
ENDBRANCH   1   6
TORSDOF 4
ENDMDL
MODEL 5
REMARK VINA RESULT:    -2.937      3.102      4.972
REMARK INTER + INTRA:          -3.686
REMARK INTER:                  -3.638
REMARK INTRA:                  -0.048
REMARK UNBOUND:                -0.062
REMARK SMILES CCCCCC(=O)[O-]
REMARK SMILES IDX 4 1 5 2 6 3 7 4 8 5 3 6 2 7 1 8
REMARK H PARENT
REMARK Flexibility Score: inf
ROOT
ATOM      1  C   UNL     1     -30.770 -13.609  12.753  1.00  0.00     0.006 C 
ENDROOT
BRANCH   1   2
ATOM      2  C   UNL     1     -30.737 -12.289  13.531  1.00  0.00     0.053 C 
BRANCH   2   3
ATOM      3  C   UNL     1     -30.313 -11.165  12.640  1.00  0.00     0.041 C 
ATOM      4  O   UNL     1     -29.244 -11.248  11.981  1.00  0.00    -0.550 OA
ATOM      5  O   UNL     1     -31.125 -10.046  12.498  1.00  0.00    -0.550 OA
ENDBRANCH   2   3
ENDBRANCH   1   2
BRANCH   1   6
ATOM      6  C   UNL     1     -30.755 -14.810  13.709  1.00  0.00     0.000 C 
BRANCH   6   7
ATOM      7  C   UNL     1     -30.593 -16.149  12.973  1.00  0.00    -0.003 C 
ATOM      8  C   UNL     1     -29.994 -17.242  13.858  1.00  0.00     0.004 C 
ENDBRANCH   6   7
ENDBRANCH   1   6
TORSDOF 4
ENDMDL
MODEL 6
REMARK VINA RESULT:    -2.738     18.887     19.395
REMARK INTER + INTRA:          -3.440
REMARK INTER:                  -3.384
REMARK INTRA:                  -0.056
REMARK UNBOUND:                -0.062
REMARK SMILES CCCCCC(=O)[O-]
REMARK SMILES IDX 4 1 5 2 6 3 7 4 8 5 3 6 2 7 1 8
REMARK H PARENT
REMARK Flexibility Score: inf
ROOT
ATOM      1  C   UNL     1     -12.014 -17.890  18.606  1.00  0.00     0.006 C 
ENDROOT
BRANCH   1   2
ATOM      2  C   UNL     1     -12.799 -19.136  19.026  1.00  0.00     0.053 C 
BRANCH   2   3
ATOM      3  C   UNL     1     -13.223 -19.032  20.456  1.00  0.00     0.041 C 
ATOM      4  O   UNL     1     -12.887 -18.033  21.146  1.00  0.00    -0.550 OA
ATOM      5  O   UNL     1     -14.033 -20.014  21.015  1.00  0.00    -0.550 OA
ENDBRANCH   2   3
ENDBRANCH   1   2
BRANCH   1   6
ATOM      6  C   UNL     1     -11.576 -17.986  17.137  1.00  0.00     0.000 C 
BRANCH   6   7
ATOM      7  C   UNL     1     -11.365 -16.607  16.492  1.00  0.00    -0.003 C 
ATOM      8  C   UNL     1     -11.952 -16.517  15.085  1.00  0.00     0.004 C 
ENDBRANCH   6   7
ENDBRANCH   1   6
TORSDOF 4
ENDMDL
MODEL 7
REMARK VINA RESULT:    -2.715     18.967     19.322
REMARK INTER + INTRA:          -3.412
REMARK INTER:                  -3.360
REMARK INTRA:                  -0.052
REMARK UNBOUND:                -0.062
REMARK SMILES CCCCCC(=O)[O-]
REMARK SMILES IDX 4 1 5 2 6 3 7 4 8 5 3 6 2 7 1 8
REMARK H PARENT
REMARK Flexibility Score: inf
ROOT
ATOM      1  C   UNL     1     -12.017 -19.019  18.527  1.00  0.00     0.006 C 
ENDROOT
BRANCH   1   2
ATOM      2  C   UNL     1     -13.093 -19.045  19.616  1.00  0.00     0.053 C 
BRANCH   2   3
ATOM      3  C   UNL     1     -13.568 -20.444  19.852  1.00  0.00     0.041 C 
ATOM      4  O   UNL     1     -13.950 -20.798  20.999  1.00  0.00    -0.550 OA
ATOM      5  O   UNL     1     -13.636 -21.343  18.795  1.00  0.00    -0.550 OA
ENDBRANCH   2   3
ENDBRANCH   1   2
BRANCH   1   6
ATOM      6  C   UNL     1     -11.977 -17.654  17.826  1.00  0.00     0.000 C 
BRANCH   6   7
ATOM      7  C   UNL     1     -11.244 -17.704  16.476  1.00  0.00    -0.003 C 
ATOM      8  C   UNL     1     -11.786 -16.688  15.472  1.00  0.00     0.004 C 
ENDBRANCH   6   7
ENDBRANCH   1   6
TORSDOF 4
ENDMDL
MODEL 8
REMARK VINA RESULT:    -2.703     18.557     19.182
REMARK INTER + INTRA:          -3.397
REMARK INTER:                  -3.344
REMARK INTRA:                  -0.053
REMARK UNBOUND:                -0.062
REMARK SMILES CCCCCC(=O)[O-]
REMARK SMILES IDX 4 1 5 2 6 3 7 4 8 5 3 6 2 7 1 8
REMARK H PARENT
REMARK Flexibility Score: inf
ROOT
ATOM      1  C   UNL     1     -11.611 -16.219  15.833  1.00  0.00     0.006 C 
ENDROOT
BRANCH   1   2
ATOM      2  C   UNL     1     -11.935 -16.381  14.345  1.00  0.00     0.053 C 
BRANCH   2   3
ATOM      3  C   UNL     1     -12.357 -15.073  13.754  1.00  0.00     0.041 C 
ATOM      4  O   UNL     1     -12.309 -14.895  12.508  1.00  0.00    -0.550 OA
ATOM      5  O   UNL     1     -12.852 -14.067  14.575  1.00  0.00    -0.550 OA
ENDBRANCH   2   3
ENDBRANCH   1   2
BRANCH   1   6
ATOM      6  C   UNL     1     -11.453 -17.587  16.512  1.00  0.00     0.000 C 
BRANCH   6   7
ATOM      7  C   UNL     1     -11.451 -17.488  18.046  1.00  0.00    -0.003 C 
ATOM      8  C   UNL     1     -12.504 -18.385  18.697  1.00  0.00     0.004 C 
ENDBRANCH   6   7
ENDBRANCH   1   6
TORSDOF 4
ENDMDL
MODEL 9
REMARK VINA RESULT:    -2.559     19.076     19.670
REMARK INTER + INTRA:          -3.220
REMARK INTER:                  -3.167
REMARK INTRA:                  -0.053
REMARK UNBOUND:                -0.062
REMARK SMILES CCCCCC(=O)[O-]
REMARK SMILES IDX 4 1 5 2 6 3 7 4 8 5 3 6 2 7 1 8
REMARK H PARENT
REMARK Flexibility Score: inf
ROOT
ATOM      1  C   UNL     1     -12.005 -17.678  17.869  1.00  0.00     0.006 C 
ENDROOT
BRANCH   1   2
ATOM      2  C   UNL     1     -11.302 -17.721  16.509  1.00  0.00     0.053 C 
BRANCH   2   3
ATOM      3  C   UNL     1     -11.580 -16.472  15.735  1.00  0.00     0.041 C 
ATOM      4  O   UNL     1     -12.037 -16.541  14.563  1.00  0.00    -0.550 OA
ATOM      5  O   UNL     1     -11.383 -15.229  16.325  1.00  0.00    -0.550 OA
ENDBRANCH   2   3
ENDBRANCH   1   2
BRANCH   1   6
ATOM      6  C   UNL     1     -11.914 -19.037  18.578  1.00  0.00     0.000 C 
BRANCH   6   7
ATOM      7  C   UNL     1     -13.186 -19.377  19.370  1.00  0.00    -0.003 C 
ATOM      8  C   UNL     1     -13.555 -20.857  19.288  1.00  0.00     0.004 C 
ENDBRANCH   6   7
ENDBRANCH   1   6
TORSDOF 4
ENDMDL
