MODEL 1
REMARK VINA RESULT:     0.870      0.000      0.000
REMARK INTER + INTRA:           0.894
REMARK INTER:                   1.531
REMARK INTRA:                  -0.637
REMARK UNBOUND:                -0.637
REMARK SMILES CCCCCCCCCCCCCCC(=O)[O-]
REMARK SMILES IDX 9 1 10 2 11 3 12 4 13 5 14 6 15 7 16 8 17 9 8 10 7 11 6 12
REMARK SMILES IDX 5 13 4 14 3 15 2 16 1 17
REMARK H PARENT
REMARK Flexibility Score: inf
ROOT
ATOM      1  C   UNL     1      32.627  22.077  28.335  1.00  0.00     0.000 C 
ENDROOT
BRANCH   1   2
ATOM      2  C   UNL     1      33.546  22.230  27.113  1.00  0.00     0.000 C 
BRANCH   2   3
ATOM      3  C   UNL     1      34.035  23.674  26.916  1.00  0.00     0.000 C 
BRANCH   3   4
ATOM      4  C   UNL     1      35.163  24.055  27.887  1.00  0.00     0.000 C 
BRANCH   4   5
ATOM      5  C   UNL     1      36.528  24.006  27.189  1.00  0.00     0.006 C 
BRANCH   5   6
ATOM      6  C   UNL     1      36.938  22.562  26.885  1.00  0.00     0.053 C 
BRANCH   6   7
ATOM      7  C   UNL     1      37.065  21.775  28.151  1.00  0.00     0.041 C 
ATOM      8  O   UNL     1      37.125  20.518  28.112  1.00  0.00    -0.550 OA
ATOM      9  O   UNL     1      37.065  22.427  29.378  1.00  0.00    -0.550 OA
ENDBRANCH   6   7
ENDBRANCH   5   6
ENDBRANCH   4   5
ENDBRANCH   3   4
ENDBRANCH   2   3
ENDBRANCH   1   2
BRANCH   1  10
ATOM     10  C   UNL     1      31.437  21.166  28.015  1.00  0.00     0.000 C 
BRANCH  10  11
ATOM     11  C   UNL     1      30.438  21.869  27.087  1.00  0.00    -0.000 C 
BRANCH  11  12
ATOM     12  C   UNL     1      30.052  23.249  27.639  1.00  0.00    -0.000 C 
BRANCH  12  13
ATOM     13  C   UNL     1      28.976  23.168  28.734  1.00  0.00    -0.000 C 
BRANCH  13  14
ATOM     14  C   UNL     1      29.320  24.025  29.965  1.00  0.00    -0.000 C 
BRANCH  14  15
ATOM     15  C   UNL     1      30.835  24.125  30.218  1.00  0.00    -0.000 C 
BRANCH  15  16
ATOM     16  C   UNL     1      31.262  23.885  31.677  1.00  0.00    -0.003 C 
ATOM     17  C   UNL     1      30.084  23.867  32.650  1.00  0.00     0.004 C 
ENDBRANCH  15  16
ENDBRANCH  14  15
ENDBRANCH  13  14
ENDBRANCH  12  13
ENDBRANCH  11  12
ENDBRANCH  10  11
ENDBRANCH   1  10
TORSDOF 13
ENDMDL
