MODEL 1
REMARK VINA RESULT:    -3.828      0.000      0.000
REMARK INTER + INTRA:          -4.926
REMARK INTER:                  -4.612
REMARK INTRA:                  -0.314
REMARK UNBOUND:                -0.314
REMARK SMILES O=c1c(O)c(-c2ccc(O)c(O)c2)oc2cc(O)cc(O)c12
REMARK SMILES IDX 5 1 3 2 2 3 1 4 22 5 20 6 19 7 17 8 16 9 15 10 14 11 6 12
REMARK SMILES IDX 7 13 8 14 9 15 13 16 11 17 10 18 12 20 4 22 21 24 18 26
REMARK H PARENT 10 19 12 21 4 23 21 25 18 27
REMARK Flexibility Score: inf
ROOT
ATOM      1  C   UNL     1    -100.549  24.110 -29.155  1.00  0.00     0.180 A 
ATOM      2  C   UNL     1    -101.201  23.901 -30.386  1.00  0.00     0.208 A 
ATOM      3  C   UNL     1    -102.526  24.337 -30.534  1.00  0.00     0.238 A 
ATOM      4  O   UNL     1    -103.117  24.164 -31.635  1.00  0.00    -0.285 OA
ATOM      5  C   UNL     1    -103.182  24.954 -29.449  1.00  0.00     0.111 A 
ATOM      6  C   UNL     1    -104.518  25.418 -29.515  1.00  0.00     0.134 A 
ATOM      7  C   UNL     1    -105.104  26.013 -28.387  1.00  0.00     0.093 A 
ATOM      8  C   UNL     1    -104.383  26.153 -27.200  1.00  0.00     0.123 A 
ATOM      9  C   UNL     1    -103.063  25.696 -27.128  1.00  0.00     0.094 A 
ATOM     10  C   UNL     1    -102.461  25.102 -28.242  1.00  0.00     0.146 A 
ATOM     11  O   UNL     1    -101.205  24.682 -28.149  1.00  0.00    -0.452 OA
ENDROOT
BRANCH   1  12
ATOM     12  C   UNL     1     -99.145  23.695 -28.928  1.00  0.00     0.025 A 
ATOM     13  C   UNL     1     -98.103  24.532 -29.350  1.00  0.00     0.016 A 
ATOM     14  C   UNL     1     -96.772  24.151 -29.165  1.00  0.00     0.051 A 
ATOM     15  C   UNL     1     -96.457  22.925 -28.571  1.00  0.00     0.157 A 
ATOM     16  C   UNL     1     -98.833  22.452 -28.352  1.00  0.00     0.062 A 
ATOM     17  C   UNL     1     -97.501  22.060 -28.166  1.00  0.00     0.158 A 
BRANCH  15  18
ATOM     18  O   UNL     1     -95.107  22.606 -28.408  1.00  0.00    -0.504 OA
ATOM     19  H   UNL     1     -94.744  22.064 -27.639  1.00  0.00     0.293 HD
ENDBRANCH  15  18
BRANCH  17  20
ATOM     20  O   UNL     1     -97.264  20.812 -27.585  1.00  0.00    -0.504 OA
ATOM     21  H   UNL     1     -96.470  20.604 -26.999  1.00  0.00     0.293 HD
ENDBRANCH  17  20
ENDBRANCH   1  12
BRANCH   2  22
ATOM     22  O   UNL     1    -100.544  23.242 -31.429  1.00  0.00    -0.502 OA
ATOM     23  H   UNL     1    -100.463  23.642 -32.356  1.00  0.00     0.293 HD
ENDBRANCH   2  22
BRANCH   6  24
ATOM     24  O   UNL     1    -105.266  25.292 -30.686  1.00  0.00    -0.507 OA
ATOM     25  H   UNL     1    -104.840  25.379 -31.602  1.00  0.00     0.293 HD
ENDBRANCH   6  24
BRANCH   8  26
ATOM     26  O   UNL     1    -104.988  26.747 -26.094  1.00  0.00    -0.508 OA
ATOM     27  H   UNL     1    -105.659  27.499 -26.197  1.00  0.00     0.293 HD
ENDBRANCH   8  26
TORSDOF 6
ENDMDL
MODEL 2
REMARK VINA RESULT:    -3.777      2.934      4.047
REMARK INTER + INTRA:          -4.864
REMARK INTER:                  -4.558
REMARK INTRA:                  -0.306
REMARK UNBOUND:                -0.314
REMARK SMILES O=c1c(O)c(-c2ccc(O)c(O)c2)oc2cc(O)cc(O)c12
REMARK SMILES IDX 5 1 3 2 2 3 1 4 22 5 20 6 19 7 17 8 16 9 15 10 14 11 6 12
REMARK SMILES IDX 7 13 8 14 9 15 13 16 11 17 10 18 12 20 4 22 21 24 18 26
REMARK H PARENT 10 19 12 21 4 23 21 25 18 27
REMARK Flexibility Score: inf
ROOT
ATOM      1  C   UNL     1     -98.103  24.983 -28.293  1.00  0.00     0.180 A 
ATOM      2  C   UNL     1     -99.411  24.471 -28.397  1.00  0.00     0.208 A 
ATOM      3  C   UNL     1    -100.428  25.045 -27.618  1.00  0.00     0.238 A 
ATOM      4  O   UNL     1    -101.605  24.602 -27.710  1.00  0.00    -0.285 OA
ATOM      5  C   UNL     1    -100.119  26.103 -26.738  1.00  0.00     0.111 A 
ATOM      6  C   UNL     1    -101.084  26.733 -25.916  1.00  0.00     0.134 A 
ATOM      7  C   UNL     1    -100.694  27.774 -25.059  1.00  0.00     0.093 A 
ATOM      8  C   UNL     1     -99.364  28.194 -25.008  1.00  0.00     0.123 A 
ATOM      9  C   UNL     1     -98.406  27.576 -25.818  1.00  0.00     0.094 A 
ATOM     10  C   UNL     1     -98.774  26.538 -26.680  1.00  0.00     0.146 A 
ATOM     11  O   UNL     1     -97.847  25.971 -27.442  1.00  0.00    -0.452 OA
ENDROOT
BRANCH   1  12
ATOM     12  C   UNL     1     -96.982  24.443 -29.096  1.00  0.00     0.025 A 
ATOM     13  C   UNL     1     -96.818  24.865 -30.423  1.00  0.00     0.016 A 
ATOM     14  C   UNL     1     -95.780  24.353 -31.204  1.00  0.00     0.051 A 
ATOM     15  C   UNL     1     -94.898  23.401 -30.683  1.00  0.00     0.157 A 
ATOM     16  C   UNL     1     -96.112  23.469 -28.576  1.00  0.00     0.062 A 
ATOM     17  C   UNL     1     -95.070  22.947 -29.354  1.00  0.00     0.158 A 
BRANCH  15  18
ATOM     18  O   UNL     1     -93.877  22.934 -31.514  1.00  0.00    -0.504 OA
ATOM     19  H   UNL     1     -93.557  21.977 -31.531  1.00  0.00     0.293 HD
ENDBRANCH  15  18
BRANCH  17  20
ATOM     20  O   UNL     1     -94.242  21.985 -28.772  1.00  0.00    -0.504 OA
ATOM     21  H   UNL     1     -94.453  20.998 -28.748  1.00  0.00     0.293 HD
ENDBRANCH  17  20
ENDBRANCH   1  12
BRANCH   2  22
ATOM     22  O   UNL     1     -99.681  23.390 -29.240  1.00  0.00    -0.502 OA
ATOM     23  H   UNL     1     -99.411  23.382 -30.216  1.00  0.00     0.293 HD
ENDBRANCH   2  22
BRANCH   6  24
ATOM     24  O   UNL     1    -102.421  26.335 -25.943  1.00  0.00    -0.507 OA
ATOM     25  H   UNL     1    -102.937  26.259 -26.813  1.00  0.00     0.293 HD
ENDBRANCH   6  24
BRANCH   8  26
ATOM     26  O   UNL     1     -99.004  29.230 -24.148  1.00  0.00    -0.508 OA
ATOM     27  H   UNL     1     -99.175  30.200 -24.385  1.00  0.00     0.293 HD
ENDBRANCH   8  26
TORSDOF 6
ENDMDL
MODEL 3
REMARK VINA RESULT:    -3.777      1.236      3.009
REMARK INTER + INTRA:          -4.863
REMARK INTER:                  -4.532
REMARK INTRA:                  -0.331
REMARK UNBOUND:                -0.314
REMARK SMILES O=c1c(O)c(-c2ccc(O)c(O)c2)oc2cc(O)cc(O)c12
REMARK SMILES IDX 5 1 3 2 2 3 1 4 22 5 20 6 19 7 17 8 16 9 15 10 14 11 6 12
REMARK SMILES IDX 7 13 8 14 9 15 13 16 11 17 10 18 12 20 4 22 21 24 18 26
REMARK H PARENT 10 19 12 21 4 23 21 25 18 27
REMARK Flexibility Score: inf
ROOT
ATOM      1  C   UNL     1    -100.608  24.045 -29.168  1.00  0.00     0.180 A 
ATOM      2  C   UNL     1    -101.325  24.806 -28.224  1.00  0.00     0.208 A 
ATOM      3  C   UNL     1    -102.660  25.142 -28.497  1.00  0.00     0.238 A 
ATOM      4  O   UNL     1    -103.315  25.814 -27.654  1.00  0.00    -0.285 OA
ATOM      5  C   UNL     1    -103.248  24.731 -29.711  1.00  0.00     0.111 A 
ATOM      6  C   UNL     1    -104.585  25.032 -30.064  1.00  0.00     0.134 A 
ATOM      7  C   UNL     1    -105.094  24.596 -31.297  1.00  0.00     0.093 A 
ATOM      8  C   UNL     1    -104.295  23.868 -32.180  1.00  0.00     0.123 A 
ATOM      9  C   UNL     1    -102.972  23.567 -31.837  1.00  0.00     0.094 A 
ATOM     10  C   UNL     1    -102.447  23.992 -30.613  1.00  0.00     0.146 A 
ATOM     11  O   UNL     1    -101.191  23.689 -30.309  1.00  0.00    -0.452 OA
ENDROOT
BRANCH   1  12
ATOM     12  C   UNL     1     -99.203  23.635 -28.943  1.00  0.00     0.025 A 
ATOM     13  C   UNL     1     -98.164  24.453 -29.412  1.00  0.00     0.016 A 
ATOM     14  C   UNL     1     -96.832  24.076 -29.228  1.00  0.00     0.051 A 
ATOM     15  C   UNL     1     -96.511  22.873 -28.591  1.00  0.00     0.157 A 
ATOM     16  C   UNL     1     -98.885  22.415 -28.323  1.00  0.00     0.062 A 
ATOM     17  C   UNL     1     -97.552  22.027 -28.138  1.00  0.00     0.158 A 
BRANCH  15  18
ATOM     18  O   UNL     1     -95.160  22.558 -28.433  1.00  0.00    -0.504 OA
ATOM     19  H   UNL     1     -94.735  21.708 -28.773  1.00  0.00     0.293 HD
ENDBRANCH  15  18
BRANCH  17  20
ATOM     20  O   UNL     1     -97.310  20.803 -27.512  1.00  0.00    -0.504 OA
ATOM     21  H   UNL     1     -97.309  19.914 -27.991  1.00  0.00     0.293 HD
ENDBRANCH  17  20
ENDBRANCH   1  12
BRANCH   2  22
ATOM     22  O   UNL     1    -100.704  25.242 -27.051  1.00  0.00    -0.502 OA
ATOM     23  H   UNL     1    -100.844  24.781 -26.160  1.00  0.00     0.293 HD
ENDBRANCH   2  22
BRANCH   6  24
ATOM     24  O   UNL     1    -105.409  25.759 -29.204  1.00  0.00    -0.507 OA
ATOM     25  H   UNL     1    -106.218  26.268 -29.543  1.00  0.00     0.293 HD
ENDBRANCH   6  24
BRANCH   8  26
ATOM     26  O   UNL     1    -104.824  23.446 -33.398  1.00  0.00    -0.508 OA
ATOM     27  H   UNL     1    -104.313  22.823 -34.011  1.00  0.00     0.293 HD
ENDBRANCH   8  26
TORSDOF 6
ENDMDL
MODEL 4
REMARK VINA RESULT:    -3.747      8.361     11.000
REMARK INTER + INTRA:          -4.827
REMARK INTER:                  -4.496
REMARK INTRA:                  -0.331
REMARK UNBOUND:                -0.314
REMARK SMILES O=c1c(O)c(-c2ccc(O)c(O)c2)oc2cc(O)cc(O)c12
REMARK SMILES IDX 5 1 3 2 2 3 1 4 22 5 20 6 19 7 17 8 16 9 15 10 14 11 6 12
REMARK SMILES IDX 7 13 8 14 9 15 13 16 11 17 10 18 12 20 4 22 21 24 18 26
REMARK H PARENT 10 19 12 21 4 23 21 25 18 27
REMARK Flexibility Score: inf
ROOT
ATOM      1  C   UNL     1     -94.922  24.664 -36.674  1.00  0.00     0.180 A 
ATOM      2  C   UNL     1     -95.007  23.312 -37.058  1.00  0.00     0.208 A 
ATOM      3  C   UNL     1     -94.865  22.319 -36.076  1.00  0.00     0.238 A 
ATOM      4  O   UNL     1     -94.950  21.104 -36.406  1.00  0.00    -0.285 OA
ATOM      5  C   UNL     1     -94.623  22.692 -34.738  1.00  0.00     0.111 A 
ATOM      6  C   UNL     1     -94.464  21.753 -33.690  1.00  0.00     0.134 A 
ATOM      7  C   UNL     1     -94.216  22.204 -32.384  1.00  0.00     0.093 A 
ATOM      8  C   UNL     1     -94.123  23.569 -32.108  1.00  0.00     0.123 A 
ATOM      9  C   UNL     1     -94.279  24.501 -33.139  1.00  0.00     0.094 A 
ATOM     10  C   UNL     1     -94.528  24.072 -34.446  1.00  0.00     0.146 A 
ATOM     11  O   UNL     1     -94.678  24.977 -35.406  1.00  0.00    -0.452 OA
ENDROOT
BRANCH   1  12
ATOM     12  C   UNL     1     -95.079  25.769 -37.649  1.00  0.00     0.025 A 
ATOM     13  C   UNL     1     -93.940  26.341 -38.232  1.00  0.00     0.016 A 
ATOM     14  C   UNL     1     -94.064  27.396 -39.138  1.00  0.00     0.051 A 
ATOM     15  C   UNL     1     -95.322  27.910 -39.467  1.00  0.00     0.157 A 
ATOM     16  C   UNL     1     -96.344  26.298 -37.959  1.00  0.00     0.062 A 
ATOM     17  C   UNL     1     -96.478  27.358 -38.864  1.00  0.00     0.158 A 
BRANCH  15  18
ATOM     18  O   UNL     1     -95.378  28.961 -40.385  1.00  0.00    -0.504 OA
ATOM     19  H   UNL     1     -95.633  29.908 -40.144  1.00  0.00     0.293 HD
ENDBRANCH  15  18
BRANCH  17  20
ATOM     20  O   UNL     1     -97.765  27.832 -39.128  1.00  0.00    -0.504 OA
ATOM     21  H   UNL     1     -98.600  27.466 -38.696  1.00  0.00     0.293 HD
ENDBRANCH  17  20
ENDBRANCH   1  12
BRANCH   2  22
ATOM     22  O   UNL     1     -95.198  22.968 -38.399  1.00  0.00    -0.502 OA
ATOM     23  H   UNL     1     -96.114  22.964 -38.832  1.00  0.00     0.293 HD
ENDBRANCH   2  22
BRANCH   6  24
ATOM     24  O   UNL     1     -94.551  20.382 -33.934  1.00  0.00    -0.507 OA
ATOM     25  H   UNL     1     -95.167  19.782 -33.397  1.00  0.00     0.293 HD
ENDBRANCH   6  24
BRANCH   8  26
ATOM     26  O   UNL     1     -93.875  23.991 -30.803  1.00  0.00    -0.508 OA
ATOM     27  H   UNL     1     -94.000  23.370 -30.012  1.00  0.00     0.293 HD
ENDBRANCH   8  26
TORSDOF 6
ENDMDL
MODEL 5
REMARK VINA RESULT:    -3.741      2.866      4.546
REMARK INTER + INTRA:          -4.820
REMARK INTER:                  -4.507
REMARK INTRA:                  -0.313
REMARK UNBOUND:                -0.314
REMARK SMILES O=c1c(O)c(-c2ccc(O)c(O)c2)oc2cc(O)cc(O)c12
REMARK SMILES IDX 5 1 3 2 2 3 1 4 22 5 20 6 19 7 17 8 16 9 15 10 14 11 6 12
REMARK SMILES IDX 7 13 8 14 9 15 13 16 11 17 10 18 12 20 4 22 21 24 18 26
REMARK H PARENT 10 19 12 21 4 23 21 25 18 27
REMARK Flexibility Score: inf
ROOT
ATOM      1  C   UNL     1     -97.910  25.614 -27.717  1.00  0.00     0.180 A 
ATOM      2  C   UNL     1     -97.493  26.502 -26.706  1.00  0.00     0.208 A 
ATOM      3  C   UNL     1     -98.461  27.085 -25.874  1.00  0.00     0.238 A 
ATOM      4  O   UNL     1     -98.099  27.873 -24.959  1.00  0.00    -0.285 OA
ATOM      5  C   UNL     1     -99.825  26.787 -26.077  1.00  0.00     0.111 A 
ATOM      6  C   UNL     1    -100.862  27.336 -25.285  1.00  0.00     0.134 A 
ATOM      7  C   UNL     1    -102.197  26.997 -25.557  1.00  0.00     0.093 A 
ATOM      8  C   UNL     1    -102.513  26.126 -26.601  1.00  0.00     0.123 A 
ATOM      9  C   UNL     1    -101.492  25.581 -27.387  1.00  0.00     0.094 A 
ATOM     10  C   UNL     1    -100.156  25.904 -27.131  1.00  0.00     0.146 A 
ATOM     11  O   UNL     1     -99.205  25.369 -27.888  1.00  0.00    -0.452 OA
ENDROOT
BRANCH   1  12
ATOM     12  C   UNL     1     -96.946  24.946 -28.622  1.00  0.00     0.025 A 
ATOM     13  C   UNL     1     -96.782  25.426 -29.929  1.00  0.00     0.016 A 
ATOM     14  C   UNL     1     -95.894  24.799 -30.806  1.00  0.00     0.051 A 
ATOM     15  C   UNL     1     -95.168  23.674 -30.402  1.00  0.00     0.157 A 
ATOM     16  C   UNL     1     -96.236  23.801 -28.221  1.00  0.00     0.062 A 
ATOM     17  C   UNL     1     -95.346  23.164 -29.095  1.00  0.00     0.158 A 
BRANCH  15  18
ATOM     18  O   UNL     1     -94.292  23.097 -31.324  1.00  0.00    -0.504 OA
ATOM     19  H   UNL     1     -94.134  23.456 -32.254  1.00  0.00     0.293 HD
ENDBRANCH  15  18
BRANCH  17  20
ATOM     20  O   UNL     1     -94.672  22.033 -28.628  1.00  0.00    -0.504 OA
ATOM     21  H   UNL     1     -94.567  21.180 -29.156  1.00  0.00     0.293 HD
ENDBRANCH  17  20
ENDBRANCH   1  12
BRANCH   2  22
ATOM     22  O   UNL     1     -96.140  26.818 -26.558  1.00  0.00    -0.502 OA
ATOM     23  H   UNL     1     -95.807  27.456 -25.846  1.00  0.00     0.293 HD
ENDBRANCH   2  22
BRANCH   6  24
ATOM     24  O   UNL     1    -100.580  28.210 -24.236  1.00  0.00    -0.507 OA
ATOM     25  H   UNL     1     -99.925  28.977 -24.341  1.00  0.00     0.293 HD
ENDBRANCH   6  24
BRANCH   8  26
ATOM     26  O   UNL     1    -103.846  25.807 -26.851  1.00  0.00    -0.508 OA
ATOM     27  H   UNL     1    -104.123  25.295 -27.680  1.00  0.00     0.293 HD
ENDBRANCH   8  26
TORSDOF 6
ENDMDL
MODEL 6
REMARK VINA RESULT:    -3.737     12.067     13.731
REMARK INTER + INTRA:          -4.815
REMARK INTER:                  -4.815
REMARK INTRA:                   0.000
REMARK UNBOUND:                -0.314
REMARK SMILES O=c1c(O)c(-c2ccc(O)c(O)c2)oc2cc(O)cc(O)c12
REMARK SMILES IDX 5 1 3 2 2 3 1 4 22 5 20 6 19 7 17 8 16 9 15 10 14 11 6 12
REMARK SMILES IDX 7 13 8 14 9 15 13 16 11 17 10 18 12 20 4 22 21 24 18 26
REMARK H PARENT 10 19 12 21 4 23 21 25 18 27
REMARK Flexibility Score: inf
ROOT
ATOM      1  C   UNL     1     -99.251  24.987 -42.086  1.00  0.00     0.180 A 
ATOM      2  C   UNL     1     -99.107  25.516 -40.789  1.00  0.00     0.208 A 
ATOM      3  C   UNL     1    -100.031  26.472 -40.340  1.00  0.00     0.238 A 
ATOM      4  O   UNL     1     -99.918  26.945 -39.176  1.00  0.00    -0.285 OA
ATOM      5  C   UNL     1    -101.067  26.896 -41.197  1.00  0.00     0.111 A 
ATOM      6  C   UNL     1    -102.037  27.857 -40.823  1.00  0.00     0.134 A 
ATOM      7  C   UNL     1    -103.031  28.234 -41.738  1.00  0.00     0.093 A 
ATOM      8  C   UNL     1    -103.075  27.671 -43.015  1.00  0.00     0.123 A 
ATOM      9  C   UNL     1    -102.121  26.720 -43.390  1.00  0.00     0.094 A 
ATOM     10  C   UNL     1    -101.122  26.330 -42.492  1.00  0.00     0.146 A 
ATOM     11  O   UNL     1    -100.231  25.422 -42.872  1.00  0.00    -0.452 OA
ENDROOT
BRANCH   1  12
ATOM     12  C   UNL     1     -98.327  23.962 -42.624  1.00  0.00     0.025 A 
ATOM     13  C   UNL     1     -98.848  22.764 -43.133  1.00  0.00     0.016 A 
ATOM     14  C   UNL     1     -97.993  21.775 -43.626  1.00  0.00     0.051 A 
ATOM     15  C   UNL     1     -96.607  21.955 -43.606  1.00  0.00     0.157 A 
ATOM     16  C   UNL     1     -96.933  24.137 -42.580  1.00  0.00     0.062 A 
ATOM     17  C   UNL     1     -96.068  23.149 -43.069  1.00  0.00     0.158 A 
BRANCH  15  18
ATOM     18  O   UNL     1     -95.808  20.931 -44.120  1.00  0.00    -0.504 OA
ATOM     19  H   UNL     1     -94.933  21.085 -44.599  1.00  0.00     0.293 HD
ENDBRANCH  15  18
BRANCH  17  20
ATOM     20  O   UNL     1     -94.695  23.391 -42.997  1.00  0.00    -0.504 OA
ATOM     21  H   UNL     1     -94.032  22.759 -42.573  1.00  0.00     0.293 HD
ENDBRANCH  17  20
ENDBRANCH   1  12
BRANCH   2  22
ATOM     22  O   UNL     1     -98.042  25.115 -39.977  1.00  0.00    -0.502 OA
ATOM     23  H   UNL     1     -97.619  25.732 -39.294  1.00  0.00     0.293 HD
ENDBRANCH   2  22
BRANCH   6  24
ATOM     24  O   UNL     1    -102.019  28.440 -39.556  1.00  0.00    -0.507 OA
ATOM     25  H   UNL     1    -102.743  28.251 -38.872  1.00  0.00     0.293 HD
ENDBRANCH   6  24
BRANCH   8  26
ATOM     26  O   UNL     1    -104.074  28.062 -43.905  1.00  0.00    -0.508 OA
ATOM     27  H   UNL     1    -103.932  28.822 -44.560  1.00  0.00     0.293 HD
ENDBRANCH   8  26
TORSDOF 6
ENDMDL
MODEL 7
REMARK VINA RESULT:    -3.712      9.485     12.513
REMARK INTER + INTRA:          -4.786
REMARK INTER:                  -4.514
REMARK INTRA:                  -0.272
REMARK UNBOUND:                -0.314
REMARK SMILES O=c1c(O)c(-c2ccc(O)c(O)c2)oc2cc(O)cc(O)c12
REMARK SMILES IDX 5 1 3 2 2 3 1 4 22 5 20 6 19 7 17 8 16 9 15 10 14 11 6 12
REMARK SMILES IDX 7 13 8 14 9 15 13 16 11 17 10 18 12 20 4 22 21 24 18 26
REMARK H PARENT 10 19 12 21 4 23 21 25 18 27
REMARK Flexibility Score: inf
ROOT
ATOM      1  C   UNL     1    -100.154  27.320 -38.739  1.00  0.00     0.180 A 
ATOM      2  C   UNL     1    -100.354  26.101 -39.414  1.00  0.00     0.208 A 
ATOM      3  C   UNL     1     -99.248  25.451 -39.984  1.00  0.00     0.238 A 
ATOM      4  O   UNL     1     -99.413  24.353 -40.581  1.00  0.00    -0.285 OA
ATOM      5  C   UNL     1     -97.970  26.039 -39.886  1.00  0.00     0.111 A 
ATOM      6  C   UNL     1     -96.805  25.452 -40.436  1.00  0.00     0.134 A 
ATOM      7  C   UNL     1     -95.569  26.104 -40.306  1.00  0.00     0.093 A 
ATOM      8  C   UNL     1     -95.477  27.327 -39.639  1.00  0.00     0.123 A 
ATOM      9  C   UNL     1     -96.624  27.913 -39.094  1.00  0.00     0.094 A 
ATOM     10  C   UNL     1     -97.864  27.277 -39.212  1.00  0.00     0.146 A 
ATOM     11  O   UNL     1     -98.937  27.851 -38.681  1.00  0.00    -0.452 OA
ENDROOT
BRANCH   1  12
ATOM     12  C   UNL     1    -101.269  28.055 -38.096  1.00  0.00     0.025 A 
ATOM     13  C   UNL     1    -101.443  27.965 -36.708  1.00  0.00     0.016 A 
ATOM     14  C   UNL     1    -102.500  28.633 -36.084  1.00  0.00     0.051 A 
ATOM     15  C   UNL     1    -103.408  29.387 -36.833  1.00  0.00     0.157 A 
ATOM     16  C   UNL     1    -102.193  28.793 -38.855  1.00  0.00     0.062 A 
ATOM     17  C   UNL     1    -103.258  29.463 -38.238  1.00  0.00     0.158 A 
BRANCH  15  18
ATOM     18  O   UNL     1    -104.438  30.036 -36.148  1.00  0.00    -0.504 OA
ATOM     19  H   UNL     1    -105.308  29.596 -35.889  1.00  0.00     0.293 HD
ENDBRANCH  15  18
BRANCH  17  20
ATOM     20  O   UNL     1    -104.136  30.180 -39.053  1.00  0.00    -0.504 OA
ATOM     21  H   UNL     1    -104.258  30.009 -40.040  1.00  0.00     0.293 HD
ENDBRANCH  17  20
ENDBRANCH   1  12
BRANCH   2  22
ATOM     22  O   UNL     1    -101.639  25.565 -39.538  1.00  0.00    -0.502 OA
ATOM     23  H   UNL     1    -102.159  25.599 -40.407  1.00  0.00     0.293 HD
ENDBRANCH   2  22
BRANCH   6  24
ATOM     24  O   UNL     1     -96.864  24.231 -41.109  1.00  0.00    -0.507 OA
ATOM     25  H   UNL     1     -97.744  23.836 -41.421  1.00  0.00     0.293 HD
ENDBRANCH   6  24
BRANCH   8  26
ATOM     26  O   UNL     1     -94.237  27.955 -39.524  1.00  0.00    -0.508 OA
ATOM     27  H   UNL     1     -93.371  27.436 -39.599  1.00  0.00     0.293 HD
ENDBRANCH   8  26
TORSDOF 6
ENDMDL
MODEL 8
REMARK VINA RESULT:    -3.698     10.060     11.567
REMARK INTER + INTRA:          -4.769
REMARK INTER:                  -4.458
REMARK INTRA:                  -0.311
REMARK UNBOUND:                -0.314
REMARK SMILES O=c1c(O)c(-c2ccc(O)c(O)c2)oc2cc(O)cc(O)c12
REMARK SMILES IDX 5 1 3 2 2 3 1 4 22 5 20 6 19 7 17 8 16 9 15 10 14 11 6 12
REMARK SMILES IDX 7 13 8 14 9 15 13 16 11 17 10 18 12 20 4 22 21 24 18 26
REMARK H PARENT 10 19 12 21 4 23 21 25 18 27
REMARK Flexibility Score: inf
ROOT
ATOM      1  C   UNL     1     -99.606  27.435 -39.298  1.00  0.00     0.180 A 
ATOM      2  C   UNL     1    -100.372  27.246 -38.131  1.00  0.00     0.208 A 
ATOM      3  C   UNL     1    -101.770  27.339 -38.215  1.00  0.00     0.238 A 
ATOM      4  O   UNL     1    -102.466  27.161 -37.179  1.00  0.00    -0.285 OA
ATOM      5  C   UNL     1    -102.375  27.635 -39.453  1.00  0.00     0.111 A 
ATOM      6  C   UNL     1    -103.776  27.749 -39.622  1.00  0.00     0.134 A 
ATOM      7  C   UNL     1    -104.301  28.057 -40.887  1.00  0.00     0.093 A 
ATOM      8  C   UNL     1    -103.456  28.253 -41.981  1.00  0.00     0.123 A 
ATOM      9  C   UNL     1    -102.071  28.141 -41.820  1.00  0.00     0.094 A 
ATOM     10  C   UNL     1    -101.528  27.833 -40.569  1.00  0.00     0.146 A 
ATOM     11  O   UNL     1    -100.211  27.728 -40.445  1.00  0.00    -0.452 OA
ENDROOT
BRANCH   1  12
ATOM     12  C   UNL     1     -98.128  27.335 -39.293  1.00  0.00     0.025 A 
ATOM     13  C   UNL     1     -97.363  28.455 -38.937  1.00  0.00     0.016 A 
ATOM     14  C   UNL     1     -95.968  28.389 -38.945  1.00  0.00     0.051 A 
ATOM     15  C   UNL     1     -95.312  27.214 -39.322  1.00  0.00     0.157 A 
ATOM     16  C   UNL     1     -97.471  26.159 -39.695  1.00  0.00     0.062 A 
ATOM     17  C   UNL     1     -96.073  26.085 -39.709  1.00  0.00     0.158 A 
BRANCH  15  18
ATOM     18  O   UNL     1     -93.915  27.211 -39.302  1.00  0.00    -0.504 OA
ATOM     19  H   UNL     1     -93.341  26.753 -39.994  1.00  0.00     0.293 HD
ENDBRANCH  15  18
BRANCH  17  20
ATOM     20  O   UNL     1     -95.488  24.885 -40.117  1.00  0.00    -0.504 OA
ATOM     21  H   UNL     1     -95.381  24.608 -41.082  1.00  0.00     0.293 HD
ENDBRANCH  17  20
ENDBRANCH   1  12
BRANCH   2  22
ATOM     22  O   UNL     1     -99.744  27.002 -36.906  1.00  0.00    -0.502 OA
ATOM     23  H   UNL     1     -98.741  26.888 -36.824  1.00  0.00     0.293 HD
ENDBRANCH   2  22
BRANCH   6  24
ATOM     24  O   UNL     1    -104.647  27.561 -38.549  1.00  0.00    -0.507 OA
ATOM     25  H   UNL     1    -104.486  26.843 -37.851  1.00  0.00     0.293 HD
ENDBRANCH   6  24
BRANCH   8  26
ATOM     26  O   UNL     1    -104.004  28.557 -43.226  1.00  0.00    -0.508 OA
ATOM     27  H   UNL     1    -103.513  29.142 -43.892  1.00  0.00     0.293 HD
ENDBRANCH   8  26
TORSDOF 6
ENDMDL
MODEL 9
REMARK VINA RESULT:    -3.697     10.751     12.247
REMARK INTER + INTRA:          -4.767
REMARK INTER:                  -4.438
REMARK INTRA:                  -0.329
REMARK UNBOUND:                -0.314
REMARK SMILES O=c1c(O)c(-c2ccc(O)c(O)c2)oc2cc(O)cc(O)c12
REMARK SMILES IDX 5 1 3 2 2 3 1 4 22 5 20 6 19 7 17 8 16 9 15 10 14 11 6 12
REMARK SMILES IDX 7 13 8 14 9 15 13 16 11 17 10 18 12 20 4 22 21 24 18 26
REMARK H PARENT 10 19 12 21 4 23 21 25 18 27
REMARK Flexibility Score: inf
ROOT
ATOM      1  C   UNL     1     -98.342  25.878 -40.311  1.00  0.00     0.180 A 
ATOM      2  C   UNL     1     -98.377  24.887 -41.312  1.00  0.00     0.208 A 
ATOM      3  C   UNL     1     -99.480  24.837 -42.179  1.00  0.00     0.238 A 
ATOM      4  O   UNL     1     -99.517  23.961 -43.085  1.00  0.00    -0.285 OA
ATOM      5  C   UNL     1    -100.533  25.760 -42.019  1.00  0.00     0.111 A 
ATOM      6  C   UNL     1    -101.682  25.775 -42.847  1.00  0.00     0.134 A 
ATOM      7  C   UNL     1    -102.693  26.720 -42.618  1.00  0.00     0.093 A 
ATOM      8  C   UNL     1    -102.579  27.647 -41.580  1.00  0.00     0.123 A 
ATOM      9  C   UNL     1    -101.447  27.638 -40.759  1.00  0.00     0.094 A 
ATOM     10  C   UNL     1    -100.428  26.705 -40.972  1.00  0.00     0.146 A 
ATOM     11  O   UNL     1     -99.361  26.721 -40.181  1.00  0.00    -0.452 OA
ENDROOT
BRANCH   1  12
ATOM     12  C   UNL     1     -97.204  26.006 -39.371  1.00  0.00     0.025 A 
ATOM     13  C   UNL     1     -97.301  25.441 -38.092  1.00  0.00     0.016 A 
ATOM     14  C   UNL     1     -96.249  25.568 -37.182  1.00  0.00     0.051 A 
ATOM     15  C   UNL     1     -95.090  26.271 -37.526  1.00  0.00     0.157 A 
ATOM     16  C   UNL     1     -96.051  26.733 -39.712  1.00  0.00     0.062 A 
ATOM     17  C   UNL     1     -94.992  26.867 -38.805  1.00  0.00     0.158 A 
BRANCH  15  18
ATOM     18  O   UNL     1     -94.071  26.354 -36.574  1.00  0.00    -0.504 OA
ATOM     19  H   UNL     1     -93.373  25.640 -36.430  1.00  0.00     0.293 HD
ENDBRANCH  15  18
BRANCH  17  20
ATOM     20  O   UNL     1     -93.875  27.601 -39.212  1.00  0.00    -0.504 OA
ATOM     21  H   UNL     1     -93.578  28.464 -38.780  1.00  0.00     0.293 HD
ENDBRANCH  17  20
ENDBRANCH   1  12
BRANCH   2  22
ATOM     22  O   UNL     1     -97.342  23.953 -41.417  1.00  0.00    -0.502 OA
ATOM     23  H   UNL     1     -97.064  23.550 -42.304  1.00  0.00     0.293 HD
ENDBRANCH   2  22
BRANCH   6  24
ATOM     24  O   UNL     1    -101.826  24.861 -43.892  1.00  0.00    -0.507 OA
ATOM     25  H   UNL     1    -102.016  23.880 -43.720  1.00  0.00     0.293 HD
ENDBRANCH   6  24
BRANCH   8  26
ATOM     26  O   UNL     1    -103.597  28.576 -41.374  1.00  0.00    -0.508 OA
ATOM     27  H   UNL     1    -103.412  29.572 -41.358  1.00  0.00     0.293 HD
ENDBRANCH   8  26
TORSDOF 6
ENDMDL
