MODEL 1
REMARK VINA RESULT:    -5.541      0.000      0.000
REMARK INTER + INTRA:          -6.333
REMARK INTER:                  -6.188
REMARK INTRA:                  -0.145
REMARK UNBOUND:                -0.145
REMARK SMILES COc1cc2ccc(=O)oc2cc1OC
REMARK SMILES IDX 3 1 13 2 12 3 11 4 5 5 4 6 6 7 7 8 8 9 9 10 10 11 2 12 1 13
REMARK SMILES IDX 14 14 15 15
REMARK H PARENT
REMARK Flexibility Score: inf
ROOT
ATOM      1  C   UNL     1       4.926   2.116 -22.393  1.00  0.00     0.161 A 
ATOM      2  C   UNL     1       4.374   2.012 -23.682  1.00  0.00     0.164 A 
ATOM      3  C   UNL     1       4.236   0.744 -24.281  1.00  0.00     0.098 A 
ATOM      4  C   UNL     1       4.644  -0.407 -23.605  1.00  0.00     0.142 A 
ATOM      5  C   UNL     1       5.196  -0.303 -22.313  1.00  0.00     0.022 A 
ATOM      6  C   UNL     1       5.337   0.954 -21.711  1.00  0.00     0.062 A 
ATOM      7  C   UNL     1       5.595  -1.476 -21.661  1.00  0.00     0.019 A 
ATOM      8  C   UNL     1       5.435  -2.704 -22.302  1.00  0.00     0.094 A 
ATOM      9  C   UNL     1       4.878  -2.730 -23.586  1.00  0.00     0.336 A 
ATOM     10  O   UNL     1       4.725  -3.828 -24.181  1.00  0.00    -0.246 OA
ATOM     11  O   UNL     1       4.508  -1.600 -24.181  1.00  0.00    -0.423 OA
ENDROOT
BRANCH   1  12
ATOM     12  O   UNL     1       5.050   3.394 -21.825  1.00  0.00    -0.493 OA
ATOM     13  C   UNL     1       6.211   4.213 -21.923  1.00  0.00     0.278 C 
ENDBRANCH   1  12
BRANCH   2  14
ATOM     14  O   UNL     1       3.977   3.190 -24.331  1.00  0.00    -0.493 OA
ATOM     15  C   UNL     1       4.672   3.783 -25.425  1.00  0.00     0.278 C 
ENDBRANCH   2  14
TORSDOF 2
ENDMDL
MODEL 2
REMARK VINA RESULT:    -5.519      2.456      3.717
REMARK INTER + INTRA:          -6.309
REMARK INTER:                  -6.203
REMARK INTRA:                  -0.106
REMARK UNBOUND:                -0.145
REMARK SMILES COc1cc2ccc(=O)oc2cc1OC
REMARK SMILES IDX 3 1 13 2 12 3 11 4 5 5 4 6 6 7 7 8 8 9 9 10 10 11 2 12 1 13
REMARK SMILES IDX 14 14 15 15
REMARK H PARENT
REMARK Flexibility Score: inf
ROOT
ATOM      1  C   UNL     1       4.748  -0.805 -23.444  1.00  0.00     0.161 A 
ATOM      2  C   UNL     1       4.658  -1.625 -24.582  1.00  0.00     0.164 A 
ATOM      3  C   UNL     1       4.024  -2.880 -24.490  1.00  0.00     0.098 A 
ATOM      4  C   UNL     1       3.484  -3.314 -23.278  1.00  0.00     0.142 A 
ATOM      5  C   UNL     1       3.573  -2.491 -22.137  1.00  0.00     0.022 A 
ATOM      6  C   UNL     1       4.202  -1.243 -22.220  1.00  0.00     0.062 A 
ATOM      7  C   UNL     1       3.022  -2.954 -20.936  1.00  0.00     0.019 A 
ATOM      8  C   UNL     1       2.406  -4.205 -20.903  1.00  0.00     0.094 A 
ATOM      9  C   UNL     1       2.355  -4.966 -22.075  1.00  0.00     0.336 A 
ATOM     10  O   UNL     1       1.803  -6.096 -22.067  1.00  0.00    -0.246 OA
ATOM     11  O   UNL     1       2.887  -4.501 -23.202  1.00  0.00    -0.423 OA
ENDROOT
BRANCH   1  12
ATOM     12  O   UNL     1       5.386   0.439 -23.570  1.00  0.00    -0.493 OA
ATOM     13  C   UNL     1       5.777   1.261 -22.475  1.00  0.00     0.278 C 
ENDBRANCH   1  12
BRANCH   2  14
ATOM     14  O   UNL     1       5.213  -1.157 -25.783  1.00  0.00    -0.493 OA
ATOM     15  C   UNL     1       5.892  -1.975 -26.731  1.00  0.00     0.278 C 
ENDBRANCH   2  14
TORSDOF 2
ENDMDL
MODEL 3
REMARK VINA RESULT:    -5.398      2.301      5.290
REMARK INTER + INTRA:          -6.174
REMARK INTER:                  -6.071
REMARK INTRA:                  -0.103
REMARK UNBOUND:                -0.145
REMARK SMILES COc1cc2ccc(=O)oc2cc1OC
REMARK SMILES IDX 3 1 13 2 12 3 11 4 5 5 4 6 6 7 7 8 8 9 9 10 10 11 2 12 1 13
REMARK SMILES IDX 14 14 15 15
REMARK H PARENT
REMARK Flexibility Score: inf
ROOT
ATOM      1  C   UNL     1       3.111  -3.307 -23.039  1.00  0.00     0.161 A 
ATOM      2  C   UNL     1       2.636  -2.398 -24.000  1.00  0.00     0.164 A 
ATOM      3  C   UNL     1       3.176  -1.098 -24.059  1.00  0.00     0.098 A 
ATOM      4  C   UNL     1       4.179  -0.707 -23.171  1.00  0.00     0.142 A 
ATOM      5  C   UNL     1       4.656  -1.618 -22.207  1.00  0.00     0.022 A 
ATOM      6  C   UNL     1       4.124  -2.912 -22.143  1.00  0.00     0.062 A 
ATOM      7  C   UNL     1       5.662  -1.196 -21.331  1.00  0.00     0.019 A 
ATOM      8  C   UNL     1       6.160   0.103 -21.434  1.00  0.00     0.094 A 
ATOM      9  C   UNL     1       5.638   0.952 -22.416  1.00  0.00     0.336 A 
ATOM     10  O   UNL     1       6.073   2.127 -22.526  1.00  0.00    -0.246 OA
ATOM     11  O   UNL     1       4.682   0.524 -23.235  1.00  0.00    -0.423 OA
ENDROOT
BRANCH   1  12
ATOM     12  O   UNL     1       2.551  -4.594 -23.008  1.00  0.00    -0.493 OA
ATOM     13  C   UNL     1       2.870  -5.590 -22.042  1.00  0.00     0.278 C 
ENDBRANCH   1  12
BRANCH   2  14
ATOM     14  O   UNL     1       1.627  -2.826 -24.876  1.00  0.00    -0.493 OA
ATOM     15  C   UNL     1       0.648  -1.970 -25.460  1.00  0.00     0.278 C 
ENDBRANCH   2  14
TORSDOF 2
ENDMDL
MODEL 4
REMARK VINA RESULT:    -5.363      3.915      7.853
REMARK INTER + INTRA:          -6.135
REMARK INTER:                  -5.979
REMARK INTRA:                  -0.156
REMARK UNBOUND:                -0.145
REMARK SMILES COc1cc2ccc(=O)oc2cc1OC
REMARK SMILES IDX 3 1 13 2 12 3 11 4 5 5 4 6 6 7 7 8 8 9 9 10 10 11 2 12 1 13
REMARK SMILES IDX 14 14 15 15
REMARK H PARENT
REMARK Flexibility Score: inf
ROOT
ATOM      1  C   UNL     1       4.852   4.870 -22.533  1.00  0.00     0.161 A 
ATOM      2  C   UNL     1       4.345   4.914 -23.843  1.00  0.00     0.164 A 
ATOM      3  C   UNL     1       3.990   6.152 -24.413  1.00  0.00     0.098 A 
ATOM      4  C   UNL     1       4.138   7.335 -23.686  1.00  0.00     0.142 A 
ATOM      5  C   UNL     1       4.647   7.291 -22.373  1.00  0.00     0.022 A 
ATOM      6  C   UNL     1       5.002   6.063 -21.799  1.00  0.00     0.062 A 
ATOM      7  C   UNL     1       4.784   8.494 -21.670  1.00  0.00     0.019 A 
ATOM      8  C   UNL     1       4.417   9.691 -22.283  1.00  0.00     0.094 A 
ATOM      9  C   UNL     1       3.920   9.658 -23.590  1.00  0.00     0.336 A 
ATOM     10  O   UNL     1       3.583  10.726 -24.162  1.00  0.00    -0.246 OA
ATOM     11  O   UNL     1       3.800   8.500 -24.235  1.00  0.00    -0.423 OA
ENDROOT
BRANCH   1  12
ATOM     12  O   UNL     1       5.196   3.619 -21.995  1.00  0.00    -0.493 OA
ATOM     13  C   UNL     1       4.381   2.876 -21.094  1.00  0.00     0.278 C 
ENDBRANCH   1  12
BRANCH   2  14
ATOM     14  O   UNL     1       4.209   3.706 -24.543  1.00  0.00    -0.493 OA
ATOM     15  C   UNL     1       3.003   2.951 -24.625  1.00  0.00     0.278 C 
ENDBRANCH   2  14
TORSDOF 2
ENDMDL
MODEL 5
REMARK VINA RESULT:    -5.362      5.626      9.555
REMARK INTER + INTRA:          -6.134
REMARK INTER:                  -6.015
REMARK INTRA:                  -0.119
REMARK UNBOUND:                -0.145
REMARK SMILES COc1cc2ccc(=O)oc2cc1OC
REMARK SMILES IDX 3 1 13 2 12 3 11 4 5 5 4 6 6 7 7 8 8 9 9 10 10 11 2 12 1 13
REMARK SMILES IDX 14 14 15 15
REMARK H PARENT
REMARK Flexibility Score: inf
ROOT
ATOM      1  C   UNL     1       5.100   7.128 -22.381  1.00  0.00     0.161 A 
ATOM      2  C   UNL     1       3.984   7.431 -23.180  1.00  0.00     0.164 A 
ATOM      3  C   UNL     1       3.950   8.640 -23.903  1.00  0.00     0.098 A 
ATOM      4  C   UNL     1       5.016   9.538 -23.831  1.00  0.00     0.142 A 
ATOM      5  C   UNL     1       6.136   9.235 -23.031  1.00  0.00     0.022 A 
ATOM      6  C   UNL     1       6.177   8.035 -22.309  1.00  0.00     0.062 A 
ATOM      7  C   UNL     1       7.189  10.155 -22.980  1.00  0.00     0.019 A 
ATOM      8  C   UNL     1       7.102  11.336 -23.716  1.00  0.00     0.094 A 
ATOM      9  C   UNL     1       5.960  11.570 -24.489  1.00  0.00     0.336 A 
ATOM     10  O   UNL     1       5.862  12.629 -25.161  1.00  0.00    -0.246 OA
ATOM     11  O   UNL     1       4.974  10.677 -24.519  1.00  0.00    -0.423 OA
ENDROOT
BRANCH   1  12
ATOM     12  O   UNL     1       5.102   5.915 -21.674  1.00  0.00    -0.493 OA
ATOM     13  C   UNL     1       5.928   4.799 -21.987  1.00  0.00     0.278 C 
ENDBRANCH   1  12
BRANCH   2  14
ATOM     14  O   UNL     1       2.931   6.505 -23.228  1.00  0.00    -0.493 OA
ATOM     15  C   UNL     1       1.855   6.553 -24.161  1.00  0.00     0.278 C 
ENDBRANCH   2  14
TORSDOF 2
ENDMDL
MODEL 6
REMARK VINA RESULT:    -5.256      2.339      3.489
REMARK INTER + INTRA:          -6.015
REMARK INTER:                  -5.902
REMARK INTRA:                  -0.113
REMARK UNBOUND:                -0.145
REMARK SMILES COc1cc2ccc(=O)oc2cc1OC
REMARK SMILES IDX 3 1 13 2 12 3 11 4 5 5 4 6 6 7 7 8 8 9 9 10 10 11 2 12 1 13
REMARK SMILES IDX 14 14 15 15
REMARK H PARENT
REMARK Flexibility Score: inf
ROOT
ATOM      1  C   UNL     1       4.645   0.257 -24.169  1.00  0.00     0.161 A 
ATOM      2  C   UNL     1       5.230   0.393 -22.898  1.00  0.00     0.164 A 
ATOM      3  C   UNL     1       4.886  -0.508 -21.871  1.00  0.00     0.098 A 
ATOM      4  C   UNL     1       3.968  -1.533 -22.107  1.00  0.00     0.142 A 
ATOM      5  C   UNL     1       3.381  -1.670 -23.381  1.00  0.00     0.022 A 
ATOM      6  C   UNL     1       3.719  -0.778 -24.407  1.00  0.00     0.062 A 
ATOM      7  C   UNL     1       2.465  -2.708 -23.586  1.00  0.00     0.019 A 
ATOM      8  C   UNL     1       2.161  -3.570 -22.533  1.00  0.00     0.094 A 
ATOM      9  C   UNL     1       2.782  -3.374 -21.295  1.00  0.00     0.336 A 
ATOM     10  O   UNL     1       2.522  -4.141 -20.333  1.00  0.00    -0.246 OA
ATOM     11  O   UNL     1       3.650  -2.379 -21.129  1.00  0.00    -0.423 OA
ENDROOT
BRANCH   1  12
ATOM     12  O   UNL     1       5.010   1.172 -25.170  1.00  0.00    -0.493 OA
ATOM     13  C   UNL     1       5.124   0.853 -26.553  1.00  0.00     0.278 C 
ENDBRANCH   1  12
BRANCH   2  14
ATOM     14  O   UNL     1       6.148   1.435 -22.698  1.00  0.00    -0.493 OA
ATOM     15  C   UNL     1       5.824   2.695 -22.117  1.00  0.00     0.278 C 
ENDBRANCH   2  14
TORSDOF 2
ENDMDL
MODEL 7
REMARK VINA RESULT:    -5.236      5.244      9.431
REMARK INTER + INTRA:          -5.993
REMARK INTER:                  -5.827
REMARK INTRA:                  -0.166
REMARK UNBOUND:                -0.145
REMARK SMILES COc1cc2ccc(=O)oc2cc1OC
REMARK SMILES IDX 3 1 13 2 12 3 11 4 5 5 4 6 6 7 7 8 8 9 9 10 10 11 2 12 1 13
REMARK SMILES IDX 14 14 15 15
REMARK H PARENT
REMARK Flexibility Score: inf
ROOT
ATOM      1  C   UNL     1       4.066   7.032 -23.069  1.00  0.00     0.161 A 
ATOM      2  C   UNL     1       5.153   6.732 -22.229  1.00  0.00     0.164 A 
ATOM      3  C   UNL     1       6.213   7.652 -22.103  1.00  0.00     0.098 A 
ATOM      4  C   UNL     1       6.191   8.858 -22.807  1.00  0.00     0.142 A 
ATOM      5  C   UNL     1       5.101   9.159 -23.648  1.00  0.00     0.022 A 
ATOM      6  C   UNL     1       4.044   8.249 -23.778  1.00  0.00     0.062 A 
ATOM      7  C   UNL     1       5.108  10.376 -24.340  1.00  0.00     0.019 A 
ATOM      8  C   UNL     1       6.184  11.249 -24.178  1.00  0.00     0.094 A 
ATOM      9  C   UNL     1       7.231  10.883 -23.325  1.00  0.00     0.336 A 
ATOM     10  O   UNL     1       8.210  11.657 -23.165  1.00  0.00    -0.246 OA
ATOM     11  O   UNL     1       7.197   9.720 -22.680  1.00  0.00    -0.423 OA
ENDROOT
BRANCH   1  12
ATOM     12  O   UNL     1       3.027   6.093 -23.171  1.00  0.00    -0.493 OA
ATOM     13  C   UNL     1       2.830   5.225 -24.282  1.00  0.00     0.278 C 
ENDBRANCH   1  12
BRANCH   2  14
ATOM     14  O   UNL     1       5.142   5.511 -21.538  1.00  0.00    -0.493 OA
ATOM     15  C   UNL     1       5.881   4.357 -21.927  1.00  0.00     0.278 C 
ENDBRANCH   2  14
TORSDOF 2
ENDMDL
MODEL 8
REMARK VINA RESULT:    -5.158      1.772      5.705
REMARK INTER + INTRA:          -5.906
REMARK INTER:                  -5.781
REMARK INTRA:                  -0.125
REMARK UNBOUND:                -0.145
REMARK SMILES COc1cc2ccc(=O)oc2cc1OC
REMARK SMILES IDX 3 1 13 2 12 3 11 4 5 5 4 6 6 7 7 8 8 9 9 10 10 11 2 12 1 13
REMARK SMILES IDX 14 14 15 15
REMARK H PARENT
REMARK Flexibility Score: inf
ROOT
ATOM      1  C   UNL     1       4.643  -2.347 -23.021  1.00  0.00     0.161 A 
ATOM      2  C   UNL     1       4.082  -2.332 -21.733  1.00  0.00     0.164 A 
ATOM      3  C   UNL     1       4.012  -1.121 -21.016  1.00  0.00     0.098 A 
ATOM      4  C   UNL     1       4.497   0.062 -21.576  1.00  0.00     0.142 A 
ATOM      5  C   UNL     1       5.060   0.047 -22.868  1.00  0.00     0.022 A 
ATOM      6  C   UNL     1       5.132  -1.153 -23.587  1.00  0.00     0.062 A 
ATOM      7  C   UNL     1       5.537   1.250 -23.402  1.00  0.00     0.019 A 
ATOM      8  C   UNL     1       5.443   2.419 -22.648  1.00  0.00     0.094 A 
ATOM      9  C   UNL     1       4.872   2.358 -21.372  1.00  0.00     0.336 A 
ATOM     10  O   UNL     1       4.777   3.401 -20.676  1.00  0.00    -0.246 OA
ATOM     11  O   UNL     1       4.426   1.201 -20.890  1.00  0.00    -0.423 OA
ENDROOT
BRANCH   1  12
ATOM     12  O   UNL     1       4.697  -3.571 -23.708  1.00  0.00    -0.493 OA
ATOM     13  C   UNL     1       5.896  -4.280 -24.003  1.00  0.00     0.278 C 
ENDBRANCH   1  12
BRANCH   2  14
ATOM     14  O   UNL     1       3.606  -3.540 -21.201  1.00  0.00    -0.493 OA
ATOM     15  C   UNL     1       2.249  -3.969 -21.262  1.00  0.00     0.278 C 
ENDBRANCH   2  14
TORSDOF 2
ENDMDL
MODEL 9
REMARK VINA RESULT:    -5.091      1.457      5.100
REMARK INTER + INTRA:          -5.832
REMARK INTER:                  -5.682
REMARK INTRA:                  -0.149
REMARK UNBOUND:                -0.145
REMARK SMILES COc1cc2ccc(=O)oc2cc1OC
REMARK SMILES IDX 3 1 13 2 12 3 11 4 5 5 4 6 6 7 7 8 8 9 9 10 10 11 2 12 1 13
REMARK SMILES IDX 14 14 15 15
REMARK H PARENT
REMARK Flexibility Score: inf
ROOT
ATOM      1  C   UNL     1       4.751  -1.352 -22.341  1.00  0.00     0.161 A 
ATOM      2  C   UNL     1       4.762  -1.152 -23.732  1.00  0.00     0.164 A 
ATOM      3  C   UNL     1       4.753   0.159 -24.249  1.00  0.00     0.098 A 
ATOM      4  C   UNL     1       4.733   1.259 -23.390  1.00  0.00     0.142 A 
ATOM      5  C   UNL     1       4.723   1.059 -21.995  1.00  0.00     0.022 A 
ATOM      6  C   UNL     1       4.731  -0.241 -21.474  1.00  0.00     0.062 A 
ATOM      7  C   UNL     1       4.703   2.182 -21.159  1.00  0.00     0.019 A 
ATOM      8  C   UNL     1       4.695   3.456 -21.726  1.00  0.00     0.094 A 
ATOM      9  C   UNL     1       4.706   3.578 -23.119  1.00  0.00     0.336 A 
ATOM     10  O   UNL     1       4.700   4.719 -23.650  1.00  0.00    -0.246 OA
ATOM     11  O   UNL     1       4.725   2.493 -23.889  1.00  0.00    -0.423 OA
ENDROOT
BRANCH   1  12
ATOM     12  O   UNL     1       4.760  -2.671 -21.859  1.00  0.00    -0.493 OA
ATOM     13  C   UNL     1       3.594  -3.419 -21.532  1.00  0.00     0.278 C 
ENDBRANCH   1  12
BRANCH   2  14
ATOM     14  O   UNL     1       4.781  -2.280 -24.565  1.00  0.00    -0.493 OA
ATOM     15  C   UNL     1       3.650  -2.782 -25.271  1.00  0.00     0.278 C 
ENDBRANCH   2  14
TORSDOF 2
ENDMDL
