MODEL 1
REMARK VINA RESULT:    -4.206      0.000      0.000
REMARK INTER + INTRA:          -7.771
REMARK INTER:                  -6.419
REMARK INTRA:                  -1.352
REMARK UNBOUND:                -1.352
REMARK SMILES CC(=O)CCC=C(C)CCC=C(C)CCC=C(C)C
REMARK SMILES IDX 10 1 11 2 12 3 13 4 14 5 15 6 16 7 18 8 17 9 19 10 9 11 7 12
REMARK SMILES IDX 6 13 8 14 5 15 4 16 2 17 3 18 1 19
REMARK H PARENT
REMARK Flexibility Score: inf
ROOT
ATOM      1  C   UNL     1       5.988   4.405  -8.331  1.00  0.00     0.032 C 
ENDROOT
BRANCH   1   2
ATOM      2  C   UNL     1       6.199   5.326  -7.155  1.00  0.00    -0.028 C 
ATOM      3  C   UNL     1       7.364   5.458  -6.479  1.00  0.00    -0.077 C 
ATOM      4  C   UNL     1       8.573   4.613  -6.805  1.00  0.00     0.039 C 
BRANCH   3   5
ATOM      5  C   UNL     1       7.442   6.455  -5.345  1.00  0.00     0.034 C 
BRANCH   5   6
ATOM      6  C   UNL     1       6.214   6.344  -4.434  1.00  0.00     0.032 C 
BRANCH   6   7
ATOM      7  C   UNL     1       6.530   6.844  -3.047  1.00  0.00    -0.028 C 
ATOM      8  C   UNL     1       6.415   8.344  -1.104  1.00  0.00     0.039 C 
ATOM      9  C   UNL     1       6.043   7.989  -2.520  1.00  0.00    -0.080 C 
ATOM     10  C   UNL     1       5.159   8.922  -3.315  1.00  0.00     0.039 C 
ENDBRANCH   6   7
ENDBRANCH   5   6
ENDBRANCH   3   5
ENDBRANCH   1   2
BRANCH   1  11
ATOM     11  C   UNL     1       4.875   3.379  -8.064  1.00  0.00     0.034 C 
BRANCH  11  12
ATOM     12  C   UNL     1       5.079   2.652  -6.746  1.00  0.00    -0.077 C 
ATOM     13  C   UNL     1       5.997   1.672  -6.580  1.00  0.00    -0.028 C 
ATOM     14  C   UNL     1       4.245   3.054  -5.558  1.00  0.00     0.039 C 
BRANCH  13  15
ATOM     15  C   UNL     1       6.851   1.089  -7.682  1.00  0.00     0.035 C 
BRANCH  15  16
ATOM     16  C   UNL     1       7.488  -0.240  -7.256  1.00  0.00     0.079 C 
BRANCH  16  17
ATOM     17  C   UNL     1       6.444  -1.258  -6.871  1.00  0.00     0.130 C 
ATOM     18  O   UNL     1       6.490  -1.779  -5.767  1.00  0.00    -0.300 OA
ATOM     19  C   UNL     1       5.348  -1.647  -7.819  1.00  0.00     0.087 C 
ENDBRANCH  16  17
ENDBRANCH  15  16
ENDBRANCH  13  15
ENDBRANCH  11  12
ENDBRANCH   1  11
TORSDOF 9
ENDMDL
MODEL 2
REMARK VINA RESULT:    -4.164      2.781      8.053
REMARK INTER + INTRA:          -7.708
REMARK INTER:                  -6.354
REMARK INTRA:                  -1.354
REMARK UNBOUND:                -1.352
REMARK SMILES CC(=O)CCC=C(C)CCC=C(C)CCC=C(C)C
REMARK SMILES IDX 10 1 11 2 12 3 13 4 14 5 15 6 16 7 18 8 17 9 19 10 9 11 7 12
REMARK SMILES IDX 6 13 8 14 5 15 4 16 2 17 3 18 1 19
REMARK H PARENT
REMARK Flexibility Score: inf
ROOT
ATOM      1  C   UNL     1       4.783   3.024  -6.650  1.00  0.00     0.032 C 
ENDROOT
BRANCH   1   2
ATOM      2  C   UNL     1       5.196   1.710  -6.031  1.00  0.00    -0.028 C 
ATOM      3  C   UNL     1       6.346   1.056  -6.309  1.00  0.00    -0.077 C 
ATOM      4  C   UNL     1       7.316   1.558  -7.353  1.00  0.00     0.039 C 
BRANCH   3   5
ATOM      5  C   UNL     1       6.650  -0.233  -5.577  1.00  0.00     0.034 C 
BRANCH   5   6
ATOM      6  C   UNL     1       6.800  -1.397  -6.563  1.00  0.00     0.032 C 
BRANCH   6   7
ATOM      7  C   UNL     1       5.511  -1.637  -7.308  1.00  0.00    -0.028 C 
ATOM      8  C   UNL     1       4.070  -2.092  -9.246  1.00  0.00     0.039 C 
ATOM      9  C   UNL     1       5.425  -1.823  -8.643  1.00  0.00    -0.080 C 
ATOM     10  C   UNL     1       6.639  -1.750  -9.540  1.00  0.00     0.039 C 
ENDBRANCH   6   7
ENDBRANCH   5   6
ENDBRANCH   3   5
ENDBRANCH   1   2
BRANCH   1  11
ATOM     11  C   UNL     1       5.183   4.222  -5.775  1.00  0.00     0.034 C 
BRANCH  11  12
ATOM     12  C   UNL     1       6.044   5.216  -6.535  1.00  0.00    -0.077 C 
ATOM     13  C   UNL     1       6.864   6.100  -5.921  1.00  0.00    -0.028 C 
ATOM     14  C   UNL     1       6.010   5.205  -8.041  1.00  0.00     0.039 C 
BRANCH  13  15
ATOM     15  C   UNL     1       6.954   6.305  -4.427  1.00  0.00     0.035 C 
BRANCH  15  16
ATOM     16  C   UNL     1       5.926   7.333  -3.937  1.00  0.00     0.079 C 
BRANCH  16  17
ATOM     17  C   UNL     1       6.312   7.909  -2.598  1.00  0.00     0.130 C 
ATOM     18  O   UNL     1       5.514   8.605  -1.989  1.00  0.00    -0.300 OA
ATOM     19  C   UNL     1       7.662   7.646  -1.997  1.00  0.00     0.087 C 
ENDBRANCH  16  17
ENDBRANCH  15  16
ENDBRANCH  13  15
ENDBRANCH  11  12
ENDBRANCH   1  11
TORSDOF 9
ENDMDL
MODEL 3
REMARK VINA RESULT:    -4.164      2.858      7.883
REMARK INTER + INTRA:          -7.707
REMARK INTER:                  -6.307
REMARK INTRA:                  -1.400
REMARK UNBOUND:                -1.352
REMARK SMILES CC(=O)CCC=C(C)CCC=C(C)CCC=C(C)C
REMARK SMILES IDX 10 1 11 2 12 3 13 4 14 5 15 6 16 7 18 8 17 9 19 10 9 11 7 12
REMARK SMILES IDX 6 13 8 14 5 15 4 16 2 17 3 18 1 19
REMARK H PARENT
REMARK Flexibility Score: inf
ROOT
ATOM      1  C   UNL     1       6.385   7.037  -3.460  1.00  0.00     0.032 C 
ENDROOT
BRANCH   1   2
ATOM      2  C   UNL     1       6.389   6.617  -4.909  1.00  0.00    -0.028 C 
ATOM      3  C   UNL     1       7.475   6.167  -5.578  1.00  0.00    -0.077 C 
ATOM      4  C   UNL     1       8.841   6.115  -4.935  1.00  0.00     0.039 C 
BRANCH   3   5
ATOM      5  C   UNL     1       7.320   5.739  -7.020  1.00  0.00     0.034 C 
BRANCH   5   6
ATOM      6  C   UNL     1       6.000   4.987  -7.227  1.00  0.00     0.032 C 
BRANCH   6   7
ATOM      7  C   UNL     1       6.209   3.498  -7.112  1.00  0.00    -0.028 C 
ATOM      8  C   UNL     1       5.702   1.189  -6.439  1.00  0.00     0.039 C 
ATOM      9  C   UNL     1       5.389   2.663  -6.435  1.00  0.00    -0.080 C 
ATOM     10  C   UNL     1       4.189   3.169  -5.669  1.00  0.00     0.039 C 
ENDBRANCH   6   7
ENDBRANCH   5   6
ENDBRANCH   3   5
ENDBRANCH   1   2
BRANCH   1  11
ATOM     11  C   UNL     1       6.797   8.507  -3.287  1.00  0.00     0.034 C 
BRANCH  11  12
ATOM     12  C   UNL     1       5.636   9.369  -2.821  1.00  0.00    -0.077 C 
ATOM     13  C   UNL     1       5.625  10.005  -1.627  1.00  0.00    -0.028 C 
ATOM     14  C   UNL     1       4.453   9.551  -3.735  1.00  0.00     0.039 C 
BRANCH  13  15
ATOM     15  C   UNL     1       6.683   9.861  -0.558  1.00  0.00     0.035 C 
BRANCH  15  16
ATOM     16  C   UNL     1       6.303   8.786   0.469  1.00  0.00     0.079 C 
BRANCH  16  17
ATOM     17  C   UNL     1       7.286   7.642   0.464  1.00  0.00     0.130 C 
ATOM     18  O   UNL     1       6.983   6.586   0.997  1.00  0.00    -0.300 OA
ATOM     19  C   UNL     1       8.634   7.777  -0.180  1.00  0.00     0.087 C 
ENDBRANCH  16  17
ENDBRANCH  15  16
ENDBRANCH  13  15
ENDBRANCH  11  12
ENDBRANCH   1  11
TORSDOF 9
ENDMDL
MODEL 4
REMARK VINA RESULT:    -4.144      3.085      7.960
REMARK INTER + INTRA:          -7.676
REMARK INTER:                  -6.494
REMARK INTRA:                  -1.182
REMARK UNBOUND:                -1.352
REMARK SMILES CC(=O)CCC=C(C)CCC=C(C)CCC=C(C)C
REMARK SMILES IDX 10 1 11 2 12 3 13 4 14 5 15 6 16 7 18 8 17 9 19 10 9 11 7 12
REMARK SMILES IDX 6 13 8 14 5 15 4 16 2 17 3 18 1 19
REMARK H PARENT
REMARK Flexibility Score: inf
ROOT
ATOM      1  C   UNL     1       6.498   6.089  -6.852  1.00  0.00     0.032 C 
ENDROOT
BRANCH   1   2
ATOM      2  C   UNL     1       5.741   4.791  -6.708  1.00  0.00    -0.028 C 
ATOM      3  C   UNL     1       6.248   3.570  -6.989  1.00  0.00    -0.077 C 
ATOM      4  C   UNL     1       7.634   3.395  -7.562  1.00  0.00     0.039 C 
BRANCH   3   5
ATOM      5  C   UNL     1       5.386   2.349  -6.754  1.00  0.00     0.034 C 
BRANCH   5   6
ATOM      6  C   UNL     1       5.927   1.142  -7.530  1.00  0.00     0.032 C 
BRANCH   6   7
ATOM      7  C   UNL     1       5.917  -0.096  -6.668  1.00  0.00    -0.028 C 
ATOM      8  C   UNL     1       6.819  -1.791  -5.135  1.00  0.00     0.039 C 
ATOM      9  C   UNL     1       6.988  -0.561  -5.989  1.00  0.00    -0.080 C 
ATOM     10  C   UNL     1       8.342   0.106  -6.077  1.00  0.00     0.039 C 
ENDBRANCH   6   7
ENDBRANCH   5   6
ENDBRANCH   3   5
ENDBRANCH   1   2
BRANCH   1  11
ATOM     11  C   UNL     1       6.525   6.887  -5.539  1.00  0.00     0.034 C 
BRANCH  11  12
ATOM     12  C   UNL     1       7.774   6.597  -4.726  1.00  0.00    -0.077 C 
ATOM     13  C   UNL     1       7.833   6.759  -3.384  1.00  0.00    -0.028 C 
ATOM     14  C   UNL     1       8.998   6.078  -5.434  1.00  0.00     0.039 C 
BRANCH  13  15
ATOM     15  C   UNL     1       6.733   7.350  -2.533  1.00  0.00     0.035 C 
BRANCH  15  16
ATOM     16  C   UNL     1       7.259   8.480  -1.638  1.00  0.00     0.079 C 
BRANCH  16  17
ATOM     17  C   UNL     1       6.252   8.868  -0.585  1.00  0.00     0.130 C 
ATOM     18  O   UNL     1       5.160   9.295  -0.925  1.00  0.00    -0.300 OA
ATOM     19  C   UNL     1       6.566   8.742   0.876  1.00  0.00     0.087 C 
ENDBRANCH  16  17
ENDBRANCH  15  16
ENDBRANCH  13  15
ENDBRANCH  11  12
ENDBRANCH   1  11
TORSDOF 9
ENDMDL
MODEL 5
REMARK VINA RESULT:    -4.089      2.845      7.879
REMARK INTER + INTRA:          -7.592
REMARK INTER:                  -6.596
REMARK INTRA:                  -0.997
REMARK UNBOUND:                -1.352
REMARK SMILES CC(=O)CCC=C(C)CCC=C(C)CCC=C(C)C
REMARK SMILES IDX 10 1 11 2 12 3 13 4 14 5 15 6 16 7 18 8 17 9 19 10 9 11 7 12
REMARK SMILES IDX 6 13 8 14 5 15 4 16 2 17 3 18 1 19
REMARK H PARENT
REMARK Flexibility Score: inf
ROOT
ATOM      1  C   UNL     1       6.816   6.269  -6.339  1.00  0.00     0.032 C 
ENDROOT
BRANCH   1   2
ATOM      2  C   UNL     1       5.966   5.023  -6.286  1.00  0.00    -0.028 C 
ATOM      3  C   UNL     1       6.214   3.891  -6.984  1.00  0.00    -0.077 C 
ATOM      4  C   UNL     1       7.356   3.796  -7.967  1.00  0.00     0.039 C 
BRANCH   3   5
ATOM      5  C   UNL     1       5.299   2.702  -6.796  1.00  0.00     0.034 C 
BRANCH   5   6
ATOM      6  C   UNL     1       5.866   1.462  -7.497  1.00  0.00     0.032 C 
BRANCH   6   7
ATOM      7  C   UNL     1       5.922   0.290  -6.549  1.00  0.00    -0.028 C 
ATOM      8  C   UNL     1       6.942  -1.301  -4.978  1.00  0.00     0.039 C 
ATOM      9  C   UNL     1       7.045  -0.138  -5.932  1.00  0.00    -0.080 C 
ATOM     10  C   UNL     1       8.390   0.502  -6.184  1.00  0.00     0.039 C 
ENDBRANCH   6   7
ENDBRANCH   5   6
ENDBRANCH   3   5
ENDBRANCH   1   2
BRANCH   1  11
ATOM     11  C   UNL     1       7.207   6.758  -4.936  1.00  0.00     0.034 C 
BRANCH  11  12
ATOM     12  C   UNL     1       6.515   8.062  -4.578  1.00  0.00    -0.077 C 
ATOM     13  C   UNL     1       6.156   8.382  -3.313  1.00  0.00    -0.028 C 
ATOM     14  C   UNL     1       6.238   9.062  -5.670  1.00  0.00     0.039 C 
BRANCH  13  15
ATOM     15  C   UNL     1       6.278   7.464  -2.120  1.00  0.00     0.035 C 
BRANCH  15  16
ATOM     16  C   UNL     1       7.414   7.903  -1.186  1.00  0.00     0.079 C 
BRANCH  16  17
ATOM     17  C   UNL     1       7.008   7.810   0.263  1.00  0.00     0.130 C 
ATOM     18  O   UNL     1       7.036   6.728   0.828  1.00  0.00    -0.300 OA
ATOM     19  C   UNL     1       6.566   9.023   1.027  1.00  0.00     0.087 C 
ENDBRANCH  16  17
ENDBRANCH  15  16
ENDBRANCH  13  15
ENDBRANCH  11  12
ENDBRANCH   1  11
TORSDOF 9
ENDMDL
MODEL 6
REMARK VINA RESULT:    -4.058      3.185      5.584
REMARK INTER + INTRA:          -7.546
REMARK INTER:                  -5.072
REMARK INTRA:                  -2.474
REMARK UNBOUND:                -1.352
REMARK SMILES CC(=O)CCC=C(C)CCC=C(C)CCC=C(C)C
REMARK SMILES IDX 10 1 11 2 12 3 13 4 14 5 15 6 16 7 18 8 17 9 19 10 9 11 7 12
REMARK SMILES IDX 6 13 8 14 5 15 4 16 2 17 3 18 1 19
REMARK H PARENT
REMARK Flexibility Score: inf
ROOT
ATOM      1  C   UNL     1       7.018  -1.414  -6.252  1.00  0.00     0.032 C 
ENDROOT
BRANCH   1   2
ATOM      2  C   UNL     1       7.912  -0.212  -6.065  1.00  0.00    -0.028 C 
ATOM      3  C   UNL     1       8.873   0.174  -6.935  1.00  0.00    -0.077 C 
ATOM      4  C   UNL     1       9.199  -0.630  -8.171  1.00  0.00     0.039 C 
BRANCH   3   5
ATOM      5  C   UNL     1       9.665   1.429  -6.639  1.00  0.00     0.034 C 
BRANCH   5   6
ATOM      6  C   UNL     1       9.332   2.535  -7.647  1.00  0.00     0.032 C 
BRANCH   6   7
ATOM      7  C   UNL     1       8.582   3.659  -6.978  1.00  0.00    -0.028 C 
ATOM      8  C   UNL     1       7.167   5.664  -6.837  1.00  0.00     0.039 C 
ATOM      9  C   UNL     1       7.904   4.623  -7.640  1.00  0.00    -0.080 C 
ATOM     10  C   UNL     1       7.882   4.693  -9.149  1.00  0.00     0.039 C 
ENDBRANCH   6   7
ENDBRANCH   5   6
ENDBRANCH   3   5
ENDBRANCH   1   2
BRANCH   1  11
ATOM     11  C   UNL     1       5.618  -1.016  -6.744  1.00  0.00     0.034 C 
BRANCH  11  12
ATOM     12  C   UNL     1       5.522  -1.038  -8.259  1.00  0.00    -0.077 C 
ATOM     13  C   UNL     1       5.655   0.073  -9.021  1.00  0.00    -0.028 C 
ATOM     14  C   UNL     1       5.298  -2.355  -8.955  1.00  0.00     0.039 C 
BRANCH  13  15
ATOM     15  C   UNL     1       5.795   1.479  -8.486  1.00  0.00     0.035 C 
BRANCH  15  16
ATOM     16  C   UNL     1       4.873   2.457  -9.227  1.00  0.00     0.079 C 
BRANCH  16  17
ATOM     17  C   UNL     1       4.387   3.558  -8.317  1.00  0.00     0.130 C 
ATOM     18  O   UNL     1       4.049   4.629  -8.796  1.00  0.00    -0.300 OA
ATOM     19  C   UNL     1       4.313   3.364  -6.831  1.00  0.00     0.087 C 
ENDBRANCH  16  17
ENDBRANCH  15  16
ENDBRANCH  13  15
ENDBRANCH  11  12
ENDBRANCH   1  11
TORSDOF 9
ENDMDL
MODEL 7
REMARK VINA RESULT:    -4.042      2.853      7.257
REMARK INTER + INTRA:          -7.522
REMARK INTER:                  -5.717
REMARK INTRA:                  -1.804
REMARK UNBOUND:                -1.352
REMARK SMILES CC(=O)CCC=C(C)CCC=C(C)CCC=C(C)C
REMARK SMILES IDX 10 1 11 2 12 3 13 4 14 5 15 6 16 7 18 8 17 9 19 10 9 11 7 12
REMARK SMILES IDX 6 13 8 14 5 15 4 16 2 17 3 18 1 19
REMARK H PARENT
REMARK Flexibility Score: inf
ROOT
ATOM      1  C   UNL     1       7.760   4.685  -6.678  1.00  0.00     0.032 C 
ENDROOT
BRANCH   1   2
ATOM      2  C   UNL     1       7.086   3.597  -7.479  1.00  0.00    -0.028 C 
ATOM      3  C   UNL     1       5.810   3.186  -7.298  1.00  0.00    -0.077 C 
ATOM      4  C   UNL     1       4.943   3.744  -6.194  1.00  0.00     0.039 C 
BRANCH   3   5
ATOM      5  C   UNL     1       5.252   2.113  -8.206  1.00  0.00     0.034 C 
BRANCH   5   6
ATOM      6  C   UNL     1       6.183   0.896  -8.248  1.00  0.00     0.032 C 
BRANCH   6   7
ATOM      7  C   UNL     1       6.037   0.067  -6.997  1.00  0.00    -0.028 C 
ATOM      8  C   UNL     1       6.741  -1.010  -4.903  1.00  0.00     0.039 C 
ATOM      9  C   UNL     1       7.044  -0.198  -6.136  1.00  0.00    -0.080 C 
ATOM     10  C   UNL     1       8.455   0.281  -6.385  1.00  0.00     0.039 C 
ENDBRANCH   6   7
ENDBRANCH   5   6
ENDBRANCH   3   5
ENDBRANCH   1   2
BRANCH   1  11
ATOM     11  C   UNL     1       7.955   5.967  -7.503  1.00  0.00     0.034 C 
BRANCH  11  12
ATOM     12  C   UNL     1       6.681   6.790  -7.580  1.00  0.00    -0.077 C 
ATOM     13  C   UNL     1       6.269   7.604  -6.580  1.00  0.00    -0.028 C 
ATOM     14  C   UNL     1       5.849   6.725  -8.834  1.00  0.00     0.039 C 
BRANCH  13  15
ATOM     15  C   UNL     1       6.932   7.720  -5.228  1.00  0.00     0.035 C 
BRANCH  15  16
ATOM     16  C   UNL     1       6.153   6.954  -4.151  1.00  0.00     0.079 C 
BRANCH  16  17
ATOM     17  C   UNL     1       6.009   7.765  -2.888  1.00  0.00     0.130 C 
ATOM     18  O   UNL     1       5.216   8.694  -2.856  1.00  0.00    -0.300 OA
ATOM     19  C   UNL     1       6.824   7.456  -1.667  1.00  0.00     0.087 C 
ENDBRANCH  16  17
ENDBRANCH  15  16
ENDBRANCH  13  15
ENDBRANCH  11  12
ENDBRANCH   1  11
TORSDOF 9
ENDMDL
MODEL 8
REMARK VINA RESULT:    -4.011     19.327     21.369
REMARK INTER + INTRA:          -7.474
REMARK INTER:                  -5.213
REMARK INTRA:                  -2.261
REMARK UNBOUND:                -1.352
REMARK SMILES CC(=O)CCC=C(C)CCC=C(C)CCC=C(C)C
REMARK SMILES IDX 10 1 11 2 12 3 13 4 14 5 15 6 16 7 18 8 17 9 19 10 9 11 7 12
REMARK SMILES IDX 6 13 8 14 5 15 4 16 2 17 3 18 1 19
REMARK H PARENT
REMARK Flexibility Score: inf
ROOT
ATOM      1  C   UNL     1      -5.889  -3.762   7.019  1.00  0.00     0.032 C 
ENDROOT
BRANCH   1   2
ATOM      2  C   UNL     1      -7.230  -4.320   6.608  1.00  0.00    -0.028 C 
ATOM      3  C   UNL     1      -8.385  -4.123   7.284  1.00  0.00    -0.077 C 
ATOM      4  C   UNL     1      -8.424  -3.368   8.591  1.00  0.00     0.039 C 
BRANCH   3   5
ATOM      5  C   UNL     1      -9.665  -4.708   6.729  1.00  0.00     0.034 C 
BRANCH   5   6
ATOM      6  C   UNL     1      -9.622  -6.240   6.758  1.00  0.00     0.032 C 
BRANCH   6   7
ATOM      7  C   UNL     1      -9.109  -6.735   8.087  1.00  0.00    -0.028 C 
ATOM      8  C   UNL     1      -7.583  -7.877   9.638  1.00  0.00     0.039 C 
ATOM      9  C   UNL     1      -7.997  -7.487   8.243  1.00  0.00    -0.080 C 
ATOM     10  C   UNL     1      -7.176  -7.954   7.063  1.00  0.00     0.039 C 
ENDBRANCH   6   7
ENDBRANCH   5   6
ENDBRANCH   3   5
ENDBRANCH   1   2
BRANCH   1  11
ATOM     11  C   UNL     1      -4.888  -4.873   7.371  1.00  0.00     0.034 C 
BRANCH  11  12
ATOM     12  C   UNL     1      -4.679  -4.994   8.870  1.00  0.00    -0.077 C 
ATOM     13  C   UNL     1      -4.195  -6.112   9.459  1.00  0.00    -0.028 C 
ATOM     14  C   UNL     1      -4.994  -3.809   9.745  1.00  0.00     0.039 C 
BRANCH  13  15
ATOM     15  C   UNL     1      -3.913  -7.413   8.745  1.00  0.00     0.035 C 
BRANCH  15  16
ATOM     16  C   UNL     1      -2.411  -7.726   8.719  1.00  0.00     0.079 C 
BRANCH  16  17
ATOM     17  C   UNL     1      -1.911  -7.927   7.310  1.00  0.00     0.130 C 
ATOM     18  O   UNL     1      -0.764  -8.306   7.127  1.00  0.00    -0.300 OA
ATOM     19  C   UNL     1      -2.794  -7.669   6.126  1.00  0.00     0.087 C 
ENDBRANCH  16  17
ENDBRANCH  15  16
ENDBRANCH  13  15
ENDBRANCH  11  12
ENDBRANCH   1  11
TORSDOF 9
ENDMDL
MODEL 9
REMARK VINA RESULT:    -4.011      2.635      5.122
REMARK INTER + INTRA:          -7.474
REMARK INTER:                  -6.056
REMARK INTRA:                  -1.418
REMARK UNBOUND:                -1.352
REMARK SMILES CC(=O)CCC=C(C)CCC=C(C)CCC=C(C)C
REMARK SMILES IDX 10 1 11 2 12 3 13 4 14 5 15 6 16 7 18 8 17 9 19 10 9 11 7 12
REMARK SMILES IDX 6 13 8 14 5 15 4 16 2 17 3 18 1 19
REMARK H PARENT
REMARK Flexibility Score: inf
ROOT
ATOM      1  C   UNL     1       6.288   6.632  -3.821  1.00  0.00     0.032 C 
ENDROOT
BRANCH   1   2
ATOM      2  C   UNL     1       6.384   7.525  -2.609  1.00  0.00    -0.028 C 
ATOM      3  C   UNL     1       5.704   8.683  -2.450  1.00  0.00    -0.077 C 
ATOM      4  C   UNL     1       4.817   9.242  -3.537  1.00  0.00     0.039 C 
BRANCH   3   5
ATOM      5  C   UNL     1       5.865   9.455  -1.158  1.00  0.00     0.034 C 
BRANCH   5   6
ATOM      6  C   UNL     1       6.424   8.554  -0.051  1.00  0.00     0.032 C 
BRANCH   6   7
ATOM      7  C   UNL     1       7.503   9.267   0.725  1.00  0.00    -0.028 C 
ATOM      8  C   UNL     1       9.793   9.883   1.368  1.00  0.00     0.039 C 
ATOM      9  C   UNL     1       8.828   9.069   0.546  1.00  0.00    -0.080 C 
ATOM     10  C   UNL     1       9.359   8.051  -0.436  1.00  0.00     0.039 C 
ENDBRANCH   6   7
ENDBRANCH   5   6
ENDBRANCH   3   5
ENDBRANCH   1   2
BRANCH   1  11
ATOM     11  C   UNL     1       7.348   6.983  -4.878  1.00  0.00     0.034 C 
BRANCH  11  12
ATOM     12  C   UNL     1       6.746   7.093  -6.268  1.00  0.00    -0.077 C 
ATOM     13  C   UNL     1       6.593   6.029  -7.090  1.00  0.00    -0.028 C 
ATOM     14  C   UNL     1       6.272   8.438  -6.750  1.00  0.00     0.039 C 
BRANCH  13  15
ATOM     15  C   UNL     1       7.092   4.632  -6.802  1.00  0.00     0.035 C 
BRANCH  15  16
ATOM     16  C   UNL     1       6.321   3.581  -7.611  1.00  0.00     0.079 C 
BRANCH  16  17
ATOM     17  C   UNL     1       4.859   3.560  -7.242  1.00  0.00     0.130 C 
ATOM     18  O   UNL     1       4.018   3.776  -8.102  1.00  0.00    -0.300 OA
ATOM     19  C   UNL     1       4.414   3.281  -5.837  1.00  0.00     0.087 C 
ENDBRANCH  16  17
ENDBRANCH  15  16
ENDBRANCH  13  15
ENDBRANCH  11  12
ENDBRANCH   1  11
TORSDOF 9
ENDMDL
