MODEL 1
REMARK VINA RESULT:    -3.298      0.000      0.000
REMARK INTER + INTRA:          -5.160
REMARK INTER:                  -5.033
REMARK INTRA:                  -0.127
REMARK UNBOUND:                -0.127
REMARK SMILES CC1=CCC[C@H](C)C(=O)C[C@H](C(C)C)C(=O)C1
REMARK SMILES IDX 8 1 9 2 6 3 7 4 5 5 4 6 3 7 2 8 1 9 10 11 11 12 15 13 16 14
REMARK SMILES IDX 17 15 12 17 13 18 14 19
REMARK H PARENT
REMARK Flexibility Score: 70.00
ROOT
ATOM      1  C   UNL     1      14.305  51.394  33.268  1.00  0.00     0.136 C 
ATOM      2  O   UNL     1      13.189  51.028  33.608  1.00  0.00    -0.299 OA
ENDROOT
BRANCH   1   3
ATOM      3  C   UNL     1      14.993  50.670  32.125  1.00  0.00     0.053 C 
ATOM      4  C   UNL     1      13.968  50.108  31.132  1.00  0.00     0.016 C 
BRANCH   3   5
ATOM      5  C   UNL     1      16.014  51.578  31.416  1.00  0.00     0.015 C 
BRANCH   5   6
ATOM      6  C   UNL     1      17.455  51.061  31.580  1.00  0.00     0.028 C 
BRANCH   6   7
ATOM      7  C   UNL     1      18.438  52.201  31.647  1.00  0.00    -0.028 C 
ATOM      8  C   UNL     1      18.892  52.759  32.793  1.00  0.00    -0.070 CG0
ATOM      9  C   UNL     1      19.843  53.925  32.686  1.00  0.00     0.039 C 
ATOM     10  G   UNL     1      18.492  52.259  34.174  1.00  0.00     0.000 G0
ENDBRANCH   6   7
ENDBRANCH   5   6
ENDBRANCH   3   5
ENDBRANCH   1   3
BRANCH   1  11
ATOM     11  C   UNL     1      14.932  52.571  33.983  1.00  0.00     0.087 C 
BRANCH  11  12
ATOM     12  C   UNL     1      16.009  52.131  35.013  1.00  0.00     0.066 C 
BRANCH  12  13
ATOM     13  C   UNL     1      17.291  52.911  34.761  1.00  0.00     0.140 C 
ATOM     14  O   UNL     1      17.362  54.081  35.114  1.00  0.00    -0.299 OA
BRANCH  13  15
ATOM     15  C   UNL     1      18.512  52.233  34.190  1.00  0.00     0.106 CG0
ATOM     16  G   UNL     1      18.882  52.776  32.817  1.00  0.00     0.000 G0
ENDBRANCH  13  15
ENDBRANCH  12  13
BRANCH  12  17
ATOM     17  C   UNL     1      15.536  52.318  36.493  1.00  0.00    -0.006 C 
ATOM     18  C   UNL     1      14.444  53.398  36.625  1.00  0.00     0.008 C 
ATOM     19  C   UNL     1      14.991  51.000  37.080  1.00  0.00     0.008 C 
ENDBRANCH  12  17
ENDBRANCH  11  12
ENDBRANCH   1  11
TORSDOF 1
ENDMDL
MODEL 2
REMARK VINA RESULT:    -3.041      2.507      3.834
REMARK INTER + INTRA:          -4.767
REMARK INTER:                  -4.518
REMARK INTRA:                  -0.249
REMARK UNBOUND:                -0.127
REMARK SMILES CC1=CCC[C@H](C)C(=O)C[C@H](C(C)C)C(=O)C1
REMARK SMILES IDX 8 1 9 2 6 3 7 4 5 5 4 6 3 7 2 8 1 9 10 11 11 12 15 13 16 14
REMARK SMILES IDX 17 15 12 17 13 18 14 19
REMARK H PARENT
REMARK Flexibility Score: 70.00
ROOT
ATOM      1  C   UNL     1      15.456  53.154  33.944  1.00  0.00     0.136 C 
ATOM      2  O   UNL     1      14.505  52.396  33.819  1.00  0.00    -0.299 OA
ENDROOT
BRANCH   1   3
ATOM      3  C   UNL     1      16.354  53.005  35.159  1.00  0.00     0.053 C 
ATOM      4  C   UNL     1      15.598  52.359  36.326  1.00  0.00     0.016 C 
BRANCH   3   5
ATOM      5  C   UNL     1      17.633  52.217  34.820  1.00  0.00     0.015 C 
BRANCH   5   6
ATOM      6  C   UNL     1      18.905  53.040  35.094  1.00  0.00     0.028 C 
BRANCH   6   7
ATOM      7  C   UNL     1      19.806  53.067  33.887  1.00  0.00    -0.028 C 
ATOM      8  C   UNL     1      19.930  54.117  33.043  1.00  0.00    -0.070 CG0
ATOM      9  C   UNL     1      20.844  53.967  31.853  1.00  0.00     0.039 C 
ATOM     10  G   UNL     1      19.195  55.435  33.246  1.00  0.00     0.000 G0
ENDBRANCH   6   7
ENDBRANCH   5   6
ENDBRANCH   3   5
ENDBRANCH   1   3
BRANCH   1  11
ATOM     11  C   UNL     1      15.708  54.184  32.864  1.00  0.00     0.087 C 
BRANCH  11  12
ATOM     12  C   UNL     1      16.554  55.382  33.377  1.00  0.00     0.066 C 
BRANCH  12  13
ATOM     13  C   UNL     1      17.840  55.470  32.568  1.00  0.00     0.140 C 
ATOM     14  O   UNL     1      17.778  55.661  31.361  1.00  0.00    -0.299 OA
BRANCH  13  15
ATOM     15  C   UNL     1      19.187  55.441  33.246  1.00  0.00     0.106 CG0
ATOM     16  G   UNL     1      19.908  54.118  33.038  1.00  0.00     0.000 G0
ENDBRANCH  13  15
ENDBRANCH  12  13
BRANCH  12  17
ATOM     17  C   UNL     1      15.774  56.738  33.316  1.00  0.00    -0.006 C 
ATOM     18  C   UNL     1      14.281  56.537  32.986  1.00  0.00     0.008 C 
ATOM     19  C   UNL     1      15.879  57.508  34.648  1.00  0.00     0.008 C 
ENDBRANCH  12  17
ENDBRANCH  11  12
ENDBRANCH   1  11
TORSDOF 1
ENDMDL
MODEL 3
REMARK VINA RESULT:    -3.008     10.571     12.688
REMARK INTER + INTRA:          -4.718
REMARK INTER:                  -4.584
REMARK INTRA:                  -0.134
REMARK UNBOUND:                -0.127
REMARK SMILES CC1=CCC[C@H](C)C(=O)C[C@H](C(C)C)C(=O)C1
REMARK SMILES IDX 8 1 9 2 6 3 7 4 5 5 4 6 3 7 2 8 1 9 10 11 11 12 15 13 16 14
REMARK SMILES IDX 17 15 12 17 13 18 14 19
REMARK H PARENT
REMARK Flexibility Score: 70.00
ROOT
ATOM      1  C   UNL     1      14.230  63.505  35.475  1.00  0.00     0.136 C 
ATOM      2  O   UNL     1      14.329  63.531  34.256  1.00  0.00    -0.299 OA
ENDROOT
BRANCH   1   3
ATOM      3  C   UNL     1      15.112  62.549  36.258  1.00  0.00     0.053 C 
ATOM      4  C   UNL     1      14.989  62.796  37.766  1.00  0.00     0.016 C 
BRANCH   3   5
ATOM      5  C   UNL     1      14.802  61.082  35.907  1.00  0.00     0.015 C 
BRANCH   5   6
ATOM      6  C   UNL     1      13.718  60.488  36.824  1.00  0.00     0.028 C 
BRANCH   6   7
ATOM      7  C   UNL     1      12.395  60.390  36.109  1.00  0.00    -0.028 C 
ATOM      8  C   UNL     1      11.330  61.189  36.348  1.00  0.00    -0.070 CG0
ATOM      9  C   UNL     1      10.061  60.931  35.575  1.00  0.00     0.039 C 
ATOM     10  G   UNL     1      11.361  62.333  37.352  1.00  0.00     0.000 G0
ENDBRANCH   6   7
ENDBRANCH   5   6
ENDBRANCH   3   5
ENDBRANCH   1   3
BRANCH   1  11
ATOM     11  C   UNL     1      13.255  64.450  36.143  1.00  0.00     0.087 C 
BRANCH  11  12
ATOM     12  C   UNL     1      11.809  64.289  35.600  1.00  0.00     0.066 C 
BRANCH  12  13
ATOM     13  C   UNL     1      10.940  63.645  36.670  1.00  0.00     0.140 C 
ATOM     14  O   UNL     1       9.849  64.134  36.932  1.00  0.00    -0.299 OA
BRANCH  13  15
ATOM     15  C   UNL     1      11.352  62.353  37.330  1.00  0.00     0.106 CG0
ATOM     16  G   UNL     1      11.329  61.179  36.362  1.00  0.00     0.000 G0
ENDBRANCH  13  15
ENDBRANCH  12  13
BRANCH  12  17
ATOM     17  C   UNL     1      11.187  65.647  35.133  1.00  0.00    -0.006 C 
ATOM     18  C   UNL     1      12.266  66.681  34.751  1.00  0.00     0.008 C 
ATOM     19  C   UNL     1      10.251  65.452  33.924  1.00  0.00     0.008 C 
ENDBRANCH  12  17
ENDBRANCH  11  12
ENDBRANCH   1  11
TORSDOF 1
ENDMDL
MODEL 4
REMARK VINA RESULT:    -3.005      2.354      4.593
REMARK INTER + INTRA:          -4.713
REMARK INTER:                  -4.587
REMARK INTRA:                  -0.126
REMARK UNBOUND:                -0.127
REMARK SMILES CC1=CCC[C@H](C)C(=O)C[C@H](C(C)C)C(=O)C1
REMARK SMILES IDX 8 1 9 2 6 3 7 4 5 5 4 6 3 7 2 8 1 9 10 11 11 12 15 13 16 14
REMARK SMILES IDX 17 15 12 17 13 18 14 19
REMARK H PARENT
REMARK Flexibility Score: 70.00
ROOT
ATOM      1  C   UNL     1      18.289  55.556  33.966  1.00  0.00     0.136 C 
ATOM      2  O   UNL     1      17.645  56.268  34.723  1.00  0.00    -0.299 OA
ENDROOT
BRANCH   1   3
ATOM      3  C   UNL     1      18.723  56.120  32.625  1.00  0.00     0.053 C 
ATOM      4  C   UNL     1      17.669  57.084  32.066  1.00  0.00     0.016 C 
BRANCH   3   5
ATOM      5  C   UNL     1      20.103  56.796  32.718  1.00  0.00     0.015 C 
BRANCH   5   6
ATOM      6  C   UNL     1      21.248  55.768  32.726  1.00  0.00     0.028 C 
BRANCH   6   7
ATOM      7  C   UNL     1      21.185  54.875  31.514  1.00  0.00    -0.028 C 
ATOM      8  C   UNL     1      20.919  53.549  31.549  1.00  0.00    -0.070 CG0
ATOM      9  C   UNL     1      20.937  52.787  30.247  1.00  0.00     0.039 C 
ATOM     10  G   UNL     1      20.600  52.801  32.835  1.00  0.00     0.000 G0
ENDBRANCH   6   7
ENDBRANCH   5   6
ENDBRANCH   3   5
ENDBRANCH   1   3
BRANCH   1  11
ATOM     11  C   UNL     1      18.648  54.157  34.418  1.00  0.00     0.087 C 
BRANCH  11  12
ATOM     12  C   UNL     1      18.062  53.066  33.480  1.00  0.00     0.066 C 
BRANCH  12  13
ATOM     13  C   UNL     1      19.201  52.240  32.900  1.00  0.00     0.140 C 
ATOM     14  O   UNL     1      18.956  51.156  32.386  1.00  0.00    -0.299 OA
BRANCH  13  15
ATOM     15  C   UNL     1      20.606  52.786  32.845  1.00  0.00     0.106 CG0
ATOM     16  G   UNL     1      20.883  53.536  31.550  1.00  0.00     0.000 G0
ENDBRANCH  13  15
ENDBRANCH  12  13
BRANCH  12  17
ATOM     17  C   UNL     1      17.029  52.141  34.205  1.00  0.00    -0.006 C 
ATOM     18  C   UNL     1      16.775  52.581  35.661  1.00  0.00     0.008 C 
ATOM     19  C   UNL     1      15.678  52.114  33.462  1.00  0.00     0.008 C 
ENDBRANCH  12  17
ENDBRANCH  11  12
ENDBRANCH   1  11
TORSDOF 1
ENDMDL
MODEL 5
REMARK VINA RESULT:    -2.934     13.018     14.763
REMARK INTER + INTRA:          -4.605
REMARK INTER:                  -4.593
REMARK INTRA:                  -0.012
REMARK UNBOUND:                -0.127
REMARK SMILES CC1=CCC[C@H](C)C(=O)C[C@H](C(C)C)C(=O)C1
REMARK SMILES IDX 8 1 9 2 6 3 7 4 5 5 4 6 3 7 2 8 1 9 10 11 11 12 15 13 16 14
REMARK SMILES IDX 17 15 12 17 13 18 14 19
REMARK H PARENT
REMARK Flexibility Score: 70.00
ROOT
ATOM      1  C   UNL     1      15.436  61.372  20.835  1.00  0.00     0.136 C 
ATOM      2  O   UNL     1      16.265  62.247  21.033  1.00  0.00    -0.299 OA
ENDROOT
BRANCH   1   3
ATOM      3  C   UNL     1      13.963  61.738  20.881  1.00  0.00     0.053 C 
ATOM      4  C   UNL     1      13.208  61.138  19.688  1.00  0.00     0.016 C 
BRANCH   3   5
ATOM      5  C   UNL     1      13.319  61.319  22.215  1.00  0.00     0.015 C 
BRANCH   5   6
ATOM      6  C   UNL     1      12.220  60.260  22.015  1.00  0.00     0.028 C 
BRANCH   6   7
ATOM      7  C   UNL     1      12.394  59.108  22.971  1.00  0.00    -0.028 C 
ATOM      8  C   UNL     1      12.956  57.920  22.649  1.00  0.00    -0.070 CG0
ATOM      9  C   UNL     1      13.016  56.852  23.713  1.00  0.00     0.039 C 
ATOM     10  G   UNL     1      13.529  57.620  21.272  1.00  0.00     0.000 G0
ENDBRANCH   6   7
ENDBRANCH   5   6
ENDBRANCH   3   5
ENDBRANCH   1   3
BRANCH   1  11
ATOM     11  C   UNL     1      15.919  59.972  20.522  1.00  0.00     0.087 C 
BRANCH  11  12
ATOM     12  C   UNL     1      15.721  58.999  21.716  1.00  0.00     0.066 C 
BRANCH  12  13
ATOM     13  C   UNL     1      15.038  57.732  21.222  1.00  0.00     0.140 C 
ATOM     14  O   UNL     1      15.722  56.778  20.873  1.00  0.00    -0.299 OA
BRANCH  13  15
ATOM     15  C   UNL     1      13.537  57.592  21.264  1.00  0.00     0.106 CG0
ATOM     16  G   UNL     1      12.964  57.935  22.632  1.00  0.00     0.000 G0
ENDBRANCH  13  15
ENDBRANCH  12  13
BRANCH  12  17
ATOM     17  C   UNL     1      17.065  58.651  22.438  1.00  0.00    -0.006 C 
ATOM     18  C   UNL     1      18.254  59.455  21.875  1.00  0.00     0.008 C 
ATOM     19  C   UNL     1      16.974  58.913  23.955  1.00  0.00     0.008 C 
ENDBRANCH  12  17
ENDBRANCH  11  12
ENDBRANCH   1  11
TORSDOF 1
ENDMDL
MODEL 6
REMARK VINA RESULT:    -2.906      2.869      4.727
REMARK INTER + INTRA:          -4.562
REMARK INTER:                  -4.225
REMARK INTRA:                  -0.337
REMARK UNBOUND:                -0.127
REMARK SMILES CC1=CCC[C@H](C)C(=O)C[C@H](C(C)C)C(=O)C1
REMARK SMILES IDX 8 1 9 2 6 3 7 4 5 5 4 6 3 7 2 8 1 9 10 11 11 12 15 13 16 14
REMARK SMILES IDX 17 15 12 17 13 18 14 19
REMARK H PARENT
REMARK Flexibility Score: 70.00
ROOT
ATOM      1  C   UNL     1      16.503  53.138  35.499  1.00  0.00     0.136 C 
ATOM      2  O   UNL     1      16.282  52.617  36.582  1.00  0.00    -0.299 OA
ENDROOT
BRANCH   1   3
ATOM      3  C   UNL     1      15.363  53.265  34.504  1.00  0.00     0.053 C 
ATOM      4  C   UNL     1      14.952  51.892  33.959  1.00  0.00     0.016 C 
BRANCH   3   5
ATOM      5  C   UNL     1      14.160  54.004  35.117  1.00  0.00     0.015 C 
BRANCH   5   6
ATOM      6  C   UNL     1      14.373  55.528  35.144  1.00  0.00     0.028 C 
BRANCH   6   7
ATOM      7  C   UNL     1      14.677  56.060  33.767  1.00  0.00    -0.028 C 
ATOM      8  C   UNL     1      15.873  56.564  33.384  1.00  0.00    -0.070 CG0
ATOM      9  C   UNL     1      16.000  57.097  31.979  1.00  0.00     0.039 C 
ATOM     10  G   UNL     1      17.086  56.611  34.303  1.00  0.00     0.000 G0
ENDBRANCH   6   7
ENDBRANCH   5   6
ENDBRANCH   3   5
ENDBRANCH   1   3
BRANCH   1  11
ATOM     11  C   UNL     1      17.895  53.659  35.216  1.00  0.00     0.087 C 
BRANCH  11  12
ATOM     12  C   UNL     1      18.037  54.210  33.770  1.00  0.00     0.066 C 
BRANCH  12  13
ATOM     13  C   UNL     1      18.216  55.721  33.825  1.00  0.00     0.140 C 
ATOM     14  O   UNL     1      19.248  56.219  33.394  1.00  0.00    -0.299 OA
BRANCH  13  15
ATOM     15  C   UNL     1      17.099  56.618  34.296  1.00  0.00     0.106 CG0
ATOM     16  G   UNL     1      15.890  56.565  33.372  1.00  0.00     0.000 G0
ENDBRANCH  13  15
ENDBRANCH  12  13
BRANCH  12  17
ATOM     17  C   UNL     1      19.217  53.547  32.986  1.00  0.00    -0.006 C 
ATOM     18  C   UNL     1      20.267  52.926  33.930  1.00  0.00     0.008 C 
ATOM     19  C   UNL     1      18.711  52.447  32.031  1.00  0.00     0.008 C 
ENDBRANCH  12  17
ENDBRANCH  11  12
ENDBRANCH   1  11
TORSDOF 1
ENDMDL
MODEL 7
REMARK VINA RESULT:    -2.876     13.019     14.532
REMARK INTER + INTRA:          -4.516
REMARK INTER:                  -4.097
REMARK INTRA:                  -0.419
REMARK UNBOUND:                -0.127
REMARK SMILES CC1=CCC[C@H](C)C(=O)C[C@H](C(C)C)C(=O)C1
REMARK SMILES IDX 8 1 9 2 6 3 7 4 5 5 4 6 3 7 2 8 1 9 10 11 11 12 15 13 16 14
REMARK SMILES IDX 17 15 12 17 13 18 14 19
REMARK H PARENT
REMARK Flexibility Score: 70.00
ROOT
ATOM      1  C   UNL     1      15.840  59.609  21.827  1.00  0.00     0.136 C 
ATOM      2  O   UNL     1      15.977  58.499  21.333  1.00  0.00    -0.299 OA
ENDROOT
BRANCH   1   3
ATOM      3  C   UNL     1      15.652  60.799  20.903  1.00  0.00     0.053 C 
ATOM      4  C   UNL     1      16.662  60.768  19.751  1.00  0.00     0.016 C 
BRANCH   3   5
ATOM      5  C   UNL     1      14.208  60.880  20.376  1.00  0.00     0.015 C 
BRANCH   5   6
ATOM      6  C   UNL     1      13.319  61.768  21.266  1.00  0.00     0.028 C 
BRANCH   6   7
ATOM      7  C   UNL     1      12.454  60.934  22.175  1.00  0.00    -0.028 C 
ATOM      8  C   UNL     1      12.466  61.005  23.526  1.00  0.00    -0.070 CG0
ATOM      9  C   UNL     1      11.568  60.067  24.294  1.00  0.00     0.039 C 
ATOM     10  G   UNL     1      13.336  61.987  24.297  1.00  0.00     0.000 G0
ENDBRANCH   6   7
ENDBRANCH   5   6
ENDBRANCH   3   5
ENDBRANCH   1   3
BRANCH   1  11
ATOM     11  C   UNL     1      15.832  59.736  23.335  1.00  0.00     0.087 C 
BRANCH  11  12
ATOM     12  C   UNL     1      15.797  61.217  23.802  1.00  0.00     0.066 C 
BRANCH  12  13
ATOM     13  C   UNL     1      14.641  61.408  24.773  1.00  0.00     0.140 C 
ATOM     14  O   UNL     1      14.806  61.157  25.960  1.00  0.00    -0.299 OA
BRANCH  13  15
ATOM     15  C   UNL     1      13.335  62.009  24.317  1.00  0.00     0.106 CG0
ATOM     16  G   UNL     1      12.487  61.018  23.534  1.00  0.00     0.000 G0
ENDBRANCH  13  15
ENDBRANCH  12  13
BRANCH  12  17
ATOM     17  C   UNL     1      17.143  61.673  24.455  1.00  0.00    -0.006 C 
ATOM     18  C   UNL     1      18.088  60.487  24.733  1.00  0.00     0.008 C 
ATOM     19  C   UNL     1      17.886  62.689  23.564  1.00  0.00     0.008 C 
ENDBRANCH  12  17
ENDBRANCH  11  12
ENDBRANCH   1  11
TORSDOF 1
ENDMDL
MODEL 8
REMARK VINA RESULT:    -2.848      2.106      5.304
REMARK INTER + INTRA:          -4.473
REMARK INTER:                  -4.075
REMARK INTRA:                  -0.398
REMARK UNBOUND:                -0.127
REMARK SMILES CC1=CCC[C@H](C)C(=O)C[C@H](C(C)C)C(=O)C1
REMARK SMILES IDX 8 1 9 2 6 3 7 4 5 5 4 6 3 7 2 8 1 9 10 11 11 12 15 13 16 14
REMARK SMILES IDX 17 15 12 17 13 18 14 19
REMARK H PARENT
REMARK Flexibility Score: 70.00
ROOT
ATOM      1  C   UNL     1      17.816  54.293  34.116  1.00  0.00     0.136 C 
ATOM      2  O   UNL     1      17.510  55.377  34.590  1.00  0.00    -0.299 OA
ENDROOT
BRANCH   1   3
ATOM      3  C   UNL     1      17.877  53.086  35.036  1.00  0.00     0.053 C 
ATOM      4  C   UNL     1      19.126  53.134  35.925  1.00  0.00     0.016 C 
BRANCH   3   5
ATOM      5  C   UNL     1      16.597  52.956  35.880  1.00  0.00     0.015 C 
BRANCH   5   6
ATOM      6  C   UNL     1      15.609  51.941  35.275  1.00  0.00     0.028 C 
BRANCH   6   7
ATOM      7  C   UNL     1      14.569  52.632  34.431  1.00  0.00    -0.028 C 
ATOM      8  C   UNL     1      14.511  52.573  33.081  1.00  0.00    -0.070 CG0
ATOM      9  C   UNL     1      13.430  53.359  32.383  1.00  0.00     0.039 C 
ATOM     10  G   UNL     1      15.479  51.749  32.245  1.00  0.00     0.000 G0
ENDBRANCH   6   7
ENDBRANCH   5   6
ENDBRANCH   3   5
ENDBRANCH   1   3
BRANCH   1  11
ATOM     11  C   UNL     1      18.088  54.202  32.630  1.00  0.00     0.087 C 
BRANCH  11  12
ATOM     12  C   UNL     1      17.906  52.759  32.085  1.00  0.00     0.066 C 
BRANCH  12  13
ATOM     13  C   UNL     1      16.496  52.606  31.533  1.00  0.00     0.140 C 
ATOM     14  O   UNL     1      16.215  53.114  30.455  1.00  0.00    -0.299 OA
BRANCH  13  15
ATOM     15  C   UNL     1      15.477  51.744  32.236  1.00  0.00     0.106 CG0
ATOM     16  G   UNL     1      14.517  52.564  33.085  1.00  0.00     0.000 G0
ENDBRANCH  13  15
ENDBRANCH  12  13
BRANCH  12  17
ATOM     17  C   UNL     1      18.965  52.391  30.992  1.00  0.00    -0.006 C 
ATOM     18  C   UNL     1      20.397  52.772  31.418  1.00  0.00     0.008 C 
ATOM     19  C   UNL     1      18.938  50.884  30.666  1.00  0.00     0.008 C 
ENDBRANCH  12  17
ENDBRANCH  11  12
ENDBRANCH   1  11
TORSDOF 1
ENDMDL
MODEL 9
REMARK VINA RESULT:    -2.839      2.535      3.953
REMARK INTER + INTRA:          -4.460
REMARK INTER:                  -4.386
REMARK INTRA:                  -0.074
REMARK UNBOUND:                -0.127
REMARK SMILES CC1=CCC[C@H](C)C(=O)C[C@H](C(C)C)C(=O)C1
REMARK SMILES IDX 8 1 9 2 6 3 7 4 5 5 4 6 3 7 2 8 1 9 10 11 11 12 15 13 16 14
REMARK SMILES IDX 17 15 12 17 13 18 14 19
REMARK H PARENT
REMARK Flexibility Score: 70.00
ROOT
ATOM      1  C   UNL     1      14.708  55.783  34.247  1.00  0.00     0.136 C 
ATOM      2  O   UNL     1      14.035  56.771  34.506  1.00  0.00    -0.299 OA
ENDROOT
BRANCH   1   3
ATOM      3  C   UNL     1      15.934  55.946  33.367  1.00  0.00     0.053 C 
ATOM      4  C   UNL     1      15.545  56.419  31.962  1.00  0.00     0.016 C 
BRANCH   3   5
ATOM      5  C   UNL     1      16.965  56.893  34.008  1.00  0.00     0.015 C 
BRANCH   5   6
ATOM      6  C   UNL     1      18.072  56.122  34.751  1.00  0.00     0.028 C 
BRANCH   6   7
ATOM      7  C   UNL     1      18.454  54.868  34.007  1.00  0.00    -0.028 C 
ATOM      8  C   UNL     1      18.190  53.611  34.432  1.00  0.00    -0.070 CG0
ATOM      9  C   UNL     1      18.681  52.460  33.589  1.00  0.00     0.039 C 
ATOM     10  G   UNL     1      17.421  53.312  35.710  1.00  0.00     0.000 G0
ENDBRANCH   6   7
ENDBRANCH   5   6
ENDBRANCH   3   5
ENDBRANCH   1   3
BRANCH   1  11
ATOM     11  C   UNL     1      14.301  54.453  34.844  1.00  0.00     0.087 C 
BRANCH  11  12
ATOM     12  C   UNL     1      15.186  53.283  34.334  1.00  0.00     0.066 C 
BRANCH  12  13
ATOM     13  C   UNL     1      16.041  52.764  35.481  1.00  0.00     0.140 C 
ATOM     14  O   UNL     1      15.637  51.825  36.153  1.00  0.00    -0.299 OA
BRANCH  13  15
ATOM     15  C   UNL     1      17.424  53.313  35.727  1.00  0.00     0.106 CG0
ATOM     16  G   UNL     1      18.171  53.596  34.431  1.00  0.00     0.000 G0
ENDBRANCH  13  15
ENDBRANCH  12  13
BRANCH  12  17
ATOM     17  C   UNL     1      14.344  52.121  33.709  1.00  0.00    -0.006 C 
ATOM     18  C   UNL     1      13.000  52.616  33.138  1.00  0.00     0.008 C 
ATOM     19  C   UNL     1      15.118  51.407  32.583  1.00  0.00     0.008 C 
ENDBRANCH  12  17
ENDBRANCH  11  12
ENDBRANCH   1  11
TORSDOF 1
ENDMDL
