MODEL 1
REMARK VINA RESULT:    -4.813      0.000      0.000
REMARK INTER + INTRA:          -4.994
REMARK INTER:                  -6.501
REMARK INTRA:                   1.507
REMARK UNBOUND:                 1.507
REMARK SMILES C=C1C(=O)O[C@H]2[C@@H]1CCC(C)=CCC[C@@]1(C)O[C@H]21
REMARK SMILES IDX 6 1 7 2 2 3 1 4 3 5 4 6 5 7 8 8 9 9 10 10 11 11 12 12 18 14
REMARK SMILES IDX 15 15 17 16 16 17 14 18 13 19
REMARK H PARENT
REMARK Flexibility Score: 70.00
ROOT
ATOM      1  C   UNL     1      57.542  58.198 245.705  1.00  0.00     0.216 C 
ATOM      2  C   UNL     1      57.048  59.655 245.348  1.00  0.00     0.070 C 
ATOM      3  C   UNL     1      55.559  59.447 245.343  1.00  0.00     0.037 C 
ATOM      4  C   UNL     1      54.655  60.257 244.795  1.00  0.00     0.021 C 
ATOM      5  C   UNL     1      55.278  58.219 246.054  1.00  0.00     0.334 C 
ATOM      6  O   UNL     1      54.136  57.801 246.377  1.00  0.00    -0.247 OA
ATOM      7  O   UNL     1      56.449  57.556 246.355  1.00  0.00    -0.455 OA
ENDROOT
BRANCH   2   8
ATOM      8  C   UNL     1      57.371  60.796 246.378  1.00  0.00     0.017 C 
BRANCH   8   9
ATOM      9  C   UNL     1      58.721  61.566 246.210  1.00  0.00     0.031 C 
BRANCH   9  10
ATOM     10  C   UNL     1      59.731  61.228 247.307  1.00  0.00    -0.077 C 
ATOM     11  C   UNL     1      59.408  61.603 248.734  1.00  0.00     0.039 C 
ATOM     12  C   UNL     1      60.850  60.521 247.008  1.00  0.00    -0.028 CG0
ATOM     13  G   UNL     1      61.431  59.457 247.927  1.00  0.00     0.000 G0
ENDBRANCH   9  10
ENDBRANCH   8   9
ENDBRANCH   2   8
BRANCH   1  14
ATOM     14  C   UNL     1      58.845  58.185 246.486  1.00  0.00     0.192 C 
ATOM     15  C   UNL     1      60.264  57.829 246.175  1.00  0.00     0.096 C 
ATOM     16  O   UNL     1      59.323  56.845 246.449  1.00  0.00    -0.362 OA
ATOM     17  C   UNL     1      60.730  57.861 244.721  1.00  0.00     0.045 C 
BRANCH  15  18
ATOM     18  C   UNL     1      61.284  58.002 247.341  1.00  0.00     0.042 C 
BRANCH  18  19
ATOM     19  C   UNL     1      61.432  59.442 247.929  1.00  0.00     0.030 CG0
ATOM     20  G   UNL     1      60.840  60.508 247.020  1.00  0.00     0.000 G0
ENDBRANCH  18  19
ENDBRANCH  15  18
ENDBRANCH   1  14
TORSDOF 0
ENDMDL
MODEL 2
REMARK VINA RESULT:    -4.712      3.609      6.434
REMARK INTER + INTRA:          -4.858
REMARK INTER:                  -6.457
REMARK INTRA:                   1.599
REMARK UNBOUND:                 1.507
REMARK SMILES C=C1C(=O)O[C@H]2[C@@H]1CCC(C)=CCC[C@@]1(C)O[C@H]21
REMARK SMILES IDX 6 1 7 2 2 3 1 4 3 5 4 6 5 7 8 8 9 9 10 10 11 11 12 12 18 14
REMARK SMILES IDX 15 15 17 16 16 17 14 18 13 19
REMARK H PARENT
REMARK Flexibility Score: 70.00
ROOT
ATOM      1  C   UNL     1      56.137  60.491 245.524  1.00  0.00     0.216 C 
ATOM      2  C   UNL     1      56.761  59.052 245.338  1.00  0.00     0.070 C 
ATOM      3  C   UNL     1      58.227  59.381 245.382  1.00  0.00     0.037 C 
ATOM      4  C   UNL     1      59.220  58.599 244.961  1.00  0.00     0.021 C 
ATOM      5  C   UNL     1      58.373  60.689 245.981  1.00  0.00     0.334 C 
ATOM      6  O   UNL     1      59.460  61.229 246.314  1.00  0.00    -0.247 OA
ATOM      7  O   UNL     1      57.140  61.279 246.159  1.00  0.00    -0.455 OA
ENDROOT
BRANCH   2   8
ATOM      8  C   UNL     1      56.471  57.991 246.460  1.00  0.00     0.017 C 
BRANCH   8   9
ATOM      9  C   UNL     1      55.142  57.174 246.362  1.00  0.00     0.031 C 
BRANCH   9  10
ATOM     10  C   UNL     1      54.114  57.595 247.413  1.00  0.00    -0.077 C 
ATOM     11  C   UNL     1      54.573  57.804 248.838  1.00  0.00     0.039 C 
ATOM     12  C   UNL     1      52.836  57.867 247.046  1.00  0.00    -0.028 CG0
ATOM     13  G   UNL     1      52.019  58.997 247.654  1.00  0.00     0.000 G0
ENDBRANCH   9  10
ENDBRANCH   8   9
ENDBRANCH   2   8
BRANCH   1  14
ATOM     14  C   UNL     1      54.796  60.471 246.239  1.00  0.00     0.192 C 
ATOM     15  C   UNL     1      53.367  60.376 245.808  1.00  0.00     0.096 C 
ATOM     16  O   UNL     1      54.057  61.579 245.737  1.00  0.00    -0.362 OA
ATOM     17  C   UNL     1      53.047  59.758 244.448  1.00  0.00     0.045 C 
BRANCH  15  18
ATOM     18  C   UNL     1      52.307  60.376 246.950  1.00  0.00     0.042 C 
BRANCH  18  19
ATOM     19  C   UNL     1      52.016  59.001 247.632  1.00  0.00     0.030 CG0
ATOM     20  G   UNL     1      52.831  57.867 247.031  1.00  0.00     0.000 G0
ENDBRANCH  18  19
ENDBRANCH  15  18
ENDBRANCH   1  14
TORSDOF 0
ENDMDL
MODEL 3
REMARK VINA RESULT:    -4.493      1.768      3.254
REMARK INTER + INTRA:          -4.562
REMARK INTER:                  -6.036
REMARK INTRA:                   1.474
REMARK UNBOUND:                 1.507
REMARK SMILES C=C1C(=O)O[C@H]2[C@@H]1CCC(C)=CCC[C@@]1(C)O[C@H]21
REMARK SMILES IDX 6 1 7 2 2 3 1 4 3 5 4 6 5 7 8 8 9 9 10 10 11 11 12 12 18 14
REMARK SMILES IDX 15 15 17 16 16 17 14 18 13 19
REMARK H PARENT
REMARK Flexibility Score: 70.00
ROOT
ATOM      1  C   UNL     1      57.481  60.334 246.788  1.00  0.00     0.216 C 
ATOM      2  C   UNL     1      57.008  58.837 246.954  1.00  0.00     0.070 C 
ATOM      3  C   UNL     1      55.702  58.877 246.211  1.00  0.00     0.037 C 
ATOM      4  C   UNL     1      54.721  57.979 246.296  1.00  0.00     0.021 C 
ATOM      5  C   UNL     1      55.704  60.054 245.370  1.00  0.00     0.334 C 
ATOM      6  O   UNL     1      54.841  60.337 244.498  1.00  0.00    -0.247 OA
ATOM      7  O   UNL     1      56.804  60.839 245.640  1.00  0.00    -0.455 OA
ENDROOT
BRANCH   2   8
ATOM      8  C   UNL     1      57.900  57.723 246.299  1.00  0.00     0.017 C 
BRANCH   8   9
ATOM      9  C   UNL     1      59.091  57.158 247.140  1.00  0.00     0.031 C 
BRANCH   9  10
ATOM     10  C   UNL     1      60.452  57.621 246.618  1.00  0.00    -0.077 C 
ATOM     11  C   UNL     1      60.760  57.462 245.148  1.00  0.00     0.039 C 
ATOM     12  C   UNL     1      61.322  58.250 247.449  1.00  0.00    -0.028 CG0
ATOM     13  G   UNL     1      62.192  59.418 247.010  1.00  0.00     0.000 G0
ENDBRANCH   9  10
ENDBRANCH   8   9
ENDBRANCH   2   8
BRANCH   1  14
ATOM     14  C   UNL     1      58.992  60.481 246.751  1.00  0.00     0.192 C 
ATOM     15  C   UNL     1      60.051  60.801 247.757  1.00  0.00     0.096 C 
ATOM     16  O   UNL     1      59.279  61.805 247.187  1.00  0.00    -0.362 OA
ATOM     17  C   UNL     1      59.761  60.554 249.237  1.00  0.00     0.045 C 
BRANCH  15  18
ATOM     18  C   UNL     1      61.517  60.819 247.227  1.00  0.00     0.042 C 
BRANCH  18  19
ATOM     19  C   UNL     1      62.193  59.429 247.002  1.00  0.00     0.030 CG0
ATOM     20  G   UNL     1      61.320  58.272 247.465  1.00  0.00     0.000 G0
ENDBRANCH  18  19
ENDBRANCH  15  18
ENDBRANCH   1  14
TORSDOF 0
ENDMDL
MODEL 4
REMARK VINA RESULT:    -4.492      2.245      2.772
REMARK INTER + INTRA:          -4.560
REMARK INTER:                  -6.005
REMARK INTRA:                   1.445
REMARK UNBOUND:                 1.507
REMARK SMILES C=C1C(=O)O[C@H]2[C@@H]1CCC(C)=CCC[C@@]1(C)O[C@H]21
REMARK SMILES IDX 6 1 7 2 2 3 1 4 3 5 4 6 5 7 8 8 9 9 10 10 11 11 12 12 18 14
REMARK SMILES IDX 15 15 17 16 16 17 14 18 13 19
REMARK H PARENT
REMARK Flexibility Score: 70.00
ROOT
ATOM      1  C   UNL     1      56.354  60.167 245.300  1.00  0.00     0.216 C 
ATOM      2  C   UNL     1      55.578  61.094 246.317  1.00  0.00     0.070 C 
ATOM      3  C   UNL     1      54.221  61.133 245.671  1.00  0.00     0.037 C 
ATOM      4  C   UNL     1      53.258  62.019 245.922  1.00  0.00     0.021 C 
ATOM      5  C   UNL     1      54.137  60.029 244.742  1.00  0.00     0.334 C 
ATOM      6  O   UNL     1      53.101  59.659 244.129  1.00  0.00    -0.247 OA
ATOM      7  O   UNL     1      55.361  59.406 244.618  1.00  0.00    -0.455 OA
ENDROOT
BRANCH   2   8
ATOM      8  C   UNL     1      55.398  60.560 247.783  1.00  0.00     0.017 C 
BRANCH   8   9
ATOM      9  C   UNL     1      56.528  60.879 248.816  1.00  0.00     0.031 C 
BRANCH   9  10
ATOM     10  C   UNL     1      57.345  59.643 249.194  1.00  0.00    -0.077 C 
ATOM     11  C   UNL     1      56.627  58.440 249.759  1.00  0.00     0.039 C 
ATOM     12  C   UNL     1      58.677  59.601 248.933  1.00  0.00    -0.028 CG0
ATOM     13  G   UNL     1      59.391  58.346 248.456  1.00  0.00     0.000 G0
ENDBRANCH   9  10
ENDBRANCH   8   9
ENDBRANCH   2   8
BRANCH   1  14
ATOM     14  C   UNL     1      57.446  59.342 245.959  1.00  0.00     0.192 C 
ATOM     15  C   UNL     1      58.933  59.456 246.082  1.00  0.00     0.096 C 
ATOM     16  O   UNL     1      58.345  58.963 244.923  1.00  0.00    -0.362 OA
ATOM     17  C   UNL     1      59.583  60.828 245.918  1.00  0.00     0.045 C 
BRANCH  15  18
ATOM     18  C   UNL     1      59.639  58.334 246.901  1.00  0.00     0.042 C 
BRANCH  18  19
ATOM     19  C   UNL     1      59.400  58.341 248.444  1.00  0.00     0.030 CG0
ATOM     20  G   UNL     1      58.688  59.599 248.919  1.00  0.00     0.000 G0
ENDBRANCH  18  19
ENDBRANCH  15  18
ENDBRANCH   1  14
TORSDOF 0
ENDMDL
MODEL 5
REMARK VINA RESULT:    -4.450      2.966      5.354
REMARK INTER + INTRA:          -4.503
REMARK INTER:                  -6.009
REMARK INTRA:                   1.506
REMARK UNBOUND:                 1.507
REMARK SMILES C=C1C(=O)O[C@H]2[C@@H]1CCC(C)=CCC[C@@]1(C)O[C@H]21
REMARK SMILES IDX 6 1 7 2 2 3 1 4 3 5 4 6 5 7 8 8 9 9 10 10 11 11 12 12 18 14
REMARK SMILES IDX 15 15 17 16 16 17 14 18 13 19
REMARK H PARENT
REMARK Flexibility Score: 70.00
ROOT
ATOM      1  C   UNL     1      57.278  58.527 245.609  1.00  0.00     0.216 C 
ATOM      2  C   UNL     1      57.835  57.882 246.940  1.00  0.00     0.070 C 
ATOM      3  C   UNL     1      59.242  57.561 246.521  1.00  0.00     0.037 C 
ATOM      4  C   UNL     1      60.073  56.721 247.136  1.00  0.00     0.021 C 
ATOM      5  C   UNL     1      59.545  58.340 245.340  1.00  0.00     0.334 C 
ATOM      6  O   UNL     1      60.675  58.442 244.795  1.00  0.00    -0.247 OA
ATOM      7  O   UNL     1      58.415  58.985 244.884  1.00  0.00    -0.455 OA
ENDROOT
BRANCH   2   8
ATOM      8  C   UNL     1      57.909  58.804 248.209  1.00  0.00     0.017 C 
BRANCH   8   9
ATOM      9  C   UNL     1      56.643  58.886 249.122  1.00  0.00     0.031 C 
BRANCH   9  10
ATOM     10  C   UNL     1      55.938  60.241 249.030  1.00  0.00    -0.077 C 
ATOM     11  C   UNL     1      56.722  61.492 249.348  1.00  0.00     0.039 C 
ATOM     12  C   UNL     1      54.660  60.314 248.578  1.00  0.00    -0.028 CG0
ATOM     13  G   UNL     1      54.160  61.437 247.681  1.00  0.00     0.000 G0
ENDBRANCH   9  10
ENDBRANCH   8   9
ENDBRANCH   2   8
BRANCH   1  14
ATOM     14  C   UNL     1      56.214  59.582 245.858  1.00  0.00     0.192 C 
ATOM     15  C   UNL     1      54.720  59.613 245.810  1.00  0.00     0.096 C 
ATOM     16  O   UNL     1      55.475  59.702 244.648  1.00  0.00    -0.362 OA
ATOM     17  C   UNL     1      53.950  58.301 245.956  1.00  0.00     0.045 C 
BRANCH  15  18
ATOM     18  C   UNL     1      54.051  60.972 246.178  1.00  0.00     0.042 C 
BRANCH  18  19
ATOM     19  C   UNL     1      54.165  61.424 247.669  1.00  0.00     0.030 CG0
ATOM     20  G   UNL     1      54.651  60.308 248.582  1.00  0.00     0.000 G0
ENDBRANCH  18  19
ENDBRANCH  15  18
ENDBRANCH   1  14
TORSDOF 0
ENDMDL
MODEL 6
REMARK VINA RESULT:    -4.256      3.013      5.870
REMARK INTER + INTRA:          -4.242
REMARK INTER:                  -5.723
REMARK INTRA:                   1.481
REMARK UNBOUND:                 1.507
REMARK SMILES C=C1C(=O)O[C@H]2[C@@H]1CCC(C)=CCC[C@@]1(C)O[C@H]21
REMARK SMILES IDX 6 1 7 2 2 3 1 4 3 5 4 6 5 7 8 8 9 9 10 10 11 11 12 12 18 14
REMARK SMILES IDX 15 15 17 16 16 17 14 18 13 19
REMARK H PARENT
REMARK Flexibility Score: 70.00
ROOT
ATOM      1  C   UNL     1      62.902  58.748 247.096  1.00  0.00     0.216 C 
ATOM      2  C   UNL     1      62.506  59.429 248.465  1.00  0.00     0.070 C 
ATOM      3  C   UNL     1      63.835  59.991 248.886  1.00  0.00     0.037 C 
ATOM      4  C   UNL     1      64.164  60.394 250.113  1.00  0.00     0.021 C 
ATOM      5  C   UNL     1      64.690  60.038 247.721  1.00  0.00     0.334 C 
ATOM      6  O   UNL     1      65.822  60.584 247.660  1.00  0.00    -0.247 OA
ATOM      7  O   UNL     1      64.087  59.405 246.654  1.00  0.00    -0.455 OA
ENDROOT
BRANCH   2   8
ATOM      8  C   UNL     1      61.478  60.614 248.408  1.00  0.00     0.017 C 
BRANCH   8   9
ATOM      9  C   UNL     1      59.956  60.259 248.457  1.00  0.00     0.031 C 
BRANCH   9  10
ATOM     10  C   UNL     1      59.257  60.481 247.116  1.00  0.00    -0.077 C 
ATOM     11  C   UNL     1      59.429  61.808 246.415  1.00  0.00     0.039 C 
ATOM     12  C   UNL     1      58.574  59.465 246.527  1.00  0.00    -0.028 CG0
ATOM     13  G   UNL     1      58.582  59.220 245.026  1.00  0.00     0.000 G0
ENDBRANCH   9  10
ENDBRANCH   8   9
ENDBRANCH   2   8
BRANCH   1  14
ATOM     14  C   UNL     1      61.768  58.736 246.086  1.00  0.00     0.192 C 
ATOM     15  C   UNL     1      60.707  57.757 245.696  1.00  0.00     0.096 C 
ATOM     16  O   UNL     1      62.007  57.629 245.225  1.00  0.00    -0.362 OA
ATOM     17  C   UNL     1      60.295  56.678 246.696  1.00  0.00     0.045 C 
BRANCH  15  18
ATOM     18  C   UNL     1      59.724  58.221 244.579  1.00  0.00     0.042 C 
BRANCH  18  19
ATOM     19  C   UNL     1      58.599  59.216 245.009  1.00  0.00     0.030 CG0
ATOM     20  G   UNL     1      58.581  59.463 246.510  1.00  0.00     0.000 G0
ENDBRANCH  18  19
ENDBRANCH  15  18
ENDBRANCH   1  14
TORSDOF 0
ENDMDL
MODEL 7
REMARK VINA RESULT:    -4.198      4.034      5.449
REMARK INTER + INTRA:          -4.163
REMARK INTER:                  -5.634
REMARK INTRA:                   1.471
REMARK UNBOUND:                 1.507
REMARK SMILES C=C1C(=O)O[C@H]2[C@@H]1CCC(C)=CCC[C@@]1(C)O[C@H]21
REMARK SMILES IDX 6 1 7 2 2 3 1 4 3 5 4 6 5 7 8 8 9 9 10 10 11 11 12 12 18 14
REMARK SMILES IDX 15 15 17 16 16 17 14 18 13 19
REMARK H PARENT
REMARK Flexibility Score: 70.00
ROOT
ATOM      1  C   UNL     1      52.736  58.164 246.608  1.00  0.00     0.216 C 
ATOM      2  C   UNL     1      53.891  58.448 245.568  1.00  0.00     0.070 C 
ATOM      3  C   UNL     1      53.201  59.420 244.652  1.00  0.00     0.037 C 
ATOM      4  C   UNL     1      53.591  59.751 243.421  1.00  0.00     0.021 C 
ATOM      5  C   UNL     1      52.050  59.950 245.348  1.00  0.00     0.334 C 
ATOM      6  O   UNL     1      51.319  60.895 244.950  1.00  0.00    -0.247 OA
ATOM      7  O   UNL     1      51.855  59.282 246.538  1.00  0.00    -0.455 OA
ENDROOT
BRANCH   2   8
ATOM      8  C   UNL     1      55.193  59.138 246.110  1.00  0.00     0.017 C 
BRANCH   8   9
ATOM      9  C   UNL     1      56.329  58.215 246.661  1.00  0.00     0.031 C 
BRANCH   9  10
ATOM     10  C   UNL     1      56.476  58.307 248.180  1.00  0.00    -0.077 C 
ATOM     11  C   UNL     1      56.767  59.652 248.804  1.00  0.00     0.039 C 
ATOM     12  C   UNL     1      56.254  57.214 248.954  1.00  0.00    -0.028 CG0
ATOM     13  G   UNL     1      55.556  57.280 250.304  1.00  0.00     0.000 G0
ENDBRANCH   9  10
ENDBRANCH   8   9
ENDBRANCH   2   8
BRANCH   1  14
ATOM     14  C   UNL     1      53.253  57.848 248.001  1.00  0.00     0.192 C 
ATOM     15  C   UNL     1      53.461  56.598 248.796  1.00  0.00     0.096 C 
ATOM     16  O   UNL     1      52.200  57.169 248.677  1.00  0.00    -0.362 OA
ATOM     17  C   UNL     1      53.618  55.271 248.056  1.00  0.00     0.045 C 
BRANCH  15  18
ATOM     18  C   UNL     1      54.054  56.787 250.225  1.00  0.00     0.042 C 
BRANCH  18  19
ATOM     19  C   UNL     1      55.534  57.282 250.305  1.00  0.00     0.030 CG0
ATOM     20  G   UNL     1      56.251  57.198 248.966  1.00  0.00     0.000 G0
ENDBRANCH  18  19
ENDBRANCH  15  18
ENDBRANCH   1  14
TORSDOF 0
ENDMDL
MODEL 8
REMARK VINA RESULT:    -4.194      5.560      7.201
REMARK INTER + INTRA:          -4.158
REMARK INTER:                  -5.650
REMARK INTRA:                   1.493
REMARK UNBOUND:                 1.507
REMARK SMILES C=C1C(=O)O[C@H]2[C@@H]1CCC(C)=CCC[C@@]1(C)O[C@H]21
REMARK SMILES IDX 6 1 7 2 2 3 1 4 3 5 4 6 5 7 8 8 9 9 10 10 11 11 12 12 18 14
REMARK SMILES IDX 15 15 17 16 16 17 14 18 13 19
REMARK H PARENT
REMARK Flexibility Score: 70.00
ROOT
ATOM      1  C   UNL     1      51.864  59.312 246.760  1.00  0.00     0.216 C 
ATOM      2  C   UNL     1      52.859  58.713 245.689  1.00  0.00     0.070 C 
ATOM      3  C   UNL     1      53.118  59.929 244.844  1.00  0.00     0.037 C 
ATOM      4  C   UNL     1      53.632  59.936 243.615  1.00  0.00     0.021 C 
ATOM      5  C   UNL     1      52.727  61.094 245.607  1.00  0.00     0.334 C 
ATOM      6  O   UNL     1      52.935  62.291 245.280  1.00  0.00    -0.247 OA
ATOM      7  O   UNL     1      52.096  60.718 246.773  1.00  0.00    -0.455 OA
ENDROOT
BRANCH   2   8
ATOM      8  C   UNL     1      54.244  58.185 246.210  1.00  0.00     0.017 C 
BRANCH   8   9
ATOM      9  C   UNL     1      54.311  56.712 246.728  1.00  0.00     0.031 C 
BRANCH   9  10
ATOM     10  C   UNL     1      54.451  56.629 248.249  1.00  0.00    -0.077 C 
ATOM     11  C   UNL     1      55.479  57.498 248.934  1.00  0.00     0.039 C 
ATOM     12  C   UNL     1      53.597  55.858 248.970  1.00  0.00    -0.028 CG0
ATOM     13  G   UNL     1      53.050  56.272 250.328  1.00  0.00     0.000 G0
ENDBRANCH   9  10
ENDBRANCH   8   9
ENDBRANCH   2   8
BRANCH   1  14
ATOM     14  C   UNL     1      51.971  58.636 248.116  1.00  0.00     0.192 C 
ATOM     15  C   UNL     1      51.262  57.509 248.797  1.00  0.00     0.096 C 
ATOM     16  O   UNL     1      50.697  58.777 248.736  1.00  0.00    -0.362 OA
ATOM     17  C   UNL     1      50.546  56.465 247.942  1.00  0.00     0.045 C 
BRANCH  15  18
ATOM     18  C   UNL     1      51.756  57.158 250.233  1.00  0.00     0.042 C 
BRANCH  18  19
ATOM     19  C   UNL     1      53.037  56.268 250.331  1.00  0.00     0.030 CG0
ATOM     20  G   UNL     1      53.586  55.882 248.966  1.00  0.00     0.000 G0
ENDBRANCH  18  19
ENDBRANCH  15  18
ENDBRANCH   1  14
TORSDOF 0
ENDMDL
MODEL 9
REMARK VINA RESULT:    -4.005      3.109      5.490
REMARK INTER + INTRA:          -3.903
REMARK INTER:                  -5.365
REMARK INTRA:                   1.462
REMARK UNBOUND:                 1.507
REMARK SMILES C=C1C(=O)O[C@H]2[C@@H]1CCC(C)=CCC[C@@]1(C)O[C@H]21
REMARK SMILES IDX 6 1 7 2 2 3 1 4 3 5 4 6 5 7 8 8 9 9 10 10 11 11 12 12 18 14
REMARK SMILES IDX 15 15 17 16 16 17 14 18 13 19
REMARK H PARENT
REMARK Flexibility Score: 70.00
ROOT
ATOM      1  C   UNL     1      58.100  59.048 247.611  1.00  0.00     0.216 C 
ATOM      2  C   UNL     1      58.058  59.442 246.082  1.00  0.00     0.070 C 
ATOM      3  C   UNL     1      59.186  58.602 245.551  1.00  0.00     0.037 C 
ATOM      4  C   UNL     1      59.808  58.768 244.384  1.00  0.00     0.021 C 
ATOM      5  C   UNL     1      59.466  57.567 246.521  1.00  0.00     0.334 C 
ATOM      6  O   UNL     1      60.246  56.593 246.354  1.00  0.00    -0.247 OA
ATOM      7  O   UNL     1      58.744  57.778 247.676  1.00  0.00    -0.455 OA
ENDROOT
BRANCH   2   8
ATOM      8  C   UNL     1      56.761  59.069 245.278  1.00  0.00     0.017 C 
BRANCH   8   9
ATOM      9  C   UNL     1      55.584  60.099 245.280  1.00  0.00     0.031 C 
BRANCH   9  10
ATOM     10  C   UNL     1      54.389  59.625 246.108  1.00  0.00    -0.077 C 
ATOM     11  C   UNL     1      53.769  58.285 245.790  1.00  0.00     0.039 C 
ATOM     12  C   UNL     1      53.961  60.358 247.167  1.00  0.00    -0.028 CG0
ATOM     13  G   UNL     1      53.472  59.734 248.466  1.00  0.00     0.000 G0
ENDBRANCH   9  10
ENDBRANCH   8   9
ENDBRANCH   2   8
BRANCH   1  14
ATOM     14  C   UNL     1      56.737  59.106 248.279  1.00  0.00     0.192 C 
ATOM     15  C   UNL     1      56.020  60.096 249.140  1.00  0.00     0.096 C 
ATOM     16  O   UNL     1      56.979  59.245 249.675  1.00  0.00    -0.362 OA
ATOM     17  C   UNL     1      56.445  61.562 249.088  1.00  0.00     0.045 C 
BRANCH  15  18
ATOM     18  C   UNL     1      54.578  59.702 249.581  1.00  0.00     0.042 C 
BRANCH  18  19
ATOM     19  C   UNL     1      53.475  59.746 248.476  1.00  0.00     0.030 CG0
ATOM     20  G   UNL     1      53.975  60.354 247.174  1.00  0.00     0.000 G0
ENDBRANCH  18  19
ENDBRANCH  15  18
ENDBRANCH   1  14
TORSDOF 0
ENDMDL
