MODEL 1
REMARK VINA RESULT:    -3.752      0.000      0.000
REMARK INTER + INTRA:          -3.996
REMARK INTER:                  -3.972
REMARK INTRA:                  -0.024
REMARK UNBOUND:                -0.024
REMARK SMILES O=C([O-])c1cccnc1
REMARK SMILES IDX 4 1 5 2 9 3 6 4 8 5 7 6 2 7 1 8 3 9
REMARK H PARENT
REMARK Flexibility Score: inf
ROOT
ATOM      1  C   UNL     1      -5.735  35.834  22.168  1.00  0.00     0.016 A 
ATOM      2  C   UNL     1      -5.928  34.488  22.522  1.00  0.00     0.013 A 
ATOM      3  C   UNL     1      -5.744  36.799  23.188  1.00  0.00     0.120 A 
ATOM      4  C   UNL     1      -6.124  34.135  23.857  1.00  0.00     0.021 A 
ATOM      5  N   UNL     1      -5.937  36.429  24.483  1.00  0.00    -0.264 NA
ATOM      6  C   UNL     1      -6.125  35.130  24.835  1.00  0.00     0.111 A 
ENDROOT
BRANCH   1   7
ATOM      7  C   UNL     1      -5.525  36.228  20.759  1.00  0.00     0.073 C 
ATOM      8  O   UNL     1      -5.473  35.358  19.851  1.00  0.00    -0.545 OA
ATOM      9  O   UNL     1      -5.383  37.569  20.416  1.00  0.00    -0.545 OA
ENDBRANCH   1   7
TORSDOF 1
ENDMDL
MODEL 2
REMARK VINA RESULT:    -3.625      2.574      3.567
REMARK INTER + INTRA:          -3.861
REMARK INTER:                  -3.837
REMARK INTRA:                  -0.024
REMARK UNBOUND:                -0.024
REMARK SMILES O=C([O-])c1cccnc1
REMARK SMILES IDX 4 1 5 2 9 3 6 4 8 5 7 6 2 7 1 8 3 9
REMARK H PARENT
REMARK Flexibility Score: inf
ROOT
ATOM      1  C   UNL     1      -5.740  35.847  22.286  1.00  0.00     0.016 A 
ATOM      2  C   UNL     1      -5.552  35.111  21.105  1.00  0.00     0.013 A 
ATOM      3  C   UNL     1      -5.706  37.249  22.211  1.00  0.00     0.120 A 
ATOM      4  C   UNL     1      -5.337  35.771  19.894  1.00  0.00     0.021 A 
ATOM      5  N   UNL     1      -5.495  37.869  21.018  1.00  0.00    -0.264 NA
ATOM      6  C   UNL     1      -5.312  37.165  19.870  1.00  0.00     0.111 A 
ENDROOT
BRANCH   1   7
ATOM      7  C   UNL     1      -5.970  35.167  23.578  1.00  0.00     0.073 C 
ATOM      8  O   UNL     1      -6.125  33.918  23.627  1.00  0.00    -0.545 OA
ATOM      9  O   UNL     1      -6.016  35.898  24.761  1.00  0.00    -0.545 OA
ENDBRANCH   1   7
TORSDOF 1
ENDMDL
MODEL 3
REMARK VINA RESULT:    -3.529      0.974      1.936
REMARK INTER + INTRA:          -3.760
REMARK INTER:                  -3.736
REMARK INTRA:                  -0.024
REMARK UNBOUND:                -0.024
REMARK SMILES O=C([O-])c1cccnc1
REMARK SMILES IDX 4 1 5 2 9 3 6 4 8 5 7 6 2 7 1 8 3 9
REMARK H PARENT
REMARK Flexibility Score: inf
ROOT
ATOM      1  C   UNL     1      -5.699  35.854  22.256  1.00  0.00     0.016 A 
ATOM      2  C   UNL     1      -5.748  36.676  23.395  1.00  0.00     0.013 A 
ATOM      3  C   UNL     1      -5.869  34.470  22.424  1.00  0.00     0.120 A 
ATOM      4  C   UNL     1      -5.960  36.115  24.655  1.00  0.00     0.021 A 
ATOM      5  N   UNL     1      -6.075  33.949  23.663  1.00  0.00    -0.264 NA
ATOM      6  C   UNL     1      -6.124  34.734  24.771  1.00  0.00     0.111 A 
ENDROOT
BRANCH   1   7
ATOM      7  C   UNL     1      -5.476  36.429  20.912  1.00  0.00     0.073 C 
ATOM      8  O   UNL     1      -5.379  37.675  20.756  1.00  0.00    -0.545 OA
ATOM      9  O   UNL     1      -5.367  35.600  19.801  1.00  0.00    -0.545 OA
ENDBRANCH   1   7
TORSDOF 1
ENDMDL
MODEL 4
REMARK VINA RESULT:    -3.523      2.755      4.092
REMARK INTER + INTRA:          -3.753
REMARK INTER:                  -3.729
REMARK INTRA:                  -0.024
REMARK UNBOUND:                -0.024
REMARK SMILES O=C([O-])c1cccnc1
REMARK SMILES IDX 4 1 5 2 9 3 6 4 8 5 7 6 2 7 1 8 3 9
REMARK H PARENT
REMARK Flexibility Score: inf
ROOT
ATOM      1  C   UNL     1      -5.640  35.894  22.047  1.00  0.00     0.016 A 
ATOM      2  C   UNL     1      -5.679  37.271  21.771  1.00  0.00     0.013 A 
ATOM      3  C   UNL     1      -5.308  35.014  21.003  1.00  0.00     0.120 A 
ATOM      4  C   UNL     1      -5.393  37.738  20.487  1.00  0.00     0.021 A 
ATOM      5  N   UNL     1      -5.034  35.494  19.761  1.00  0.00    -0.264 NA
ATOM      6  C   UNL     1      -5.069  36.824  19.484  1.00  0.00     0.111 A 
ENDROOT
BRANCH   1   7
ATOM      7  C   UNL     1      -5.939  35.380  23.400  1.00  0.00     0.073 C 
ATOM      8  O   UNL     1      -6.123  36.172  24.361  1.00  0.00    -0.545 OA
ATOM      9  O   UNL     1      -6.023  34.011  23.631  1.00  0.00    -0.545 OA
ENDBRANCH   1   7
TORSDOF 1
ENDMDL
MODEL 5
REMARK VINA RESULT:    -3.342      2.385      2.918
REMARK INTER + INTRA:          -3.561
REMARK INTER:                  -3.540
REMARK INTRA:                  -0.020
REMARK UNBOUND:                -0.024
REMARK SMILES O=C([O-])c1cccnc1
REMARK SMILES IDX 4 1 5 2 9 3 6 4 8 5 7 6 2 7 1 8 3 9
REMARK H PARENT
REMARK Flexibility Score: inf
ROOT
ATOM      1  C   UNL     1      -5.459  35.746  19.994  1.00  0.00     0.016 A 
ATOM      2  C   UNL     1      -5.820  35.252  21.259  1.00  0.00     0.013 A 
ATOM      3  C   UNL     1      -5.240  37.126  19.854  1.00  0.00     0.120 A 
ATOM      4  C   UNL     1      -5.956  36.125  22.339  1.00  0.00     0.021 A 
ATOM      5  N   UNL     1      -5.379  37.956  20.923  1.00  0.00    -0.264 NA
ATOM      6  C   UNL     1      -5.728  37.488  22.151  1.00  0.00     0.111 A 
ENDROOT
BRANCH   1   7
ATOM      7  C   UNL     1      -5.309  34.838  18.837  1.00  0.00     0.073 C 
ATOM      8  O   UNL     1      -6.125  33.897  18.651  1.00  0.00    -0.545 OA
ATOM      9  O   UNL     1      -4.265  35.012  17.935  1.00  0.00    -0.545 OA
ENDBRANCH   1   7
TORSDOF 1
ENDMDL
MODEL 6
REMARK VINA RESULT:    -3.285      2.329      3.161
REMARK INTER + INTRA:          -3.501
REMARK INTER:                  -3.481
REMARK INTRA:                  -0.020
REMARK UNBOUND:                -0.024
REMARK SMILES O=C([O-])c1cccnc1
REMARK SMILES IDX 4 1 5 2 9 3 6 4 8 5 7 6 2 7 1 8 3 9
REMARK H PARENT
REMARK Flexibility Score: inf
ROOT
ATOM      1  C   UNL     1      -5.446  35.756  19.988  1.00  0.00     0.016 A 
ATOM      2  C   UNL     1      -5.222  37.138  19.865  1.00  0.00     0.013 A 
ATOM      3  C   UNL     1      -5.811  35.249  21.246  1.00  0.00     0.120 A 
ATOM      4  C   UNL     1      -5.363  37.972  20.975  1.00  0.00     0.021 A 
ATOM      5  N   UNL     1      -5.942  36.083  22.312  1.00  0.00    -0.264 NA
ATOM      6  C   UNL     1      -5.728  37.421  22.204  1.00  0.00     0.111 A 
ENDROOT
BRANCH   1   7
ATOM      7  C   UNL     1      -5.302  34.856  18.824  1.00  0.00     0.073 C 
ATOM      8  O   UNL     1      -6.125  33.923  18.630  1.00  0.00    -0.545 OA
ATOM      9  O   UNL     1      -4.256  35.029  17.925  1.00  0.00    -0.545 OA
ENDBRANCH   1   7
TORSDOF 1
ENDMDL
MODEL 7
REMARK VINA RESULT:    -2.668     12.293     13.397
REMARK INTER + INTRA:          -2.848
REMARK INTER:                  -2.831
REMARK INTRA:                  -0.016
REMARK UNBOUND:                -0.024
REMARK SMILES O=C([O-])c1cccnc1
REMARK SMILES IDX 4 1 5 2 9 3 6 4 8 5 7 6 2 7 1 8 3 9
REMARK H PARENT
REMARK Flexibility Score: inf
ROOT
ATOM      1  C   UNL     1      -5.185  24.564  29.527  1.00  0.00     0.016 A 
ATOM      2  C   UNL     1      -6.122  25.466  28.997  1.00  0.00     0.013 A 
ATOM      3  C   UNL     1      -4.177  25.067  30.367  1.00  0.00     0.120 A 
ATOM      4  C   UNL     1      -6.041  26.825  29.305  1.00  0.00     0.021 A 
ATOM      5  N   UNL     1      -4.119  26.396  30.652  1.00  0.00    -0.264 NA
ATOM      6  C   UNL     1      -5.021  27.276  30.144  1.00  0.00     0.111 A 
ENDROOT
BRANCH   1   7
ATOM      7  C   UNL     1      -5.255  23.122  29.214  1.00  0.00     0.073 C 
ATOM      8  O   UNL     1      -4.835  22.684  28.110  1.00  0.00    -0.545 OA
ATOM      9  O   UNL     1      -5.784  22.225  30.136  1.00  0.00    -0.545 OA
ENDBRANCH   1   7
TORSDOF 1
ENDMDL
MODEL 8
REMARK VINA RESULT:    -2.613     12.236     13.378
REMARK INTER + INTRA:          -2.789
REMARK INTER:                  -2.773
REMARK INTRA:                  -0.016
REMARK UNBOUND:                -0.024
REMARK SMILES O=C([O-])c1cccnc1
REMARK SMILES IDX 4 1 5 2 9 3 6 4 8 5 7 6 2 7 1 8 3 9
REMARK H PARENT
REMARK Flexibility Score: inf
ROOT
ATOM      1  C   UNL     1      -5.216  24.596  29.542  1.00  0.00     0.016 A 
ATOM      2  C   UNL     1      -4.202  25.093  30.379  1.00  0.00     0.013 A 
ATOM      3  C   UNL     1      -6.125  25.508  28.982  1.00  0.00     0.120 A 
ATOM      4  C   UNL     1      -4.114  26.462  30.637  1.00  0.00     0.021 A 
ATOM      5  N   UNL     1      -6.018  26.838  29.249  1.00  0.00    -0.264 NA
ATOM      6  C   UNL     1      -5.041  27.328  30.057  1.00  0.00     0.111 A 
ENDROOT
BRANCH   1   7
ATOM      7  C   UNL     1      -5.325  23.150  29.255  1.00  0.00     0.073 C 
ATOM      8  O   UNL     1      -4.984  22.691  28.134  1.00  0.00    -0.545 OA
ATOM      9  O   UNL     1      -5.805  22.275  30.224  1.00  0.00    -0.545 OA
ENDBRANCH   1   7
TORSDOF 1
ENDMDL
MODEL 9
REMARK VINA RESULT:    -2.205      2.796      3.777
REMARK INTER + INTRA:          -2.358
REMARK INTER:                  -2.335
REMARK INTRA:                  -0.023
REMARK UNBOUND:                -0.024
REMARK SMILES O=C([O-])c1cccnc1
REMARK SMILES IDX 4 1 5 2 9 3 6 4 8 5 7 6 2 7 1 8 3 9
REMARK H PARENT
REMARK Flexibility Score: inf
ROOT
ATOM      1  C   UNL     1      -5.521  37.875  21.653  1.00  0.00     0.016 A 
ATOM      2  C   UNL     1      -5.242  37.801  20.277  1.00  0.00     0.013 A 
ATOM      3  C   UNL     1      -5.853  36.690  22.330  1.00  0.00     0.120 A 
ATOM      4  C   UNL     1      -5.299  36.574  19.615  1.00  0.00     0.021 A 
ATOM      5  N   UNL     1      -5.901  35.507  21.662  1.00  0.00    -0.264 NA
ATOM      6  C   UNL     1      -5.634  35.425  20.332  1.00  0.00     0.111 A 
ENDROOT
BRANCH   1   7
ATOM      7  C   UNL     1      -5.465  39.165  22.372  1.00  0.00     0.073 C 
ATOM      8  O   UNL     1      -5.553  40.254  21.745  1.00  0.00    -0.545 OA
ATOM      9  O   UNL     1      -5.317  39.194  23.755  1.00  0.00    -0.545 OA
ENDBRANCH   1   7
TORSDOF 1
ENDMDL
