MODEL 1
REMARK VINA RESULT:     3.210      0.000      0.000
REMARK INTER + INTRA:           3.491
REMARK INTER:                   3.491
REMARK INTRA:                   0.000
REMARK UNBOUND:                 0.000
REMARK SMILES Cc1cc(O)c2c(c1)C(=O)c1cc(O)cc(O)c1C2=O
REMARK SMILES IDX 1 1 2 2 8 3 7 4 6 5 4 6 3 7 19 8 20 9 18 10 11 11 9 12 10 13
REMARK SMILES IDX 12 14 13 15 15 16 16 17 5 18 17 20 14 22
REMARK H PARENT 5 19 17 21 14 23
REMARK Flexibility Score: inf
ROOT
ATOM      1  C   UNL     1       9.081  19.876  -5.125  1.00  0.00     0.044 C 
ATOM      2  C   UNL     1       9.894  20.427  -3.991  1.00  0.00    -0.047 A 
ATOM      3  C   UNL     1      10.714  21.544  -4.189  1.00  0.00     0.016 A 
ATOM      4  C   UNL     1      11.457  22.084  -3.126  1.00  0.00     0.038 A 
ATOM      5  C   UNL     1      11.378  21.498  -1.843  1.00  0.00     0.076 A 
ATOM      6  C   UNL     1      10.481  20.420  -1.629  1.00  0.00     0.127 A 
ATOM      7  C   UNL     1       9.767  19.885  -2.707  1.00  0.00     0.050 A 
ATOM      8  C   UNL     1      12.288  22.003  -0.783  1.00  0.00     0.201 C 
ATOM      9  O   UNL     1      12.683  21.225   0.127  1.00  0.00    -0.288 OA
ATOM     10  C   UNL     1      12.879  23.361  -0.902  1.00  0.00     0.076 A 
ATOM     11  C   UNL     1      12.953  23.946  -2.187  1.00  0.00     0.041 A 
ATOM     12  C   UNL     1      12.317  23.272  -3.343  1.00  0.00     0.194 C 
ATOM     13  O   UNL     1      12.487  23.724  -4.509  1.00  0.00    -0.289 OA
ATOM     14  C   UNL     1      13.627  25.167  -2.360  1.00  0.00     0.059 A 
ATOM     15  C   UNL     1      14.210  25.815  -1.273  1.00  0.00     0.120 A 
ATOM     16  C   UNL     1      14.104  25.263   0.006  1.00  0.00     0.093 A 
ATOM     17  C   UNL     1      13.422  24.059   0.209  1.00  0.00     0.131 A 
ENDROOT
BRANCH   6  18
ATOM     18  O   UNL     1      10.243  19.875  -0.365  1.00  0.00    -0.507 OA
ATOM     19  H   UNL     1       9.388  19.398  -0.115  1.00  0.00     0.293 HD
ENDBRANCH   6  18
BRANCH  17  20
ATOM     20  O   UNL     1      13.278  23.613   1.525  1.00  0.00    -0.507 OA
ATOM     21  H   UNL     1      12.388  23.549   1.999  1.00  0.00     0.293 HD
ENDBRANCH  17  20
BRANCH  15  22
ATOM     22  O   UNL     1      14.883  27.020  -1.471  1.00  0.00    -0.508 OA
ATOM     23  H   UNL     1      15.823  27.165  -1.122  1.00  0.00     0.293 HD
ENDBRANCH  15  22
TORSDOF 3
ENDMDL
MODEL 2
REMARK VINA RESULT:     4.945      1.899      5.902
REMARK INTER + INTRA:           5.378
REMARK INTER:                   5.378
REMARK INTRA:                   0.000
REMARK UNBOUND:                 0.000
REMARK SMILES Cc1cc(O)c2c(c1)C(=O)c1cc(O)cc(O)c1C2=O
REMARK SMILES IDX 1 1 2 2 8 3 7 4 6 5 4 6 3 7 19 8 20 9 18 10 11 11 9 12 10 13
REMARK SMILES IDX 12 14 13 15 15 16 16 17 5 18 17 20 14 22
REMARK H PARENT 5 19 17 21 14 23
REMARK Flexibility Score: inf
ROOT
ATOM      1  C   UNL     1      12.331  22.986   3.720  1.00  0.00     0.044 C 
ATOM      2  C   UNL     1      12.469  22.979   2.226  1.00  0.00    -0.047 A 
ATOM      3  C   UNL     1      11.711  22.093   1.453  1.00  0.00     0.016 A 
ATOM      4  C   UNL     1      11.813  22.098   0.052  1.00  0.00     0.038 A 
ATOM      5  C   UNL     1      12.687  23.005  -0.587  1.00  0.00     0.076 A 
ATOM      6  C   UNL     1      13.389  23.957   0.197  1.00  0.00     0.127 A 
ATOM      7  C   UNL     1      13.287  23.919   1.592  1.00  0.00     0.050 A 
ATOM      8  C   UNL     1      12.879  22.881  -2.054  1.00  0.00     0.201 C 
ATOM      9  O   UNL     1      13.979  23.210  -2.573  1.00  0.00    -0.288 OA
ATOM     10  C   UNL     1      11.849  22.196  -2.879  1.00  0.00     0.076 A 
ATOM     11  C   UNL     1      10.974  21.291  -2.236  1.00  0.00     0.041 A 
ATOM     12  C   UNL     1      11.001  21.160  -0.760  1.00  0.00     0.194 C 
ATOM     13  O   UNL     1      10.313  20.266  -0.193  1.00  0.00    -0.289 OA
ATOM     14  C   UNL     1      10.079  20.523  -3.000  1.00  0.00     0.059 A 
ATOM     15  C   UNL     1      10.036  20.657  -4.387  1.00  0.00     0.120 A 
ATOM     16  C   UNL     1      10.870  21.579  -5.023  1.00  0.00     0.093 A 
ATOM     17  C   UNL     1      11.755  22.370  -4.285  1.00  0.00     0.131 A 
ENDROOT
BRANCH   6  18
ATOM     18  O   UNL     1      14.164  24.974  -0.366  1.00  0.00    -0.507 OA
ATOM     19  H   UNL     1      13.835  25.586  -1.100  1.00  0.00     0.293 HD
ENDBRANCH   6  18
BRANCH  17  20
ATOM     20  O   UNL     1      12.492  23.334  -4.978  1.00  0.00    -0.507 OA
ATOM     21  H   UNL     1      12.611  23.331  -5.980  1.00  0.00     0.293 HD
ENDBRANCH  17  20
BRANCH  15  22
ATOM     22  O   UNL     1       9.148  19.875  -5.125  1.00  0.00    -0.508 OA
ATOM     23  H   UNL     1       8.788  20.184  -6.020  1.00  0.00     0.293 HD
ENDBRANCH  15  22
TORSDOF 3
ENDMDL
MODEL 3
REMARK VINA RESULT:     5.609      2.410      4.424
REMARK INTER + INTRA:           6.100
REMARK INTER:                   6.100
REMARK INTRA:                   0.000
REMARK UNBOUND:                 0.000
REMARK SMILES Cc1cc(O)c2c(c1)C(=O)c1cc(O)cc(O)c1C2=O
REMARK SMILES IDX 1 1 2 2 8 3 7 4 6 5 4 6 3 7 19 8 20 9 18 10 11 11 9 12 10 13
REMARK SMILES IDX 12 14 13 15 15 16 16 17 5 18 17 20 14 22
REMARK H PARENT 5 19 17 21 14 23
REMARK Flexibility Score: inf
ROOT
ATOM      1  C   UNL     1      11.338  26.596  -5.125  1.00  0.00     0.044 C 
ATOM      2  C   UNL     1      11.590  25.442  -4.201  1.00  0.00    -0.047 A 
ATOM      3  C   UNL     1      11.590  25.636  -2.815  1.00  0.00     0.016 A 
ATOM      4  C   UNL     1      11.798  24.556  -1.940  1.00  0.00     0.038 A 
ATOM      5  C   UNL     1      12.008  23.260  -2.460  1.00  0.00     0.076 A 
ATOM      6  C   UNL     1      11.923  23.055  -3.862  1.00  0.00     0.127 A 
ATOM      7  C   UNL     1      11.736  24.149  -4.714  1.00  0.00     0.050 A 
ATOM      8  C   UNL     1      12.371  22.174  -1.515  1.00  0.00     0.201 C 
ATOM      9  O   UNL     1      13.096  21.220  -1.904  1.00  0.00    -0.288 OA
ATOM     10  C   UNL     1      12.039  22.309  -0.072  1.00  0.00     0.076 A 
ATOM     11  C   UNL     1      11.826  23.608   0.444  1.00  0.00     0.041 A 
ATOM     12  C   UNL     1      11.789  24.771  -0.473  1.00  0.00     0.194 C 
ATOM     13  O   UNL     1      11.726  25.941  -0.006  1.00  0.00    -0.289 OA
ATOM     14  C   UNL     1      11.646  23.789   1.826  1.00  0.00     0.059 A 
ATOM     15  C   UNL     1      11.659  22.696   2.692  1.00  0.00     0.120 A 
ATOM     16  C   UNL     1      11.828  21.406   2.182  1.00  0.00     0.093 A 
ATOM     17  C   UNL     1      11.990  21.197   0.809  1.00  0.00     0.131 A 
ENDROOT
BRANCH   6  18
ATOM     18  O   UNL     1      11.981  21.787  -4.444  1.00  0.00    -0.507 OA
ATOM     19  H   UNL     1      12.370  21.610  -5.360  1.00  0.00     0.293 HD
ENDBRANCH   6  18
BRANCH  17  20
ATOM     20  O   UNL     1      12.061  19.875   0.362  1.00  0.00    -0.507 OA
ATOM     21  H   UNL     1      12.791  19.233   0.634  1.00  0.00     0.293 HD
ENDBRANCH  17  20
BRANCH  15  22
ATOM     22  O   UNL     1      11.490  22.901   4.060  1.00  0.00    -0.508 OA
ATOM     23  H   UNL     1      12.248  22.751   4.716  1.00  0.00     0.293 HD
ENDBRANCH  15  22
TORSDOF 3
ENDMDL
