MODEL 1
REMARK VINA RESULT:    -5.784      0.000      0.000
REMARK INTER + INTRA:          -6.217
REMARK INTER:                  -6.122
REMARK INTRA:                  -0.095
REMARK UNBOUND:                -0.095
REMARK SMILES C=C(C)[C@@H]1CC=C(C)C(=O)C1
REMARK SMILES IDX 8 1 7 2 6 3 5 4 4 5 11 6 9 7 10 8 2 9 1 10 3 11
REMARK H PARENT
REMARK Flexibility Score: inf
ROOT
ATOM      1  C   UNL     1     -11.348 -17.094  26.136  1.00  0.00     0.048 C 
ATOM      2  C   UNL     1     -11.712 -16.611  27.513  1.00  0.00    -0.012 C 
ATOM      3  C   UNL     1     -10.899 -16.875  28.551  1.00  0.00    -0.019 C 
ATOM      4  C   UNL     1     -11.205 -16.400  29.946  1.00  0.00     0.036 C 
ATOM      5  C   UNL     1     -12.725 -16.357  30.197  1.00  0.00     0.025 C 
ATOM      6  C   UNL     1     -13.420 -15.498  29.122  1.00  0.00     0.089 C 
ATOM      7  C   UNL     1     -13.022 -15.953  27.745  1.00  0.00     0.158 C 
ATOM      8  O   UNL     1     -13.802 -15.737  26.778  1.00  0.00    -0.295 OA
ENDROOT
BRANCH   5   9
ATOM      9  C   UNL     1     -13.050 -15.868  31.602  1.00  0.00    -0.077 C 
ATOM     10  C   UNL     1     -12.208 -16.078  32.628  1.00  0.00     0.008 C 
ATOM     11  C   UNL     1     -14.339 -15.133  31.867  1.00  0.00     0.039 C 
ENDBRANCH   5   9
TORSDOF 1
ENDMDL
MODEL 2
REMARK VINA RESULT:    -5.620      2.938      4.815
REMARK INTER + INTRA:          -6.044
REMARK INTER:                  -5.950
REMARK INTRA:                  -0.093
REMARK UNBOUND:                -0.095
REMARK SMILES C=C(C)[C@@H]1CC=C(C)C(=O)C1
REMARK SMILES IDX 8 1 7 2 6 3 5 4 4 5 11 6 9 7 10 8 2 9 1 10 3 11
REMARK H PARENT
REMARK Flexibility Score: inf
ROOT
ATOM      1  C   UNL     1     -12.503 -20.365  31.914  1.00  0.00     0.048 C 
ATOM      2  C   UNL     1     -12.614 -19.403  30.763  1.00  0.00    -0.012 C 
ATOM      3  C   UNL     1     -13.253 -19.774  29.640  1.00  0.00    -0.019 C 
ATOM      4  C   UNL     1     -13.408 -18.845  28.466  1.00  0.00     0.036 C 
ATOM      5  C   UNL     1     -12.198 -17.899  28.343  1.00  0.00     0.025 C 
ATOM      6  C   UNL     1     -11.979 -17.138  29.664  1.00  0.00     0.089 C 
ATOM      7  C   UNL     1     -11.912 -18.096  30.821  1.00  0.00     0.158 C 
ATOM      8  O   UNL     1     -11.281 -17.761  31.860  1.00  0.00    -0.295 OA
ENDROOT
BRANCH   5   9
ATOM      9  C   UNL     1     -12.347 -16.947  27.164  1.00  0.00    -0.077 C 
ATOM     10  C   UNL     1     -13.327 -16.027  27.126  1.00  0.00     0.008 C 
ATOM     11  C   UNL     1     -11.385 -17.022  26.006  1.00  0.00     0.039 C 
ENDBRANCH   5   9
TORSDOF 1
ENDMDL
MODEL 3
REMARK VINA RESULT:    -5.546      2.401      2.881
REMARK INTER + INTRA:          -5.965
REMARK INTER:                  -5.872
REMARK INTRA:                  -0.093
REMARK UNBOUND:                -0.095
REMARK SMILES C=C(C)[C@@H]1CC=C(C)C(=O)C1
REMARK SMILES IDX 8 1 7 2 6 3 5 4 4 5 11 6 9 7 10 8 2 9 1 10 3 11
REMARK H PARENT
REMARK Flexibility Score: inf
ROOT
ATOM      1  C   UNL     1     -13.952 -20.324  28.624  1.00  0.00     0.048 C 
ATOM      2  C   UNL     1     -13.332 -19.330  29.567  1.00  0.00    -0.012 C 
ATOM      3  C   UNL     1     -13.147 -19.658  30.858  1.00  0.00    -0.019 C 
ATOM      4  C   UNL     1     -12.515 -18.709  31.840  1.00  0.00     0.036 C 
ATOM      5  C   UNL     1     -12.856 -17.246  31.497  1.00  0.00     0.025 C 
ATOM      6  C   UNL     1     -12.458 -16.931  30.042  1.00  0.00     0.089 C 
ATOM      7  C   UNL     1     -13.042 -17.950  29.103  1.00  0.00     0.158 C 
ATOM      8  O   UNL     1     -13.249 -17.630  27.901  1.00  0.00    -0.295 OA
ENDROOT
BRANCH   5   9
ATOM      9  C   UNL     1     -12.215 -16.274  32.478  1.00  0.00    -0.077 C 
ATOM     10  C   UNL     1     -10.883 -16.095  32.516  1.00  0.00     0.008 C 
ATOM     11  C   UNL     1     -13.075 -15.488  33.434  1.00  0.00     0.039 C 
ENDBRANCH   5   9
TORSDOF 1
ENDMDL
MODEL 4
REMARK VINA RESULT:    -5.503      2.036      4.417
REMARK INTER + INTRA:          -5.920
REMARK INTER:                  -5.825
REMARK INTRA:                  -0.095
REMARK UNBOUND:                -0.095
REMARK SMILES C=C(C)[C@@H]1CC=C(C)C(=O)C1
REMARK SMILES IDX 8 1 7 2 6 3 5 4 4 5 11 6 9 7 10 8 2 9 1 10 3 11
REMARK H PARENT
REMARK Flexibility Score: inf
ROOT
ATOM      1  C   UNL     1     -10.807 -15.880  32.826  1.00  0.00     0.048 C 
ATOM      2  C   UNL     1     -11.165 -16.194  31.399  1.00  0.00    -0.012 C 
ATOM      3  C   UNL     1     -10.312 -15.874  30.410  1.00  0.00    -0.019 C 
ATOM      4  C   UNL     1     -10.611 -16.181  28.968  1.00  0.00     0.036 C 
ATOM      5  C   UNL     1     -12.124 -16.102  28.686  1.00  0.00     0.025 C 
ATOM      6  C   UNL     1     -12.897 -17.022  29.651  1.00  0.00     0.089 C 
ATOM      7  C   UNL     1     -12.507 -16.739  31.075  1.00  0.00     0.158 C 
ATOM      8  O   UNL     1     -13.322 -17.005  32.000  1.00  0.00    -0.295 OA
ENDROOT
BRANCH   5   9
ATOM      9  C   UNL     1     -12.443 -16.420  27.231  1.00  0.00    -0.077 C 
ATOM     10  C   UNL     1     -13.657 -16.169  26.710  1.00  0.00     0.008 C 
ATOM     11  C   UNL     1     -11.390 -17.029  26.342  1.00  0.00     0.039 C 
ENDBRANCH   5   9
TORSDOF 1
ENDMDL
MODEL 5
REMARK VINA RESULT:    -5.419      3.509      5.340
REMARK INTER + INTRA:          -5.831
REMARK INTER:                  -5.740
REMARK INTRA:                  -0.091
REMARK UNBOUND:                -0.095
REMARK SMILES C=C(C)[C@@H]1CC=C(C)C(=O)C1
REMARK SMILES IDX 8 1 7 2 6 3 5 4 4 5 11 6 9 7 10 8 2 9 1 10 3 11
REMARK H PARENT
REMARK Flexibility Score: inf
ROOT
ATOM      1  C   UNL     1     -13.223 -16.715  31.359  1.00  0.00     0.048 C 
ATOM      2  C   UNL     1     -12.930 -15.859  32.561  1.00  0.00    -0.012 C 
ATOM      3  C   UNL     1     -11.699 -15.865  33.102  1.00  0.00    -0.019 C 
ATOM      4  C   UNL     1     -11.346 -15.016  34.293  1.00  0.00     0.036 C 
ATOM      5  C   UNL     1     -12.558 -14.842  35.229  1.00  0.00     0.025 C 
ATOM      6  C   UNL     1     -13.761 -14.280  34.447  1.00  0.00     0.089 C 
ATOM      7  C   UNL     1     -14.027 -15.109  33.221  1.00  0.00     0.158 C 
ATOM      8  O   UNL     1     -15.191 -15.132  32.736  1.00  0.00    -0.295 OA
ENDROOT
BRANCH   5   9
ATOM      9  C   UNL     1     -12.218 -13.976  36.434  1.00  0.00    -0.077 C 
ATOM     10  C   UNL     1     -11.482 -14.453  37.453  1.00  0.00     0.008 C 
ATOM     11  C   UNL     1     -12.708 -12.552  36.504  1.00  0.00     0.039 C 
ENDBRANCH   5   9
TORSDOF 1
ENDMDL
MODEL 6
REMARK VINA RESULT:    -5.297      1.742      2.423
REMARK INTER + INTRA:          -5.702
REMARK INTER:                  -5.606
REMARK INTRA:                  -0.095
REMARK UNBOUND:                -0.095
REMARK SMILES C=C(C)[C@@H]1CC=C(C)C(=O)C1
REMARK SMILES IDX 8 1 7 2 6 3 5 4 4 5 11 6 9 7 10 8 2 9 1 10 3 11
REMARK H PARENT
REMARK Flexibility Score: inf
ROOT
ATOM      1  C   UNL     1     -11.723 -17.335  27.072  1.00  0.00     0.048 C 
ATOM      2  C   UNL     1     -12.426 -16.885  28.323  1.00  0.00    -0.012 C 
ATOM      3  C   UNL     1     -12.854 -15.616  28.430  1.00  0.00    -0.019 C 
ATOM      4  C   UNL     1     -13.579 -15.117  29.652  1.00  0.00     0.036 C 
ATOM      5  C   UNL     1     -13.082 -15.833  30.922  1.00  0.00     0.025 C 
ATOM      6  C   UNL     1     -13.200 -17.360  30.756  1.00  0.00     0.089 C 
ATOM      7  C   UNL     1     -12.535 -17.806  29.483  1.00  0.00     0.158 C 
ATOM      8  O   UNL     1     -12.102 -18.987  29.397  1.00  0.00    -0.295 OA
ENDROOT
BRANCH   5   9
ATOM      9  C   UNL     1     -13.813 -15.346  32.166  1.00  0.00    -0.077 C 
ATOM     10  C   UNL     1     -15.021 -14.761  32.083  1.00  0.00     0.008 C 
ATOM     11  C   UNL     1     -13.186 -15.513  33.526  1.00  0.00     0.039 C 
ENDBRANCH   5   9
TORSDOF 1
ENDMDL
MODEL 7
REMARK VINA RESULT:    -5.291      2.102      2.902
REMARK INTER + INTRA:          -5.696
REMARK INTER:                  -5.598
REMARK INTRA:                  -0.098
REMARK UNBOUND:                -0.095
REMARK SMILES C=C(C)[C@@H]1CC=C(C)C(=O)C1
REMARK SMILES IDX 8 1 7 2 6 3 5 4 4 5 11 6 9 7 10 8 2 9 1 10 3 11
REMARK H PARENT
REMARK Flexibility Score: inf
ROOT
ATOM      1  C   UNL     1      -9.935 -17.867  29.945  1.00  0.00     0.048 C 
ATOM      2  C   UNL     1     -10.934 -17.036  30.703  1.00  0.00    -0.012 C 
ATOM      3  C   UNL     1     -10.703 -16.719  31.989  1.00  0.00    -0.019 C 
ATOM      4  C   UNL     1     -11.660 -15.875  32.788  1.00  0.00     0.036 C 
ATOM      5  C   UNL     1     -13.115 -16.113  32.341  1.00  0.00     0.025 C 
ATOM      6  C   UNL     1     -13.255 -15.877  30.826  1.00  0.00     0.089 C 
ATOM      7  C   UNL     1     -12.228 -16.674  30.070  1.00  0.00     0.158 C 
ATOM      8  O   UNL     1     -12.462 -17.002  28.875  1.00  0.00    -0.295 OA
ENDROOT
BRANCH   5   9
ATOM      9  C   UNL     1     -14.094 -15.259  33.135  1.00  0.00    -0.077 C 
ATOM     10  C   UNL     1     -15.375 -15.123  32.752  1.00  0.00     0.008 C 
ATOM     11  C   UNL     1     -13.635 -14.542  34.379  1.00  0.00     0.039 C 
ENDBRANCH   5   9
TORSDOF 1
ENDMDL
MODEL 8
REMARK VINA RESULT:    -5.232      2.851      5.395
REMARK INTER + INTRA:          -5.633
REMARK INTER:                  -5.544
REMARK INTRA:                  -0.089
REMARK UNBOUND:                -0.095
REMARK SMILES C=C(C)[C@@H]1CC=C(C)C(=O)C1
REMARK SMILES IDX 8 1 7 2 6 3 5 4 4 5 11 6 9 7 10 8 2 9 1 10 3 11
REMARK H PARENT
REMARK Flexibility Score: inf
ROOT
ATOM      1  C   UNL     1     -12.870 -14.747  35.338  1.00  0.00     0.048 C 
ATOM      2  C   UNL     1     -12.837 -15.119  33.881  1.00  0.00    -0.012 C 
ATOM      3  C   UNL     1     -13.976 -15.131  33.168  1.00  0.00    -0.019 C 
ATOM      4  C   UNL     1     -13.998 -15.476  31.703  1.00  0.00     0.036 C 
ATOM      5  C   UNL     1     -12.908 -16.510  31.361  1.00  0.00     0.025 C 
ATOM      6  C   UNL     1     -11.527 -16.003  31.820  1.00  0.00     0.089 C 
ATOM      7  C   UNL     1     -11.571 -15.590  33.265  1.00  0.00     0.158 C 
ATOM      8  O   UNL     1     -10.508 -15.614  33.943  1.00  0.00    -0.295 OA
ENDROOT
BRANCH   5   9
ATOM      9  C   UNL     1     -12.912 -16.862  29.880  1.00  0.00    -0.077 C 
ATOM     10  C   UNL     1     -12.979 -18.139  29.464  1.00  0.00     0.008 C 
ATOM     11  C   UNL     1     -12.839 -15.771  28.843  1.00  0.00     0.039 C 
ENDBRANCH   5   9
TORSDOF 1
ENDMDL
MODEL 9
REMARK VINA RESULT:    -5.232      2.026      4.623
REMARK INTER + INTRA:          -5.633
REMARK INTER:                  -5.535
REMARK INTRA:                  -0.098
REMARK UNBOUND:                -0.095
REMARK SMILES C=C(C)[C@@H]1CC=C(C)C(=O)C1
REMARK SMILES IDX 8 1 7 2 6 3 5 4 4 5 11 6 9 7 10 8 2 9 1 10 3 11
REMARK H PARENT
REMARK Flexibility Score: inf
ROOT
ATOM      1  C   UNL     1     -12.097 -16.176  32.904  1.00  0.00     0.048 C 
ATOM      2  C   UNL     1     -12.094 -16.141  31.400  1.00  0.00    -0.012 C 
ATOM      3  C   UNL     1     -13.204 -15.771  30.737  1.00  0.00    -0.019 C 
ATOM      4  C   UNL     1     -13.250 -15.701  29.235  1.00  0.00     0.036 C 
ATOM      5  C   UNL     1     -12.339 -16.769  28.601  1.00  0.00     0.025 C 
ATOM      6  C   UNL     1     -10.904 -16.641  29.147  1.00  0.00     0.089 C 
ATOM      7  C   UNL     1     -10.910 -16.632  30.650  1.00  0.00     0.158 C 
ATOM      8  O   UNL     1      -9.881 -17.013  31.271  1.00  0.00    -0.295 OA
ENDROOT
BRANCH   5   9
ATOM      9  C   UNL     1     -12.369 -16.704  27.080  1.00  0.00    -0.077 C 
ATOM     10  C   UNL     1     -11.342 -17.155  26.339  1.00  0.00     0.008 C 
ATOM     11  C   UNL     1     -13.567 -16.124  26.372  1.00  0.00     0.039 C 
ENDBRANCH   5   9
TORSDOF 1
ENDMDL
