MODEL 1
REMARK VINA RESULT:    -4.261      0.000      0.000
REMARK INTER + INTRA:         -14.886
REMARK INTER:                 -10.738
REMARK INTRA:                  -4.149
REMARK UNBOUND:                -4.149
REMARK SMILES CCCCCCCCCCCCCCCCCCCCCCCCCCCC(=O)[O-]
REMARK SMILES IDX 15 1 16 2 17 3 18 4 19 5 20 6 21 7 22 8 23 9 24 10 25 11
REMARK SMILES IDX 26 12 27 13 28 14 29 15 30 16 14 17 13 18 12 19 11 20 10 21
REMARK SMILES IDX 9 22 8 23 7 24 6 25 5 26 4 27 3 28 2 29 1 30
REMARK H PARENT
REMARK Flexibility Score: inf
ROOT
ATOM      1  C   UNL     1     -27.500  18.061  22.273  1.00  0.00     0.000 C 
ENDROOT
BRANCH   1   2
ATOM      2  C   UNL     1     -25.975  17.870  22.308  1.00  0.00     0.000 C 
BRANCH   2   3
ATOM      3  C   UNL     1     -25.554  16.463  21.853  1.00  0.00     0.000 C 
BRANCH   3   4
ATOM      4  C   UNL     1     -24.813  16.490  20.504  1.00  0.00     0.000 C 
BRANCH   4   5
ATOM      5  C   UNL     1     -25.627  15.828  19.369  1.00  0.00     0.000 C 
BRANCH   5   6
ATOM      6  C   UNL     1     -26.635  14.774  19.876  1.00  0.00     0.000 C 
BRANCH   6   7
ATOM      7  C   UNL     1     -27.848  14.595  18.945  1.00  0.00     0.000 C 
BRANCH   7   8
ATOM      8  C   UNL     1     -27.742  15.476  17.686  1.00  0.00     0.000 C 
BRANCH   8   9
ATOM      9  C   UNL     1     -29.113  15.744  17.039  1.00  0.00     0.000 C 
BRANCH   9  10
ATOM     10  C   UNL     1     -30.277  14.996  17.716  1.00  0.00     0.000 C 
BRANCH  10  11
ATOM     11  C   UNL     1     -31.227  14.337  16.702  1.00  0.00     0.000 C 
BRANCH  11  12
ATOM     12  C   UNL     1     -30.901  14.791  15.270  1.00  0.00     0.006 C 
BRANCH  12  13
ATOM     13  C   UNL     1     -30.713  13.605  14.313  1.00  0.00     0.053 C 
BRANCH  13  14
ATOM     14  C   UNL     1     -31.364  13.851  12.986  1.00  0.00     0.041 C 
ATOM     15  O   UNL     1     -30.740  13.612  11.920  1.00  0.00    -0.550 OA
ATOM     16  O   UNL     1     -32.662  14.339  12.924  1.00  0.00    -0.550 OA
ENDBRANCH  13  14
ENDBRANCH  12  13
ENDBRANCH  11  12
ENDBRANCH  10  11
ENDBRANCH   9  10
ENDBRANCH   8   9
ENDBRANCH   7   8
ENDBRANCH   6   7
ENDBRANCH   5   6
ENDBRANCH   4   5
ENDBRANCH   3   4
ENDBRANCH   2   3
ENDBRANCH   1   2
BRANCH   1  17
ATOM     17  C   UNL     1     -28.026  18.311  20.850  1.00  0.00     0.000 C 
BRANCH  17  18
ATOM     18  C   UNL     1     -29.348  17.566  20.587  1.00  0.00     0.000 C 
BRANCH  18  19
ATOM     19  C   UNL     1     -29.864  16.816  21.826  1.00  0.00     0.000 C 
BRANCH  19  20
ATOM     20  C   UNL     1     -30.258  15.360  21.519  1.00  0.00     0.000 C 
BRANCH  20  21
ATOM     21  C   UNL     1     -29.904  14.400  22.664  1.00  0.00     0.000 C 
BRANCH  21  22
ATOM     22  C   UNL     1     -28.565  14.748  23.340  1.00  0.00    -0.000 C 
BRANCH  22  23
ATOM     23  C   UNL     1     -28.437  14.155  24.756  1.00  0.00    -0.000 C 
BRANCH  23  24
ATOM     24  C   UNL     1     -29.317  14.831  25.827  1.00  0.00    -0.000 C 
BRANCH  24  25
ATOM     25  C   UNL     1     -30.403  13.925  26.441  1.00  0.00    -0.000 C 
BRANCH  25  26
ATOM     26  C   UNL     1     -31.332  14.623  27.456  1.00  0.00    -0.000 C 
BRANCH  26  27
ATOM     27  C   UNL     1     -32.799  14.763  27.008  1.00  0.00    -0.000 C 
BRANCH  27  28
ATOM     28  C   UNL     1     -33.010  14.863  25.483  1.00  0.00    -0.000 C 
BRANCH  28  29
ATOM     29  C   UNL     1     -33.753  16.140  25.040  1.00  0.00    -0.003 C 
ATOM     30  C   UNL     1     -33.191  16.736  23.749  1.00  0.00     0.004 C 
ENDBRANCH  28  29
ENDBRANCH  27  28
ENDBRANCH  26  27
ENDBRANCH  25  26
ENDBRANCH  24  25
ENDBRANCH  23  24
ENDBRANCH  22  23
ENDBRANCH  21  22
ENDBRANCH  20  21
ENDBRANCH  19  20
ENDBRANCH  18  19
ENDBRANCH  17  18
ENDBRANCH   1  17
TORSDOF 26
ENDMDL
MODEL 2
REMARK VINA RESULT:    -4.231      4.658      8.776
REMARK INTER + INTRA:         -14.810
REMARK INTER:                 -10.144
REMARK INTRA:                  -4.666
REMARK UNBOUND:                -4.149
REMARK SMILES CCCCCCCCCCCCCCCCCCCCCCCCCCCC(=O)[O-]
REMARK SMILES IDX 15 1 16 2 17 3 18 4 19 5 20 6 21 7 22 8 23 9 24 10 25 11
REMARK SMILES IDX 26 12 27 13 28 14 29 15 30 16 14 17 13 18 12 19 11 20 10 21
REMARK SMILES IDX 9 22 8 23 7 24 6 25 5 26 4 27 3 28 2 29 1 30
REMARK H PARENT
REMARK Flexibility Score: inf
ROOT
ATOM      1  C   UNL     1     -32.463  13.613  25.762  1.00  0.00     0.000 C 
ENDROOT
BRANCH   1   2
ATOM      2  C   UNL     1     -32.513  14.445  27.054  1.00  0.00     0.000 C 
BRANCH   2   3
ATOM      3  C   UNL     1     -31.156  14.481  27.776  1.00  0.00     0.000 C 
BRANCH   3   4
ATOM      4  C   UNL     1     -30.035  15.024  26.871  1.00  0.00     0.000 C 
BRANCH   4   5
ATOM      5  C   UNL     1     -28.874  14.019  26.700  1.00  0.00     0.000 C 
BRANCH   5   6
ATOM      6  C   UNL     1     -28.802  13.404  25.286  1.00  0.00     0.000 C 
BRANCH   6   7
ATOM      7  C   UNL     1     -29.193  14.393  24.172  1.00  0.00     0.000 C 
BRANCH   7   8
ATOM      8  C   UNL     1     -28.411  14.132  22.871  1.00  0.00     0.000 C 
BRANCH   8   9
ATOM      9  C   UNL     1     -27.129  14.979  22.777  1.00  0.00     0.000 C 
BRANCH   9  10
ATOM     10  C   UNL     1     -27.093  16.165  23.760  1.00  0.00     0.000 C 
BRANCH  10  11
ATOM     11  C   UNL     1     -26.002  16.010  24.834  1.00  0.00     0.000 C 
BRANCH  11  12
ATOM     12  C   UNL     1     -24.982  14.935  24.428  1.00  0.00     0.006 C 
BRANCH  12  13
ATOM     13  C   UNL     1     -25.002  13.728  25.378  1.00  0.00     0.053 C 
BRANCH  13  14
ATOM     14  C   UNL     1     -24.031  13.891  26.508  1.00  0.00     0.041 C 
ATOM     15  O   UNL     1     -22.803  13.696  26.321  1.00  0.00    -0.550 OA
ATOM     16  O   UNL     1     -24.482  14.265  27.767  1.00  0.00    -0.550 OA
ENDBRANCH  13  14
ENDBRANCH  12  13
ENDBRANCH  11  12
ENDBRANCH  10  11
ENDBRANCH   9  10
ENDBRANCH   8   9
ENDBRANCH   7   8
ENDBRANCH   6   7
ENDBRANCH   5   6
ENDBRANCH   4   5
ENDBRANCH   3   4
ENDBRANCH   2   3
ENDBRANCH   1   2
BRANCH   1  17
ATOM     17  C   UNL     1     -32.819  14.444  24.517  1.00  0.00     0.000 C 
BRANCH  17  18
ATOM     18  C   UNL     1     -33.153  15.903  24.879  1.00  0.00     0.000 C 
BRANCH  18  19
ATOM     19  C   UNL     1     -33.493  16.758  23.647  1.00  0.00     0.000 C 
BRANCH  19  20
ATOM     20  C   UNL     1     -32.495  17.910  23.428  1.00  0.00     0.000 C 
BRANCH  20  21
ATOM     21  C   UNL     1     -31.033  17.442  23.487  1.00  0.00     0.000 C 
BRANCH  21  22
ATOM     22  C   UNL     1     -30.154  18.101  22.408  1.00  0.00    -0.000 C 
BRANCH  22  23
ATOM     23  C   UNL     1     -29.738  17.122  21.294  1.00  0.00    -0.000 C 
BRANCH  23  24
ATOM     24  C   UNL     1     -28.918  17.750  20.149  1.00  0.00    -0.000 C 
BRANCH  24  25
ATOM     25  C   UNL     1     -27.631  16.987  19.777  1.00  0.00    -0.000 C 
BRANCH  25  26
ATOM     26  C   UNL     1     -27.783  15.990  18.610  1.00  0.00    -0.000 C 
BRANCH  26  27
ATOM     27  C   UNL     1     -28.964  16.271  17.662  1.00  0.00    -0.000 C 
BRANCH  27  28
ATOM     28  C   UNL     1     -30.048  15.174  17.626  1.00  0.00    -0.000 C 
BRANCH  28  29
ATOM     29  C   UNL     1     -29.848  14.067  18.682  1.00  0.00    -0.003 C 
ATOM     30  C   UNL     1     -30.946  14.056  19.746  1.00  0.00     0.004 C 
ENDBRANCH  28  29
ENDBRANCH  27  28
ENDBRANCH  26  27
ENDBRANCH  25  26
ENDBRANCH  24  25
ENDBRANCH  23  24
ENDBRANCH  22  23
ENDBRANCH  21  22
ENDBRANCH  20  21
ENDBRANCH  19  20
ENDBRANCH  18  19
ENDBRANCH  17  18
ENDBRANCH   1  17
TORSDOF 26
ENDMDL
MODEL 3
REMARK VINA RESULT:    -4.222      1.445      5.407
REMARK INTER + INTRA:         -14.789
REMARK INTER:                 -10.407
REMARK INTRA:                  -4.382
REMARK UNBOUND:                -4.149
REMARK SMILES CCCCCCCCCCCCCCCCCCCCCCCCCCCC(=O)[O-]
REMARK SMILES IDX 15 1 16 2 17 3 18 4 19 5 20 6 21 7 22 8 23 9 24 10 25 11
REMARK SMILES IDX 26 12 27 13 28 14 29 15 30 16 14 17 13 18 12 19 11 20 10 21
REMARK SMILES IDX 9 22 8 23 7 24 6 25 5 26 4 27 3 28 2 29 1 30
REMARK H PARENT
REMARK Flexibility Score: inf
ROOT
ATOM      1  C   UNL     1     -30.383  15.317  26.135  1.00  0.00     0.000 C 
ENDROOT
BRANCH   1   2
ATOM      2  C   UNL     1     -29.398  14.950  25.013  1.00  0.00     0.000 C 
BRANCH   2   3
ATOM      3  C   UNL     1     -30.022  13.996  23.981  1.00  0.00     0.000 C 
BRANCH   3   4
ATOM      4  C   UNL     1     -29.327  14.094  22.611  1.00  0.00     0.000 C 
BRANCH   4   5
ATOM      5  C   UNL     1     -30.179  13.488  21.471  1.00  0.00     0.000 C 
BRANCH   5   6
ATOM      6  C   UNL     1     -31.068  14.527  20.756  1.00  0.00     0.000 C 
BRANCH   6   7
ATOM      7  C   UNL     1     -32.363  13.926  20.180  1.00  0.00     0.000 C 
BRANCH   7   8
ATOM      8  C   UNL     1     -32.489  14.175  18.665  1.00  0.00     0.000 C 
BRANCH   8   9
ATOM      9  C   UNL     1     -31.126  14.162  17.952  1.00  0.00     0.000 C 
BRANCH   9  10
ATOM     10  C   UNL     1     -31.212  14.439  16.439  1.00  0.00     0.000 C 
BRANCH  10  11
ATOM     11  C   UNL     1     -29.868  14.891  15.842  1.00  0.00     0.000 C 
BRANCH  11  12
ATOM     12  C   UNL     1     -29.363  13.878  14.801  1.00  0.00     0.006 C 
BRANCH  12  13
ATOM     13  C   UNL     1     -30.490  12.980  14.271  1.00  0.00     0.053 C 
BRANCH  13  14
ATOM     14  C   UNL     1     -30.638  13.089  12.784  1.00  0.00     0.041 C 
ATOM     15  O   UNL     1     -30.355  12.111  12.046  1.00  0.00    -0.550 OA
ATOM     16  O   UNL     1     -31.093  14.270  12.212  1.00  0.00    -0.550 OA
ENDBRANCH  13  14
ENDBRANCH  12  13
ENDBRANCH  11  12
ENDBRANCH  10  11
ENDBRANCH   9  10
ENDBRANCH   8   9
ENDBRANCH   7   8
ENDBRANCH   6   7
ENDBRANCH   5   6
ENDBRANCH   4   5
ENDBRANCH   3   4
ENDBRANCH   2   3
ENDBRANCH   1   2
BRANCH   1  17
ATOM     17  C   UNL     1     -31.110  14.086  26.701  1.00  0.00     0.000 C 
BRANCH  17  18
ATOM     18  C   UNL     1     -32.627  14.146  26.442  1.00  0.00     0.000 C 
BRANCH  18  19
ATOM     19  C   UNL     1     -33.041  15.378  25.622  1.00  0.00     0.000 C 
BRANCH  19  20
ATOM     20  C   UNL     1     -33.555  15.013  24.218  1.00  0.00     0.000 C 
BRANCH  20  21
ATOM     21  C   UNL     1     -33.235  16.093  23.173  1.00  0.00     0.000 C 
BRANCH  21  22
ATOM     22  C   UNL     1     -32.952  17.468  23.806  1.00  0.00    -0.000 C 
BRANCH  22  23
ATOM     23  C   UNL     1     -31.859  18.257  23.061  1.00  0.00    -0.000 C 
BRANCH  23  24
ATOM     24  C   UNL     1     -30.622  17.431  22.655  1.00  0.00    -0.000 C 
BRANCH  24  25
ATOM     25  C   UNL     1     -29.384  18.264  22.266  1.00  0.00    -0.000 C 
BRANCH  25  26
ATOM     26  C   UNL     1     -28.472  17.614  21.205  1.00  0.00    -0.000 C 
BRANCH  26  27
ATOM     27  C   UNL     1     -28.803  17.985  19.746  1.00  0.00    -0.000 C 
BRANCH  27  28
ATOM     28  C   UNL     1     -28.854  16.796  18.765  1.00  0.00    -0.000 C 
BRANCH  28  29
ATOM     29  C   UNL     1     -27.929  15.625  19.158  1.00  0.00    -0.003 C 
ATOM     30  C   UNL     1     -26.687  15.527  18.272  1.00  0.00     0.004 C 
ENDBRANCH  28  29
ENDBRANCH  27  28
ENDBRANCH  26  27
ENDBRANCH  25  26
ENDBRANCH  24  25
ENDBRANCH  23  24
ENDBRANCH  22  23
ENDBRANCH  21  22
ENDBRANCH  20  21
ENDBRANCH  19  20
ENDBRANCH  18  19
ENDBRANCH  17  18
ENDBRANCH   1  17
TORSDOF 26
ENDMDL
MODEL 4
REMARK VINA RESULT:    -4.200      2.034      4.829
REMARK INTER + INTRA:         -14.733
REMARK INTER:                  -9.551
REMARK INTRA:                  -5.181
REMARK UNBOUND:                -4.149
REMARK SMILES CCCCCCCCCCCCCCCCCCCCCCCCCCCC(=O)[O-]
REMARK SMILES IDX 15 1 16 2 17 3 18 4 19 5 20 6 21 7 22 8 23 9 24 10 25 11
REMARK SMILES IDX 26 12 27 13 28 14 29 15 30 16 14 17 13 18 12 19 11 20 10 21
REMARK SMILES IDX 9 22 8 23 7 24 6 25 5 26 4 27 3 28 2 29 1 30
REMARK H PARENT
REMARK Flexibility Score: inf
ROOT
ATOM      1  C   UNL     1     -28.359  17.745  19.932  1.00  0.00     0.000 C 
ENDROOT
BRANCH   1   2
ATOM      2  C   UNL     1     -29.169  17.770  21.239  1.00  0.00     0.000 C 
BRANCH   2   3
ATOM      3  C   UNL     1     -28.355  17.255  22.438  1.00  0.00     0.000 C 
BRANCH   3   4
ATOM      4  C   UNL     1     -29.250  16.592  23.501  1.00  0.00     0.000 C 
BRANCH   4   5
ATOM      5  C   UNL     1     -29.658  15.152  23.116  1.00  0.00     0.000 C 
BRANCH   5   6
ATOM      6  C   UNL     1     -31.186  14.929  23.121  1.00  0.00     0.000 C 
BRANCH   6   7
ATOM      7  C   UNL     1     -31.851  15.244  21.769  1.00  0.00     0.000 C 
BRANCH   7   8
ATOM      8  C   UNL     1     -31.054  14.662  20.586  1.00  0.00     0.000 C 
BRANCH   8   9
ATOM      9  C   UNL     1     -31.967  14.078  19.493  1.00  0.00     0.000 C 
BRANCH   9  10
ATOM     10  C   UNL     1     -31.223  13.703  18.197  1.00  0.00     0.000 C 
BRANCH  10  11
ATOM     11  C   UNL     1     -32.052  13.993  16.934  1.00  0.00     0.000 C 
BRANCH  11  12
ATOM     12  C   UNL     1     -31.180  14.631  15.840  1.00  0.00     0.006 C 
BRANCH  12  13
ATOM     13  C   UNL     1     -31.727  14.362  14.431  1.00  0.00     0.053 C 
BRANCH  13  14
ATOM     14  C   UNL     1     -30.629  14.096  13.447  1.00  0.00     0.041 C 
ATOM     15  O   UNL     1     -30.900  13.873  12.239  1.00  0.00    -0.550 OA
ATOM     16  O   UNL     1     -29.304  14.099  13.862  1.00  0.00    -0.550 OA
ENDBRANCH  13  14
ENDBRANCH  12  13
ENDBRANCH  11  12
ENDBRANCH  10  11
ENDBRANCH   9  10
ENDBRANCH   8   9
ENDBRANCH   7   8
ENDBRANCH   6   7
ENDBRANCH   5   6
ENDBRANCH   4   5
ENDBRANCH   3   4
ENDBRANCH   2   3
ENDBRANCH   1   2
BRANCH   1  17
ATOM     17  C   UNL     1     -29.202  17.287  18.730  1.00  0.00     0.000 C 
BRANCH  17  18
ATOM     18  C   UNL     1     -28.459  16.245  17.872  1.00  0.00     0.000 C 
BRANCH  18  19
ATOM     19  C   UNL     1     -27.309  15.563  18.630  1.00  0.00     0.000 C 
BRANCH  19  20
ATOM     20  C   UNL     1     -27.762  14.305  19.392  1.00  0.00     0.000 C 
BRANCH  20  21
ATOM     21  C   UNL     1     -26.979  14.091  20.696  1.00  0.00     0.000 C 
BRANCH  21  22
ATOM     22  C   UNL     1     -25.668  14.897  20.742  1.00  0.00    -0.000 C 
BRANCH  22  23
ATOM     23  C   UNL     1     -25.199  15.198  22.178  1.00  0.00    -0.000 C 
BRANCH  23  24
ATOM     24  C   UNL     1     -26.023  14.516  23.288  1.00  0.00    -0.000 C 
BRANCH  24  25
ATOM     25  C   UNL     1     -25.979  15.223  24.657  1.00  0.00    -0.000 C 
BRANCH  25  26
ATOM     26  C   UNL     1     -24.952  16.369  24.762  1.00  0.00    -0.000 C 
BRANCH  26  27
ATOM     27  C   UNL     1     -25.547  17.747  25.110  1.00  0.00    -0.000 C 
BRANCH  27  28
ATOM     28  C   UNL     1     -25.575  18.760  23.947  1.00  0.00    -0.000 C 
BRANCH  28  29
ATOM     29  C   UNL     1     -24.371  18.640  22.989  1.00  0.00    -0.003 C 
ATOM     30  C   UNL     1     -24.772  18.736  21.517  1.00  0.00     0.004 C 
ENDBRANCH  28  29
ENDBRANCH  27  28
ENDBRANCH  26  27
ENDBRANCH  25  26
ENDBRANCH  24  25
ENDBRANCH  23  24
ENDBRANCH  22  23
ENDBRANCH  21  22
ENDBRANCH  20  21
ENDBRANCH  19  20
ENDBRANCH  18  19
ENDBRANCH  17  18
ENDBRANCH   1  17
TORSDOF 26
ENDMDL
MODEL 5
REMARK VINA RESULT:    -4.157      2.699      6.486
REMARK INTER + INTRA:         -14.625
REMARK INTER:                  -9.584
REMARK INTRA:                  -5.041
REMARK UNBOUND:                -4.149
REMARK SMILES CCCCCCCCCCCCCCCCCCCCCCCCCCCC(=O)[O-]
REMARK SMILES IDX 15 1 16 2 17 3 18 4 19 5 20 6 21 7 22 8 23 9 24 10 25 11
REMARK SMILES IDX 26 12 27 13 28 14 29 15 30 16 14 17 13 18 12 19 11 20 10 21
REMARK SMILES IDX 9 22 8 23 7 24 6 25 5 26 4 27 3 28 2 29 1 30
REMARK H PARENT
REMARK Flexibility Score: inf
ROOT
ATOM      1  C   UNL     1     -29.747  14.353  16.130  1.00  0.00     0.000 C 
ENDROOT
BRANCH   1   2
ATOM      2  C   UNL     1     -29.682  14.668  14.626  1.00  0.00     0.000 C 
BRANCH   2   3
ATOM      3  C   UNL     1     -29.653  13.393  13.765  1.00  0.00     0.000 C 
BRANCH   3   4
ATOM      4  C   UNL     1     -30.885  13.288  12.849  1.00  0.00     0.000 C 
BRANCH   4   5
ATOM      5  C   UNL     1     -31.871  14.462  13.045  1.00  0.00     0.000 C 
BRANCH   5   6
ATOM      6  C   UNL     1     -33.261  14.014  13.545  1.00  0.00     0.000 C 
BRANCH   6   7
ATOM      7  C   UNL     1     -33.360  12.498  13.791  1.00  0.00     0.000 C 
BRANCH   7   8
ATOM      8  C   UNL     1     -33.173  12.142  15.278  1.00  0.00     0.000 C 
BRANCH   8   9
ATOM      9  C   UNL     1     -32.599  10.728  15.477  1.00  0.00     0.000 C 
BRANCH   9  10
ATOM     10  C   UNL     1     -31.874  10.534  16.823  1.00  0.00     0.000 C 
BRANCH  10  11
ATOM     11  C   UNL     1     -30.489   9.886  16.662  1.00  0.00     0.000 C 
BRANCH  11  12
ATOM     12  C   UNL     1     -29.607  10.708  15.708  1.00  0.00     0.006 C 
BRANCH  12  13
ATOM     13  C   UNL     1     -28.798   9.818  14.753  1.00  0.00     0.053 C 
BRANCH  13  14
ATOM     14  C   UNL     1     -29.491   9.638  13.437  1.00  0.00     0.041 C 
ATOM     15  O   UNL     1     -29.064  10.226  12.410  1.00  0.00    -0.550 OA
ATOM     16  O   UNL     1     -30.607   8.817  13.341  1.00  0.00    -0.550 OA
ENDBRANCH  13  14
ENDBRANCH  12  13
ENDBRANCH  11  12
ENDBRANCH  10  11
ENDBRANCH   9  10
ENDBRANCH   8   9
ENDBRANCH   7   8
ENDBRANCH   6   7
ENDBRANCH   5   6
ENDBRANCH   4   5
ENDBRANCH   3   4
ENDBRANCH   2   3
ENDBRANCH   1   2
BRANCH   1  17
ATOM     17  C   UNL     1     -31.113  14.706  16.742  1.00  0.00     0.000 C 
BRANCH  17  18
ATOM     18  C   UNL     1     -31.346  13.981  18.080  1.00  0.00     0.000 C 
BRANCH  18  19
ATOM     19  C   UNL     1     -30.064  13.345  18.643  1.00  0.00     0.000 C 
BRANCH  19  20
ATOM     20  C   UNL     1     -29.798  13.740  20.107  1.00  0.00     0.000 C 
BRANCH  20  21
ATOM     21  C   UNL     1     -28.320  14.069  20.369  1.00  0.00     0.000 C 
BRANCH  21  22
ATOM     22  C   UNL     1     -27.565  14.476  19.090  1.00  0.00    -0.000 C 
BRANCH  22  23
ATOM     23  C   UNL     1     -27.334  15.995  18.988  1.00  0.00    -0.000 C 
BRANCH  23  24
ATOM     24  C   UNL     1     -28.513  16.794  18.397  1.00  0.00    -0.000 C 
BRANCH  24  25
ATOM     25  C   UNL     1     -29.027  17.945  19.285  1.00  0.00    -0.000 C 
BRANCH  25  26
ATOM     26  C   UNL     1     -28.790  17.753  20.797  1.00  0.00    -0.000 C 
BRANCH  26  27
ATOM     27  C   UNL     1     -30.010  17.245  21.588  1.00  0.00    -0.000 C 
BRANCH  27  28
ATOM     28  C   UNL     1     -29.823  17.200  23.119  1.00  0.00    -0.000 C 
BRANCH  28  29
ATOM     29  C   UNL     1     -28.520  16.506  23.566  1.00  0.00    -0.003 C 
ATOM     30  C   UNL     1     -28.723  15.034  23.927  1.00  0.00     0.004 C 
ENDBRANCH  28  29
ENDBRANCH  27  28
ENDBRANCH  26  27
ENDBRANCH  25  26
ENDBRANCH  24  25
ENDBRANCH  23  24
ENDBRANCH  22  23
ENDBRANCH  21  22
ENDBRANCH  20  21
ENDBRANCH  19  20
ENDBRANCH  18  19
ENDBRANCH  17  18
ENDBRANCH   1  17
TORSDOF 26
ENDMDL
MODEL 6
REMARK VINA RESULT:    -4.152      5.313      8.432
REMARK INTER + INTRA:         -14.612
REMARK INTER:                  -9.595
REMARK INTRA:                  -5.018
REMARK UNBOUND:                -4.149
REMARK SMILES CCCCCCCCCCCCCCCCCCCCCCCCCCCC(=O)[O-]
REMARK SMILES IDX 15 1 16 2 17 3 18 4 19 5 20 6 21 7 22 8 23 9 24 10 25 11
REMARK SMILES IDX 26 12 27 13 28 14 29 15 30 16 14 17 13 18 12 19 11 20 10 21
REMARK SMILES IDX 9 22 8 23 7 24 6 25 5 26 4 27 3 28 2 29 1 30
REMARK H PARENT
REMARK Flexibility Score: inf
ROOT
ATOM      1  C   UNL     1     -32.478  15.999  24.399  1.00  0.00     0.000 C 
ENDROOT
BRANCH   1   2
ATOM      2  C   UNL     1     -32.816  16.518  22.991  1.00  0.00     0.000 C 
BRANCH   2   3
ATOM      3  C   UNL     1     -31.567  16.993  22.231  1.00  0.00     0.000 C 
BRANCH   3   4
ATOM      4  C   UNL     1     -30.771  18.042  23.027  1.00  0.00     0.000 C 
BRANCH   4   5
ATOM      5  C   UNL     1     -29.458  18.450  22.319  1.00  0.00     0.000 C 
BRANCH   5   6
ATOM      6  C   UNL     1     -29.233  17.715  20.981  1.00  0.00     0.000 C 
BRANCH   6   7
ATOM      7  C   UNL     1     -27.745  17.493  20.651  1.00  0.00     0.000 C 
BRANCH   7   8
ATOM      8  C   UNL     1     -26.826  18.381  21.511  1.00  0.00     0.000 C 
BRANCH   8   9
ATOM      9  C   UNL     1     -26.033  17.572  22.552  1.00  0.00     0.000 C 
BRANCH   9  10
ATOM     10  C   UNL     1     -26.001  18.219  23.950  1.00  0.00     0.000 C 
BRANCH  10  11
ATOM     11  C   UNL     1     -25.433  17.278  25.026  1.00  0.00     0.000 C 
BRANCH  11  12
ATOM     12  C   UNL     1     -24.856  16.004  24.389  1.00  0.00     0.006 C 
BRANCH  12  13
ATOM     13  C   UNL     1     -24.500  14.940  25.438  1.00  0.00     0.053 C 
BRANCH  13  14
ATOM     14  C   UNL     1     -23.472  15.435  26.408  1.00  0.00     0.041 C 
ATOM     15  O   UNL     1     -23.747  15.527  27.632  1.00  0.00    -0.550 OA
ATOM     16  O   UNL     1     -22.205  15.792  25.962  1.00  0.00    -0.550 OA
ENDBRANCH  13  14
ENDBRANCH  12  13
ENDBRANCH  11  12
ENDBRANCH  10  11
ENDBRANCH   9  10
ENDBRANCH   8   9
ENDBRANCH   7   8
ENDBRANCH   6   7
ENDBRANCH   5   6
ENDBRANCH   4   5
ENDBRANCH   3   4
ENDBRANCH   2   3
ENDBRANCH   1   2
BRANCH   1  17
ATOM     17  C   UNL     1     -33.727  15.530  25.164  1.00  0.00     0.000 C 
BRANCH  17  18
ATOM     18  C   UNL     1     -33.421  14.331  26.081  1.00  0.00     0.000 C 
BRANCH  18  19
ATOM     19  C   UNL     1     -32.751  14.748  27.401  1.00  0.00     0.000 C 
BRANCH  19  20
ATOM     20  C   UNL     1     -31.358  14.120  27.585  1.00  0.00     0.000 C 
BRANCH  20  21
ATOM     21  C   UNL     1     -30.222  15.090  27.227  1.00  0.00     0.000 C 
BRANCH  21  22
ATOM     22  C   UNL     1     -29.312  14.554  26.107  1.00  0.00    -0.000 C 
BRANCH  22  23
ATOM     23  C   UNL     1     -28.815  15.660  25.157  1.00  0.00    -0.000 C 
BRANCH  23  24
ATOM     24  C   UNL     1     -28.417  15.177  23.748  1.00  0.00    -0.000 C 
BRANCH  24  25
ATOM     25  C   UNL     1     -29.414  14.202  23.090  1.00  0.00    -0.000 C 
BRANCH  25  26
ATOM     26  C   UNL     1     -29.275  14.068  21.559  1.00  0.00    -0.000 C 
BRANCH  26  27
ATOM     27  C   UNL     1     -27.922  13.514  21.073  1.00  0.00    -0.000 C 
BRANCH  27  28
ATOM     28  C   UNL     1     -27.743  11.991  21.236  1.00  0.00    -0.000 C 
BRANCH  28  29
ATOM     29  C   UNL     1     -26.645  11.597  22.246  1.00  0.00    -0.003 C 
ATOM     30  C   UNL     1     -25.762  12.777  22.653  1.00  0.00     0.004 C 
ENDBRANCH  28  29
ENDBRANCH  27  28
ENDBRANCH  26  27
ENDBRANCH  25  26
ENDBRANCH  24  25
ENDBRANCH  23  24
ENDBRANCH  22  23
ENDBRANCH  21  22
ENDBRANCH  20  21
ENDBRANCH  19  20
ENDBRANCH  18  19
ENDBRANCH  17  18
ENDBRANCH   1  17
TORSDOF 26
ENDMDL
MODEL 7
REMARK VINA RESULT:    -4.103      4.299      7.310
REMARK INTER + INTRA:         -14.487
REMARK INTER:                  -8.777
REMARK INTRA:                  -5.710
REMARK UNBOUND:                -4.149
REMARK SMILES CCCCCCCCCCCCCCCCCCCCCCCCCCCC(=O)[O-]
REMARK SMILES IDX 15 1 16 2 17 3 18 4 19 5 20 6 21 7 22 8 23 9 24 10 25 11
REMARK SMILES IDX 26 12 27 13 28 14 29 15 30 16 14 17 13 18 12 19 11 20 10 21
REMARK SMILES IDX 9 22 8 23 7 24 6 25 5 26 4 27 3 28 2 29 1 30
REMARK H PARENT
REMARK Flexibility Score: inf
ROOT
ATOM      1  C   UNL     1     -27.189  17.232  23.394  1.00  0.00     0.000 C 
ENDROOT
BRANCH   1   2
ATOM      2  C   UNL     1     -27.640  18.263  22.345  1.00  0.00     0.000 C 
BRANCH   2   3
ATOM      3  C   UNL     1     -29.094  18.038  21.896  1.00  0.00     0.000 C 
BRANCH   3   4
ATOM      4  C   UNL     1     -29.193  17.747  20.388  1.00  0.00     0.000 C 
BRANCH   4   5
ATOM      5  C   UNL     1     -27.868  17.210  19.801  1.00  0.00     0.000 C 
BRANCH   5   6
ATOM      6  C   UNL     1     -28.075  16.125  18.722  1.00  0.00     0.000 C 
BRANCH   6   7
ATOM      7  C   UNL     1     -27.604  14.728  19.165  1.00  0.00     0.000 C 
BRANCH   7   8
ATOM      8  C   UNL     1     -26.892  14.767  20.530  1.00  0.00     0.000 C 
BRANCH   8   9
ATOM      9  C   UNL     1     -27.455  13.729  21.517  1.00  0.00     0.000 C 
BRANCH   9  10
ATOM     10  C   UNL     1     -28.993  13.638  21.515  1.00  0.00     0.000 C 
BRANCH  10  11
ATOM     11  C   UNL     1     -29.645  14.592  22.531  1.00  0.00     0.000 C 
BRANCH  11  12
ATOM     12  C   UNL     1     -29.962  13.860  23.845  1.00  0.00     0.006 C 
BRANCH  12  13
ATOM     13  C   UNL     1     -29.398  14.595  25.069  1.00  0.00     0.053 C 
BRANCH  13  14
ATOM     14  C   UNL     1     -30.459  15.367  25.793  1.00  0.00     0.041 C 
ATOM     15  O   UNL     1     -31.650  15.337  25.391  1.00  0.00    -0.550 OA
ATOM     16  O   UNL     1     -30.133  16.118  26.914  1.00  0.00    -0.550 OA
ENDBRANCH  13  14
ENDBRANCH  12  13
ENDBRANCH  11  12
ENDBRANCH  10  11
ENDBRANCH   9  10
ENDBRANCH   8   9
ENDBRANCH   7   8
ENDBRANCH   6   7
ENDBRANCH   5   6
ENDBRANCH   4   5
ENDBRANCH   3   4
ENDBRANCH   2   3
ENDBRANCH   1   2
BRANCH   1  17
ATOM     17  C   UNL     1     -25.705  16.856  23.242  1.00  0.00     0.000 C 
BRANCH  17  18
ATOM     18  C   UNL     1     -24.994  17.735  22.196  1.00  0.00     0.000 C 
BRANCH  18  19
ATOM     19  C   UNL     1     -24.188  16.914  21.178  1.00  0.00     0.000 C 
BRANCH  19  20
ATOM     20  C   UNL     1     -22.726  16.701  21.609  1.00  0.00     0.000 C 
BRANCH  20  21
ATOM     21  C   UNL     1     -22.472  15.289  22.160  1.00  0.00     0.000 C 
BRANCH  21  22
ATOM     22  C   UNL     1     -23.545  14.277  21.719  1.00  0.00    -0.000 C 
BRANCH  22  23
ATOM     23  C   UNL     1     -23.386  12.902  22.394  1.00  0.00    -0.000 C 
BRANCH  23  24
ATOM     24  C   UNL     1     -23.094  12.950  23.907  1.00  0.00    -0.000 C 
BRANCH  24  25
ATOM     25  C   UNL     1     -24.278  12.551  24.810  1.00  0.00    -0.000 C 
BRANCH  25  26
ATOM     26  C   UNL     1     -25.501  13.488  24.726  1.00  0.00    -0.000 C 
BRANCH  26  27
ATOM     27  C   UNL     1     -25.742  14.359  25.974  1.00  0.00    -0.000 C 
BRANCH  27  28
ATOM     28  C   UNL     1     -24.475  14.711  26.780  1.00  0.00    -0.000 C 
BRANCH  28  29
ATOM     29  C   UNL     1     -23.996  16.164  26.583  1.00  0.00    -0.003 C 
ATOM     30  C   UNL     1     -22.835  16.278  25.594  1.00  0.00     0.004 C 
ENDBRANCH  28  29
ENDBRANCH  27  28
ENDBRANCH  26  27
ENDBRANCH  25  26
ENDBRANCH  24  25
ENDBRANCH  23  24
ENDBRANCH  22  23
ENDBRANCH  21  22
ENDBRANCH  20  21
ENDBRANCH  19  20
ENDBRANCH  18  19
ENDBRANCH  17  18
ENDBRANCH   1  17
TORSDOF 26
ENDMDL
MODEL 8
REMARK VINA RESULT:    -4.097      1.530      5.001
REMARK INTER + INTRA:         -14.474
REMARK INTER:                 -10.858
REMARK INTRA:                  -3.616
REMARK UNBOUND:                -4.149
REMARK SMILES CCCCCCCCCCCCCCCCCCCCCCCCCCCC(=O)[O-]
REMARK SMILES IDX 15 1 16 2 17 3 18 4 19 5 20 6 21 7 22 8 23 9 24 10 25 11
REMARK SMILES IDX 26 12 27 13 28 14 29 15 30 16 14 17 13 18 12 19 11 20 10 21
REMARK SMILES IDX 9 22 8 23 7 24 6 25 5 26 4 27 3 28 2 29 1 30
REMARK H PARENT
REMARK Flexibility Score: inf
ROOT
ATOM      1  C   UNL     1     -32.149  15.930  24.593  1.00  0.00     0.000 C 
ENDROOT
BRANCH   1   2
ATOM      2  C   UNL     1     -32.993  17.098  24.054  1.00  0.00     0.000 C 
BRANCH   2   3
ATOM      3  C   UNL     1     -32.207  17.976  23.066  1.00  0.00     0.000 C 
BRANCH   3   4
ATOM      4  C   UNL     1     -30.724  17.573  22.989  1.00  0.00     0.000 C 
BRANCH   4   5
ATOM      5  C   UNL     1     -30.330  17.035  21.594  1.00  0.00     0.000 C 
BRANCH   5   6
ATOM      6  C   UNL     1     -29.135  17.785  20.967  1.00  0.00     0.000 C 
BRANCH   6   7
ATOM      7  C   UNL     1     -28.848  17.365  19.514  1.00  0.00     0.000 C 
BRANCH   7   8
ATOM      8  C   UNL     1     -28.897  15.836  19.336  1.00  0.00     0.000 C 
BRANCH   8   9
ATOM      9  C   UNL     1     -27.879  15.333  18.297  1.00  0.00     0.000 C 
BRANCH   9  10
ATOM     10  C   UNL     1     -28.351  15.486  16.839  1.00  0.00     0.000 C 
BRANCH  10  11
ATOM     11  C   UNL     1     -29.319  14.371  16.408  1.00  0.00     0.000 C 
BRANCH  11  12
ATOM     12  C   UNL     1     -29.494  14.357  14.881  1.00  0.00     0.006 C 
BRANCH  12  13
ATOM     13  C   UNL     1     -30.719  15.164  14.429  1.00  0.00     0.053 C 
BRANCH  13  14
ATOM     14  C   UNL     1     -31.528  14.426  13.407  1.00  0.00     0.041 C 
ATOM     15  O   UNL     1     -32.714  14.092  13.659  1.00  0.00    -0.550 OA
ATOM     16  O   UNL     1     -30.975  14.110  12.173  1.00  0.00    -0.550 OA
ENDBRANCH  13  14
ENDBRANCH  12  13
ENDBRANCH  11  12
ENDBRANCH  10  11
ENDBRANCH   9  10
ENDBRANCH   8   9
ENDBRANCH   7   8
ENDBRANCH   6   7
ENDBRANCH   5   6
ENDBRANCH   4   5
ENDBRANCH   3   4
ENDBRANCH   2   3
ENDBRANCH   1   2
BRANCH   1  17
ATOM     17  C   UNL     1     -32.749  14.560  24.232  1.00  0.00     0.000 C 
BRANCH  17  18
ATOM     18  C   UNL     1     -32.894  13.654  25.469  1.00  0.00     0.000 C 
BRANCH  18  19
ATOM     19  C   UNL     1     -32.626  14.400  26.787  1.00  0.00     0.000 C 
BRANCH  19  20
ATOM     20  C   UNL     1     -31.412  13.840  27.550  1.00  0.00     0.000 C 
BRANCH  20  21
ATOM     21  C   UNL     1     -30.233  14.825  27.587  1.00  0.00     0.000 C 
BRANCH  21  22
ATOM     22  C   UNL     1     -29.237  14.604  26.435  1.00  0.00    -0.000 C 
BRANCH  22  23
ATOM     23  C   UNL     1     -29.211  13.148  25.935  1.00  0.00    -0.000 C 
BRANCH  23  24
ATOM     24  C   UNL     1     -29.343  12.982  24.408  1.00  0.00    -0.000 C 
BRANCH  24  25
ATOM     25  C   UNL     1     -29.112  14.270  23.592  1.00  0.00    -0.000 C 
BRANCH  25  26
ATOM     26  C   UNL     1     -27.688  14.429  23.022  1.00  0.00    -0.000 C 
BRANCH  26  27
ATOM     27  C   UNL     1     -26.744  15.309  23.864  1.00  0.00    -0.000 C 
BRANCH  27  28
ATOM     28  C   UNL     1     -27.057  16.819  23.832  1.00  0.00    -0.000 C 
BRANCH  28  29
ATOM     29  C   UNL     1     -25.872  17.710  24.258  1.00  0.00    -0.003 C 
ATOM     30  C   UNL     1     -24.790  16.938  25.014  1.00  0.00     0.004 C 
ENDBRANCH  28  29
ENDBRANCH  27  28
ENDBRANCH  26  27
ENDBRANCH  25  26
ENDBRANCH  24  25
ENDBRANCH  23  24
ENDBRANCH  22  23
ENDBRANCH  21  22
ENDBRANCH  20  21
ENDBRANCH  19  20
ENDBRANCH  18  19
ENDBRANCH  17  18
ENDBRANCH   1  17
TORSDOF 26
ENDMDL
MODEL 9
REMARK VINA RESULT:    -4.048      3.052      5.214
REMARK INTER + INTRA:         -14.349
REMARK INTER:                  -8.504
REMARK INTRA:                  -5.844
REMARK UNBOUND:                -4.149
REMARK SMILES CCCCCCCCCCCCCCCCCCCCCCCCCCCC(=O)[O-]
REMARK SMILES IDX 15 1 16 2 17 3 18 4 19 5 20 6 21 7 22 8 23 9 24 10 25 11
REMARK SMILES IDX 26 12 27 13 28 14 29 15 30 16 14 17 13 18 12 19 11 20 10 21
REMARK SMILES IDX 9 22 8 23 7 24 6 25 5 26 4 27 3 28 2 29 1 30
REMARK H PARENT
REMARK Flexibility Score: inf
ROOT
ATOM      1  C   UNL     1     -27.873  11.583  21.285  1.00  0.00     0.000 C 
ENDROOT
BRANCH   1   2
ATOM      2  C   UNL     1     -27.642  10.526  22.377  1.00  0.00     0.000 C 
BRANCH   2   3
ATOM      3  C   UNL     1     -26.333  10.763  23.150  1.00  0.00     0.000 C 
BRANCH   3   4
ATOM      4  C   UNL     1     -25.650  12.079  22.737  1.00  0.00     0.000 C 
BRANCH   4   5
ATOM      5  C   UNL     1     -25.669  13.134  23.866  1.00  0.00     0.000 C 
BRANCH   5   6
ATOM      6  C   UNL     1     -26.236  14.498  23.417  1.00  0.00     0.000 C 
BRANCH   6   7
ATOM      7  C   UNL     1     -26.856  15.309  24.569  1.00  0.00     0.000 C 
BRANCH   7   8
ATOM      8  C   UNL     1     -27.933  16.291  24.068  1.00  0.00     0.000 C 
BRANCH   8   9
ATOM      9  C   UNL     1     -28.225  16.124  22.566  1.00  0.00     0.000 C 
BRANCH   9  10
ATOM     10  C   UNL     1     -28.002  17.407  21.743  1.00  0.00     0.000 C 
BRANCH  10  11
ATOM     11  C   UNL     1     -28.696  17.360  20.371  1.00  0.00     0.000 C 
BRANCH  11  12
ATOM     12  C   UNL     1     -29.188  15.938  20.055  1.00  0.00     0.006 C 
BRANCH  12  13
ATOM     13  C   UNL     1     -28.682  15.438  18.694  1.00  0.00     0.053 C 
BRANCH  13  14
ATOM     14  C   UNL     1     -27.216  15.129  18.723  1.00  0.00     0.041 C 
ATOM     15  O   UNL     1     -26.706  14.572  19.728  1.00  0.00    -0.550 OA
ATOM     16  O   UNL     1     -26.413  15.453  17.637  1.00  0.00    -0.550 OA
ENDBRANCH  13  14
ENDBRANCH  12  13
ENDBRANCH  11  12
ENDBRANCH  10  11
ENDBRANCH   9  10
ENDBRANCH   8   9
ENDBRANCH   7   8
ENDBRANCH   6   7
ENDBRANCH   5   6
ENDBRANCH   4   5
ENDBRANCH   3   4
ENDBRANCH   2   3
ENDBRANCH   1   2
BRANCH   1  17
ATOM     17  C   UNL     1     -28.897  12.649  21.710  1.00  0.00     0.000 C 
BRANCH  17  18
ATOM     18  C   UNL     1     -29.834  12.134  22.818  1.00  0.00     0.000 C 
BRANCH  18  19
ATOM     19  C   UNL     1     -29.799  13.010  24.081  1.00  0.00     0.000 C 
BRANCH  19  20
ATOM     20  C   UNL     1     -29.001  12.367  25.229  1.00  0.00     0.000 C 
BRANCH  20  21
ATOM     21  C   UNL     1     -29.591  12.689  26.610  1.00  0.00     0.000 C 
BRANCH  21  22
ATOM     22  C   UNL     1     -29.128  14.054  27.152  1.00  0.00    -0.000 C 
BRANCH  22  23
ATOM     23  C   UNL     1     -30.262  15.095  27.202  1.00  0.00    -0.000 C 
BRANCH  23  24
ATOM     24  C   UNL     1     -31.529  14.642  27.956  1.00  0.00    -0.000 C 
BRANCH  24  25
ATOM     25  C   UNL     1     -32.844  14.792  27.165  1.00  0.00    -0.000 C 
BRANCH  25  26
ATOM     26  C   UNL     1     -32.710  14.596  25.641  1.00  0.00    -0.000 C 
BRANCH  26  27
ATOM     27  C   UNL     1     -32.931  15.866  24.798  1.00  0.00    -0.000 C 
BRANCH  27  28
ATOM     28  C   UNL     1     -31.677  16.396  24.074  1.00  0.00    -0.000 C 
BRANCH  28  29
ATOM     29  C   UNL     1     -31.846  16.517  22.545  1.00  0.00    -0.003 C 
ATOM     30  C   UNL     1     -32.296  15.211  21.891  1.00  0.00     0.004 C 
ENDBRANCH  28  29
ENDBRANCH  27  28
ENDBRANCH  26  27
ENDBRANCH  25  26
ENDBRANCH  24  25
ENDBRANCH  23  24
ENDBRANCH  22  23
ENDBRANCH  21  22
ENDBRANCH  20  21
ENDBRANCH  19  20
ENDBRANCH  18  19
ENDBRANCH  17  18
ENDBRANCH   1  17
TORSDOF 26
ENDMDL
