MODEL 1
REMARK VINA RESULT:    -3.765      0.000      0.000
REMARK INTER + INTRA:          -6.538
REMARK INTER:                  -5.966
REMARK INTRA:                  -0.573
REMARK UNBOUND:                -0.573
REMARK SMILES CCCCCCCCCCCC(=O)[O-]
REMARK SMILES IDX 7 1 8 2 9 3 10 4 11 5 12 6 13 7 14 8 6 9 5 10 4 11 3 12 2 13
REMARK SMILES IDX 1 14
REMARK H PARENT
REMARK Flexibility Score: inf
ROOT
ATOM      1  C   UNL     1      15.423   2.723  -1.905  1.00  0.00     0.000 C 
ENDROOT
BRANCH   1   2
ATOM      2  C   UNL     1      15.428   1.190  -1.966  1.00  0.00     0.000 C 
BRANCH   2   3
ATOM      3  C   UNL     1      16.594   0.626  -2.800  1.00  0.00     0.000 C 
BRANCH   3   4
ATOM      4  C   UNL     1      17.933   1.375  -2.641  1.00  0.00     0.006 C 
BRANCH   4   5
ATOM      5  C   UNL     1      19.180   0.514  -2.895  1.00  0.00     0.053 C 
BRANCH   5   6
ATOM      6  C   UNL     1      20.365   1.001  -2.119  1.00  0.00     0.041 C 
ATOM      7  O   UNL     1      20.948   2.066  -2.453  1.00  0.00    -0.550 OA
ATOM      8  O   UNL     1      20.846   0.260  -1.048  1.00  0.00    -0.550 OA
ENDBRANCH   5   6
ENDBRANCH   4   5
ENDBRANCH   3   4
ENDBRANCH   2   3
ENDBRANCH   1   2
BRANCH   1   9
ATOM      9  C   UNL     1      14.526   3.314  -3.004  1.00  0.00     0.000 C 
BRANCH   9  10
ATOM     10  C   UNL     1      13.162   2.612  -3.093  1.00  0.00    -0.000 C 
BRANCH  10  11
ATOM     11  C   UNL     1      11.989   3.556  -2.776  1.00  0.00    -0.000 C 
BRANCH  11  12
ATOM     12  C   UNL     1      12.448   4.871  -2.125  1.00  0.00    -0.000 C 
BRANCH  12  13
ATOM     13  C   UNL     1      12.069   4.955  -0.638  1.00  0.00    -0.003 C 
ATOM     14  C   UNL     1      10.995   6.015  -0.406  1.00  0.00     0.004 C 
ENDBRANCH  12  13
ENDBRANCH  11  12
ENDBRANCH  10  11
ENDBRANCH   9  10
ENDBRANCH   1   9
TORSDOF 10
ENDMDL
MODEL 2
REMARK VINA RESULT:    -3.565      2.093      3.593
REMARK INTER + INTRA:          -6.221
REMARK INTER:                  -5.318
REMARK INTRA:                  -0.903
REMARK UNBOUND:                -0.573
REMARK SMILES CCCCCCCCCCCC(=O)[O-]
REMARK SMILES IDX 7 1 8 2 9 3 10 4 11 5 12 6 13 7 14 8 6 9 5 10 4 11 3 12 2 13
REMARK SMILES IDX 1 14
REMARK H PARENT
REMARK Flexibility Score: inf
ROOT
ATOM      1  C   UNL     1      13.128   4.734  -1.046  1.00  0.00     0.000 C 
ENDROOT
BRANCH   1   2
ATOM      2  C   UNL     1      12.932   3.884  -2.309  1.00  0.00     0.000 C 
BRANCH   2   3
ATOM      3  C   UNL     1      14.243   3.259  -2.821  1.00  0.00     0.000 C 
BRANCH   3   4
ATOM      4  C   UNL     1      14.879   2.212  -1.884  1.00  0.00     0.006 C 
BRANCH   4   5
ATOM      5  C   UNL     1      16.383   2.404  -1.638  1.00  0.00     0.053 C 
BRANCH   5   6
ATOM      6  C   UNL     1      17.210   1.457  -2.454  1.00  0.00     0.041 C 
ATOM      7  O   UNL     1      18.395   1.750  -2.758  1.00  0.00    -0.550 OA
ATOM      8  O   UNL     1      16.657   0.266  -2.906  1.00  0.00    -0.550 OA
ENDBRANCH   5   6
ENDBRANCH   4   5
ENDBRANCH   3   4
ENDBRANCH   2   3
ENDBRANCH   1   2
BRANCH   1   9
ATOM      9  C   UNL     1      11.777   5.061  -0.389  1.00  0.00     0.000 C 
BRANCH   9  10
ATOM     10  C   UNL     1      10.604   4.969  -1.376  1.00  0.00    -0.000 C 
BRANCH  10  11
ATOM     11  C   UNL     1       9.892   6.319  -1.577  1.00  0.00    -0.000 C 
BRANCH  11  12
ATOM     12  C   UNL     1      10.857   7.513  -1.496  1.00  0.00    -0.000 C 
BRANCH  12  13
ATOM     13  C   UNL     1      11.478   7.861  -2.858  1.00  0.00    -0.003 C 
ATOM     14  C   UNL     1      12.992   8.022  -2.744  1.00  0.00     0.004 C 
ENDBRANCH  12  13
ENDBRANCH  11  12
ENDBRANCH  10  11
ENDBRANCH   9  10
ENDBRANCH   1   9
TORSDOF 10
ENDMDL
MODEL 3
REMARK VINA RESULT:    -3.540      0.980      1.704
REMARK INTER + INTRA:          -6.181
REMARK INTER:                  -5.709
REMARK INTRA:                  -0.472
REMARK UNBOUND:                -0.573
REMARK SMILES CCCCCCCCCCCC(=O)[O-]
REMARK SMILES IDX 7 1 8 2 9 3 10 4 11 5 12 6 13 7 14 8 6 9 5 10 4 11 3 12 2 13
REMARK SMILES IDX 1 14
REMARK H PARENT
REMARK Flexibility Score: inf
ROOT
ATOM      1  C   UNL     1      14.690   2.450  -3.013  1.00  0.00     0.000 C 
ENDROOT
BRANCH   1   2
ATOM      2  C   UNL     1      15.428   2.709  -1.692  1.00  0.00     0.000 C 
BRANCH   2   3
ATOM      3  C   UNL     1      16.786   1.988  -1.612  1.00  0.00     0.000 C 
BRANCH   3   4
ATOM      4  C   UNL     1      17.465   1.719  -2.972  1.00  0.00     0.006 C 
BRANCH   4   5
ATOM      5  C   UNL     1      18.387   0.491  -2.993  1.00  0.00     0.053 C 
BRANCH   5   6
ATOM      6  C   UNL     1      19.763   0.815  -2.495  1.00  0.00     0.041 C 
ATOM      7  O   UNL     1      20.494  -0.092  -2.019  1.00  0.00    -0.550 OA
ATOM      8  O   UNL     1      20.222   2.125  -2.528  1.00  0.00    -0.550 OA
ENDBRANCH   5   6
ENDBRANCH   4   5
ENDBRANCH   3   4
ENDBRANCH   2   3
ENDBRANCH   1   2
BRANCH   1   9
ATOM      9  C   UNL     1      13.282   3.067  -2.986  1.00  0.00     0.000 C 
BRANCH   9  10
ATOM     10  C   UNL     1      13.113   4.102  -1.863  1.00  0.00    -0.000 C 
BRANCH  10  11
ATOM     11  C   UNL     1      11.711   4.736  -1.847  1.00  0.00    -0.000 C 
BRANCH  11  12
ATOM     12  C   UNL     1      11.296   5.220  -0.448  1.00  0.00    -0.000 C 
BRANCH  12  13
ATOM     13  C   UNL     1      10.607   6.593  -0.481  1.00  0.00    -0.003 C 
ATOM     14  C   UNL     1      10.886   7.315  -1.796  1.00  0.00     0.004 C 
ENDBRANCH  12  13
ENDBRANCH  11  12
ENDBRANCH  10  11
ENDBRANCH   9  10
ENDBRANCH   1   9
TORSDOF 10
ENDMDL
MODEL 4
REMARK VINA RESULT:    -3.534      5.106      8.438
REMARK INTER + INTRA:          -6.172
REMARK INTER:                  -5.537
REMARK INTRA:                  -0.636
REMARK UNBOUND:                -0.573
REMARK SMILES CCCCCCCCCCCC(=O)[O-]
REMARK SMILES IDX 7 1 8 2 9 3 10 4 11 5 12 6 13 7 14 8 6 9 5 10 4 11 3 12 2 13
REMARK SMILES IDX 1 14
REMARK H PARENT
REMARK Flexibility Score: inf
ROOT
ATOM      1  C   UNL     1      12.516   3.986  -2.327  1.00  0.00     0.000 C 
ENDROOT
BRANCH   1   2
ATOM      2  C   UNL     1      12.550   4.801  -1.027  1.00  0.00     0.000 C 
BRANCH   2   3
ATOM      3  C   UNL     1      11.164   5.332  -0.615  1.00  0.00     0.000 C 
BRANCH   3   4
ATOM      4  C   UNL     1      10.048   5.123  -1.659  1.00  0.00     0.006 C 
BRANCH   4   5
ATOM      5  C   UNL     1       9.716   6.368  -2.496  1.00  0.00     0.053 C 
BRANCH   5   6
ATOM      6  C   UNL     1       9.486   7.575  -1.638  1.00  0.00     0.041 C 
ATOM      7  O   UNL     1       8.485   7.630  -0.876  1.00  0.00    -0.550 OA
ATOM      8  O   UNL     1      10.359   8.652  -1.707  1.00  0.00    -0.550 OA
ENDBRANCH   5   6
ENDBRANCH   4   5
ENDBRANCH   3   4
ENDBRANCH   2   3
ENDBRANCH   1   2
BRANCH   1   9
ATOM      9  C   UNL     1      13.805   3.165  -2.494  1.00  0.00     0.000 C 
BRANCH   9  10
ATOM     10  C   UNL     1      14.737   3.276  -1.277  1.00  0.00    -0.000 C 
BRANCH  10  11
ATOM     11  C   UNL     1      15.945   2.325  -1.368  1.00  0.00    -0.000 C 
BRANCH  11  12
ATOM     12  C   UNL     1      15.599   0.996  -2.058  1.00  0.00    -0.000 C 
BRANCH  12  13
ATOM     13  C   UNL     1      16.633   0.601  -3.124  1.00  0.00    -0.003 C 
ATOM     14  C   UNL     1      18.007   1.180  -2.796  1.00  0.00     0.004 C 
ENDBRANCH  12  13
ENDBRANCH  11  12
ENDBRANCH  10  11
ENDBRANCH   9  10
ENDBRANCH   1   9
TORSDOF 10
ENDMDL
MODEL 5
REMARK VINA RESULT:    -3.445      4.060      7.778
REMARK INTER + INTRA:          -6.031
REMARK INTER:                  -5.545
REMARK INTRA:                  -0.486
REMARK UNBOUND:                -0.573
REMARK SMILES CCCCCCCCCCCC(=O)[O-]
REMARK SMILES IDX 7 1 8 2 9 3 10 4 11 5 12 6 13 7 14 8 6 9 5 10 4 11 3 12 2 13
REMARK SMILES IDX 1 14
REMARK H PARENT
REMARK Flexibility Score: inf
ROOT
ATOM      1  C   UNL     1      16.107   1.850  -1.527  1.00  0.00     0.000 C 
ENDROOT
BRANCH   1   2
ATOM      2  C   UNL     1      15.001   2.907  -1.656  1.00  0.00     0.000 C 
BRANCH   2   3
ATOM      3  C   UNL     1      14.018   2.610  -2.804  1.00  0.00     0.000 C 
BRANCH   3   4
ATOM      4  C   UNL     1      12.777   3.526  -2.856  1.00  0.00     0.006 C 
BRANCH   4   5
ATOM      5  C   UNL     1      12.885   4.795  -1.996  1.00  0.00     0.053 C 
BRANCH   5   6
ATOM      6  C   UNL     1      11.683   4.985  -1.123  1.00  0.00     0.041 C 
ATOM      7  O   UNL     1      11.816   5.107   0.122  1.00  0.00    -0.550 OA
ATOM      8  O   UNL     1      10.412   4.991  -1.683  1.00  0.00    -0.550 OA
ENDBRANCH   5   6
ENDBRANCH   4   5
ENDBRANCH   3   4
ENDBRANCH   2   3
ENDBRANCH   1   2
BRANCH   1   9
ATOM      9  C   UNL     1      16.056   0.857  -2.699  1.00  0.00     0.000 C 
BRANCH   9  10
ATOM     10  C   UNL     1      17.445   0.328  -3.085  1.00  0.00    -0.000 C 
BRANCH  10  11
ATOM     11  C   UNL     1      18.568   1.337  -2.783  1.00  0.00    -0.000 C 
BRANCH  11  12
ATOM     12  C   UNL     1      19.865   0.655  -2.317  1.00  0.00    -0.000 C 
BRANCH  12  13
ATOM     13  C   UNL     1      21.120   1.302  -2.923  1.00  0.00    -0.003 C 
ATOM     14  C   UNL     1      22.361   0.459  -2.641  1.00  0.00     0.004 C 
ENDBRANCH  12  13
ENDBRANCH  11  12
ENDBRANCH  10  11
ENDBRANCH   9  10
ENDBRANCH   1   9
TORSDOF 10
ENDMDL
MODEL 6
REMARK VINA RESULT:    -3.420      3.422      5.656
REMARK INTER + INTRA:          -5.992
REMARK INTER:                  -5.438
REMARK INTRA:                  -0.554
REMARK UNBOUND:                -0.573
REMARK SMILES CCCCCCCCCCCC(=O)[O-]
REMARK SMILES IDX 7 1 8 2 9 3 10 4 11 5 12 6 13 7 14 8 6 9 5 10 4 11 3 12 2 13
REMARK SMILES IDX 1 14
REMARK H PARENT
REMARK Flexibility Score: inf
ROOT
ATOM      1  C   UNL     1      10.960   6.449  -0.433  1.00  0.00     0.000 C 
ENDROOT
BRANCH   1   2
ATOM      2  C   UNL     1      11.511   5.028  -0.617  1.00  0.00     0.000 C 
BRANCH   2   3
ATOM      3  C   UNL     1      12.670   4.960  -1.630  1.00  0.00     0.000 C 
BRANCH   3   4
ATOM      4  C   UNL     1      13.820   4.007  -1.244  1.00  0.00     0.006 C 
BRANCH   4   5
ATOM      5  C   UNL     1      14.294   3.088  -2.380  1.00  0.00     0.053 C 
BRANCH   5   6
ATOM      6  C   UNL     1      15.473   2.257  -1.974  1.00  0.00     0.041 C 
ATOM      7  O   UNL     1      16.381   2.753  -1.257  1.00  0.00    -0.550 OA
ATOM      8  O   UNL     1      15.584   0.945  -2.416  1.00  0.00    -0.550 OA
ENDBRANCH   5   6
ENDBRANCH   4   5
ENDBRANCH   3   4
ENDBRANCH   2   3
ENDBRANCH   1   2
BRANCH   1   9
ATOM      9  C   UNL     1      10.116   6.871  -1.646  1.00  0.00     0.000 C 
BRANCH   9  10
ATOM     10  C   UNL     1      10.300   8.354  -2.005  1.00  0.00    -0.000 C 
BRANCH  10  11
ATOM     11  C   UNL     1      11.781   8.763  -2.089  1.00  0.00    -0.000 C 
BRANCH  11  12
ATOM     12  C   UNL     1      12.075  10.074  -1.341  1.00  0.00    -0.000 C 
BRANCH  12  13
ATOM     13  C   UNL     1      10.908  11.070  -1.420  1.00  0.00    -0.003 C 
ATOM     14  C   UNL     1      11.103  12.221  -0.436  1.00  0.00     0.004 C 
ENDBRANCH  12  13
ENDBRANCH  11  12
ENDBRANCH  10  11
ENDBRANCH   9  10
ENDBRANCH   1   9
TORSDOF 10
ENDMDL
MODEL 7
REMARK VINA RESULT:    -3.393      4.741      8.001
REMARK INTER + INTRA:          -5.950
REMARK INTER:                  -5.230
REMARK INTRA:                  -0.720
REMARK UNBOUND:                -0.573
REMARK SMILES CCCCCCCCCCCC(=O)[O-]
REMARK SMILES IDX 7 1 8 2 9 3 10 4 11 5 12 6 13 7 14 8 6 9 5 10 4 11 3 12 2 13
REMARK SMILES IDX 1 14
REMARK H PARENT
REMARK Flexibility Score: inf
ROOT
ATOM      1  C   UNL     1      12.002   4.980  -0.339  1.00  0.00     0.000 C 
ENDROOT
BRANCH   1   2
ATOM      2  C   UNL     1      10.759   5.326  -1.170  1.00  0.00     0.000 C 
BRANCH   2   3
ATOM      3  C   UNL     1      10.335   6.800  -1.031  1.00  0.00     0.000 C 
BRANCH   3   4
ATOM      4  C   UNL     1      10.672   7.694  -2.242  1.00  0.00     0.006 C 
BRANCH   4   5
ATOM      5  C   UNL     1      12.154   8.086  -2.353  1.00  0.00     0.053 C 
BRANCH   5   6
ATOM      6  C   UNL     1      12.378   9.529  -2.020  1.00  0.00     0.041 C 
ATOM      7  O   UNL     1      11.501  10.179  -1.394  1.00  0.00    -0.550 OA
ATOM      8  O   UNL     1      13.543  10.163  -2.431  1.00  0.00    -0.550 OA
ENDBRANCH   5   6
ENDBRANCH   4   5
ENDBRANCH   3   4
ENDBRANCH   2   3
ENDBRANCH   1   2
BRANCH   1   9
ATOM      9  C   UNL     1      13.167   4.554  -1.246  1.00  0.00     0.000 C 
BRANCH   9  10
ATOM     10  C   UNL     1      12.695   3.802  -2.500  1.00  0.00    -0.000 C 
BRANCH  10  11
ATOM     11  C   UNL     1      13.652   2.667  -2.906  1.00  0.00    -0.000 C 
BRANCH  11  12
ATOM     12  C   UNL     1      15.016   2.766  -2.204  1.00  0.00    -0.000 C 
BRANCH  12  13
ATOM     13  C   UNL     1      15.531   1.400  -1.723  1.00  0.00    -0.003 C 
ATOM     14  C   UNL     1      16.261   0.664  -2.844  1.00  0.00     0.004 C 
ENDBRANCH  12  13
ENDBRANCH  11  12
ENDBRANCH  10  11
ENDBRANCH   9  10
ENDBRANCH   1   9
TORSDOF 10
ENDMDL
MODEL 8
REMARK VINA RESULT:    -3.328      2.762      4.739
REMARK INTER + INTRA:          -5.847
REMARK INTER:                  -5.383
REMARK INTRA:                  -0.463
REMARK UNBOUND:                -0.573
REMARK SMILES CCCCCCCCCCCC(=O)[O-]
REMARK SMILES IDX 7 1 8 2 9 3 10 4 11 5 12 6 13 7 14 8 6 9 5 10 4 11 3 12 2 13
REMARK SMILES IDX 1 14
REMARK H PARENT
REMARK Flexibility Score: inf
ROOT
ATOM      1  C   UNL     1      11.892   5.009  -0.395  1.00  0.00     0.000 C 
ENDROOT
BRANCH   1   2
ATOM      2  C   UNL     1      12.966   5.037  -1.492  1.00  0.00     0.000 C 
BRANCH   2   3
ATOM      3  C   UNL     1      13.072   3.707  -2.262  1.00  0.00     0.000 C 
BRANCH   3   4
ATOM      4  C   UNL     1      14.500   3.316  -2.698  1.00  0.00     0.006 C 
BRANCH   4   5
ATOM      5  C   UNL     1      15.363   2.709  -1.582  1.00  0.00     0.053 C 
BRANCH   5   6
ATOM      6  C   UNL     1      16.354   1.720  -2.116  1.00  0.00     0.041 C 
ATOM      7  O   UNL     1      17.586   1.976  -2.084  1.00  0.00    -0.550 OA
ATOM      8  O   UNL     1      15.912   0.530  -2.681  1.00  0.00    -0.550 OA
ENDBRANCH   5   6
ENDBRANCH   4   5
ENDBRANCH   3   4
ENDBRANCH   2   3
ENDBRANCH   1   2
BRANCH   1   9
ATOM      9  C   UNL     1      10.648   5.803  -0.825  1.00  0.00     0.000 C 
BRANCH   9  10
ATOM     10  C   UNL     1      10.980   7.247  -1.229  1.00  0.00    -0.000 C 
BRANCH  10  11
ATOM     11  C   UNL     1       9.836   7.923  -2.006  1.00  0.00    -0.000 C 
BRANCH  11  12
ATOM     12  C   UNL     1       8.515   7.142  -1.910  1.00  0.00    -0.000 C 
BRANCH  12  13
ATOM     13  C   UNL     1       7.379   7.980  -1.302  1.00  0.00    -0.003 C 
ATOM     14  C   UNL     1       7.315   9.363  -1.944  1.00  0.00     0.004 C 
ENDBRANCH  12  13
ENDBRANCH  11  12
ENDBRANCH  10  11
ENDBRANCH   9  10
ENDBRANCH   1   9
TORSDOF 10
ENDMDL
MODEL 9
REMARK VINA RESULT:    -3.326      4.556      8.081
REMARK INTER + INTRA:          -5.843
REMARK INTER:                  -5.425
REMARK INTRA:                  -0.419
REMARK UNBOUND:                -0.573
REMARK SMILES CCCCCCCCCCCC(=O)[O-]
REMARK SMILES IDX 7 1 8 2 9 3 10 4 11 5 12 6 13 7 14 8 6 9 5 10 4 11 3 12 2 13
REMARK SMILES IDX 1 14
REMARK H PARENT
REMARK Flexibility Score: inf
ROOT
ATOM      1  C   UNL     1      14.989   3.075  -2.968  1.00  0.00     0.000 C 
ENDROOT
BRANCH   1   2
ATOM      2  C   UNL     1      13.504   3.454  -2.895  1.00  0.00     0.000 C 
BRANCH   2   3
ATOM      3  C   UNL     1      13.149   4.249  -1.624  1.00  0.00     0.000 C 
BRANCH   3   4
ATOM      4  C   UNL     1      11.648   4.562  -1.446  1.00  0.00     0.006 C 
BRANCH   4   5
ATOM      5  C   UNL     1      11.346   5.689  -0.447  1.00  0.00     0.053 C 
BRANCH   5   6
ATOM      6  C   UNL     1      10.820   6.915  -1.129  1.00  0.00     0.041 C 
ATOM      7  O   UNL     1      11.591   7.647  -1.802  1.00  0.00    -0.550 OA
ATOM      8  O   UNL     1       9.483   7.267  -0.991  1.00  0.00    -0.550 OA
ENDBRANCH   5   6
ENDBRANCH   4   5
ENDBRANCH   3   4
ENDBRANCH   2   3
ENDBRANCH   1   2
BRANCH   1   9
ATOM      9  C   UNL     1      15.557   2.808  -1.565  1.00  0.00     0.000 C 
BRANCH   9  10
ATOM     10  C   UNL     1      16.663   1.741  -1.569  1.00  0.00    -0.000 C 
BRANCH  10  11
ATOM     11  C   UNL     1      17.416   1.674  -2.910  1.00  0.00    -0.000 C 
BRANCH  11  12
ATOM     12  C   UNL     1      18.821   1.066  -2.769  1.00  0.00    -0.000 C 
BRANCH  12  13
ATOM     13  C   UNL     1      19.929   2.128  -2.821  1.00  0.00    -0.003 C 
ATOM     14  C   UNL     1      21.171   1.661  -2.066  1.00  0.00     0.004 C 
ENDBRANCH  12  13
ENDBRANCH  11  12
ENDBRANCH  10  11
ENDBRANCH   9  10
ENDBRANCH   1   9
TORSDOF 10
ENDMDL
