MODEL 1
REMARK VINA RESULT:    -6.425      0.000      0.000
REMARK INTER + INTRA:          -8.623
REMARK INTER:                  -8.115
REMARK INTRA:                  -0.508
REMARK UNBOUND:                -0.508
REMARK SMILES O=C(C=Cc1ccc(O)cc1)c1ccc(O)cc1O
REMARK SMILES IDX 4 1 3 2 5 3 6 4 7 5 8 6 11 7 10 8 9 9 2 11 1 12 12 13 18 14
REMARK SMILES IDX 13 15 17 16 14 17 15 18 19 19 16 21
REMARK H PARENT 9 10 19 20 16 22
REMARK Flexibility Score: inf
ROOT
ATOM      1  C   UNL     1      72.995  41.545  -3.988  1.00  0.00     0.012 C 
ATOM      2  C   UNL     1      71.744  41.064  -3.935  1.00  0.00     0.053 C 
ENDROOT
BRANCH   1   3
ATOM      3  C   UNL     1      73.395  42.859  -3.428  1.00  0.00    -0.025 A 
ATOM      4  C   UNL     1      74.290  43.658  -4.159  1.00  0.00     0.012 A 
ATOM      5  C   UNL     1      74.704  44.899  -3.666  1.00  0.00     0.047 A 
ATOM      6  C   UNL     1      74.237  45.356  -2.432  1.00  0.00     0.115 A 
ATOM      7  C   UNL     1      72.940  43.320  -2.175  1.00  0.00     0.012 A 
ATOM      8  C   UNL     1      73.357  44.562  -1.685  1.00  0.00     0.047 A 
BRANCH   6   9
ATOM      9  O   UNL     1      74.656  46.595  -1.952  1.00  0.00    -0.508 OA
ATOM     10  H   UNL     1      75.188  47.234  -2.530  1.00  0.00     0.293 HD
ENDBRANCH   6   9
ENDBRANCH   1   3
BRANCH   2  11
ATOM     11  C   UNL     1      71.379  39.754  -4.517  1.00  0.00     0.189 C 
ATOM     12  O   UNL     1      70.940  38.832  -3.777  1.00  0.00    -0.289 OA
BRANCH  11  13
ATOM     13  C   UNL     1      71.496  39.525  -5.975  1.00  0.00     0.064 A 
ATOM     14  C   UNL     1      70.430  39.808  -6.864  1.00  0.00     0.130 A 
ATOM     15  C   UNL     1      72.712  39.050  -6.496  1.00  0.00     0.020 A 
ATOM     16  C   UNL     1      70.615  39.645  -8.242  1.00  0.00     0.093 A 
ATOM     17  C   UNL     1      72.877  38.878  -7.872  1.00  0.00     0.047 A 
ATOM     18  C   UNL     1      71.831  39.180  -8.749  1.00  0.00     0.119 A 
BRANCH  14  19
ATOM     19  O   UNL     1      69.173  40.223  -6.416  1.00  0.00    -0.507 OA
ATOM     20  H   UNL     1      68.814  40.009  -5.496  1.00  0.00     0.293 HD
ENDBRANCH  14  19
BRANCH  18  21
ATOM     21  O   UNL     1      71.986  39.019 -10.124  1.00  0.00    -0.508 OA
ATOM     22  H   UNL     1      72.889  39.129 -10.572  1.00  0.00     0.293 HD
ENDBRANCH  18  21
ENDBRANCH  11  13
ENDBRANCH   2  11
TORSDOF 6
ENDMDL
MODEL 2
REMARK VINA RESULT:    -6.052     13.394     15.691
REMARK INTER + INTRA:          -8.152
REMARK INTER:                  -7.618
REMARK INTRA:                  -0.533
REMARK UNBOUND:                -0.508
REMARK SMILES O=C(C=Cc1ccc(O)cc1)c1ccc(O)cc1O
REMARK SMILES IDX 4 1 3 2 5 3 6 4 7 5 8 6 11 7 10 8 9 9 2 11 1 12 12 13 18 14
REMARK SMILES IDX 13 15 17 16 14 17 15 18 19 19 16 21
REMARK H PARENT 9 10 19 20 16 22
REMARK Flexibility Score: inf
ROOT
ATOM      1  C   UNL     1      68.312  48.079   7.599  1.00  0.00     0.012 C 
ATOM      2  C   UNL     1      68.810  48.389   6.394  1.00  0.00     0.053 C 
ENDROOT
BRANCH   1   3
ATOM      3  C   UNL     1      67.119  47.218   7.800  1.00  0.00    -0.025 A 
ATOM      4  C   UNL     1      67.313  45.858   8.095  1.00  0.00     0.012 A 
ATOM      5  C   UNL     1      66.220  45.007   8.282  1.00  0.00     0.047 A 
ATOM      6  C   UNL     1      64.918  45.500   8.169  1.00  0.00     0.115 A 
ATOM      7  C   UNL     1      65.803  47.705   7.671  1.00  0.00     0.012 A 
ATOM      8  C   UNL     1      64.711  46.851   7.859  1.00  0.00     0.047 A 
BRANCH   6   9
ATOM      9  O   UNL     1      63.837  44.642   8.359  1.00  0.00    -0.508 OA
ATOM     10  H   UNL     1      62.923  44.992   8.618  1.00  0.00     0.293 HD
ENDBRANCH   6   9
ENDBRANCH   1   3
BRANCH   2  11
ATOM     11  C   UNL     1      69.994  49.261   6.231  1.00  0.00     0.189 C 
ATOM     12  O   UNL     1      69.910  50.324   5.559  1.00  0.00    -0.289 OA
BRANCH  11  13
ATOM     13  C   UNL     1      71.276  48.909   6.882  1.00  0.00     0.064 A 
ATOM     14  C   UNL     1      72.123  47.898   6.367  1.00  0.00     0.130 A 
ATOM     15  C   UNL     1      71.683  49.625   8.022  1.00  0.00     0.020 A 
ATOM     16  C   UNL     1      73.361  47.653   6.975  1.00  0.00     0.093 A 
ATOM     17  C   UNL     1      72.913  49.360   8.627  1.00  0.00     0.047 A 
ATOM     18  C   UNL     1      73.757  48.377   8.103  1.00  0.00     0.119 A 
BRANCH  14  19
ATOM     19  O   UNL     1      71.761  47.103   5.277  1.00  0.00    -0.507 OA
ATOM     20  H   UNL     1      71.947  46.111   5.227  1.00  0.00     0.293 HD
ENDBRANCH  14  19
BRANCH  18  21
ATOM     21  O   UNL     1      74.990  48.109   8.693  1.00  0.00    -0.508 OA
ATOM     22  H   UNL     1      75.096  48.061   9.700  1.00  0.00     0.293 HD
ENDBRANCH  18  21
ENDBRANCH  11  13
ENDBRANCH   2  11
TORSDOF 6
ENDMDL
MODEL 3
REMARK VINA RESULT:    -6.017      1.997      2.812
REMARK INTER + INTRA:          -8.107
REMARK INTER:                  -7.486
REMARK INTRA:                  -0.621
REMARK UNBOUND:                -0.508
REMARK SMILES O=C(C=Cc1ccc(O)cc1)c1ccc(O)cc1O
REMARK SMILES IDX 4 1 3 2 5 3 6 4 7 5 8 6 11 7 10 8 9 9 2 11 1 12 12 13 18 14
REMARK SMILES IDX 13 15 17 16 14 17 15 18 19 19 16 21
REMARK H PARENT 9 10 19 20 16 22
REMARK Flexibility Score: inf
ROOT
ATOM      1  C   UNL     1      73.994  42.789  -4.090  1.00  0.00     0.012 C 
ATOM      2  C   UNL     1      73.381  41.667  -4.494  1.00  0.00     0.053 C 
ENDROOT
BRANCH   1   3
ATOM      3  C   UNL     1      73.422  43.724  -3.090  1.00  0.00    -0.025 A 
ATOM      4  C   UNL     1      72.538  43.216  -2.123  1.00  0.00     0.012 A 
ATOM      5  C   UNL     1      71.968  44.061  -1.166  1.00  0.00     0.047 A 
ATOM      6  C   UNL     1      72.264  45.426  -1.168  1.00  0.00     0.115 A 
ATOM      7  C   UNL     1      73.704  45.105  -3.095  1.00  0.00     0.012 A 
ATOM      8  C   UNL     1      73.131  45.947  -2.137  1.00  0.00     0.047 A 
BRANCH   6   9
ATOM      9  O   UNL     1      71.689  46.257  -0.209  1.00  0.00    -0.508 OA
ATOM     10  H   UNL     1      71.404  47.203  -0.430  1.00  0.00     0.293 HD
ENDBRANCH   6   9
ENDBRANCH   1   3
BRANCH   2  11
ATOM     11  C   UNL     1      73.975  40.764  -5.505  1.00  0.00     0.189 C 
ATOM     12  O   UNL     1      75.123  40.277  -5.322  1.00  0.00    -0.289 OA
BRANCH  11  13
ATOM     13  C   UNL     1      73.215  40.402  -6.722  1.00  0.00     0.064 A 
ATOM     14  C   UNL     1      73.724  40.642  -8.022  1.00  0.00     0.130 A 
ATOM     15  C   UNL     1      71.968  39.766  -6.585  1.00  0.00     0.020 A 
ATOM     16  C   UNL     1      73.001  40.214  -9.141  1.00  0.00     0.093 A 
ATOM     17  C   UNL     1      71.250  39.357  -7.711  1.00  0.00     0.047 A 
ATOM     18  C   UNL     1      71.767  39.576  -8.992  1.00  0.00     0.119 A 
BRANCH  14  19
ATOM     19  O   UNL     1      74.925  41.324  -8.239  1.00  0.00    -0.507 OA
ATOM     20  H   UNL     1      75.666  40.967  -8.826  1.00  0.00     0.293 HD
ENDBRANCH  14  19
BRANCH  18  21
ATOM     21  O   UNL     1      71.063  39.166 -10.122  1.00  0.00    -0.508 OA
ATOM     22  H   UNL     1      70.471  39.806 -10.639  1.00  0.00     0.293 HD
ENDBRANCH  18  21
ENDBRANCH  11  13
ENDBRANCH   2  11
TORSDOF 6
ENDMDL
MODEL 4
REMARK VINA RESULT:    -5.917     14.541     17.340
REMARK INTER + INTRA:          -7.982
REMARK INTER:                  -7.633
REMARK INTRA:                  -0.349
REMARK UNBOUND:                -0.508
REMARK SMILES O=C(C=Cc1ccc(O)cc1)c1ccc(O)cc1O
REMARK SMILES IDX 4 1 3 2 5 3 6 4 7 5 8 6 11 7 10 8 9 9 2 11 1 12 12 13 18 14
REMARK SMILES IDX 13 15 17 16 14 17 15 18 19 19 16 21
REMARK H PARENT 9 10 19 20 16 22
REMARK Flexibility Score: inf
ROOT
ATOM      1  C   UNL     1      63.901  46.594   8.725  1.00  0.00     0.012 C 
ATOM      2  C   UNL     1      65.137  46.738   9.225  1.00  0.00     0.053 C 
ENDROOT
BRANCH   1   3
ATOM      3  C   UNL     1      63.167  45.304   8.705  1.00  0.00    -0.025 A 
ATOM      4  C   UNL     1      61.985  45.192   9.457  1.00  0.00     0.012 A 
ATOM      5  C   UNL     1      61.266  43.993   9.476  1.00  0.00     0.047 A 
ATOM      6  C   UNL     1      61.720  42.888   8.753  1.00  0.00     0.115 A 
ATOM      7  C   UNL     1      63.629  44.180   7.990  1.00  0.00     0.012 A 
ATOM      8  C   UNL     1      62.906  42.983   8.013  1.00  0.00     0.047 A 
BRANCH   6   9
ATOM      9  O   UNL     1      60.993  41.700   8.780  1.00  0.00    -0.508 OA
ATOM     10  H   UNL     1      61.446  40.805   8.921  1.00  0.00     0.293 HD
ENDBRANCH   6   9
ENDBRANCH   1   3
BRANCH   2  11
ATOM     11  C   UNL     1      65.844  48.037   9.216  1.00  0.00     0.189 C 
ATOM     12  O   UNL     1      65.284  49.066   9.680  1.00  0.00    -0.289 OA
BRANCH  11  13
ATOM     13  C   UNL     1      67.225  48.133   8.691  1.00  0.00     0.064 A 
ATOM     14  C   UNL     1      67.523  47.907   7.324  1.00  0.00     0.130 A 
ATOM     15  C   UNL     1      68.264  48.497   9.565  1.00  0.00     0.020 A 
ATOM     16  C   UNL     1      68.833  48.083   6.862  1.00  0.00     0.093 A 
ATOM     17  C   UNL     1      69.569  48.654   9.092  1.00  0.00     0.047 A 
ATOM     18  C   UNL     1      69.856  48.452   7.739  1.00  0.00     0.119 A 
BRANCH  14  19
ATOM     19  O   UNL     1      66.556  47.483   6.409  1.00  0.00    -0.507 OA
ATOM     20  H   UNL     1      66.780  47.009   5.545  1.00  0.00     0.293 HD
ENDBRANCH  14  19
BRANCH  18  21
ATOM     21  O   UNL     1      71.152  48.613   7.255  1.00  0.00    -0.508 OA
ATOM     22  H   UNL     1      71.958  48.552   7.867  1.00  0.00     0.293 HD
ENDBRANCH  18  21
ENDBRANCH  11  13
ENDBRANCH   2  11
TORSDOF 6
ENDMDL
MODEL 5
REMARK VINA RESULT:    -5.854     10.415     14.511
REMARK INTER + INTRA:          -7.902
REMARK INTER:                  -7.161
REMARK INTRA:                  -0.741
REMARK UNBOUND:                -0.508
REMARK SMILES O=C(C=Cc1ccc(O)cc1)c1ccc(O)cc1O
REMARK SMILES IDX 4 1 3 2 5 3 6 4 7 5 8 6 11 7 10 8 9 9 2 11 1 12 12 13 18 14
REMARK SMILES IDX 13 15 17 16 14 17 15 18 19 19 16 21
REMARK H PARENT 9 10 19 20 16 22
REMARK Flexibility Score: inf
ROOT
ATOM      1  C   UNL     1      69.982  47.894   7.750  1.00  0.00     0.012 C 
ATOM      2  C   UNL     1      70.901  48.863   7.632  1.00  0.00     0.053 C 
ENDROOT
BRANCH   1   3
ATOM      3  C   UNL     1      68.584  48.135   8.186  1.00  0.00    -0.025 A 
ATOM      4  C   UNL     1      68.361  48.940   9.315  1.00  0.00     0.012 A 
ATOM      5  C   UNL     1      67.062  49.186   9.769  1.00  0.00     0.047 A 
ATOM      6  C   UNL     1      65.967  48.624   9.108  1.00  0.00     0.115 A 
ATOM      7  C   UNL     1      67.476  47.557   7.533  1.00  0.00     0.012 A 
ATOM      8  C   UNL     1      66.178  47.806   7.990  1.00  0.00     0.047 A 
BRANCH   6   9
ATOM      9  O   UNL     1      64.678  48.878   9.570  1.00  0.00    -0.508 OA
ATOM     10  H   UNL     1      64.228  48.269  10.242  1.00  0.00     0.293 HD
ENDBRANCH   6   9
ENDBRANCH   1   3
BRANCH   2  11
ATOM     11  C   UNL     1      72.290  48.583   7.207  1.00  0.00     0.189 C 
ATOM     12  O   UNL     1      73.260  49.041   7.869  1.00  0.00    -0.289 OA
BRANCH  11  13
ATOM     13  C   UNL     1      72.553  47.739   6.019  1.00  0.00     0.064 A 
ATOM     14  C   UNL     1      73.281  46.527   6.110  1.00  0.00     0.130 A 
ATOM     15  C   UNL     1      72.032  48.131   4.774  1.00  0.00     0.020 A 
ATOM     16  C   UNL     1      73.439  45.727   4.972  1.00  0.00     0.093 A 
ATOM     17  C   UNL     1      72.210  47.330   3.644  1.00  0.00     0.047 A 
ATOM     18  C   UNL     1      72.909  46.123   3.741  1.00  0.00     0.119 A 
BRANCH  14  19
ATOM     19  O   UNL     1      73.881  46.103   7.298  1.00  0.00    -0.507 OA
ATOM     20  H   UNL     1      74.648  46.593   7.737  1.00  0.00     0.293 HD
ENDBRANCH  14  19
BRANCH  18  21
ATOM     21  O   UNL     1      73.087  45.312   2.623  1.00  0.00    -0.508 OA
ATOM     22  H   UNL     1      73.949  44.800   2.470  1.00  0.00     0.293 HD
ENDBRANCH  18  21
ENDBRANCH  11  13
ENDBRANCH   2  11
TORSDOF 6
ENDMDL
MODEL 6
REMARK VINA RESULT:    -5.566     11.984     15.442
REMARK INTER + INTRA:          -7.538
REMARK INTER:                  -6.818
REMARK INTRA:                  -0.720
REMARK UNBOUND:                -0.508
REMARK SMILES O=C(C=Cc1ccc(O)cc1)c1ccc(O)cc1O
REMARK SMILES IDX 4 1 3 2 5 3 6 4 7 5 8 6 11 7 10 8 9 9 2 11 1 12 12 13 18 14
REMARK SMILES IDX 13 15 17 16 14 17 15 18 19 19 16 21
REMARK H PARENT 9 10 19 20 16 22
REMARK Flexibility Score: inf
ROOT
ATOM      1  C   UNL     1      69.182  48.175   8.467  1.00  0.00     0.012 C 
ATOM      2  C   UNL     1      69.662  49.179   7.719  1.00  0.00     0.053 C 
ENDROOT
BRANCH   1   3
ATOM      3  C   UNL     1      67.739  47.848   8.579  1.00  0.00    -0.025 A 
ATOM      4  C   UNL     1      66.984  47.725   7.400  1.00  0.00     0.012 A 
ATOM      5  C   UNL     1      65.619  47.429   7.457  1.00  0.00     0.047 A 
ATOM      6  C   UNL     1      64.986  47.261   8.691  1.00  0.00     0.115 A 
ATOM      7  C   UNL     1      67.091  47.693   9.821  1.00  0.00     0.012 A 
ATOM      8  C   UNL     1      65.725  47.397   9.873  1.00  0.00     0.047 A 
BRANCH   6   9
ATOM      9  O   UNL     1      63.626  46.965   8.733  1.00  0.00    -0.508 OA
ATOM     10  H   UNL     1      63.095  46.792   7.889  1.00  0.00     0.293 HD
ENDBRANCH   6   9
ENDBRANCH   1   3
BRANCH   2  11
ATOM     11  C   UNL     1      71.107  49.483   7.642  1.00  0.00     0.189 C 
ATOM     12  O   UNL     1      71.587  50.449   8.294  1.00  0.00    -0.289 OA
BRANCH  11  13
ATOM     13  C   UNL     1      72.006  48.638   6.823  1.00  0.00     0.064 A 
ATOM     14  C   UNL     1      73.290  48.251   7.281  1.00  0.00     0.130 A 
ATOM     15  C   UNL     1      71.559  48.176   5.573  1.00  0.00     0.020 A 
ATOM     16  C   UNL     1      74.073  47.390   6.502  1.00  0.00     0.093 A 
ATOM     17  C   UNL     1      72.357  47.330   4.801  1.00  0.00     0.047 A 
ATOM     18  C   UNL     1      73.613  46.930   5.265  1.00  0.00     0.119 A 
BRANCH  14  19
ATOM     19  O   UNL     1      73.828  48.719   8.482  1.00  0.00    -0.507 OA
ATOM     20  H   UNL     1      74.245  48.114   9.176  1.00  0.00     0.293 HD
ENDBRANCH  14  19
BRANCH  18  21
ATOM     21  O   UNL     1      74.415  46.080   4.506  1.00  0.00    -0.508 OA
ATOM     22  H   UNL     1      74.205  45.881   3.535  1.00  0.00     0.293 HD
ENDBRANCH  18  21
ENDBRANCH  11  13
ENDBRANCH   2  11
TORSDOF 6
ENDMDL
MODEL 7
REMARK VINA RESULT:    -5.518     11.782     15.099
REMARK INTER + INTRA:          -7.478
REMARK INTER:                  -7.064
REMARK INTRA:                  -0.414
REMARK UNBOUND:                -0.508
REMARK SMILES O=C(C=Cc1ccc(O)cc1)c1ccc(O)cc1O
REMARK SMILES IDX 4 1 3 2 5 3 6 4 7 5 8 6 11 7 10 8 9 9 2 11 1 12 12 13 18 14
REMARK SMILES IDX 13 15 17 16 14 17 15 18 19 19 16 21
REMARK H PARENT 9 10 19 20 16 22
REMARK Flexibility Score: inf
ROOT
ATOM      1  C   UNL     1      69.131  48.073   8.225  1.00  0.00     0.012 C 
ATOM      2  C   UNL     1      69.625  49.090   7.505  1.00  0.00     0.053 C 
ENDROOT
BRANCH   1   3
ATOM      3  C   UNL     1      67.680  47.822   8.405  1.00  0.00    -0.025 A 
ATOM      4  C   UNL     1      67.167  47.744   9.711  1.00  0.00     0.012 A 
ATOM      5  C   UNL     1      65.808  47.498   9.929  1.00  0.00     0.047 A 
ATOM      6  C   UNL     1      64.944  47.317   8.847  1.00  0.00     0.115 A 
ATOM      7  C   UNL     1      66.804  47.622   7.318  1.00  0.00     0.012 A 
ATOM      8  C   UNL     1      65.445  47.376   7.541  1.00  0.00     0.047 A 
BRANCH   6   9
ATOM      9  O   UNL     1      63.591  47.074   9.078  1.00  0.00    -0.508 OA
ATOM     10  H   UNL     1      62.908  47.137   8.334  1.00  0.00     0.293 HD
ENDBRANCH   6   9
ENDBRANCH   1   3
BRANCH   2  11
ATOM     11  C   UNL     1      71.080  49.318   7.359  1.00  0.00     0.189 C 
ATOM     12  O   UNL     1      71.620  50.328   7.887  1.00  0.00    -0.289 OA
BRANCH  11  13
ATOM     13  C   UNL     1      71.918  48.347   6.619  1.00  0.00     0.064 A 
ATOM     14  C   UNL     1      71.758  48.128   5.229  1.00  0.00     0.130 A 
ATOM     15  C   UNL     1      72.926  47.650   7.309  1.00  0.00     0.020 A 
ATOM     16  C   UNL     1      72.624  47.254   4.561  1.00  0.00     0.093 A 
ATOM     17  C   UNL     1      73.773  46.770   6.632  1.00  0.00     0.047 A 
ATOM     18  C   UNL     1      73.628  46.573   5.255  1.00  0.00     0.119 A 
BRANCH  14  19
ATOM     19  O   UNL     1      70.741  48.736   4.489  1.00  0.00    -0.507 OA
ATOM     20  H   UNL     1      70.249  49.563   4.798  1.00  0.00     0.293 HD
ENDBRANCH  14  19
BRANCH  18  21
ATOM     21  O   UNL     1      74.471  45.704   4.568  1.00  0.00    -0.508 OA
ATOM     22  H   UNL     1      74.846  44.871   5.008  1.00  0.00     0.293 HD
ENDBRANCH  18  21
ENDBRANCH  11  13
ENDBRANCH   2  11
TORSDOF 6
ENDMDL
MODEL 8
REMARK VINA RESULT:    -5.463     15.122     16.955
REMARK INTER + INTRA:          -7.408
REMARK INTER:                  -6.924
REMARK INTRA:                  -0.484
REMARK UNBOUND:                -0.508
REMARK SMILES O=C(C=Cc1ccc(O)cc1)c1ccc(O)cc1O
REMARK SMILES IDX 4 1 3 2 5 3 6 4 7 5 8 6 11 7 10 8 9 9 2 11 1 12 12 13 18 14
REMARK SMILES IDX 13 15 17 16 14 17 15 18 19 19 16 21
REMARK H PARENT 9 10 19 20 16 22
REMARK Flexibility Score: inf
ROOT
ATOM      1  C   UNL     1      66.401  47.759   8.415  1.00  0.00     0.012 C 
ATOM      2  C   UNL     1      67.462  47.860   9.228  1.00  0.00     0.053 C 
ENDROOT
BRANCH   1   3
ATOM      3  C   UNL     1      65.575  46.533   8.289  1.00  0.00    -0.025 A 
ATOM      4  C   UNL     1      66.175  45.289   8.549  1.00  0.00     0.012 A 
ATOM      5  C   UNL     1      65.439  44.106   8.433  1.00  0.00     0.047 A 
ATOM      6  C   UNL     1      64.097  44.147   8.047  1.00  0.00     0.115 A 
ATOM      7  C   UNL     1      64.225  46.566   7.885  1.00  0.00     0.012 A 
ATOM      8  C   UNL     1      63.492  45.380   7.770  1.00  0.00     0.047 A 
BRANCH   6   9
ATOM      9  O   UNL     1      63.374  42.961   7.937  1.00  0.00    -0.508 OA
ATOM     10  H   UNL     1      63.500  42.202   8.594  1.00  0.00     0.293 HD
ENDBRANCH   6   9
ENDBRANCH   1   3
BRANCH   2  11
ATOM     11  C   UNL     1      68.271  49.096   9.318  1.00  0.00     0.189 C 
ATOM     12  O   UNL     1      67.727  50.188   9.636  1.00  0.00    -0.289 OA
BRANCH  11  13
ATOM     13  C   UNL     1      69.730  49.055   9.066  1.00  0.00     0.064 A 
ATOM     14  C   UNL     1      70.278  49.365   7.797  1.00  0.00     0.130 A 
ATOM     15  C   UNL     1      70.597  48.735  10.125  1.00  0.00     0.020 A 
ATOM     16  C   UNL     1      71.668  49.384   7.628  1.00  0.00     0.093 A 
ATOM     17  C   UNL     1      71.981  48.744   9.938  1.00  0.00     0.047 A 
ATOM     18  C   UNL     1      72.520  49.073   8.691  1.00  0.00     0.119 A 
BRANCH  14  19
ATOM     19  O   UNL     1      69.479  49.631   6.682  1.00  0.00    -0.507 OA
ATOM     20  H   UNL     1      69.660  49.245   5.766  1.00  0.00     0.293 HD
ENDBRANCH  14  19
BRANCH  18  21
ATOM     21  O   UNL     1      73.899  49.092   8.495  1.00  0.00    -0.508 OA
ATOM     22  H   UNL     1      74.321  48.699   7.661  1.00  0.00     0.293 HD
ENDBRANCH  18  21
ENDBRANCH  11  13
ENDBRANCH   2  11
TORSDOF 6
ENDMDL
MODEL 9
REMARK VINA RESULT:    -5.449     15.086     15.911
REMARK INTER + INTRA:          -7.390
REMARK INTER:                  -6.781
REMARK INTRA:                  -0.609
REMARK UNBOUND:                -0.508
REMARK SMILES O=C(C=Cc1ccc(O)cc1)c1ccc(O)cc1O
REMARK SMILES IDX 4 1 3 2 5 3 6 4 7 5 8 6 11 7 10 8 9 9 2 11 1 12 12 13 18 14
REMARK SMILES IDX 13 15 17 16 14 17 15 18 19 19 16 21
REMARK H PARENT 9 10 19 20 16 22
REMARK Flexibility Score: inf
ROOT
ATOM      1  C   UNL     1      68.044  48.256   7.957  1.00  0.00     0.012 C 
ATOM      2  C   UNL     1      67.372  47.145   8.291  1.00  0.00     0.053 C 
ENDROOT
BRANCH   1   3
ATOM      3  C   UNL     1      69.438  48.534   8.383  1.00  0.00    -0.025 A 
ATOM      4  C   UNL     1      70.408  48.774   7.394  1.00  0.00     0.012 A 
ATOM      5  C   UNL     1      71.736  49.031   7.748  1.00  0.00     0.047 A 
ATOM      6  C   UNL     1      72.117  49.040   9.092  1.00  0.00     0.115 A 
ATOM      7  C   UNL     1      69.833  48.529   9.736  1.00  0.00     0.012 A 
ATOM      8  C   UNL     1      71.163  48.786  10.085  1.00  0.00     0.047 A 
BRANCH   6   9
ATOM      9  O   UNL     1      73.444  49.298   9.430  1.00  0.00    -0.508 OA
ATOM     10  H   UNL     1      74.196  48.701   9.111  1.00  0.00     0.293 HD
ENDBRANCH   6   9
ENDBRANCH   1   3
BRANCH   2  11
ATOM     11  C   UNL     1      65.977  46.908   7.859  1.00  0.00     0.189 C 
ATOM     12  O   UNL     1      65.402  47.730   7.096  1.00  0.00    -0.289 OA
BRANCH  11  13
ATOM     13  C   UNL     1      65.257  45.689   8.293  1.00  0.00     0.064 A 
ATOM     14  C   UNL     1      63.871  45.703   8.583  1.00  0.00     0.130 A 
ATOM     15  C   UNL     1      65.962  44.475   8.382  1.00  0.00     0.020 A 
ATOM     16  C   UNL     1      63.221  44.508   8.918  1.00  0.00     0.093 A 
ATOM     17  C   UNL     1      65.303  43.295   8.732  1.00  0.00     0.047 A 
ATOM     18  C   UNL     1      63.930  43.307   8.995  1.00  0.00     0.119 A 
BRANCH  14  19
ATOM     19  O   UNL     1      63.118  46.879   8.576  1.00  0.00    -0.507 OA
ATOM     20  H   UNL     1      62.875  47.377   7.731  1.00  0.00     0.293 HD
ENDBRANCH  14  19
BRANCH  18  21
ATOM     21  O   UNL     1      63.260  42.134   9.337  1.00  0.00    -0.508 OA
ATOM     22  H   UNL     1      63.149  41.375   8.675  1.00  0.00     0.293 HD
ENDBRANCH  18  21
ENDBRANCH  11  13
ENDBRANCH   2  11
TORSDOF 6
ENDMDL
