MODEL 1
REMARK VINA RESULT:    -1.244      0.000      0.000
REMARK INTER + INTRA:          -3.839
REMARK INTER:                  -3.135
REMARK INTRA:                  -0.704
REMARK UNBOUND:                -0.704
REMARK SMILES CCCCCCCCCCCCCCCCCCCCCCCCCCCC(=O)[O-]
REMARK SMILES IDX 15 1 16 2 17 3 18 4 19 5 20 6 21 7 22 8 23 9 24 10 25 11
REMARK SMILES IDX 26 12 27 13 28 14 29 15 30 16 14 17 13 18 12 19 11 20 10 21
REMARK SMILES IDX 9 22 8 23 7 24 6 25 5 26 4 27 3 28 2 29 1 30
REMARK H PARENT
REMARK Flexibility Score: inf
ROOT
ATOM      1  C   UNL     1       6.125 -36.178  23.442  1.00  0.00     0.000 C 
ENDROOT
BRANCH   1   2
ATOM      2  C   UNL     1       5.081 -35.967  24.558  1.00  0.00     0.000 C 
BRANCH   2   3
ATOM      3  C   UNL     1       5.163 -36.967  25.725  1.00  0.00     0.000 C 
BRANCH   3   4
ATOM      4  C   UNL     1       3.840 -37.709  25.970  1.00  0.00     0.000 C 
BRANCH   4   5
ATOM      5  C   UNL     1       3.553 -38.701  24.833  1.00  0.00     0.000 C 
BRANCH   5   6
ATOM      6  C   UNL     1       4.746 -39.621  24.534  1.00  0.00     0.000 C 
BRANCH   6   7
ATOM      7  C   UNL     1       4.946 -39.863  23.027  1.00  0.00     0.000 C 
BRANCH   7   8
ATOM      8  C   UNL     1       5.309 -38.579  22.265  1.00  0.00     0.000 C 
BRANCH   8   9
ATOM      9  C   UNL     1       5.862 -38.857  20.860  1.00  0.00     0.000 C 
BRANCH   9  10
ATOM     10  C   UNL     1       5.071 -38.083  19.795  1.00  0.00     0.000 C 
BRANCH  10  11
ATOM     11  C   UNL     1       3.985 -37.172  20.396  1.00  0.00     0.000 C 
BRANCH  11  12
ATOM     12  C   UNL     1       2.536 -37.586  20.077  1.00  0.00     0.006 C 
BRANCH  12  13
ATOM     13  C   UNL     1       2.295 -37.828  18.581  1.00  0.00     0.053 C 
BRANCH  13  14
ATOM     14  C   UNL     1       0.886 -37.487  18.207  1.00  0.00     0.041 C 
ATOM     15  O   UNL     1      -0.030 -37.525  19.074  1.00  0.00    -0.550 OA
ATOM     16  O   UNL     1       0.583 -37.104  16.905  1.00  0.00    -0.550 OA
ENDBRANCH  13  14
ENDBRANCH  12  13
ENDBRANCH  11  12
ENDBRANCH  10  11
ENDBRANCH   9  10
ENDBRANCH   8   9
ENDBRANCH   7   8
ENDBRANCH   6   7
ENDBRANCH   5   6
ENDBRANCH   4   5
ENDBRANCH   3   4
ENDBRANCH   2   3
ENDBRANCH   1   2
BRANCH   1  17
ATOM     17  C   UNL     1       6.101 -35.135  22.310  1.00  0.00     0.000 C 
BRANCH  17  18
ATOM     18  C   UNL     1       6.040 -33.689  22.831  1.00  0.00     0.000 C 
BRANCH  18  19
ATOM     19  C   UNL     1       4.664 -33.034  22.616  1.00  0.00     0.000 C 
BRANCH  19  20
ATOM     20  C   UNL     1       3.711 -33.802  21.679  1.00  0.00     0.000 C 
BRANCH  20  21
ATOM     21  C   UNL     1       3.891 -33.508  20.176  1.00  0.00     0.000 C 
BRANCH  21  22
ATOM     22  C   UNL     1       5.081 -34.226  19.511  1.00  0.00    -0.000 C 
BRANCH  22  23
ATOM     23  C   UNL     1       4.966 -34.274  17.981  1.00  0.00    -0.000 C 
BRANCH  23  24
ATOM     24  C   UNL     1       4.036 -35.414  17.538  1.00  0.00    -0.000 C 
BRANCH  24  25
ATOM     25  C   UNL     1       3.208 -35.052  16.296  1.00  0.00    -0.000 C 
BRANCH  25  26
ATOM     26  C   UNL     1       2.596 -36.287  15.611  1.00  0.00    -0.000 C 
BRANCH  26  27
ATOM     27  C   UNL     1       3.017 -36.417  14.138  1.00  0.00    -0.000 C 
BRANCH  27  28
ATOM     28  C   UNL     1       4.160 -37.417  13.878  1.00  0.00    -0.000 C 
BRANCH  28  29
ATOM     29  C   UNL     1       3.959 -38.783  14.568  1.00  0.00    -0.003 C 
ATOM     30  C   UNL     1       4.913 -39.855  14.039  1.00  0.00     0.004 C 
ENDBRANCH  28  29
ENDBRANCH  27  28
ENDBRANCH  26  27
ENDBRANCH  25  26
ENDBRANCH  24  25
ENDBRANCH  23  24
ENDBRANCH  22  23
ENDBRANCH  21  22
ENDBRANCH  20  21
ENDBRANCH  19  20
ENDBRANCH  18  19
ENDBRANCH  17  18
ENDBRANCH   1  17
TORSDOF 26
ENDMDL
MODEL 2
REMARK VINA RESULT:     0.230      2.587      4.336
REMARK INTER + INTRA:          -0.125
REMARK INTER:                   0.199
REMARK INTRA:                  -0.324
REMARK UNBOUND:                -0.704
REMARK SMILES CCCCCCCCCCCCCCCCCCCCCCCCCCCC(=O)[O-]
REMARK SMILES IDX 15 1 16 2 17 3 18 4 19 5 20 6 21 7 22 8 23 9 24 10 25 11
REMARK SMILES IDX 26 12 27 13 28 14 29 15 30 16 14 17 13 18 12 19 11 20 10 21
REMARK SMILES IDX 9 22 8 23 7 24 6 25 5 26 4 27 3 28 2 29 1 30
REMARK H PARENT
REMARK Flexibility Score: inf
ROOT
ATOM      1  C   UNL     1       6.123 -34.362  23.930  1.00  0.00     0.000 C 
ENDROOT
BRANCH   1   2
ATOM      2  C   UNL     1       6.125 -35.613  23.028  1.00  0.00     0.000 C 
BRANCH   2   3
ATOM      3  C   UNL     1       6.089 -35.327  21.516  1.00  0.00     0.000 C 
BRANCH   3   4
ATOM      4  C   UNL     1       5.832 -36.587  20.676  1.00  0.00     0.000 C 
BRANCH   4   5
ATOM      5  C   UNL     1       4.393 -37.089  20.872  1.00  0.00     0.000 C 
BRANCH   5   6
ATOM      6  C   UNL     1       4.264 -38.608  20.677  1.00  0.00     0.000 C 
BRANCH   6   7
ATOM      7  C   UNL     1       5.619 -39.333  20.754  1.00  0.00     0.000 C 
BRANCH   7   8
ATOM      8  C   UNL     1       5.795 -40.119  22.063  1.00  0.00     0.000 C 
BRANCH   8   9
ATOM      9  C   UNL     1       4.627 -39.918  23.039  1.00  0.00     0.000 C 
BRANCH   9  10
ATOM     10  C   UNL     1       5.047 -39.034  24.223  1.00  0.00     0.000 C 
BRANCH  10  11
ATOM     11  C   UNL     1       4.376 -37.648  24.207  1.00  0.00     0.000 C 
BRANCH  11  12
ATOM     12  C   UNL     1       4.192 -36.996  25.590  1.00  0.00     0.006 C 
BRANCH  12  13
ATOM     13  C   UNL     1       3.567 -37.943  26.623  1.00  0.00     0.053 C 
BRANCH  13  14
ATOM     14  C   UNL     1       2.265 -37.399  27.124  1.00  0.00     0.041 C 
ATOM     15  O   UNL     1       1.215 -38.094  27.054  1.00  0.00    -0.550 OA
ATOM     16  O   UNL     1       2.212 -36.130  27.691  1.00  0.00    -0.550 OA
ENDBRANCH  13  14
ENDBRANCH  12  13
ENDBRANCH  11  12
ENDBRANCH  10  11
ENDBRANCH   9  10
ENDBRANCH   8   9
ENDBRANCH   7   8
ENDBRANCH   6   7
ENDBRANCH   5   6
ENDBRANCH   4   5
ENDBRANCH   3   4
ENDBRANCH   2   3
ENDBRANCH   1   2
BRANCH   1  17
ATOM     17  C   UNL     1       5.392 -33.135  23.356  1.00  0.00     0.000 C 
BRANCH  17  18
ATOM     18  C   UNL     1       4.131 -33.510  22.559  1.00  0.00     0.000 C 
BRANCH  18  19
ATOM     19  C   UNL     1       4.017 -32.747  21.227  1.00  0.00     0.000 C 
BRANCH  19  20
ATOM     20  C   UNL     1       3.805 -33.629  19.981  1.00  0.00     0.000 C 
BRANCH  20  21
ATOM     21  C   UNL     1       5.087 -33.981  19.200  1.00  0.00     0.000 C 
BRANCH  21  22
ATOM     22  C   UNL     1       4.893 -34.174  17.685  1.00  0.00    -0.000 C 
BRANCH  22  23
ATOM     23  C   UNL     1       3.604 -34.938  17.343  1.00  0.00    -0.000 C 
BRANCH  23  24
ATOM     24  C   UNL     1       3.759 -36.436  17.650  1.00  0.00    -0.000 C 
BRANCH  24  25
ATOM     25  C   UNL     1       2.408 -37.146  17.821  1.00  0.00    -0.000 C 
BRANCH  25  26
ATOM     26  C   UNL     1       1.732 -37.465  16.477  1.00  0.00    -0.000 C 
BRANCH  26  27
ATOM     27  C   UNL     1       1.700 -36.256  15.527  1.00  0.00    -0.000 C 
BRANCH  27  28
ATOM     28  C   UNL     1       2.332 -36.504  14.144  1.00  0.00    -0.000 C 
BRANCH  28  29
ATOM     29  C   UNL     1       3.812 -36.940  14.205  1.00  0.00    -0.003 C 
ATOM     30  C   UNL     1       3.974 -38.450  14.389  1.00  0.00     0.004 C 
ENDBRANCH  28  29
ENDBRANCH  27  28
ENDBRANCH  26  27
ENDBRANCH  25  26
ENDBRANCH  24  25
ENDBRANCH  23  24
ENDBRANCH  22  23
ENDBRANCH  21  22
ENDBRANCH  20  21
ENDBRANCH  19  20
ENDBRANCH  18  19
ENDBRANCH  17  18
ENDBRANCH   1  17
TORSDOF 26
ENDMDL
MODEL 3
REMARK VINA RESULT:     0.641      1.827      4.177
REMARK INTER + INTRA:           0.911
REMARK INTER:                  -1.757
REMARK INTRA:                   2.668
REMARK UNBOUND:                -0.704
REMARK SMILES CCCCCCCCCCCCCCCCCCCCCCCCCCCC(=O)[O-]
REMARK SMILES IDX 15 1 16 2 17 3 18 4 19 5 20 6 21 7 22 8 23 9 24 10 25 11
REMARK SMILES IDX 26 12 27 13 28 14 29 15 30 16 14 17 13 18 12 19 11 20 10 21
REMARK SMILES IDX 9 22 8 23 7 24 6 25 5 26 4 27 3 28 2 29 1 30
REMARK H PARENT
REMARK Flexibility Score: inf
ROOT
ATOM      1  C   UNL     1       6.065 -34.498  20.431  1.00  0.00     0.000 C 
ENDROOT
BRANCH   1   2
ATOM      2  C   UNL     1       5.091 -34.330  21.615  1.00  0.00     0.000 C 
BRANCH   2   3
ATOM      3  C   UNL     1       5.522 -33.298  22.672  1.00  0.00     0.000 C 
BRANCH   3   4
ATOM      4  C   UNL     1       6.088 -33.946  23.944  1.00  0.00     0.000 C 
BRANCH   4   5
ATOM      5  C   UNL     1       6.123 -35.476  23.808  1.00  0.00     0.000 C 
BRANCH   5   6
ATOM      6  C   UNL     1       6.052 -36.194  25.164  1.00  0.00     0.000 C 
BRANCH   6   7
ATOM      7  C   UNL     1       4.610 -36.351  25.677  1.00  0.00     0.000 C 
BRANCH   7   8
ATOM      8  C   UNL     1       4.166 -37.820  25.754  1.00  0.00     0.000 C 
BRANCH   8   9
ATOM      9  C   UNL     1       3.829 -38.412  24.377  1.00  0.00     0.000 C 
BRANCH   9  10
ATOM     10  C   UNL     1       4.391 -39.835  24.240  1.00  0.00     0.000 C 
BRANCH  10  11
ATOM     11  C   UNL     1       5.718 -39.886  23.461  1.00  0.00     0.000 C 
BRANCH  11  12
ATOM     12  C   UNL     1       5.595 -40.335  21.992  1.00  0.00     0.006 C 
BRANCH  12  13
ATOM     13  C   UNL     1       5.715 -39.175  20.995  1.00  0.00     0.053 C 
BRANCH  13  14
ATOM     14  C   UNL     1       5.159 -37.913  21.579  1.00  0.00     0.041 C 
ATOM     15  O   UNL     1       5.881 -37.176  22.305  1.00  0.00    -0.550 OA
ATOM     16  O   UNL     1       3.850 -37.535  21.303  1.00  0.00    -0.550 OA
ENDBRANCH  13  14
ENDBRANCH  12  13
ENDBRANCH  11  12
ENDBRANCH  10  11
ENDBRANCH   9  10
ENDBRANCH   8   9
ENDBRANCH   7   8
ENDBRANCH   6   7
ENDBRANCH   5   6
ENDBRANCH   4   5
ENDBRANCH   3   4
ENDBRANCH   2   3
ENDBRANCH   1   2
BRANCH   1  17
ATOM     17  C   UNL     1       5.611 -33.857  19.107  1.00  0.00     0.000 C 
BRANCH  17  18
ATOM     18  C   UNL     1       4.247 -34.380  18.626  1.00  0.00     0.000 C 
BRANCH  18  19
ATOM     19  C   UNL     1       3.850 -35.711  19.292  1.00  0.00     0.000 C 
BRANCH  19  20
ATOM     20  C   UNL     1       3.985 -36.958  18.397  1.00  0.00     0.000 C 
BRANCH  20  21
ATOM     21  C   UNL     1       2.662 -37.683  18.078  1.00  0.00     0.000 C 
BRANCH  21  22
ATOM     22  C   UNL     1       2.347 -37.831  16.578  1.00  0.00    -0.000 C 
BRANCH  22  23
ATOM     23  C   UNL     1       1.291 -36.828  16.091  1.00  0.00    -0.000 C 
BRANCH  23  24
ATOM     24  C   UNL     1       1.959 -35.573  15.506  1.00  0.00    -0.000 C 
BRANCH  24  25
ATOM     25  C   UNL     1       3.232 -35.898  14.709  1.00  0.00    -0.000 C 
BRANCH  25  26
ATOM     26  C   UNL     1       3.123 -37.223  13.934  1.00  0.00    -0.000 C 
BRANCH  26  27
ATOM     27  C   UNL     1       4.456 -37.987  13.876  1.00  0.00    -0.000 C 
BRANCH  27  28
ATOM     28  C   UNL     1       4.324 -39.521  13.921  1.00  0.00    -0.000 C 
BRANCH  28  29
ATOM     29  C   UNL     1       5.671 -40.257  14.087  1.00  0.00    -0.003 C 
ATOM     30  C   UNL     1       5.513 -41.778  14.104  1.00  0.00     0.004 C 
ENDBRANCH  28  29
ENDBRANCH  27  28
ENDBRANCH  26  27
ENDBRANCH  25  26
ENDBRANCH  24  25
ENDBRANCH  23  24
ENDBRANCH  22  23
ENDBRANCH  21  22
ENDBRANCH  20  21
ENDBRANCH  19  20
ENDBRANCH  18  19
ENDBRANCH  17  18
ENDBRANCH   1  17
TORSDOF 26
ENDMDL
MODEL 4
REMARK VINA RESULT:     0.745      2.607      5.027
REMARK INTER + INTRA:           1.174
REMARK INTER:                   1.242
REMARK INTRA:                  -0.069
REMARK UNBOUND:                -0.704
REMARK SMILES CCCCCCCCCCCCCCCCCCCCCCCCCCCC(=O)[O-]
REMARK SMILES IDX 15 1 16 2 17 3 18 4 19 5 20 6 21 7 22 8 23 9 24 10 25 11
REMARK SMILES IDX 26 12 27 13 28 14 29 15 30 16 14 17 13 18 12 19 11 20 10 21
REMARK SMILES IDX 9 22 8 23 7 24 6 25 5 26 4 27 3 28 2 29 1 30
REMARK H PARENT
REMARK Flexibility Score: inf
ROOT
ATOM      1  C   UNL     1       5.739 -34.216  18.858  1.00  0.00     0.000 C 
ENDROOT
BRANCH   1   2
ATOM      2  C   UNL     1       5.660 -34.209  20.399  1.00  0.00     0.000 C 
BRANCH   2   3
ATOM      3  C   UNL     1       4.290 -33.817  20.980  1.00  0.00     0.000 C 
BRANCH   3   4
ATOM      4  C   UNL     1       4.362 -33.414  22.460  1.00  0.00     0.000 C 
BRANCH   4   5
ATOM      5  C   UNL     1       4.697 -34.628  23.340  1.00  0.00     0.000 C 
BRANCH   5   6
ATOM      6  C   UNL     1       6.047 -35.267  22.981  1.00  0.00     0.000 C 
BRANCH   6   7
ATOM      7  C   UNL     1       5.901 -36.710  22.468  1.00  0.00     0.000 C 
BRANCH   7   8
ATOM      8  C   UNL     1       4.435 -37.114  22.245  1.00  0.00     0.000 C 
BRANCH   8   9
ATOM      9  C   UNL     1       4.234 -38.637  22.222  1.00  0.00     0.000 C 
BRANCH   9  10
ATOM     10  C   UNL     1       5.089 -39.319  23.301  1.00  0.00     0.000 C 
BRANCH  10  11
ATOM     11  C   UNL     1       5.192 -38.495  24.597  1.00  0.00     0.000 C 
BRANCH  11  12
ATOM     12  C   UNL     1       3.896 -38.421  25.428  1.00  0.00     0.006 C 
BRANCH  12  13
ATOM     13  C   UNL     1       3.792 -37.142  26.268  1.00  0.00     0.053 C 
BRANCH  13  14
ATOM     14  C   UNL     1       2.503 -37.109  27.030  1.00  0.00     0.041 C 
ATOM     15  O   UNL     1       1.685 -38.064  26.937  1.00  0.00    -0.550 OA
ATOM     16  O   UNL     1       2.213 -36.034  27.863  1.00  0.00    -0.550 OA
ENDBRANCH  13  14
ENDBRANCH  12  13
ENDBRANCH  11  12
ENDBRANCH  10  11
ENDBRANCH   9  10
ENDBRANCH   8   9
ENDBRANCH   7   8
ENDBRANCH   6   7
ENDBRANCH   5   6
ENDBRANCH   4   5
ENDBRANCH   3   4
ENDBRANCH   2   3
ENDBRANCH   1   2
BRANCH   1  17
ATOM     17  C   UNL     1       5.266 -35.514  18.179  1.00  0.00     0.000 C 
BRANCH  17  18
ATOM     18  C   UNL     1       4.895 -36.615  19.187  1.00  0.00     0.000 C 
BRANCH  18  19
ATOM     19  C   UNL     1       3.753 -37.519  18.689  1.00  0.00     0.000 C 
BRANCH  19  20
ATOM     20  C   UNL     1       2.500 -37.548  19.586  1.00  0.00     0.000 C 
BRANCH  20  21
ATOM     21  C   UNL     1       1.173 -37.223  18.871  1.00  0.00     0.000 C 
BRANCH  21  22
ATOM     22  C   UNL     1       1.050 -37.785  17.443  1.00  0.00    -0.000 C 
BRANCH  22  23
ATOM     23  C   UNL     1       1.025 -36.685  16.371  1.00  0.00    -0.000 C 
BRANCH  23  24
ATOM     24  C   UNL     1       2.139 -35.656  16.619  1.00  0.00    -0.000 C 
BRANCH  24  25
ATOM     25  C   UNL     1       3.393 -35.929  15.774  1.00  0.00    -0.000 C 
BRANCH  25  26
ATOM     26  C   UNL     1       3.071 -36.138  14.285  1.00  0.00    -0.000 C 
BRANCH  26  27
ATOM     27  C   UNL     1       3.091 -37.620  13.875  1.00  0.00    -0.000 C 
BRANCH  27  28
ATOM     28  C   UNL     1       4.481 -38.283  13.920  1.00  0.00    -0.000 C 
BRANCH  28  29
ATOM     29  C   UNL     1       4.530 -39.565  14.779  1.00  0.00    -0.003 C 
ATOM     30  C   UNL     1       5.015 -40.783  13.992  1.00  0.00     0.004 C 
ENDBRANCH  28  29
ENDBRANCH  27  28
ENDBRANCH  26  27
ENDBRANCH  25  26
ENDBRANCH  24  25
ENDBRANCH  23  24
ENDBRANCH  22  23
ENDBRANCH  21  22
ENDBRANCH  20  21
ENDBRANCH  19  20
ENDBRANCH  18  19
ENDBRANCH  17  18
ENDBRANCH   1  17
TORSDOF 26
ENDMDL
MODEL 5
REMARK VINA RESULT:     0.852      1.983      7.830
REMARK INTER + INTRA:           1.442
REMARK INTER:                   2.535
REMARK INTRA:                  -1.093
REMARK UNBOUND:                -0.704
REMARK SMILES CCCCCCCCCCCCCCCCCCCCCCCCCCCC(=O)[O-]
REMARK SMILES IDX 15 1 16 2 17 3 18 4 19 5 20 6 21 7 22 8 23 9 24 10 25 11
REMARK SMILES IDX 26 12 27 13 28 14 29 15 30 16 14 17 13 18 12 19 11 20 10 21
REMARK SMILES IDX 9 22 8 23 7 24 6 25 5 26 4 27 3 28 2 29 1 30
REMARK H PARENT
REMARK Flexibility Score: inf
ROOT
ATOM      1  C   UNL     1       4.777 -36.355  22.247  1.00  0.00     0.000 C 
ENDROOT
BRANCH   1   2
ATOM      2  C   UNL     1       6.125 -35.972  22.892  1.00  0.00     0.000 C 
BRANCH   2   3
ATOM      3  C   UNL     1       6.017 -35.144  24.186  1.00  0.00     0.000 C 
BRANCH   3   4
ATOM      4  C   UNL     1       5.778 -33.650  23.920  1.00  0.00     0.000 C 
BRANCH   4   5
ATOM      5  C   UNL     1       5.605 -33.384  22.417  1.00  0.00     0.000 C 
BRANCH   5   6
ATOM      6  C   UNL     1       4.138 -33.158  22.021  1.00  0.00     0.000 C 
BRANCH   6   7
ATOM      7  C   UNL     1       3.886 -33.388  20.520  1.00  0.00     0.000 C 
BRANCH   7   8
ATOM      8  C   UNL     1       5.095 -34.018  19.808  1.00  0.00     0.000 C 
BRANCH   8   9
ATOM      9  C   UNL     1       4.924 -34.073  18.283  1.00  0.00     0.000 C 
BRANCH   9  10
ATOM     10  C   UNL     1       4.227 -35.373  17.856  1.00  0.00     0.000 C 
BRANCH  10  11
ATOM     11  C   UNL     1       3.350 -35.203  16.602  1.00  0.00     0.000 C 
BRANCH  11  12
ATOM     12  C   UNL     1       2.216 -36.235  16.454  1.00  0.00     0.006 C 
BRANCH  12  13
ATOM     13  C   UNL     1       2.438 -37.498  17.295  1.00  0.00     0.053 C 
BRANCH  13  14
ATOM     14  C   UNL     1       1.347 -37.663  18.307  1.00  0.00     0.041 C 
ATOM     15  O   UNL     1       0.181 -37.251  18.058  1.00  0.00    -0.550 OA
ATOM     16  O   UNL     1       1.608 -38.296  19.517  1.00  0.00    -0.550 OA
ENDBRANCH  13  14
ENDBRANCH  12  13
ENDBRANCH  11  12
ENDBRANCH  10  11
ENDBRANCH   9  10
ENDBRANCH   8   9
ENDBRANCH   7   8
ENDBRANCH   6   7
ENDBRANCH   5   6
ENDBRANCH   4   5
ENDBRANCH   3   4
ENDBRANCH   2   3
ENDBRANCH   1   2
BRANCH   1  17
ATOM     17  C   UNL     1       4.837 -36.695  20.747  1.00  0.00     0.000 C 
BRANCH  17  18
ATOM     18  C   UNL     1       4.542 -38.176  20.457  1.00  0.00     0.000 C 
BRANCH  18  19
ATOM     19  C   UNL     1       5.819 -39.028  20.341  1.00  0.00     0.000 C 
BRANCH  19  20
ATOM     20  C   UNL     1       6.115 -39.936  21.551  1.00  0.00     0.000 C 
BRANCH  20  21
ATOM     21  C   UNL     1       4.947 -40.108  22.543  1.00  0.00     0.000 C 
BRANCH  21  22
ATOM     22  C   UNL     1       5.217 -39.577  23.963  1.00  0.00    -0.000 C 
BRANCH  22  23
ATOM     23  C   UNL     1       4.219 -38.491  24.391  1.00  0.00    -0.000 C 
BRANCH  23  24
ATOM     24  C   UNL     1       4.624 -37.877  25.740  1.00  0.00    -0.000 C 
BRANCH  24  25
ATOM     25  C   UNL     1       3.575 -36.894  26.281  1.00  0.00    -0.000 C 
BRANCH  25  26
ATOM     26  C   UNL     1       2.631 -37.540  27.310  1.00  0.00    -0.000 C 
BRANCH  26  27
ATOM     27  C   UNL     1       1.575 -36.559  27.845  1.00  0.00    -0.000 C 
BRANCH  27  28
ATOM     28  C   UNL     1       2.121 -35.174  28.240  1.00  0.00    -0.000 C 
BRANCH  28  29
ATOM     29  C   UNL     1       1.675 -34.707  29.642  1.00  0.00    -0.003 C 
ATOM     30  C   UNL     1       1.224 -33.246  29.660  1.00  0.00     0.004 C 
ENDBRANCH  28  29
ENDBRANCH  27  28
ENDBRANCH  26  27
ENDBRANCH  25  26
ENDBRANCH  24  25
ENDBRANCH  23  24
ENDBRANCH  22  23
ENDBRANCH  21  22
ENDBRANCH  20  21
ENDBRANCH  19  20
ENDBRANCH  18  19
ENDBRANCH  17  18
ENDBRANCH   1  17
TORSDOF 26
ENDMDL
MODEL 6
REMARK VINA RESULT:     0.900      2.071      7.762
REMARK INTER + INTRA:           1.564
REMARK INTER:                   1.354
REMARK INTRA:                   0.210
REMARK UNBOUND:                -0.704
REMARK SMILES CCCCCCCCCCCCCCCCCCCCCCCCCCCC(=O)[O-]
REMARK SMILES IDX 15 1 16 2 17 3 18 4 19 5 20 6 21 7 22 8 23 9 24 10 25 11
REMARK SMILES IDX 26 12 27 13 28 14 29 15 30 16 14 17 13 18 12 19 11 20 10 21
REMARK SMILES IDX 9 22 8 23 7 24 6 25 5 26 4 27 3 28 2 29 1 30
REMARK H PARENT
REMARK Flexibility Score: inf
ROOT
ATOM      1  C   UNL     1       5.221 -35.996  23.309  1.00  0.00     0.000 C 
ENDROOT
BRANCH   1   2
ATOM      2  C   UNL     1       6.122 -35.144  24.227  1.00  0.00     0.000 C 
BRANCH   2   3
ATOM      3  C   UNL     1       6.061 -33.627  23.976  1.00  0.00     0.000 C 
BRANCH   3   4
ATOM      4  C   UNL     1       5.813 -33.276  22.501  1.00  0.00     0.000 C 
BRANCH   4   5
ATOM      5  C   UNL     1       4.311 -33.301  22.179  1.00  0.00     0.000 C 
BRANCH   5   6
ATOM      6  C   UNL     1       4.023 -33.704  20.725  1.00  0.00     0.000 C 
BRANCH   6   7
ATOM      7  C   UNL     1       5.273 -34.232  19.997  1.00  0.00     0.000 C 
BRANCH   7   8
ATOM      8  C   UNL     1       5.231 -33.970  18.483  1.00  0.00     0.000 C 
BRANCH   8   9
ATOM      9  C   UNL     1       4.239 -34.884  17.748  1.00  0.00     0.000 C 
BRANCH   9  10
ATOM     10  C   UNL     1       3.806 -36.054  18.644  1.00  0.00     0.000 C 
BRANCH  10  11
ATOM     11  C   UNL     1       3.263 -37.254  17.846  1.00  0.00     0.000 C 
BRANCH  11  12
ATOM     12  C   UNL     1       1.997 -36.967  17.017  1.00  0.00     0.006 C 
BRANCH  12  13
ATOM     13  C   UNL     1       2.287 -36.198  15.722  1.00  0.00     0.053 C 
BRANCH  13  14
ATOM     14  C   UNL     1       3.251 -36.953  14.860  1.00  0.00     0.041 C 
ATOM     15  O   UNL     1       3.853 -36.370  13.917  1.00  0.00    -0.550 OA
ATOM     16  O   UNL     1       3.505 -38.297  15.111  1.00  0.00    -0.550 OA
ENDBRANCH  13  14
ENDBRANCH  12  13
ENDBRANCH  11  12
ENDBRANCH  10  11
ENDBRANCH   9  10
ENDBRANCH   8   9
ENDBRANCH   7   8
ENDBRANCH   6   7
ENDBRANCH   5   6
ENDBRANCH   4   5
ENDBRANCH   3   4
ENDBRANCH   2   3
ENDBRANCH   1   2
BRANCH   1  17
ATOM     17  C   UNL     1       5.930 -36.642  22.105  1.00  0.00     0.000 C 
BRANCH  17  18
ATOM     18  C   UNL     1       4.975 -37.459  21.218  1.00  0.00     0.000 C 
BRANCH  18  19
ATOM     19  C   UNL     1       5.679 -38.626  20.500  1.00  0.00     0.000 C 
BRANCH  19  20
ATOM     20  C   UNL     1       6.001 -39.843  21.389  1.00  0.00     0.000 C 
BRANCH  20  21
ATOM     21  C   UNL     1       5.420 -39.786  22.816  1.00  0.00     0.000 C 
BRANCH  21  22
ATOM     22  C   UNL     1       3.893 -39.602  22.889  1.00  0.00    -0.000 C 
BRANCH  22  23
ATOM     23  C   UNL     1       3.459 -38.688  24.044  1.00  0.00    -0.000 C 
BRANCH  23  24
ATOM     24  C   UNL     1       4.588 -38.536  25.075  1.00  0.00    -0.000 C 
BRANCH  24  25
ATOM     25  C   UNL     1       4.217 -37.584  26.222  1.00  0.00    -0.000 C 
BRANCH  25  26
ATOM     26  C   UNL     1       2.717 -37.626  26.564  1.00  0.00    -0.000 C 
BRANCH  26  27
ATOM     27  C   UNL     1       2.402 -36.989  27.928  1.00  0.00    -0.000 C 
BRANCH  27  28
ATOM     28  C   UNL     1       1.523 -35.725  27.863  1.00  0.00    -0.000 C 
BRANCH  28  29
ATOM     29  C   UNL     1       2.116 -34.515  28.615  1.00  0.00    -0.003 C 
ATOM     30  C   UNL     1       1.669 -34.453  30.077  1.00  0.00     0.004 C 
ENDBRANCH  28  29
ENDBRANCH  27  28
ENDBRANCH  26  27
ENDBRANCH  25  26
ENDBRANCH  24  25
ENDBRANCH  23  24
ENDBRANCH  22  23
ENDBRANCH  21  22
ENDBRANCH  20  21
ENDBRANCH  19  20
ENDBRANCH  18  19
ENDBRANCH  17  18
ENDBRANCH   1  17
TORSDOF 26
ENDMDL
MODEL 7
REMARK VINA RESULT:     0.953      3.495      5.595
REMARK INTER + INTRA:           1.698
REMARK INTER:                   3.089
REMARK INTRA:                  -1.391
REMARK UNBOUND:                -0.704
REMARK SMILES CCCCCCCCCCCCCCCCCCCCCCCCCCCC(=O)[O-]
REMARK SMILES IDX 15 1 16 2 17 3 18 4 19 5 20 6 21 7 22 8 23 9 24 10 25 11
REMARK SMILES IDX 26 12 27 13 28 14 29 15 30 16 14 17 13 18 12 19 11 20 10 21
REMARK SMILES IDX 9 22 8 23 7 24 6 25 5 26 4 27 3 28 2 29 1 30
REMARK H PARENT
REMARK Flexibility Score: inf
ROOT
ATOM      1  C   UNL     1       5.342 -34.444  23.179  1.00  0.00     0.000 C 
ENDROOT
BRANCH   1   2
ATOM      2  C   UNL     1       5.938 -35.592  22.338  1.00  0.00     0.000 C 
BRANCH   2   3
ATOM      3  C   UNL     1       4.985 -36.773  22.077  1.00  0.00     0.000 C 
BRANCH   3   4
ATOM      4  C   UNL     1       5.704 -38.006  21.510  1.00  0.00     0.000 C 
BRANCH   4   5
ATOM      5  C   UNL     1       5.124 -39.298  22.105  1.00  0.00     0.000 C 
BRANCH   5   6
ATOM      6  C   UNL     1       3.903 -39.041  23.002  1.00  0.00     0.000 C 
BRANCH   6   7
ATOM      7  C   UNL     1       4.239 -39.135  24.501  1.00  0.00     0.000 C 
BRANCH   7   8
ATOM      8  C   UNL     1       5.064 -37.937  24.998  1.00  0.00     0.000 C 
BRANCH   8   9
ATOM      9  C   UNL     1       4.263 -37.005  25.920  1.00  0.00     0.000 C 
BRANCH   9  10
ATOM     10  C   UNL     1       2.884 -37.602  26.238  1.00  0.00     0.000 C 
BRANCH  10  11
ATOM     11  C   UNL     1       2.426 -37.325  27.682  1.00  0.00     0.000 C 
BRANCH  11  12
ATOM     12  C   UNL     1       1.678 -35.994  27.885  1.00  0.00     0.006 C 
BRANCH  12  13
ATOM     13  C   UNL     1       2.484 -34.967  28.691  1.00  0.00     0.053 C 
BRANCH  13  14
ATOM     14  C   UNL     1       1.619 -34.293  29.711  1.00  0.00     0.041 C 
ATOM     15  O   UNL     1       2.122 -33.846  30.778  1.00  0.00    -0.550 OA
ATOM     16  O   UNL     1       0.257 -34.136  29.475  1.00  0.00    -0.550 OA
ENDBRANCH  13  14
ENDBRANCH  12  13
ENDBRANCH  11  12
ENDBRANCH  10  11
ENDBRANCH   9  10
ENDBRANCH   8   9
ENDBRANCH   7   8
ENDBRANCH   6   7
ENDBRANCH   5   6
ENDBRANCH   4   5
ENDBRANCH   3   4
ENDBRANCH   2   3
ENDBRANCH   1   2
BRANCH   1  17
ATOM     17  C   UNL     1       4.622 -33.345  22.377  1.00  0.00     0.000 C 
BRANCH  17  18
ATOM     18  C   UNL     1       3.958 -33.877  21.096  1.00  0.00     0.000 C 
BRANCH  18  19
ATOM     19  C   UNL     1       4.886 -33.804  19.869  1.00  0.00     0.000 C 
BRANCH  19  20
ATOM     20  C   UNL     1       4.480 -34.707  18.687  1.00  0.00     0.000 C 
BRANCH  20  21
ATOM     21  C   UNL     1       4.973 -36.165  18.776  1.00  0.00     0.000 C 
BRANCH  21  22
ATOM     22  C   UNL     1       3.911 -37.231  18.448  1.00  0.00    -0.000 C 
BRANCH  22  23
ATOM     23  C   UNL     1       2.586 -36.998  19.191  1.00  0.00    -0.000 C 
BRANCH  23  24
ATOM     24  C   UNL     1       1.395 -37.480  18.347  1.00  0.00    -0.000 C 
BRANCH  24  25
ATOM     25  C   UNL     1       1.706 -37.497  16.843  1.00  0.00    -0.000 C 
BRANCH  25  26
ATOM     26  C   UNL     1       1.629 -36.098  16.206  1.00  0.00    -0.000 C 
BRANCH  26  27
ATOM     27  C   UNL     1       2.027 -36.099  14.721  1.00  0.00    -0.000 C 
BRANCH  27  28
ATOM     28  C   UNL     1       3.477 -36.539  14.441  1.00  0.00    -0.000 C 
BRANCH  28  29
ATOM     29  C   UNL     1       3.828 -37.928  15.018  1.00  0.00    -0.003 C 
ATOM     30  C   UNL     1       4.365 -38.888  13.956  1.00  0.00     0.004 C 
ENDBRANCH  28  29
ENDBRANCH  27  28
ENDBRANCH  26  27
ENDBRANCH  25  26
ENDBRANCH  24  25
ENDBRANCH  23  24
ENDBRANCH  22  23
ENDBRANCH  21  22
ENDBRANCH  20  21
ENDBRANCH  19  20
ENDBRANCH  18  19
ENDBRANCH  17  18
ENDBRANCH   1  17
TORSDOF 26
ENDMDL
MODEL 8
REMARK VINA RESULT:     1.180      1.311      6.840
REMARK INTER + INTRA:           2.269
REMARK INTER:                   2.140
REMARK INTRA:                   0.129
REMARK UNBOUND:                -0.704
REMARK SMILES CCCCCCCCCCCCCCCCCCCCCCCCCCCC(=O)[O-]
REMARK SMILES IDX 15 1 16 2 17 3 18 4 19 5 20 6 21 7 22 8 23 9 24 10 25 11
REMARK SMILES IDX 26 12 27 13 28 14 29 15 30 16 14 17 13 18 12 19 11 20 10 21
REMARK SMILES IDX 9 22 8 23 7 24 6 25 5 26 4 27 3 28 2 29 1 30
REMARK H PARENT
REMARK Flexibility Score: inf
ROOT
ATOM      1  C   UNL     1       4.790 -34.507  23.389  1.00  0.00     0.000 C 
ENDROOT
BRANCH   1   2
ATOM      2  C   UNL     1       4.564 -33.235  22.545  1.00  0.00     0.000 C 
BRANCH   2   3
ATOM      3  C   UNL     1       3.536 -33.381  21.409  1.00  0.00     0.000 C 
BRANCH   3   4
ATOM      4  C   UNL     1       4.146 -33.146  20.019  1.00  0.00     0.000 C 
BRANCH   4   5
ATOM      5  C   UNL     1       5.448 -33.945  19.852  1.00  0.00     0.000 C 
BRANCH   5   6
ATOM      6  C   UNL     1       5.655 -34.448  18.415  1.00  0.00     0.000 C 
BRANCH   6   7
ATOM      7  C   UNL     1       4.339 -34.538  17.623  1.00  0.00     0.000 C 
BRANCH   7   8
ATOM      8  C   UNL     1       4.006 -35.975  17.189  1.00  0.00     0.000 C 
BRANCH   8   9
ATOM      9  C   UNL     1       4.077 -36.168  15.667  1.00  0.00     0.000 C 
BRANCH   9  10
ATOM     10  C   UNL     1       3.045 -37.205  15.198  1.00  0.00     0.000 C 
BRANCH  10  11
ATOM     11  C   UNL     1       1.620 -36.632  15.095  1.00  0.00     0.000 C 
BRANCH  11  12
ATOM     12  C   UNL     1       0.926 -36.362  16.443  1.00  0.00     0.006 C 
BRANCH  12  13
ATOM     13  C   UNL     1       1.720 -36.891  17.645  1.00  0.00     0.053 C 
BRANCH  13  14
ATOM     14  C   UNL     1       0.842 -37.700  18.548  1.00  0.00     0.041 C 
ATOM     15  O   UNL     1       1.345 -38.560  19.323  1.00  0.00    -0.550 OA
ATOM     16  O   UNL     1      -0.533 -37.490  18.555  1.00  0.00    -0.550 OA
ENDBRANCH  13  14
ENDBRANCH  12  13
ENDBRANCH  11  12
ENDBRANCH  10  11
ENDBRANCH   9  10
ENDBRANCH   8   9
ENDBRANCH   7   8
ENDBRANCH   6   7
ENDBRANCH   5   6
ENDBRANCH   4   5
ENDBRANCH   3   4
ENDBRANCH   2   3
ENDBRANCH   1   2
BRANCH   1  17
ATOM     17  C   UNL     1       6.125 -35.233  23.143  1.00  0.00     0.000 C 
BRANCH  17  18
ATOM     18  C   UNL     1       6.049 -36.250  21.992  1.00  0.00     0.000 C 
BRANCH  18  19
ATOM     19  C   UNL     1       4.604 -36.532  21.538  1.00  0.00     0.000 C 
BRANCH  19  20
ATOM     20  C   UNL     1       4.471 -37.455  20.311  1.00  0.00     0.000 C 
BRANCH  20  21
ATOM     21  C   UNL     1       5.764 -38.183  19.894  1.00  0.00     0.000 C 
BRANCH  21  22
ATOM     22  C   UNL     1       5.861 -39.650  20.352  1.00  0.00    -0.000 C 
BRANCH  22  23
ATOM     23  C   UNL     1       6.125 -39.786  21.859  1.00  0.00    -0.000 C 
BRANCH  23  24
ATOM     24  C   UNL     1       4.815 -40.042  22.621  1.00  0.00    -0.000 C 
BRANCH  24  25
ATOM     25  C   UNL     1       4.353 -38.819  23.428  1.00  0.00    -0.000 C 
BRANCH  25  26
ATOM     26  C   UNL     1       5.116 -38.662  24.755  1.00  0.00    -0.000 C 
BRANCH  26  27
ATOM     27  C   UNL     1       5.155 -37.206  25.248  1.00  0.00    -0.000 C 
BRANCH  27  28
ATOM     28  C   UNL     1       3.997 -36.808  26.182  1.00  0.00    -0.000 C 
BRANCH  28  29
ATOM     29  C   UNL     1       3.098 -37.993  26.597  1.00  0.00    -0.003 C 
ATOM     30  C   UNL     1       1.760 -37.539  27.183  1.00  0.00     0.004 C 
ENDBRANCH  28  29
ENDBRANCH  27  28
ENDBRANCH  26  27
ENDBRANCH  25  26
ENDBRANCH  24  25
ENDBRANCH  23  24
ENDBRANCH  22  23
ENDBRANCH  21  22
ENDBRANCH  20  21
ENDBRANCH  19  20
ENDBRANCH  18  19
ENDBRANCH  17  18
ENDBRANCH   1  17
TORSDOF 26
ENDMDL
MODEL 9
REMARK VINA RESULT:     1.200      1.695      4.078
REMARK INTER + INTRA:           2.320
REMARK INTER:                   0.743
REMARK INTRA:                   1.577
REMARK UNBOUND:                -0.704
REMARK SMILES CCCCCCCCCCCCCCCCCCCCCCCCCCCC(=O)[O-]
REMARK SMILES IDX 15 1 16 2 17 3 18 4 19 5 20 6 21 7 22 8 23 9 24 10 25 11
REMARK SMILES IDX 26 12 27 13 28 14 29 15 30 16 14 17 13 18 12 19 11 20 10 21
REMARK SMILES IDX 9 22 8 23 7 24 6 25 5 26 4 27 3 28 2 29 1 30
REMARK H PARENT
REMARK Flexibility Score: inf
ROOT
ATOM      1  C   UNL     1       4.855 -38.637  22.939  1.00  0.00     0.000 C 
ENDROOT
BRANCH   1   2
ATOM      2  C   UNL     1       4.141 -39.094  24.228  1.00  0.00     0.000 C 
BRANCH   2   3
ATOM      3  C   UNL     1       4.412 -38.223  25.468  1.00  0.00     0.000 C 
BRANCH   3   4
ATOM      4  C   UNL     1       5.505 -37.170  25.230  1.00  0.00     0.000 C 
BRANCH   4   5
ATOM      5  C   UNL     1       5.064 -35.797  25.760  1.00  0.00     0.000 C 
BRANCH   5   6
ATOM      6  C   UNL     1       6.125 -34.708  25.538  1.00  0.00     0.000 C 
BRANCH   6   7
ATOM      7  C   UNL     1       6.081 -34.117  24.118  1.00  0.00     0.000 C 
BRANCH   7   8
ATOM      8  C   UNL     1       5.885 -35.192  23.036  1.00  0.00     0.000 C 
BRANCH   8   9
ATOM      9  C   UNL     1       4.445 -35.245  22.504  1.00  0.00     0.000 C 
BRANCH   9  10
ATOM     10  C   UNL     1       3.903 -33.831  22.248  1.00  0.00     0.000 C 
BRANCH  10  11
ATOM     11  C   UNL     1       4.339 -33.256  20.887  1.00  0.00     0.000 C 
BRANCH  11  12
ATOM     12  C   UNL     1       5.558 -33.948  20.248  1.00  0.00     0.006 C 
BRANCH  12  13
ATOM     13  C   UNL     1       5.179 -34.912  19.116  1.00  0.00     0.053 C 
BRANCH  13  14
ATOM     14  C   UNL     1       4.849 -34.159  17.864  1.00  0.00     0.041 C 
ATOM     15  O   UNL     1       3.939 -34.572  17.094  1.00  0.00    -0.550 OA
ATOM     16  O   UNL     1       5.531 -32.987  17.557  1.00  0.00    -0.550 OA
ENDBRANCH  13  14
ENDBRANCH  12  13
ENDBRANCH  11  12
ENDBRANCH  10  11
ENDBRANCH   9  10
ENDBRANCH   8   9
ENDBRANCH   7   8
ENDBRANCH   6   7
ENDBRANCH   5   6
ENDBRANCH   4   5
ENDBRANCH   3   4
ENDBRANCH   2   3
ENDBRANCH   1   2
BRANCH   1  17
ATOM     17  C   UNL     1       5.576 -39.748  22.155  1.00  0.00     0.000 C 
BRANCH  17  18
ATOM     18  C   UNL     1       5.511 -39.543  20.632  1.00  0.00     0.000 C 
BRANCH  18  19
ATOM     19  C   UNL     1       5.802 -38.090  20.212  1.00  0.00     0.000 C 
BRANCH  19  20
ATOM     20  C   UNL     1       4.627 -37.354  19.541  1.00  0.00     0.000 C 
BRANCH  20  21
ATOM     21  C   UNL     1       3.238 -37.983  19.776  1.00  0.00     0.000 C 
BRANCH  21  22
ATOM     22  C   UNL     1       2.355 -38.097  18.520  1.00  0.00    -0.000 C 
BRANCH  22  23
ATOM     23  C   UNL     1       2.758 -37.106  17.418  1.00  0.00    -0.000 C 
BRANCH  23  24
ATOM     24  C   UNL     1       2.320 -37.617  16.036  1.00  0.00    -0.000 C 
BRANCH  24  25
ATOM     25  C   UNL     1       1.822 -36.488  15.120  1.00  0.00    -0.000 C 
BRANCH  25  26
ATOM     26  C   UNL     1       2.887 -36.036  14.105  1.00  0.00    -0.000 C 
BRANCH  26  27
ATOM     27  C   UNL     1       4.169 -36.882  14.174  1.00  0.00    -0.000 C 
BRANCH  27  28
ATOM     28  C   UNL     1       3.948 -38.360  14.549  1.00  0.00    -0.000 C 
BRANCH  28  29
ATOM     29  C   UNL     1       4.978 -39.322  13.918  1.00  0.00    -0.003 C 
ATOM     30  C   UNL     1       4.690 -40.789  14.243  1.00  0.00     0.004 C 
ENDBRANCH  28  29
ENDBRANCH  27  28
ENDBRANCH  26  27
ENDBRANCH  25  26
ENDBRANCH  24  25
ENDBRANCH  23  24
ENDBRANCH  22  23
ENDBRANCH  21  22
ENDBRANCH  20  21
ENDBRANCH  19  20
ENDBRANCH  18  19
ENDBRANCH  17  18
ENDBRANCH   1  17
TORSDOF 26
ENDMDL
