MODEL 1
REMARK VINA RESULT:   112.587      0.000      0.000
REMARK INTER + INTRA:         123.794
REMARK INTER:                 122.459
REMARK INTRA:                   1.335
REMARK UNBOUND:                 1.335
REMARK SMILES C[C@@H]1[C@@H](C)CC[C@@]2(C(=O)[O-])CC[C@]3(C)C(=CC[C@@H]4[C@@]5(C)CC[C@@H](O)C(C)(C)[C@@H]5CC[C@@]43C)[C@@H]12
REMARK SMILES IDX 7 1 6 2 11 3 33 4 5 5 12 6 15 7 2 8 3 9 13 10 16 11 1 12
REMARK SMILES IDX 4 13 14 14 31 15 17 16 18 17 30 18 32 19 19 20 29 21 28 22
REMARK SMILES IDX 21 23 20 24 25 25 22 26 23 27 26 28 27 29 8 30 9 31 10 32
REMARK SMILES IDX 24 33
REMARK H PARENT 24 34
REMARK Flexibility Score: inf
ROOT
ATOM      1  C   UNL     1      -9.976   5.537 -17.366  1.00  0.00     0.017 C 
ATOM      2  C   UNL     1      -9.129   4.458 -16.645  1.00  0.00     0.014 C 
ATOM      3  C   UNL     1     -11.295   5.771 -16.543  1.00  0.00     0.014 C 
ATOM      4  C   UNL     1      -9.099   6.841 -17.544  1.00  0.00     0.030 C 
ATOM      5  C   UNL     1      -7.883   4.069 -17.447  1.00  0.00     0.004 C 
ATOM      6  C   UNL     1     -11.233   6.782 -15.374  1.00  0.00     0.013 C 
ATOM      7  C   UNL     1      -9.147   7.687 -16.258  1.00  0.00    -0.063 C 
ATOM      8  C   UNL     1      -7.654   6.570 -18.143  1.00  0.00    -0.003 C 
ATOM      9  C   UNL     1      -6.931   5.251 -17.671  1.00  0.00    -0.011 C 
ATOM     10  C   UNL     1     -10.528   8.123 -15.744  1.00  0.00    -0.006 C 
ATOM     11  C   UNL     1      -8.114   7.690 -15.401  1.00  0.00    -0.027 C 
ATOM     12  C   UNL     1      -7.689   6.604 -19.685  1.00  0.00     0.008 C 
ATOM     13  C   UNL     1      -5.987   5.426 -16.469  1.00  0.00     0.008 C 
ATOM     14  C   UNL     1     -11.343   8.805 -16.894  1.00  0.00     0.017 C 
ATOM     15  C   UNL     1     -10.375   9.181 -14.511  1.00  0.00    -0.020 C 
ATOM     16  C   UNL     1      -8.346   7.596 -13.928  1.00  0.00     0.032 C 
ATOM     17  C   UNL     1      -9.296   8.700 -13.426  1.00  0.00     0.006 C 
ATOM     18  C   UNL     1     -11.783   9.533 -13.884  1.00  0.00     0.008 C 
ATOM     19  C   UNL     1      -9.833  10.541 -15.077  1.00  0.00     0.012 C 
ATOM     20  C   UNL     1      -9.818   8.508 -11.946  1.00  0.00    -0.025 C 
ATOM     21  C   UNL     1     -11.853  10.009 -12.414  1.00  0.00     0.005 C 
ATOM     22  C   UNL     1     -10.561   9.849 -11.583  1.00  0.00     0.003 C 
ATOM     23  C   UNL     1      -8.592   8.291 -11.007  1.00  0.00     0.010 C 
ATOM     24  C   UNL     1     -10.729   7.248 -11.836  1.00  0.00     0.012 C 
ATOM     25  C   UNL     1     -10.737  10.222 -10.047  1.00  0.00    -0.006 C 
ATOM     26  C   UNL     1      -8.904   8.492  -9.523  1.00  0.00     0.033 C 
ATOM     27  C   UNL     1      -9.433   9.900  -9.242  1.00  0.00     0.120 C 
ATOM     28  C   UNL     1     -11.935   9.511  -9.359  1.00  0.00     0.014 C 
ATOM     29  C   UNL     1     -11.017  11.747  -9.914  1.00  0.00     0.014 C 
ENDROOT
BRANCH   1  30
ATOM     30  C   UNL     1     -10.450   5.019 -18.725  1.00  0.00     0.048 C 
ATOM     31  O   UNL     1      -9.633   4.863 -19.672  1.00  0.00    -0.550 OA
ATOM     32  O   UNL     1     -11.754   4.562 -18.890  1.00  0.00    -0.550 OA
ENDBRANCH   1  30
BRANCH  27  33
ATOM     33  O   UNL     1      -8.413  10.853  -9.431  1.00  0.00    -0.393 OA
ATOM     34  H   UNL     1      -7.694  10.691  -8.768  1.00  0.00     0.210 HD
ENDBRANCH  27  33
TORSDOF 2
ENDMDL
MODEL 2
REMARK VINA RESULT:   114.480      1.677      7.875
REMARK INTER + INTRA:         125.854
REMARK INTER:                 125.540
REMARK INTRA:                   0.314
REMARK UNBOUND:                 1.335
REMARK SMILES C[C@@H]1[C@@H](C)CC[C@@]2(C(=O)[O-])CC[C@]3(C)C(=CC[C@@H]4[C@@]5(C)CC[C@@H](O)C(C)(C)[C@@H]5CC[C@@]43C)[C@@H]12
REMARK SMILES IDX 7 1 6 2 11 3 33 4 5 5 12 6 15 7 2 8 3 9 13 10 16 11 1 12
REMARK SMILES IDX 4 13 14 14 31 15 17 16 18 17 30 18 32 19 19 20 29 21 28 22
REMARK SMILES IDX 21 23 20 24 25 25 22 26 23 27 26 28 27 29 8 30 9 31 10 32
REMARK SMILES IDX 24 33
REMARK H PARENT 24 34
REMARK Flexibility Score: inf
ROOT
ATOM      1  C   UNL     1     -10.142   8.886 -12.390  1.00  0.00     0.017 C 
ATOM      2  C   UNL     1      -9.208   7.927 -11.609  1.00  0.00     0.014 C 
ATOM      3  C   UNL     1      -9.340   9.493 -13.598  1.00  0.00     0.014 C 
ATOM      4  C   UNL     1     -11.440   8.094 -12.824  1.00  0.00     0.030 C 
ATOM      5  C   UNL     1      -9.866   7.387 -10.335  1.00  0.00     0.004 C 
ATOM      6  C   UNL     1      -9.298   8.671 -14.908  1.00  0.00     0.013 C 
ATOM      7  C   UNL     1     -11.173   7.320 -14.129  1.00  0.00    -0.063 C 
ATOM      8  C   UNL     1     -12.113   7.263 -11.650  1.00  0.00    -0.003 C 
ATOM      9  C   UNL     1     -11.135   6.574 -10.624  1.00  0.00    -0.011 C 
ATOM     10  C   UNL     1     -10.690   8.122 -15.347  1.00  0.00    -0.006 C 
ATOM     11  C   UNL     1     -10.956   5.995 -14.106  1.00  0.00    -0.027 C 
ATOM     12  C   UNL     1     -13.125   8.135 -10.878  1.00  0.00     0.008 C 
ATOM     13  C   UNL     1     -10.784   5.112 -10.947  1.00  0.00     0.008 C 
ATOM     14  C   UNL     1     -11.640   9.340 -15.603  1.00  0.00     0.017 C 
ATOM     15  C   UNL     1     -10.668   7.184 -16.682  1.00  0.00    -0.020 C 
ATOM     16  C   UNL     1      -9.860   5.389 -14.922  1.00  0.00     0.032 C 
ATOM     17  C   UNL     1      -9.985   5.758 -16.413  1.00  0.00     0.006 C 
ATOM     18  C   UNL     1     -10.045   7.957 -17.912  1.00  0.00     0.008 C 
ATOM     19  C   UNL     1     -12.147   6.875 -17.105  1.00  0.00     0.012 C 
ATOM     20  C   UNL     1      -8.723   5.400 -17.296  1.00  0.00    -0.025 C 
ATOM     21  C   UNL     1      -9.396   7.146 -19.058  1.00  0.00     0.005 C 
ATOM     22  C   UNL     1      -9.169   5.644 -18.787  1.00  0.00     0.003 C 
ATOM     23  C   UNL     1      -8.365   3.898 -17.071  1.00  0.00     0.010 C 
ATOM     24  C   UNL     1      -7.489   6.251 -16.873  1.00  0.00     0.012 C 
ATOM     25  C   UNL     1      -8.372   4.897 -19.944  1.00  0.00    -0.006 C 
ATOM     26  C   UNL     1      -7.439   3.315 -18.140  1.00  0.00     0.033 C 
ATOM     27  C   UNL     1      -8.053   3.419 -19.538  1.00  0.00     0.120 C 
ATOM     28  C   UNL     1      -7.046   5.599 -20.350  1.00  0.00     0.014 C 
ATOM     29  C   UNL     1      -9.243   4.862 -21.232  1.00  0.00     0.014 C 
ENDROOT
BRANCH   1  30
ATOM     30  C   UNL     1     -10.513  10.090 -11.523  1.00  0.00     0.048 C 
ATOM     31  O   UNL     1     -11.241  11.011 -11.982  1.00  0.00    -0.550 OA
ATOM     32  O   UNL     1     -10.190  10.110 -10.170  1.00  0.00    -0.550 OA
ENDBRANCH   1  30
BRANCH  27  33
ATOM     33  O   UNL     1      -9.164   2.559 -19.650  1.00  0.00    -0.393 OA
ATOM     34  H   UNL     1      -8.896   1.753 -20.160  1.00  0.00     0.210 HD
ENDBRANCH  27  33
TORSDOF 2
ENDMDL
MODEL 3
REMARK VINA RESULT:   115.025      5.143      8.858
REMARK INTER + INTRA:         126.446
REMARK INTER:                 125.358
REMARK INTRA:                   1.088
REMARK UNBOUND:                 1.335
REMARK SMILES C[C@@H]1[C@@H](C)CC[C@@]2(C(=O)[O-])CC[C@]3(C)C(=CC[C@@H]4[C@@]5(C)CC[C@@H](O)C(C)(C)[C@@H]5CC[C@@]43C)[C@@H]12
REMARK SMILES IDX 7 1 6 2 11 3 33 4 5 5 12 6 15 7 2 8 3 9 13 10 16 11 1 12
REMARK SMILES IDX 4 13 14 14 31 15 17 16 18 17 30 18 32 19 19 20 29 21 28 22
REMARK SMILES IDX 21 23 20 24 25 25 22 26 23 27 26 28 27 29 8 30 9 31 10 32
REMARK SMILES IDX 24 33
REMARK H PARENT 24 34
REMARK Flexibility Score: inf
ROOT
ATOM      1  C   UNL     1     -11.184   0.146 -23.424  1.00  0.00     0.017 C 
ATOM      2  C   UNL     1      -9.769   0.080 -24.053  1.00  0.00     0.014 C 
ATOM      3  C   UNL     1     -11.056  -0.103 -21.876  1.00  0.00     0.014 C 
ATOM      4  C   UNL     1     -11.842   1.537 -23.791  1.00  0.00     0.030 C 
ATOM      5  C   UNL     1      -9.810   0.181 -25.582  1.00  0.00     0.004 C 
ATOM      6  C   UNL     1     -10.740   1.120 -20.984  1.00  0.00     0.013 C 
ATOM      7  C   UNL     1     -11.370   2.619 -22.802  1.00  0.00    -0.063 C 
ATOM      8  C   UNL     1     -11.742   1.912 -25.330  1.00  0.00    -0.003 C 
ATOM      9  C   UNL     1     -10.411   1.506 -26.070  1.00  0.00    -0.011 C 
ATOM     10  C   UNL     1     -11.613   2.372 -21.305  1.00  0.00    -0.006 C 
ATOM     11  C   UNL     1     -10.433   3.513 -23.160  1.00  0.00    -0.027 C 
ATOM     12  C   UNL     1     -12.948   1.344 -26.108  1.00  0.00     0.008 C 
ATOM     13  C   UNL     1      -9.338   2.606 -26.121  1.00  0.00     0.008 C 
ATOM     14  C   UNL     1     -13.113   2.001 -21.055  1.00  0.00     0.017 C 
ATOM     15  C   UNL     1     -11.250   3.704 -20.435  1.00  0.00    -0.020 C 
ATOM     16  C   UNL     1      -9.319   3.862 -22.228  1.00  0.00     0.032 C 
ATOM     17  C   UNL     1      -9.844   4.346 -20.863  1.00  0.00     0.006 C 
ATOM     18  C   UNL     1     -11.365   3.421 -18.884  1.00  0.00     0.008 C 
ATOM     19  C   UNL     1     -12.328   4.806 -20.726  1.00  0.00     0.012 C 
ATOM     20  C   UNL     1      -8.746   4.465 -19.731  1.00  0.00    -0.025 C 
ATOM     21  C   UNL     1     -10.541   4.284 -17.900  1.00  0.00     0.005 C 
ATOM     22  C   UNL     1      -9.459   5.189 -18.527  1.00  0.00     0.003 C 
ATOM     23  C   UNL     1      -7.566   5.332 -20.268  1.00  0.00     0.010 C 
ATOM     24  C   UNL     1      -8.176   3.064 -19.360  1.00  0.00     0.012 C 
ATOM     25  C   UNL     1      -8.554   5.941 -17.457  1.00  0.00    -0.006 C 
ATOM     26  C   UNL     1      -6.637   5.862 -19.174  1.00  0.00     0.033 C 
ATOM     27  C   UNL     1      -7.393   6.723 -18.159  1.00  0.00     0.120 C 
ATOM     28  C   UNL     1      -7.943   5.004 -16.378  1.00  0.00     0.014 C 
ATOM     29  C   UNL     1      -9.422   6.972 -16.679  1.00  0.00     0.014 C 
ENDROOT
BRANCH   1  30
ATOM     30  C   UNL     1     -12.048  -1.008 -23.935  1.00  0.00     0.048 C 
ATOM     31  O   UNL     1     -12.160  -1.226 -25.172  1.00  0.00    -0.550 OA
ATOM     32  O   UNL     1     -12.592  -1.929 -23.046  1.00  0.00    -0.550 OA
ENDBRANCH   1  30
BRANCH  27  33
ATOM     33  O   UNL     1      -7.814   7.927 -18.756  1.00  0.00    -0.393 OA
ATOM     34  H   UNL     1      -7.032   8.526 -18.860  1.00  0.00     0.210 HD
ENDBRANCH  27  33
TORSDOF 2
ENDMDL
