MODEL 1
REMARK VINA RESULT:    -4.824      0.000      0.000
REMARK INTER + INTRA:          -8.453
REMARK INTER:                  -7.363
REMARK INTRA:                  -1.091
REMARK UNBOUND:                -1.091
REMARK SMILES CCCCCCCCCCC(=O)[O-]
REMARK SMILES IDX 7 1 8 2 9 3 10 4 11 5 12 6 13 7 6 8 5 9 4 10 3 11 2 12 1 13
REMARK H PARENT
REMARK Flexibility Score: inf
ROOT
ATOM      1  C   UNL     1     -28.224  67.882  86.699  1.00  0.00     0.000 C 
ENDROOT
BRANCH   1   2
ATOM      2  C   UNL     1     -27.340  67.978  85.444  1.00  0.00     0.000 C 
BRANCH   2   3
ATOM      3  C   UNL     1     -27.415  66.715  84.568  1.00  0.00     0.006 C 
BRANCH   3   4
ATOM      4  C   UNL     1     -28.361  66.895  83.373  1.00  0.00     0.053 C 
BRANCH   4   5
ATOM      5  C   UNL     1     -28.426  65.660  82.526  1.00  0.00     0.041 C 
ATOM      6  O   UNL     1     -28.897  64.593  82.997  1.00  0.00    -0.550 OA
ATOM      7  O   UNL     1     -27.933  65.680  81.227  1.00  0.00    -0.550 OA
ENDBRANCH   4   5
ENDBRANCH   3   4
ENDBRANCH   2   3
ENDBRANCH   1   2
BRANCH   1   8
ATOM      8  C   UNL     1     -29.428  68.838  86.647  1.00  0.00     0.000 C 
BRANCH   8   9
ATOM      9  C   UNL     1     -30.605  68.260  85.844  1.00  0.00    -0.000 C 
BRANCH   9  10
ATOM     10  C   UNL     1     -31.216  67.012  86.501  1.00  0.00    -0.000 C 
BRANCH  10  11
ATOM     11  C   UNL     1     -30.972  65.765  85.642  1.00  0.00    -0.000 C 
BRANCH  11  12
ATOM     12  C   UNL     1     -29.999  64.804  86.334  1.00  0.00    -0.003 C 
ATOM     13  C   UNL     1     -30.347  63.350  86.023  1.00  0.00     0.004 C 
ENDBRANCH  11  12
ENDBRANCH  10  11
ENDBRANCH   9  10
ENDBRANCH   8   9
ENDBRANCH   1   8
TORSDOF 9
ENDMDL
MODEL 2
REMARK VINA RESULT:    -4.802      2.491      5.007
REMARK INTER + INTRA:          -8.419
REMARK INTER:                  -7.337
REMARK INTRA:                  -1.082
REMARK UNBOUND:                -1.091
REMARK SMILES CCCCCCCCCCC(=O)[O-]
REMARK SMILES IDX 7 1 8 2 9 3 10 4 11 5 12 6 13 7 6 8 5 9 4 10 3 11 2 12 1 13
REMARK H PARENT
REMARK Flexibility Score: inf
ROOT
ATOM      1  C   UNL     1     -28.930  63.662  84.623  1.00  0.00     0.000 C 
ENDROOT
BRANCH   1   2
ATOM      2  C   UNL     1     -30.096  63.813  85.613  1.00  0.00     0.000 C 
BRANCH   2   3
ATOM      3  C   UNL     1     -30.092  65.174  86.332  1.00  0.00     0.006 C 
BRANCH   3   4
ATOM      4  C   UNL     1     -31.173  66.119  85.789  1.00  0.00     0.053 C 
BRANCH   4   5
ATOM      5  C   UNL     1     -31.208  67.413  86.544  1.00  0.00     0.041 C 
ATOM      6  O   UNL     1     -32.302  67.867  86.970  1.00  0.00    -0.550 OA
ATOM      7  O   UNL     1     -30.038  68.134  86.746  1.00  0.00    -0.550 OA
ENDBRANCH   4   5
ENDBRANCH   3   4
ENDBRANCH   2   3
ENDBRANCH   1   2
BRANCH   1   8
ATOM      8  C   UNL     1     -29.383  63.773  83.156  1.00  0.00     0.000 C 
BRANCH   8   9
ATOM      9  C   UNL     1     -29.581  65.231  82.710  1.00  0.00    -0.000 C 
BRANCH   9  10
ATOM     10  C   UNL     1     -28.266  66.025  82.672  1.00  0.00    -0.000 C 
BRANCH  10  11
ATOM     11  C   UNL     1     -28.281  67.159  83.704  1.00  0.00    -0.000 C 
BRANCH  11  12
ATOM     12  C   UNL     1     -27.257  66.903  84.816  1.00  0.00    -0.003 C 
ATOM     13  C   UNL     1     -26.863  68.203  85.512  1.00  0.00     0.004 C 
ENDBRANCH  11  12
ENDBRANCH  10  11
ENDBRANCH   9  10
ENDBRANCH   8   9
ENDBRANCH   1   8
TORSDOF 9
ENDMDL
MODEL 3
REMARK VINA RESULT:    -4.749      2.371      4.163
REMARK INTER + INTRA:          -8.338
REMARK INTER:                  -7.247
REMARK INTRA:                  -1.092
REMARK UNBOUND:                -1.091
REMARK SMILES CCCCCCCCCCC(=O)[O-]
REMARK SMILES IDX 7 1 8 2 9 3 10 4 11 5 12 6 13 7 6 8 5 9 4 10 3 11 2 12 1 13
REMARK H PARENT
REMARK Flexibility Score: inf
ROOT
ATOM      1  C   UNL     1     -29.519  65.076  82.620  1.00  0.00     0.000 C 
ENDROOT
BRANCH   1   2
ATOM      2  C   UNL     1     -28.207  65.873  82.695  1.00  0.00     0.000 C 
BRANCH   2   3
ATOM      3  C   UNL     1     -28.305  67.092  83.629  1.00  0.00     0.006 C 
BRANCH   3   4
ATOM      4  C   UNL     1     -27.336  66.993  84.815  1.00  0.00     0.053 C 
BRANCH   4   5
ATOM      5  C   UNL     1     -27.435  68.188  85.714  1.00  0.00     0.041 C 
ATOM      6  O   UNL     1     -26.410  68.871  85.975  1.00  0.00    -0.550 OA
ATOM      7  O   UNL     1     -28.653  68.526  86.291  1.00  0.00    -0.550 OA
ENDBRANCH   4   5
ENDBRANCH   3   4
ENDBRANCH   2   3
ENDBRANCH   1   2
BRANCH   1   8
ATOM      8  C   UNL     1     -29.399  63.680  83.256  1.00  0.00     0.000 C 
BRANCH   8   9
ATOM      9  C   UNL     1     -28.990  63.740  84.737  1.00  0.00    -0.000 C 
BRANCH   9  10
ATOM     10  C   UNL     1     -30.193  63.897  85.680  1.00  0.00    -0.000 C 
BRANCH  10  11
ATOM     11  C   UNL     1     -30.232  65.305  86.287  1.00  0.00    -0.000 C 
BRANCH  11  12
ATOM     12  C   UNL     1     -31.249  66.190  85.556  1.00  0.00    -0.003 C 
ATOM     13  C   UNL     1     -31.937  67.150  86.522  1.00  0.00     0.004 C 
ENDBRANCH  11  12
ENDBRANCH  10  11
ENDBRANCH   9  10
ENDBRANCH   8   9
ENDBRANCH   1   8
TORSDOF 9
ENDMDL
MODEL 4
REMARK VINA RESULT:    -4.675      1.209      3.729
REMARK INTER + INTRA:          -8.226
REMARK INTER:                  -7.190
REMARK INTRA:                  -1.037
REMARK UNBOUND:                -1.091
REMARK SMILES CCCCCCCCCCC(=O)[O-]
REMARK SMILES IDX 7 1 8 2 9 3 10 4 11 5 12 6 13 7 6 8 5 9 4 10 3 11 2 12 1 13
REMARK H PARENT
REMARK Flexibility Score: inf
ROOT
ATOM      1  C   UNL     1     -30.560  68.511  85.977  1.00  0.00     0.000 C 
ENDROOT
BRANCH   1   2
ATOM      2  C   UNL     1     -31.295  67.276  86.524  1.00  0.00     0.000 C 
BRANCH   2   3
ATOM      3  C   UNL     1     -31.104  66.032  85.638  1.00  0.00     0.006 C 
BRANCH   3   4
ATOM      4  C   UNL     1     -30.100  65.040  86.243  1.00  0.00     0.053 C 
BRANCH   4   5
ATOM      5  C   UNL     1     -30.036  63.767  85.455  1.00  0.00     0.041 C 
ATOM      6  O   UNL     1     -30.489  62.698  85.941  1.00  0.00    -0.550 OA
ATOM      7  O   UNL     1     -29.443  63.754  84.199  1.00  0.00    -0.550 OA
ENDBRANCH   4   5
ENDBRANCH   3   4
ENDBRANCH   2   3
ENDBRANCH   1   2
BRANCH   1   8
ATOM      8  C   UNL     1     -29.364  68.922  86.855  1.00  0.00     0.000 C 
BRANCH   8   9
ATOM      9  C   UNL     1     -28.186  67.941  86.743  1.00  0.00    -0.000 C 
BRANCH   9  10
ATOM     10  C   UNL     1     -27.400  68.103  85.432  1.00  0.00    -0.000 C 
BRANCH  10  11
ATOM     11  C   UNL     1     -27.545  66.858  84.548  1.00  0.00    -0.000 C 
BRANCH  11  12
ATOM     12  C   UNL     1     -28.503  67.121  83.381  1.00  0.00    -0.003 C 
ATOM     13  C   UNL     1     -28.116  66.299  82.155  1.00  0.00     0.004 C 
ENDBRANCH  11  12
ENDBRANCH  10  11
ENDBRANCH   9  10
ENDBRANCH   8   9
ENDBRANCH   1   8
TORSDOF 9
ENDMDL
MODEL 5
REMARK VINA RESULT:    -4.643      2.652      4.391
REMARK INTER + INTRA:          -8.177
REMARK INTER:                  -7.050
REMARK INTRA:                  -1.127
REMARK UNBOUND:                -1.091
REMARK SMILES CCCCCCCCCCC(=O)[O-]
REMARK SMILES IDX 7 1 8 2 9 3 10 4 11 5 12 6 13 7 6 8 5 9 4 10 3 11 2 12 1 13
REMARK H PARENT
REMARK Flexibility Score: inf
ROOT
ATOM      1  C   UNL     1     -28.231  65.650  86.350  1.00  0.00     0.000 C 
ENDROOT
BRANCH   1   2
ATOM      2  C   UNL     1     -27.417  66.638  85.497  1.00  0.00     0.000 C 
BRANCH   2   3
ATOM      3  C   UNL     1     -27.974  68.071  85.556  1.00  0.00     0.006 C 
BRANCH   3   4
ATOM      4  C   UNL     1     -28.731  68.345  86.863  1.00  0.00     0.053 C 
BRANCH   4   5
ATOM      5  C   UNL     1     -30.136  68.799  86.605  1.00  0.00     0.041 C 
ATOM      6  O   UNL     1     -31.085  67.973  86.639  1.00  0.00    -0.550 OA
ATOM      7  O   UNL     1     -30.392  70.129  86.294  1.00  0.00    -0.550 OA
ENDBRANCH   4   5
ENDBRANCH   3   4
ENDBRANCH   2   3
ENDBRANCH   1   2
BRANCH   1   8
ATOM      8  C   UNL     1     -28.993  64.622  85.495  1.00  0.00     0.000 C 
BRANCH   8   9
ATOM      9  C   UNL     1     -30.261  65.212  84.856  1.00  0.00    -0.000 C 
BRANCH   9  10
ATOM     10  C   UNL     1     -30.085  65.517  83.360  1.00  0.00    -0.000 C 
BRANCH  10  11
ATOM     11  C   UNL     1     -28.971  64.655  82.752  1.00  0.00    -0.000 C 
BRANCH  11  12
ATOM     12  C   UNL     1     -28.204  65.430  81.675  1.00  0.00    -0.003 C 
ATOM     13  C   UNL     1     -28.176  66.924  81.985  1.00  0.00     0.004 C 
ENDBRANCH  11  12
ENDBRANCH  10  11
ENDBRANCH   9  10
ENDBRANCH   8   9
ENDBRANCH   1   8
TORSDOF 9
ENDMDL
MODEL 6
REMARK VINA RESULT:    -4.622      1.108      3.255
REMARK INTER + INTRA:          -8.145
REMARK INTER:                  -7.249
REMARK INTRA:                  -0.896
REMARK UNBOUND:                -1.091
REMARK SMILES CCCCCCCCCCC(=O)[O-]
REMARK SMILES IDX 7 1 8 2 9 3 10 4 11 5 12 6 13 7 6 8 5 9 4 10 3 11 2 12 1 13
REMARK H PARENT
REMARK Flexibility Score: inf
ROOT
ATOM      1  C   UNL     1     -30.171  65.094  86.318  1.00  0.00     0.000 C 
ENDROOT
BRANCH   1   2
ATOM      2  C   UNL     1     -30.096  63.830  85.444  1.00  0.00     0.000 C 
BRANCH   2   3
ATOM      3  C   UNL     1     -28.915  63.860  84.458  1.00  0.00     0.006 C 
BRANCH   3   4
ATOM      4  C   UNL     1     -29.373  64.101  83.013  1.00  0.00     0.053 C 
BRANCH   4   5
ATOM      5  C   UNL     1     -28.804  65.369  82.454  1.00  0.00     0.041 C 
ATOM      6  O   UNL     1     -27.917  65.326  81.562  1.00  0.00    -0.550 OA
ATOM      7  O   UNL     1     -29.228  66.598  82.944  1.00  0.00    -0.550 OA
ENDBRANCH   4   5
ENDBRANCH   3   4
ENDBRANCH   2   3
ENDBRANCH   1   2
BRANCH   1   8
ATOM      8  C   UNL     1     -31.139  66.146  85.749  1.00  0.00     0.000 C 
BRANCH   8   9
ATOM      9  C   UNL     1     -31.055  67.488  86.496  1.00  0.00    -0.000 C 
BRANCH   9  10
ATOM     10  C   UNL     1     -29.992  68.429  85.909  1.00  0.00    -0.000 C 
BRANCH  10  11
ATOM     11  C   UNL     1     -28.673  68.317  86.684  1.00  0.00    -0.000 C 
BRANCH  11  12
ATOM     12  C   UNL     1     -27.472  68.349  85.731  1.00  0.00    -0.003 C 
ATOM     13  C   UNL     1     -27.030  66.938  85.355  1.00  0.00     0.004 C 
ENDBRANCH  11  12
ENDBRANCH  10  11
ENDBRANCH   9  10
ENDBRANCH   8   9
ENDBRANCH   1   8
TORSDOF 9
ENDMDL
MODEL 7
REMARK VINA RESULT:    -4.620      2.696      4.288
REMARK INTER + INTRA:          -8.141
REMARK INTER:                  -7.093
REMARK INTRA:                  -1.048
REMARK UNBOUND:                -1.091
REMARK SMILES CCCCCCCCCCC(=O)[O-]
REMARK SMILES IDX 7 1 8 2 9 3 10 4 11 5 12 6 13 7 6 8 5 9 4 10 3 11 2 12 1 13
REMARK H PARENT
REMARK Flexibility Score: inf
ROOT
ATOM      1  C   UNL     1     -28.884  67.228  83.641  1.00  0.00     0.000 C 
ENDROOT
BRANCH   1   2
ATOM      2  C   UNL     1     -27.859  67.300  84.784  1.00  0.00     0.000 C 
BRANCH   2   3
ATOM      3  C   UNL     1     -28.519  67.299  86.175  1.00  0.00     0.006 C 
BRANCH   3   4
ATOM      4  C   UNL     1     -30.012  66.951  86.106  1.00  0.00     0.053 C 
BRANCH   4   5
ATOM      5  C   UNL     1     -30.872  68.122  86.473  1.00  0.00     0.041 C 
ATOM      6  O   UNL     1     -30.424  69.293  86.370  1.00  0.00    -0.550 OA
ATOM      7  O   UNL     1     -32.156  67.916  86.961  1.00  0.00    -0.550 OA
ENDBRANCH   4   5
ENDBRANCH   3   4
ENDBRANCH   2   3
ENDBRANCH   1   2
BRANCH   1   8
ATOM      8  C   UNL     1     -28.237  66.876  82.290  1.00  0.00     0.000 C 
BRANCH   8   9
ATOM      9  C   UNL     1     -28.368  65.383  81.945  1.00  0.00    -0.000 C 
BRANCH   9  10
ATOM     10  C   UNL     1     -29.537  64.704  82.676  1.00  0.00    -0.000 C 
BRANCH  10  11
ATOM     11  C   UNL     1     -29.067  63.437  83.402  1.00  0.00    -0.000 C 
BRANCH  11  12
ATOM     12  C   UNL     1     -28.941  63.683  84.910  1.00  0.00    -0.003 C 
ATOM     13  C   UNL     1     -30.269  63.440  85.621  1.00  0.00     0.004 C 
ENDBRANCH  11  12
ENDBRANCH  10  11
ENDBRANCH   9  10
ENDBRANCH   8   9
ENDBRANCH   1   8
TORSDOF 9
ENDMDL
MODEL 8
REMARK VINA RESULT:    -4.567      1.304      3.031
REMARK INTER + INTRA:          -8.061
REMARK INTER:                  -6.862
REMARK INTRA:                  -1.199
REMARK UNBOUND:                -1.091
REMARK SMILES CCCCCCCCCCC(=O)[O-]
REMARK SMILES IDX 7 1 8 2 9 3 10 4 11 5 12 6 13 7 6 8 5 9 4 10 3 11 2 12 1 13
REMARK H PARENT
REMARK Flexibility Score: inf
ROOT
ATOM      1  C   UNL     1     -29.387  64.623  86.528  1.00  0.00     0.000 C 
ENDROOT
BRANCH   1   2
ATOM      2  C   UNL     1     -30.134  64.099  85.290  1.00  0.00     0.000 C 
BRANCH   2   3
ATOM      3  C   UNL     1     -29.269  64.129  84.018  1.00  0.00     0.006 C 
BRANCH   3   4
ATOM      4  C   UNL     1     -29.727  65.211  83.031  1.00  0.00     0.053 C 
BRANCH   4   5
ATOM      5  C   UNL     1     -28.565  65.892  82.374  1.00  0.00     0.041 C 
ATOM      6  O   UNL     1     -28.277  67.080  82.671  1.00  0.00    -0.550 OA
ATOM      7  O   UNL     1     -27.823  65.224  81.408  1.00  0.00    -0.550 OA
ENDBRANCH   4   5
ENDBRANCH   3   4
ENDBRANCH   2   3
ENDBRANCH   1   2
BRANCH   1   8
ATOM      8  C   UNL     1     -28.269  65.616  86.166  1.00  0.00     0.000 C 
BRANCH   8   9
ATOM      9  C   UNL     1     -28.443  66.978  86.859  1.00  0.00    -0.000 C 
BRANCH   9  10
ATOM     10  C   UNL     1     -28.712  68.120  85.866  1.00  0.00    -0.000 C 
BRANCH  10  11
ATOM     11  C   UNL     1     -30.174  68.110  85.402  1.00  0.00    -0.000 C 
BRANCH  11  12
ATOM     12  C   UNL     1     -31.129  68.075  86.599  1.00  0.00    -0.003 C 
ATOM     13  C   UNL     1     -32.191  66.992  86.426  1.00  0.00     0.004 C 
ENDBRANCH  11  12
ENDBRANCH  10  11
ENDBRANCH   9  10
ENDBRANCH   8   9
ENDBRANCH   1   8
TORSDOF 9
ENDMDL
MODEL 9
REMARK VINA RESULT:    -4.474      1.660      3.251
REMARK INTER + INTRA:          -7.919
REMARK INTER:                  -7.057
REMARK INTRA:                  -0.862
REMARK UNBOUND:                -1.091
REMARK SMILES CCCCCCCCCCC(=O)[O-]
REMARK SMILES IDX 7 1 8 2 9 3 10 4 11 5 12 6 13 7 6 8 5 9 4 10 3 11 2 12 1 13
REMARK H PARENT
REMARK Flexibility Score: inf
ROOT
ATOM      1  C   UNL     1     -28.586  67.145  83.511  1.00  0.00     0.000 C 
ENDROOT
BRANCH   1   2
ATOM      2  C   UNL     1     -28.222  66.187  82.365  1.00  0.00     0.000 C 
BRANCH   2   3
ATOM      3  C   UNL     1     -29.012  64.868  82.420  1.00  0.00     0.006 C 
BRANCH   3   4
ATOM      4  C   UNL     1     -29.969  64.816  83.619  1.00  0.00     0.053 C 
BRANCH   4   5
ATOM      5  C   UNL     1     -29.580  63.746  84.593  1.00  0.00     0.041 C 
ATOM      6  O   UNL     1     -30.157  63.665  85.708  1.00  0.00    -0.550 OA
ATOM      7  O   UNL     1     -28.556  62.860  84.282  1.00  0.00    -0.550 OA
ENDBRANCH   4   5
ENDBRANCH   3   4
ENDBRANCH   2   3
ENDBRANCH   1   2
BRANCH   1   8
ATOM      8  C   UNL     1     -27.543  67.135  84.642  1.00  0.00     0.000 C 
BRANCH   8   9
ATOM      9  C   UNL     1     -28.184  67.015  86.034  1.00  0.00    -0.000 C 
BRANCH   9  10
ATOM     10  C   UNL     1     -28.701  68.360  86.568  1.00  0.00    -0.000 C 
BRANCH  10  11
ATOM     11  C   UNL     1     -30.229  68.444  86.454  1.00  0.00    -0.000 C 
BRANCH  11  12
ATOM     12  C   UNL     1     -30.856  67.045  86.438  1.00  0.00    -0.003 C 
ATOM     13  C   UNL     1     -32.380  67.125  86.436  1.00  0.00     0.004 C 
ENDBRANCH  11  12
ENDBRANCH  10  11
ENDBRANCH   9  10
ENDBRANCH   8   9
ENDBRANCH   1   8
TORSDOF 9
ENDMDL
