MODEL 1
REMARK VINA RESULT:    10.606      0.000      0.000
REMARK INTER + INTRA:          11.995
REMARK INTER:                  11.846
REMARK INTRA:                   0.150
REMARK UNBOUND:                 0.150
REMARK SMILES CC1(C)CC[C@@]2(C(=O)[O-])[C@H](O)C[C@]3(C)C(=CC[C@H]4[C@]5(C)CC[C@@H](O)C(C)(C)[C@@H]5CC[C@]43C)[C@H]2C1
REMARK SMILES IDX 6 1 5 2 33 3 10 4 4 5 34 6 15 7 12 8 2 9 16 10 13 11 1 12
REMARK SMILES IDX 3 13 17 14 31 15 14 16 18 17 30 18 32 19 19 20 29 21 21 22
REMARK SMILES IDX 20 23 28 24 22 25 25 26 23 27 26 28 27 29 7 30 8 31 9 32
REMARK SMILES IDX 11 33 24 35
REMARK H PARENT 11 34 24 36
REMARK Flexibility Score: inf
ROOT
ATOM      1  C   UNL     1     100.179 110.332 118.225  1.00  0.00     0.042 C 
ATOM      2  C   UNL     1     100.434 108.798 118.335  1.00  0.00     0.017 C 
ATOM      3  C   UNL     1     101.404 111.169 118.807  1.00  0.00     0.030 C 
ATOM      4  C   UNL     1      98.859 110.715 119.002  1.00  0.00     0.127 C 
ATOM      5  C   UNL     1     100.875 108.365 119.729  1.00  0.00     0.007 C 
ATOM      6  C   UNL     1     102.588 110.289 119.336  1.00  0.00     0.015 C 
ATOM      7  C   UNL     1     100.920 112.319 119.720  1.00  0.00    -0.063 C 
ATOM      8  C   UNL     1      98.542 112.239 119.006  1.00  0.00     0.044 C 
ATOM      9  C   UNL     1     102.246 108.976 120.134  1.00  0.00    -0.035 C 
ATOM     10  C   UNL     1     101.191 112.323 121.026  1.00  0.00    -0.027 C 
ATOM     11  C   UNL     1      99.782 113.194 119.194  1.00  0.00    -0.003 C 
ATOM     12  C   UNL     1     102.247 109.213 121.661  1.00  0.00     0.011 C 
ATOM     13  C   UNL     1     103.362 107.941 119.841  1.00  0.00     0.011 C 
ATOM     14  C   UNL     1     100.177 112.738 122.043  1.00  0.00     0.032 C 
ATOM     15  C   UNL     1      99.448 114.441 120.183  1.00  0.00    -0.020 C 
ATOM     16  C   UNL     1     100.212 113.743 117.781  1.00  0.00     0.017 C 
ATOM     17  C   UNL     1      99.289 113.984 121.699  1.00  0.00     0.006 C 
ATOM     18  C   UNL     1     100.558 115.566 120.130  1.00  0.00     0.008 C 
ATOM     19  C   UNL     1      98.089 115.063 119.681  1.00  0.00     0.012 C 
ATOM     20  C   UNL     1      99.450 115.145 122.801  1.00  0.00    -0.025 C 
ATOM     21  C   UNL     1     101.545 115.590 121.310  1.00  0.00     0.005 C 
ATOM     22  C   UNL     1      98.319 116.246 122.668  1.00  0.00     0.010 C 
ATOM     23  C   UNL     1      99.223 114.478 124.215  1.00  0.00     0.012 C 
ATOM     24  C   UNL     1     100.902 115.768 122.728  1.00  0.00     0.003 C 
ATOM     25  C   UNL     1      98.691 117.690 122.218  1.00  0.00     0.033 C 
ATOM     26  C   UNL     1     101.010 117.237 123.304  1.00  0.00    -0.006 C 
ATOM     27  C   UNL     1     100.145 118.183 122.442  1.00  0.00     0.120 C 
ATOM     28  C   UNL     1     100.561 117.307 124.791  1.00  0.00     0.014 C 
ATOM     29  C   UNL     1     102.488 117.732 123.288  1.00  0.00     0.014 C 
ENDROOT
BRANCH   1  30
ATOM     30  C   UNL     1     100.018 110.587 116.726  1.00  0.00     0.051 C 
ATOM     31  O   UNL     1     100.614 111.558 116.184  1.00  0.00    -0.549 OA
ATOM     32  O   UNL     1      99.293 109.719 115.916  1.00  0.00    -0.549 OA
ENDBRANCH   1  30
BRANCH   4  33
ATOM     33  O   UNL     1      97.742 110.016 118.503  1.00  0.00    -0.392 OA
ATOM     34  H   UNL     1      97.292 109.578 119.272  1.00  0.00     0.210 HD
ENDBRANCH   4  33
BRANCH  27  35
ATOM     35  O   UNL     1     100.135 119.472 123.006  1.00  0.00    -0.393 OA
ATOM     36  H   UNL     1     100.952 119.937 122.683  1.00  0.00     0.210 HD
ENDBRANCH  27  35
TORSDOF 3
ENDMDL
MODEL 2
REMARK VINA RESULT:    11.121      5.432      8.772
REMARK INTER + INTRA:          12.572
REMARK INTER:                  12.646
REMARK INTRA:                  -0.075
REMARK UNBOUND:                 0.150
REMARK SMILES CC1(C)CC[C@@]2(C(=O)[O-])[C@H](O)C[C@]3(C)C(=CC[C@H]4[C@]5(C)CC[C@@H](O)C(C)(C)[C@@H]5CC[C@]43C)[C@H]2C1
REMARK SMILES IDX 6 1 5 2 33 3 10 4 4 5 34 6 15 7 12 8 2 9 16 10 13 11 1 12
REMARK SMILES IDX 3 13 17 14 31 15 14 16 18 17 30 18 32 19 19 20 29 21 21 22
REMARK SMILES IDX 20 23 28 24 22 25 25 26 23 27 26 28 27 29 7 30 8 31 9 32
REMARK SMILES IDX 11 33 24 35
REMARK H PARENT 11 34 24 36
REMARK Flexibility Score: inf
ROOT
ATOM      1  C   UNL     1      97.785 111.597 109.876  1.00  0.00     0.042 C 
ATOM      2  C   UNL     1      96.684 112.061 108.876  1.00  0.00     0.017 C 
ATOM      3  C   UNL     1      97.150 111.100 111.252  1.00  0.00     0.030 C 
ATOM      4  C   UNL     1      98.792 112.781 110.155  1.00  0.00     0.127 C 
ATOM      5  C   UNL     1      95.693 113.042 109.492  1.00  0.00     0.007 C 
ATOM      6  C   UNL     1      95.586 111.165 111.295  1.00  0.00     0.015 C 
ATOM      7  C   UNL     1      97.912 111.677 112.467  1.00  0.00    -0.063 C 
ATOM      8  C   UNL     1      99.903 112.441 111.191  1.00  0.00     0.044 C 
ATOM      9  C   UNL     1      94.868 112.407 110.647  1.00  0.00    -0.035 C 
ATOM     10  C   UNL     1      97.326 112.536 113.303  1.00  0.00    -0.027 C 
ATOM     11  C   UNL     1      99.438 111.593 112.437  1.00  0.00    -0.003 C 
ATOM     12  C   UNL     1      94.559 113.503 111.692  1.00  0.00     0.011 C 
ATOM     13  C   UNL     1      93.506 111.927 110.085  1.00  0.00     0.011 C 
ATOM     14  C   UNL     1      98.047 113.728 113.846  1.00  0.00     0.032 C 
ATOM     15  C   UNL     1     100.118 112.115 113.818  1.00  0.00    -0.020 C 
ATOM     16  C   UNL     1      99.831 110.087 112.193  1.00  0.00     0.017 C 
ATOM     17  C   UNL     1      99.539 113.523 114.282  1.00  0.00     0.006 C 
ATOM     18  C   UNL     1      99.920 111.095 115.010  1.00  0.00     0.008 C 
ATOM     19  C   UNL     1     101.663 112.254 113.537  1.00  0.00     0.012 C 
ATOM     20  C   UNL     1      99.756 113.894 115.833  1.00  0.00    -0.025 C 
ATOM     21  C   UNL     1      98.831 111.461 116.034  1.00  0.00     0.005 C 
ATOM     22  C   UNL     1     101.291 114.031 116.198  1.00  0.00     0.010 C 
ATOM     23  C   UNL     1      99.139 115.331 116.057  1.00  0.00     0.012 C 
ATOM     24  C   UNL     1      99.015 112.842 116.753  1.00  0.00     0.003 C 
ATOM     25  C   UNL     1     101.958 112.997 117.151  1.00  0.00     0.033 C 
ATOM     26  C   UNL     1      99.602 112.732 118.218  1.00  0.00    -0.006 C 
ATOM     27  C   UNL     1     101.056 112.216 118.143  1.00  0.00     0.120 C 
ATOM     28  C   UNL     1      99.554 114.097 118.961  1.00  0.00     0.014 C 
ATOM     29  C   UNL     1      98.752 111.752 119.083  1.00  0.00     0.014 C 
ENDROOT
BRANCH   1  30
ATOM     30  C   UNL     1      98.490 110.443 109.162  1.00  0.00     0.051 C 
ATOM     31  O   UNL     1      99.718 110.526 108.890  1.00  0.00    -0.549 OA
ATOM     32  O   UNL     1      97.826 109.255 108.875  1.00  0.00    -0.549 OA
ENDBRANCH   1  30
BRANCH   4  33
ATOM     33  O   UNL     1      99.398 113.236 108.968  1.00  0.00    -0.392 OA
ATOM     34  H   UNL     1      99.694 114.172 109.120  1.00  0.00     0.210 HD
ENDBRANCH   4  33
BRANCH  27  35
ATOM     35  O   UNL     1     101.633 112.221 119.427  1.00  0.00    -0.393 OA
ATOM     36  H   UNL     1     101.915 111.288 119.622  1.00  0.00     0.210 HD
ENDBRANCH  27  35
TORSDOF 3
ENDMDL
