MODEL 1
REMARK VINA RESULT:    -4.801      0.000      0.000
REMARK INTER + INTRA:          -5.605
REMARK INTER:                  -5.503
REMARK INTRA:                  -0.102
REMARK UNBOUND:                -0.102
REMARK SMILES COc1cc(C(=O)[O-])ccc1O
REMARK SMILES IDX 5 1 9 2 4 3 10 4 3 5 11 6 6 7 7 8 8 9 2 10 1 11 12 12
REMARK H PARENT 12 13
REMARK Flexibility Score: inf
ROOT
ATOM      1  C   UNL     1      42.032  21.366   5.569  1.00  0.00     0.001 A 
ATOM      2  C   UNL     1      41.981  22.764   5.685  1.00  0.00     0.014 A 
ATOM      3  C   UNL     1      42.353  20.793   4.325  1.00  0.00     0.060 A 
ATOM      4  C   UNL     1      42.246  23.575   4.580  1.00  0.00     0.051 A 
ATOM      5  C   UNL     1      42.621  21.608   3.207  1.00  0.00     0.161 A 
ATOM      6  C   UNL     1      42.566  23.003   3.344  1.00  0.00     0.157 A 
ENDROOT
BRANCH   1   7
ATOM      7  C   UNL     1      41.749  20.511   6.744  1.00  0.00     0.072 C 
ATOM      8  O   UNL     1      41.721  21.003   7.904  1.00  0.00    -0.545 OA
ATOM      9  O   UNL     1      41.509  19.151   6.584  1.00  0.00    -0.545 OA
ENDBRANCH   1   7
BRANCH   5  10
ATOM     10  O   UNL     1      42.945  21.073   1.950  1.00  0.00    -0.493 OA
ATOM     11  C   UNL     1      41.994  20.574   1.016  1.00  0.00     0.278 C 
ENDBRANCH   5  10
BRANCH   6  12
ATOM     12  O   UNL     1      42.830  23.813   2.241  1.00  0.00    -0.504 OA
ATOM     13  H   UNL     1      42.340  24.688   2.096  1.00  0.00     0.293 HD
ENDBRANCH   6  12
TORSDOF 3
ENDMDL
MODEL 2
REMARK VINA RESULT:    -4.763      2.014      2.633
REMARK INTER + INTRA:          -5.561
REMARK INTER:                  -5.462
REMARK INTRA:                  -0.099
REMARK UNBOUND:                -0.102
REMARK SMILES COc1cc(C(=O)[O-])ccc1O
REMARK SMILES IDX 5 1 9 2 4 3 10 4 3 5 11 6 6 7 7 8 8 9 2 10 1 11 12 12
REMARK H PARENT 12 13
REMARK Flexibility Score: inf
ROOT
ATOM      1  C   UNL     1      41.019  20.204   7.578  1.00  0.00     0.001 A 
ATOM      2  C   UNL     1      40.766  21.533   7.953  1.00  0.00     0.014 A 
ATOM      3  C   UNL     1      41.704  19.949   6.376  1.00  0.00     0.060 A 
ATOM      4  C   UNL     1      41.190  22.588   7.143  1.00  0.00     0.051 A 
ATOM      5  C   UNL     1      42.134  21.012   5.556  1.00  0.00     0.161 A 
ATOM      6  C   UNL     1      41.873  22.332   5.948  1.00  0.00     0.157 A 
ENDROOT
BRANCH   1   7
ATOM      7  C   UNL     1      40.566  19.089   8.440  1.00  0.00     0.072 C 
ATOM      8  O   UNL     1      39.458  19.148   9.037  1.00  0.00    -0.545 OA
ATOM      9  O   UNL     1      41.359  17.958   8.604  1.00  0.00    -0.545 OA
ENDBRANCH   1   7
BRANCH   5  10
ATOM     10  O   UNL     1      42.821  20.797   4.350  1.00  0.00    -0.493 OA
ATOM     11  C   UNL     1      42.198  20.467   3.114  1.00  0.00     0.278 C 
ENDBRANCH   5  10
BRANCH   6  12
ATOM     12  O   UNL     1      42.295  23.387   5.141  1.00  0.00    -0.504 OA
ATOM     13  H   UNL     1      43.027  24.022   5.437  1.00  0.00     0.293 HD
ENDBRANCH   6  12
TORSDOF 3
ENDMDL
MODEL 3
REMARK VINA RESULT:    -4.763      2.007      4.950
REMARK INTER + INTRA:          -5.561
REMARK INTER:                  -5.461
REMARK INTRA:                  -0.100
REMARK UNBOUND:                -0.102
REMARK SMILES COc1cc(C(=O)[O-])ccc1O
REMARK SMILES IDX 5 1 9 2 4 3 10 4 3 5 11 6 6 7 7 8 8 9 2 10 1 11 12 12
REMARK H PARENT 12 13
REMARK Flexibility Score: inf
ROOT
ATOM      1  C   UNL     1      41.903  22.326   6.007  1.00  0.00     0.001 A 
ATOM      2  C   UNL     1      40.927  23.013   6.746  1.00  0.00     0.014 A 
ATOM      3  C   UNL     1      42.461  21.148   6.538  1.00  0.00     0.060 A 
ATOM      4  C   UNL     1      40.515  22.533   7.991  1.00  0.00     0.051 A 
ATOM      5  C   UNL     1      42.047  20.661   7.794  1.00  0.00     0.161 A 
ATOM      6  C   UNL     1      41.071  21.361   8.516  1.00  0.00     0.157 A 
ENDROOT
BRANCH   1   7
ATOM      7  C   UNL     1      42.337  22.839   4.689  1.00  0.00     0.072 C 
ATOM      8  O   UNL     1      42.402  24.078   4.472  1.00  0.00    -0.545 OA
ATOM      9  O   UNL     1      42.680  21.959   3.668  1.00  0.00    -0.545 OA
ENDBRANCH   1   7
BRANCH   5  10
ATOM     10  O   UNL     1      42.580  19.489   8.356  1.00  0.00    -0.493 OA
ATOM     11  C   UNL     1      42.319  18.174   7.877  1.00  0.00     0.278 C 
ENDBRANCH   5  10
BRANCH   6  12
ATOM     12  O   UNL     1      40.658  20.884   9.759  1.00  0.00    -0.504 OA
ATOM     13  H   UNL     1      40.326  21.509  10.484  1.00  0.00     0.293 HD
ENDBRANCH   6  12
TORSDOF 3
ENDMDL
MODEL 4
REMARK VINA RESULT:    -4.551      1.989      3.164
REMARK INTER + INTRA:          -5.318
REMARK INTER:                  -5.358
REMARK INTRA:                   0.040
REMARK UNBOUND:                -0.102
REMARK SMILES COc1cc(C(=O)[O-])ccc1O
REMARK SMILES IDX 5 1 9 2 4 3 10 4 3 5 11 6 6 7 7 8 8 9 2 10 1 11 12 12
REMARK H PARENT 12 13
REMARK Flexibility Score: inf
ROOT
ATOM      1  C   UNL     1      41.103  20.480   7.298  1.00  0.00     0.001 A 
ATOM      2  C   UNL     1      41.363  19.400   6.440  1.00  0.00     0.014 A 
ATOM      3  C   UNL     1      41.507  21.773   6.914  1.00  0.00     0.060 A 
ATOM      4  C   UNL     1      42.015  19.605   5.223  1.00  0.00     0.051 A 
ATOM      5  C   UNL     1      42.164  21.983   5.685  1.00  0.00     0.161 A 
ATOM      6  C   UNL     1      42.415  20.891   4.843  1.00  0.00     0.157 A 
ENDROOT
BRANCH   1   7
ATOM      7  C   UNL     1      40.412  20.257   8.588  1.00  0.00     0.072 C 
ATOM      8  O   UNL     1      40.417  21.146   9.480  1.00  0.00    -0.545 OA
ATOM      9  O   UNL     1      39.745  19.062   8.833  1.00  0.00    -0.545 OA
ENDBRANCH   1   7
BRANCH   5  10
ATOM     10  O   UNL     1      42.582  23.258   5.268  1.00  0.00    -0.493 OA
ATOM     11  C   UNL     1      41.936  24.028   4.260  1.00  0.00     0.278 C 
ENDBRANCH   5  10
BRANCH   6  12
ATOM     12  O   UNL     1      43.066  21.094   3.627  1.00  0.00    -0.504 OA
ATOM     13  H   UNL     1      42.883  20.505   2.823  1.00  0.00     0.293 HD
ENDBRANCH   6  12
TORSDOF 3
ENDMDL
MODEL 5
REMARK VINA RESULT:    -4.306      1.299      4.986
REMARK INTER + INTRA:          -5.037
REMARK INTER:                  -4.949
REMARK INTRA:                  -0.089
REMARK UNBOUND:                -0.102
REMARK SMILES COc1cc(C(=O)[O-])ccc1O
REMARK SMILES IDX 5 1 9 2 4 3 10 4 3 5 11 6 6 7 7 8 8 9 2 10 1 11 12 12
REMARK H PARENT 12 13
REMARK Flexibility Score: inf
ROOT
ATOM      1  C   UNL     1      42.289  21.790   4.642  1.00  0.00     0.001 A 
ATOM      2  C   UNL     1      42.283  20.486   4.122  1.00  0.00     0.014 A 
ATOM      3  C   UNL     1      42.130  21.976   6.028  1.00  0.00     0.060 A 
ATOM      4  C   UNL     1      42.123  19.388   4.970  1.00  0.00     0.051 A 
ATOM      5  C   UNL     1      41.968  20.870   6.886  1.00  0.00     0.161 A 
ATOM      6  C   UNL     1      41.966  19.576   6.348  1.00  0.00     0.157 A 
ENDROOT
BRANCH   1   7
ATOM      7  C   UNL     1      42.458  22.950   3.739  1.00  0.00     0.072 C 
ATOM      8  O   UNL     1      42.503  24.122   4.201  1.00  0.00    -0.545 OA
ATOM      9  O   UNL     1      42.572  22.764   2.365  1.00  0.00    -0.545 OA
ENDBRANCH   1   7
BRANCH   5  10
ATOM     10  O   UNL     1      41.808  21.016   8.274  1.00  0.00    -0.493 OA
ATOM     11  C   UNL     1      40.559  21.224   8.924  1.00  0.00     0.278 C 
ENDBRANCH   5  10
BRANCH   6  12
ATOM     12  O   UNL     1      41.806  18.479   7.192  1.00  0.00    -0.504 OA
ATOM     13  H   UNL     1      41.903  17.529   6.853  1.00  0.00     0.293 HD
ENDBRANCH   6  12
TORSDOF 3
ENDMDL
MODEL 6
REMARK VINA RESULT:    -4.234      1.901      4.528
REMARK INTER + INTRA:          -4.955
REMARK INTER:                  -4.869
REMARK INTRA:                  -0.086
REMARK UNBOUND:                -0.102
REMARK SMILES COc1cc(C(=O)[O-])ccc1O
REMARK SMILES IDX 5 1 9 2 4 3 10 4 3 5 11 6 6 7 7 8 8 9 2 10 1 11 12 12
REMARK H PARENT 12 13
REMARK Flexibility Score: inf
ROOT
ATOM      1  C   UNL     1      42.300  21.440   1.774  1.00  0.00     0.001 A 
ATOM      2  C   UNL     1      42.342  22.809   2.079  1.00  0.00     0.014 A 
ATOM      3  C   UNL     1      42.335  20.502   2.823  1.00  0.00     0.060 A 
ATOM      4  C   UNL     1      42.418  23.235   3.407  1.00  0.00     0.051 A 
ATOM      5  C   UNL     1      42.411  20.928   4.164  1.00  0.00     0.161 A 
ATOM      6  C   UNL     1      42.452  22.301   4.448  1.00  0.00     0.157 A 
ENDROOT
BRANCH   1   7
ATOM      7  C   UNL     1      42.220  20.994   0.365  1.00  0.00     0.072 C 
ATOM      8  O   UNL     1      42.811  19.946  -0.011  1.00  0.00    -0.545 OA
ATOM      9  O   UNL     1      41.489  21.724  -0.566  1.00  0.00    -0.545 OA
ENDBRANCH   1   7
BRANCH   5  10
ATOM     10  O   UNL     1      42.448  20.023   5.236  1.00  0.00    -0.493 OA
ATOM     11  C   UNL     1      41.665  18.837   5.317  1.00  0.00     0.278 C 
ENDBRANCH   5  10
BRANCH   6  12
ATOM     12  O   UNL     1      42.528  22.728   5.773  1.00  0.00    -0.504 OA
ATOM     13  H   UNL     1      42.665  23.703   6.009  1.00  0.00     0.293 HD
ENDBRANCH   6  12
TORSDOF 3
ENDMDL
MODEL 7
REMARK VINA RESULT:    -4.214      8.584     10.268
REMARK INTER + INTRA:          -4.932
REMARK INTER:                  -4.848
REMARK INTRA:                  -0.083
REMARK UNBOUND:                -0.102
REMARK SMILES COc1cc(C(=O)[O-])ccc1O
REMARK SMILES IDX 5 1 9 2 4 3 10 4 3 5 11 6 6 7 7 8 8 9 2 10 1 11 12 12
REMARK H PARENT 12 13
REMARK Flexibility Score: inf
ROOT
ATOM      1  C   UNL     1      40.079  19.506  -4.733  1.00  0.00     0.001 A 
ATOM      2  C   UNL     1      40.420  20.070  -3.493  1.00  0.00     0.014 A 
ATOM      3  C   UNL     1      39.007  20.052  -5.463  1.00  0.00     0.060 A 
ATOM      4  C   UNL     1      39.704  21.159  -2.992  1.00  0.00     0.051 A 
ATOM      5  C   UNL     1      38.283  21.151  -4.960  1.00  0.00     0.161 A 
ATOM      6  C   UNL     1      38.639  21.701  -3.720  1.00  0.00     0.157 A 
ENDROOT
BRANCH   1   7
ATOM      7  C   UNL     1      40.841  18.351  -5.259  1.00  0.00     0.072 C 
ATOM      8  O   UNL     1      40.480  17.774  -6.320  1.00  0.00    -0.545 OA
ATOM      9  O   UNL     1      41.968  17.886  -4.591  1.00  0.00    -0.545 OA
ENDBRANCH   1   7
BRANCH   5  10
ATOM     10  O   UNL     1      37.208  21.723  -5.660  1.00  0.00    -0.493 OA
ATOM     11  C   UNL     1      36.993  21.585  -7.060  1.00  0.00     0.278 C 
ENDBRANCH   5  10
BRANCH   6  12
ATOM     12  O   UNL     1      37.925  22.788  -3.218  1.00  0.00    -0.504 OA
ATOM     13  H   UNL     1      38.204  23.742  -3.415  1.00  0.00     0.293 HD
ENDBRANCH   6  12
TORSDOF 3
ENDMDL
MODEL 8
REMARK VINA RESULT:    -4.094      8.005      9.808
REMARK INTER + INTRA:          -4.795
REMARK INTER:                  -4.693
REMARK INTRA:                  -0.102
REMARK UNBOUND:                -0.102
REMARK SMILES COc1cc(C(=O)[O-])ccc1O
REMARK SMILES IDX 5 1 9 2 4 3 10 4 3 5 11 6 6 7 7 8 8 9 2 10 1 11 12 12
REMARK H PARENT 12 13
REMARK Flexibility Score: inf
ROOT
ATOM      1  C   UNL     1      40.429  20.038  -3.905  1.00  0.00     0.001 A 
ATOM      2  C   UNL     1      39.710  20.852  -3.016  1.00  0.00     0.014 A 
ATOM      3  C   UNL     1      40.013  19.955  -5.247  1.00  0.00     0.060 A 
ATOM      4  C   UNL     1      38.596  21.569  -3.457  1.00  0.00     0.051 A 
ATOM      5  C   UNL     1      38.890  20.678  -5.696  1.00  0.00     0.161 A 
ATOM      6  C   UNL     1      38.185  21.485  -4.792  1.00  0.00     0.157 A 
ENDROOT
BRANCH   1   7
ATOM      7  C   UNL     1      41.608  19.280  -3.432  1.00  0.00     0.072 C 
ATOM      8  O   UNL     1      42.234  19.643  -2.400  1.00  0.00    -0.545 OA
ATOM      9  O   UNL     1      42.044  18.152  -4.120  1.00  0.00    -0.545 OA
ENDBRANCH   1   7
BRANCH   5  10
ATOM     10  O   UNL     1      38.445  20.620  -7.027  1.00  0.00    -0.493 OA
ATOM     11  C   UNL     1      39.121  21.216  -8.129  1.00  0.00     0.278 C 
ENDBRANCH   5  10
BRANCH   6  12
ATOM     12  O   UNL     1      37.073  22.201  -5.231  1.00  0.00    -0.504 OA
ATOM     13  H   UNL     1      37.169  23.034  -5.800  1.00  0.00     0.293 HD
ENDBRANCH   6  12
TORSDOF 3
ENDMDL
