MODEL 1
REMARK VINA RESULT:    -5.846      0.000      0.000
REMARK INTER + INTRA:          -6.934
REMARK INTER:                  -7.043
REMARK INTRA:                   0.109
REMARK UNBOUND:                 0.109
REMARK SMILES O=c1c(O)c(-c2ccc(O)c(O)c2)oc2cc(O)cc(O)c12
REMARK SMILES IDX 5 1 3 2 2 3 1 4 22 5 20 6 19 7 17 8 16 9 15 10 14 11 6 12
REMARK SMILES IDX 7 13 8 14 9 15 13 16 11 17 10 18 12 20 4 22 21 24 18 26
REMARK H PARENT 10 19 12 21 4 23 21 25 18 27
REMARK Flexibility Score: inf
ROOT
ATOM      1  C   UNL     1     -17.055   3.424 -10.342  1.00  0.00     0.180 A 
ATOM      2  C   UNL     1     -16.015   4.098  -9.681  1.00  0.00     0.208 A 
ATOM      3  C   UNL     1     -15.842   5.473  -9.910  1.00  0.00     0.238 A 
ATOM      4  O   UNL     1     -14.875   6.060  -9.358  1.00  0.00    -0.285 OA
ATOM      5  C   UNL     1     -16.721   6.157 -10.784  1.00  0.00     0.111 A 
ATOM      6  C   UNL     1     -16.663   7.557 -11.057  1.00  0.00     0.134 A 
ATOM      7  C   UNL     1     -17.500   8.104 -12.038  1.00  0.00     0.093 A 
ATOM      8  C   UNL     1     -18.437   7.313 -12.707  1.00  0.00     0.123 A 
ATOM      9  C   UNL     1     -18.541   5.959 -12.405  1.00  0.00     0.094 A 
ATOM     10  C   UNL     1     -17.696   5.377 -11.457  1.00  0.00     0.146 A 
ATOM     11  O   UNL     1     -17.822   4.079 -11.206  1.00  0.00    -0.452 OA
ENDROOT
BRANCH   1  12
ATOM     12  C   UNL     1     -17.316   1.980 -10.133  1.00  0.00     0.025 A 
ATOM     13  C   UNL     1     -16.244   1.074 -10.157  1.00  0.00     0.016 A 
ATOM     14  C   UNL     1     -16.469  -0.294  -9.983  1.00  0.00     0.051 A 
ATOM     15  C   UNL     1     -17.767  -0.779  -9.798  1.00  0.00     0.157 A 
ATOM     16  C   UNL     1     -18.623   1.489  -9.967  1.00  0.00     0.062 A 
ATOM     17  C   UNL     1     -18.851   0.115  -9.794  1.00  0.00     0.158 A 
BRANCH  15  18
ATOM     18  O   UNL     1     -17.961  -2.148  -9.625  1.00  0.00    -0.504 OA
ATOM     19  H   UNL     1     -17.186  -2.793  -9.524  1.00  0.00     0.293 HD
ENDBRANCH  15  18
BRANCH  17  20
ATOM     20  O   UNL     1     -20.149  -0.363  -9.625  1.00  0.00    -0.504 OA
ATOM     21  H   UNL     1     -20.954   0.156  -9.955  1.00  0.00     0.293 HD
ENDBRANCH  17  20
ENDBRANCH   1  12
BRANCH   2  22
ATOM     22  O   UNL     1     -15.145   3.399  -8.840  1.00  0.00    -0.502 OA
ATOM     23  H   UNL     1     -15.446   2.995  -7.960  1.00  0.00     0.293 HD
ENDBRANCH   2  22
BRANCH   6  24
ATOM     24  O   UNL     1     -15.827   8.451 -10.381  1.00  0.00    -0.507 OA
ATOM     25  H   UNL     1     -14.947   8.205  -9.955  1.00  0.00     0.293 HD
ENDBRANCH   6  24
BRANCH   8  26
ATOM     26  O   UNL     1     -19.276   7.869 -13.670  1.00  0.00    -0.508 OA
ATOM     27  H   UNL     1     -19.308   8.869 -13.834  1.00  0.00     0.293 HD
ENDBRANCH   8  26
TORSDOF 6
ENDMDL
MODEL 2
REMARK VINA RESULT:    -5.627      4.471     10.373
REMARK INTER + INTRA:          -6.669
REMARK INTER:                  -6.803
REMARK INTRA:                   0.134
REMARK UNBOUND:                 0.109
REMARK SMILES O=c1c(O)c(-c2ccc(O)c(O)c2)oc2cc(O)cc(O)c12
REMARK SMILES IDX 5 1 3 2 2 3 1 4 22 5 20 6 19 7 17 8 16 9 15 10 14 11 6 12
REMARK SMILES IDX 7 13 8 14 9 15 13 16 11 17 10 18 12 20 4 22 21 24 18 26
REMARK H PARENT 10 19 12 21 4 23 21 25 18 27
REMARK Flexibility Score: inf
ROOT
ATOM      1  C   UNL     1     -17.054  -3.417  -9.285  1.00  0.00     0.180 A 
ATOM      2  C   UNL     1     -16.016  -4.088  -9.953  1.00  0.00     0.208 A 
ATOM      3  C   UNL     1     -15.840  -5.464  -9.730  1.00  0.00     0.238 A 
ATOM      4  O   UNL     1     -14.875  -6.048 -10.288  1.00  0.00    -0.285 OA
ATOM      5  C   UNL     1     -16.715  -6.152  -8.855  1.00  0.00     0.111 A 
ATOM      6  C   UNL     1     -16.654  -7.553  -8.587  1.00  0.00     0.134 A 
ATOM      7  C   UNL     1     -17.487  -8.105  -7.605  1.00  0.00     0.093 A 
ATOM      8  C   UNL     1     -18.423  -7.317  -6.929  1.00  0.00     0.123 A 
ATOM      9  C   UNL     1     -18.529  -5.962  -7.226  1.00  0.00     0.094 A 
ATOM     10  C   UNL     1     -17.688  -5.375  -8.175  1.00  0.00     0.146 A 
ATOM     11  O   UNL     1     -17.817  -4.077  -8.421  1.00  0.00    -0.452 OA
ENDROOT
BRANCH   1  12
ATOM     12  C   UNL     1     -17.317  -1.973  -9.488  1.00  0.00     0.025 A 
ATOM     13  C   UNL     1     -16.242  -1.070  -9.497  1.00  0.00     0.016 A 
ATOM     14  C   UNL     1     -16.469   0.298  -9.665  1.00  0.00     0.051 A 
ATOM     15  C   UNL     1     -17.770   0.787  -9.812  1.00  0.00     0.157 A 
ATOM     16  C   UNL     1     -18.627  -1.478  -9.615  1.00  0.00     0.062 A 
ATOM     17  C   UNL     1     -18.857  -0.104  -9.782  1.00  0.00     0.158 A 
BRANCH  15  18
ATOM     18  O   UNL     1     -17.966   2.156  -9.980  1.00  0.00    -0.504 OA
ATOM     19  H   UNL     1     -18.528   2.703  -9.339  1.00  0.00     0.293 HD
ENDBRANCH  15  18
BRANCH  17  20
ATOM     20  O   UNL     1     -20.158   0.377  -9.913  1.00  0.00    -0.504 OA
ATOM     21  H   UNL     1     -20.498   1.150  -9.352  1.00  0.00     0.293 HD
ENDBRANCH  17  20
ENDBRANCH   1  12
BRANCH   2  22
ATOM     22  O   UNL     1     -15.150  -3.385 -10.795  1.00  0.00    -0.502 OA
ATOM     23  H   UNL     1     -14.448  -3.845 -11.362  1.00  0.00     0.293 HD
ENDBRANCH   2  22
BRANCH   6  24
ATOM     24  O   UNL     1     -15.821  -8.444  -9.271  1.00  0.00    -0.507 OA
ATOM     25  H   UNL     1     -16.140  -9.144  -9.922  1.00  0.00     0.293 HD
ENDBRANCH   6  24
BRANCH   8  26
ATOM     26  O   UNL     1     -19.257  -7.877  -5.965  1.00  0.00    -0.508 OA
ATOM     27  H   UNL     1     -20.267  -7.859  -6.061  1.00  0.00     0.293 HD
ENDBRANCH   8  26
TORSDOF 6
ENDMDL
MODEL 3
REMARK VINA RESULT:    -4.826     11.711     12.810
REMARK INTER + INTRA:          -5.704
REMARK INTER:                  -6.255
REMARK INTRA:                   0.551
REMARK UNBOUND:                 0.109
REMARK SMILES O=c1c(O)c(-c2ccc(O)c(O)c2)oc2cc(O)cc(O)c12
REMARK SMILES IDX 5 1 3 2 2 3 1 4 22 5 20 6 19 7 17 8 16 9 15 10 14 11 6 12
REMARK SMILES IDX 7 13 8 14 9 15 13 16 11 17 10 18 12 20 4 22 21 24 18 26
REMARK H PARENT 10 19 12 21 4 23 21 25 18 27
REMARK Flexibility Score: inf
ROOT
ATOM      1  C   UNL     1     -16.707  -8.027 -14.423  1.00  0.00     0.180 A 
ATOM      2  C   UNL     1     -15.766  -8.617 -15.284  1.00  0.00     0.208 A 
ATOM      3  C   UNL     1     -15.763  -8.252 -16.641  1.00  0.00     0.238 A 
ATOM      4  O   UNL     1     -14.954  -8.824 -17.417  1.00  0.00    -0.285 OA
ATOM      5  C   UNL     1     -16.689  -7.292 -17.114  1.00  0.00     0.111 A 
ATOM      6  C   UNL     1     -16.749  -6.820 -18.460  1.00  0.00     0.134 A 
ATOM      7  C   UNL     1     -17.790  -5.966 -18.846  1.00  0.00     0.093 A 
ATOM      8  C   UNL     1     -18.734  -5.517 -17.919  1.00  0.00     0.123 A 
ATOM      9  C   UNL     1     -18.650  -5.926 -16.592  1.00  0.00     0.094 A 
ATOM     10  C   UNL     1     -17.644  -6.806 -16.183  1.00  0.00     0.146 A 
ATOM     11  O   UNL     1     -17.606  -7.179 -14.910  1.00  0.00    -0.452 OA
ENDROOT
BRANCH   1  12
ATOM     12  C   UNL     1     -16.756  -8.342 -12.976  1.00  0.00     0.025 A 
ATOM     13  C   UNL     1     -15.860  -9.281 -12.442  1.00  0.00     0.016 A 
ATOM     14  C   UNL     1     -15.902  -9.608 -11.085  1.00  0.00     0.051 A 
ATOM     15  C   UNL     1     -16.849  -9.017 -10.244  1.00  0.00     0.157 A 
ATOM     16  C   UNL     1     -17.722  -7.763 -12.133  1.00  0.00     0.062 A 
ATOM     17  C   UNL     1     -17.767  -8.092 -10.770  1.00  0.00     0.158 A 
BRANCH  15  18
ATOM     18  O   UNL     1     -16.866  -9.362  -8.893  1.00  0.00    -0.504 OA
ATOM     19  H   UNL     1     -17.692  -9.742  -8.445  1.00  0.00     0.293 HD
ENDBRANCH  15  18
BRANCH  17  20
ATOM     20  O   UNL     1     -18.723  -7.509  -9.940  1.00  0.00    -0.504 OA
ATOM     21  H   UNL     1     -19.128  -8.013  -9.159  1.00  0.00     0.293 HD
ENDBRANCH  17  20
ENDBRANCH   1  12
BRANCH   2  22
ATOM     22  O   UNL     1     -14.875  -9.578 -14.800  1.00  0.00    -0.502 OA
ATOM     23  H   UNL     1     -14.964 -10.563 -15.021  1.00  0.00     0.293 HD
ENDBRANCH   2  22
BRANCH   6  24
ATOM     24  O   UNL     1     -15.802  -7.133 -19.440  1.00  0.00    -0.507 OA
ATOM     25  H   UNL     1     -14.808  -6.993 -19.344  1.00  0.00     0.293 HD
ENDBRANCH   6  24
BRANCH   8  26
ATOM     26  O   UNL     1     -19.757  -4.656 -18.309  1.00  0.00    -0.508 OA
ATOM     27  H   UNL     1     -20.620  -4.582 -17.781  1.00  0.00     0.293 HD
ENDBRANCH   8  26
TORSDOF 6
ENDMDL
MODEL 4
REMARK VINA RESULT:    -4.794      4.372      7.054
REMARK INTER + INTRA:          -5.666
REMARK INTER:                  -6.052
REMARK INTRA:                   0.386
REMARK UNBOUND:                 0.109
REMARK SMILES O=c1c(O)c(-c2ccc(O)c(O)c2)oc2cc(O)cc(O)c12
REMARK SMILES IDX 5 1 3 2 2 3 1 4 22 5 20 6 19 7 17 8 16 9 15 10 14 11 6 12
REMARK SMILES IDX 7 13 8 14 9 15 13 16 11 17 10 18 12 20 4 22 21 24 18 26
REMARK H PARENT 10 19 12 21 4 23 21 25 18 27
REMARK Flexibility Score: inf
ROOT
ATOM      1  C   UNL     1     -16.908   8.191  -8.596  1.00  0.00     0.180 A 
ATOM      2  C   UNL     1     -15.902   9.071  -8.162  1.00  0.00     0.208 A 
ATOM      3  C   UNL     1     -15.741   9.294  -6.784  1.00  0.00     0.238 A 
ATOM      4  O   UNL     1     -14.875  10.125  -6.405  1.00  0.00    -0.285 OA
ATOM      5  C   UNL     1     -16.576   8.622  -5.860  1.00  0.00     0.111 A 
ATOM      6  C   UNL     1     -16.475   8.742  -4.441  1.00  0.00     0.134 A 
ATOM      7  C   UNL     1     -17.437   8.132  -3.626  1.00  0.00     0.093 A 
ATOM      8  C   UNL     1     -18.458   7.354  -4.177  1.00  0.00     0.123 A 
ATOM      9  C   UNL     1     -18.531   7.183  -5.556  1.00  0.00     0.094 A 
ATOM     10  C   UNL     1     -17.607   7.807  -6.398  1.00  0.00     0.146 A 
ATOM     11  O   UNL     1     -17.718   7.626  -7.708  1.00  0.00    -0.452 OA
ENDROOT
BRANCH   1  12
ATOM     12  C   UNL     1     -17.123   7.886 -10.030  1.00  0.00     0.025 A 
ATOM     13  C   UNL     1     -16.750   8.829 -11.000  1.00  0.00     0.016 A 
ATOM     14  C   UNL     1     -16.962   8.572 -12.357  1.00  0.00     0.051 A 
ATOM     15  C   UNL     1     -17.564   7.378 -12.764  1.00  0.00     0.157 A 
ATOM     16  C   UNL     1     -17.747   6.694 -10.440  1.00  0.00     0.062 A 
ATOM     17  C   UNL     1     -17.963   6.435 -11.802  1.00  0.00     0.158 A 
BRANCH  15  18
ATOM     18  O   UNL     1     -17.762   7.148 -14.124  1.00  0.00    -0.504 OA
ATOM     19  H   UNL     1     -16.996   7.155 -14.789  1.00  0.00     0.293 HD
ENDBRANCH  15  18
BRANCH  17  20
ATOM     20  O   UNL     1     -18.577   5.249 -12.199  1.00  0.00    -0.504 OA
ATOM     21  H   UNL     1     -19.263   5.229 -12.946  1.00  0.00     0.293 HD
ENDBRANCH  17  20
ENDBRANCH   1  12
BRANCH   2  22
ATOM     22  O   UNL     1     -15.104   9.741  -9.093  1.00  0.00    -0.502 OA
ATOM     23  H   UNL     1     -15.119  10.748  -9.198  1.00  0.00     0.293 HD
ENDBRANCH   2  22
BRANCH   6  24
ATOM     24  O   UNL     1     -15.441   9.419  -3.787  1.00  0.00    -0.507 OA
ATOM     25  H   UNL     1     -15.439   9.656  -2.807  1.00  0.00     0.293 HD
ENDBRANCH   6  24
BRANCH   8  26
ATOM     26  O   UNL     1     -19.402   6.739  -3.357  1.00  0.00    -0.508 OA
ATOM     27  H   UNL     1     -20.332   7.125  -3.236  1.00  0.00     0.293 HD
ENDBRANCH   8  26
TORSDOF 6
ENDMDL
MODEL 5
REMARK VINA RESULT:    -4.668      4.330      6.319
REMARK INTER + INTRA:          -5.515
REMARK INTER:                  -5.819
REMARK INTRA:                   0.304
REMARK UNBOUND:                 0.109
REMARK SMILES O=c1c(O)c(-c2ccc(O)c(O)c2)oc2cc(O)cc(O)c12
REMARK SMILES IDX 5 1 3 2 2 3 1 4 22 5 20 6 19 7 17 8 16 9 15 10 14 11 6 12
REMARK SMILES IDX 7 13 8 14 9 15 13 16 11 17 10 18 12 20 4 22 21 24 18 26
REMARK H PARENT 10 19 12 21 4 23 21 25 18 27
REMARK Flexibility Score: inf
ROOT
ATOM      1  C   UNL     1     -17.091   8.160  -8.130  1.00  0.00     0.180 A 
ATOM      2  C   UNL     1     -16.348   9.172  -8.762  1.00  0.00     0.208 A 
ATOM      3  C   UNL     1     -16.364   9.252 -10.165  1.00  0.00     0.238 A 
ATOM      4  O   UNL     1     -15.654  10.125 -10.728  1.00  0.00    -0.285 OA
ATOM      5  C   UNL     1     -17.134   8.330 -10.914  1.00  0.00     0.111 A 
ATOM      6  C   UNL     1     -17.255   8.343 -12.336  1.00  0.00     0.134 A 
ATOM      7  C   UNL     1     -17.939   7.304 -12.981  1.00  0.00     0.093 A 
ATOM      8  C   UNL     1     -18.560   6.289 -12.249  1.00  0.00     0.123 A 
ATOM      9  C   UNL     1     -18.498   6.300 -10.859  1.00  0.00     0.094 A 
ATOM     10  C   UNL     1     -17.793   7.303 -10.188  1.00  0.00     0.146 A 
ATOM     11  O   UNL     1     -17.750   7.271  -8.862  1.00  0.00    -0.452 OA
ENDROOT
BRANCH   1  12
ATOM     12  C   UNL     1     -17.143   8.028  -6.655  1.00  0.00     0.025 A 
ATOM     13  C   UNL     1     -16.021   8.381  -5.889  1.00  0.00     0.016 A 
ATOM     14  C   UNL     1     -16.041   8.245  -4.499  1.00  0.00     0.051 A 
ATOM     15  C   UNL     1     -17.174   7.739  -3.855  1.00  0.00     0.157 A 
ATOM     16  C   UNL     1     -18.274   7.500  -6.007  1.00  0.00     0.062 A 
ATOM     17  C   UNL     1     -18.296   7.360  -4.611  1.00  0.00     0.158 A 
BRANCH  15  18
ATOM     18  O   UNL     1     -17.166   7.615  -2.466  1.00  0.00    -0.504 OA
ATOM     19  H   UNL     1     -17.819   8.118  -1.877  1.00  0.00     0.293 HD
ENDBRANCH  15  18
BRANCH  17  20
ATOM     20  O   UNL     1     -19.422   6.841  -3.977  1.00  0.00    -0.504 OA
ATOM     21  H   UNL     1     -19.483   5.863  -3.715  1.00  0.00     0.293 HD
ENDBRANCH  17  20
ENDBRANCH   1  12
BRANCH   2  22
ATOM     22  O   UNL     1     -15.578  10.058  -8.005  1.00  0.00    -0.502 OA
ATOM     23  H   UNL     1     -14.950  10.732  -8.427  1.00  0.00     0.293 HD
ENDBRANCH   2  22
BRANCH   6  24
ATOM     24  O   UNL     1     -16.750   9.359 -13.153  1.00  0.00    -0.507 OA
ATOM     25  H   UNL     1     -16.171   9.209 -13.965  1.00  0.00     0.293 HD
ENDBRANCH   6  24
BRANCH   8  26
ATOM     26  O   UNL     1     -19.251   5.268 -12.898  1.00  0.00    -0.508 OA
ATOM     27  H   UNL     1     -20.012   4.772 -12.447  1.00  0.00     0.293 HD
ENDBRANCH   8  26
TORSDOF 6
ENDMDL
MODEL 6
REMARK VINA RESULT:    -4.608      5.368     11.133
REMARK INTER + INTRA:          -5.442
REMARK INTER:                  -5.251
REMARK INTRA:                  -0.191
REMARK UNBOUND:                 0.109
REMARK SMILES O=c1c(O)c(-c2ccc(O)c(O)c2)oc2cc(O)cc(O)c12
REMARK SMILES IDX 5 1 3 2 2 3 1 4 22 5 20 6 19 7 17 8 16 9 15 10 14 11 6 12
REMARK SMILES IDX 7 13 8 14 9 15 13 16 11 17 10 18 12 20 4 22 21 24 18 26
REMARK H PARENT 10 19 12 21 4 23 21 25 18 27
REMARK Flexibility Score: inf
ROOT
ATOM      1  C   UNL     1     -16.679  -4.610  -9.509  1.00  0.00     0.180 A 
ATOM      2  C   UNL     1     -17.250  -5.379  -8.481  1.00  0.00     0.208 A 
ATOM      3  C   UNL     1     -17.194  -6.780  -8.567  1.00  0.00     0.238 A 
ATOM      4  O   UNL     1     -17.755  -7.463  -7.671  1.00  0.00    -0.285 OA
ATOM      5  C   UNL     1     -16.555  -7.392  -9.671  1.00  0.00     0.111 A 
ATOM      6  C   UNL     1     -16.404  -8.802  -9.841  1.00  0.00     0.134 A 
ATOM      7  C   UNL     1     -15.869  -9.300 -11.036  1.00  0.00     0.093 A 
ATOM      8  C   UNL     1     -15.420  -8.438 -12.039  1.00  0.00     0.123 A 
ATOM      9  C   UNL     1     -15.509  -7.061 -11.858  1.00  0.00     0.094 A 
ATOM     10  C   UNL     1     -16.070  -6.533 -10.692  1.00  0.00     0.146 A 
ATOM     11  O   UNL     1     -16.144  -5.214 -10.564  1.00  0.00    -0.452 OA
ENDROOT
BRANCH   1  12
ATOM     12  C   UNL     1     -16.677  -3.129  -9.476  1.00  0.00     0.025 A 
ATOM     13  C   UNL     1     -15.468  -2.445  -9.272  1.00  0.00     0.016 A 
ATOM     14  C   UNL     1     -15.446  -1.049  -9.216  1.00  0.00     0.051 A 
ATOM     15  C   UNL     1     -16.629  -0.317  -9.347  1.00  0.00     0.157 A 
ATOM     16  C   UNL     1     -17.869  -2.392  -9.587  1.00  0.00     0.062 A 
ATOM     17  C   UNL     1     -17.849  -0.991  -9.530  1.00  0.00     0.158 A 
BRANCH  15  18
ATOM     18  O   UNL     1     -16.576   1.075  -9.290  1.00  0.00    -0.504 OA
ATOM     19  H   UNL     1     -15.719   1.589  -9.458  1.00  0.00     0.293 HD
ENDBRANCH  15  18
BRANCH  17  20
ATOM     20  O   UNL     1     -19.035  -0.268  -9.647  1.00  0.00    -0.504 OA
ATOM     21  H   UNL     1     -19.833  -0.456  -9.051  1.00  0.00     0.293 HD
ENDBRANCH  17  20
ENDBRANCH   1  12
BRANCH   2  22
ATOM     22  O   UNL     1     -17.896  -4.754  -7.411  1.00  0.00    -0.502 OA
ATOM     23  H   UNL     1     -17.570  -3.881  -7.013  1.00  0.00     0.293 HD
ENDBRANCH   2  22
BRANCH   6  24
ATOM     24  O   UNL     1     -16.736  -9.745  -8.864  1.00  0.00    -0.507 OA
ATOM     25  H   UNL     1     -17.664 -10.107  -8.705  1.00  0.00     0.293 HD
ENDBRANCH   6  24
BRANCH   8  26
ATOM     26  O   UNL     1     -14.875  -8.943 -13.217  1.00  0.00    -0.508 OA
ATOM     27  H   UNL     1     -14.517  -8.330 -13.941  1.00  0.00     0.293 HD
ENDBRANCH   8  26
TORSDOF 6
ENDMDL
MODEL 7
REMARK VINA RESULT:    -4.434     11.954     12.876
REMARK INTER + INTRA:          -5.232
REMARK INTER:                  -5.484
REMARK INTRA:                   0.252
REMARK UNBOUND:                 0.109
REMARK SMILES O=c1c(O)c(-c2ccc(O)c(O)c2)oc2cc(O)cc(O)c12
REMARK SMILES IDX 5 1 3 2 2 3 1 4 22 5 20 6 19 7 17 8 16 9 15 10 14 11 6 12
REMARK SMILES IDX 7 13 8 14 9 15 13 16 11 17 10 18 12 20 4 22 21 24 18 26
REMARK H PARENT 10 19 12 21 4 23 21 25 18 27
REMARK Flexibility Score: inf
ROOT
ATOM      1  C   UNL     1     -17.334  -7.811 -14.191  1.00  0.00     0.180 A 
ATOM      2  C   UNL     1     -18.599  -7.234 -14.397  1.00  0.00     0.208 A 
ATOM      3  C   UNL     1     -18.920  -6.734 -15.670  1.00  0.00     0.238 A 
ATOM      4  O   UNL     1     -20.032  -6.169 -15.834  1.00  0.00    -0.285 OA
ATOM      5  C   UNL     1     -17.978  -6.832 -16.722  1.00  0.00     0.111 A 
ATOM      6  C   UNL     1     -18.211  -6.395 -18.061  1.00  0.00     0.134 A 
ATOM      7  C   UNL     1     -17.162  -6.421 -18.989  1.00  0.00     0.093 A 
ATOM      8  C   UNL     1     -15.908  -6.930 -18.643  1.00  0.00     0.123 A 
ATOM      9  C   UNL     1     -15.688  -7.413 -17.356  1.00  0.00     0.094 A 
ATOM     10  C   UNL     1     -16.704  -7.367 -16.398  1.00  0.00     0.146 A 
ATOM     11  O   UNL     1     -16.449  -7.829 -15.180  1.00  0.00    -0.452 OA
ENDROOT
BRANCH   1  12
ATOM     12  C   UNL     1     -16.933  -8.382 -12.884  1.00  0.00     0.025 A 
ATOM     13  C   UNL     1     -16.111  -9.519 -12.850  1.00  0.00     0.016 A 
ATOM     14  C   UNL     1     -15.738 -10.087 -11.629  1.00  0.00     0.051 A 
ATOM     15  C   UNL     1     -16.192  -9.538 -10.426  1.00  0.00     0.157 A 
ATOM     16  C   UNL     1     -17.406  -7.843 -11.674  1.00  0.00     0.062 A 
ATOM     17  C   UNL     1     -17.034  -8.413 -10.446  1.00  0.00     0.158 A 
BRANCH  15  18
ATOM     18  O   UNL     1     -15.802 -10.125  -9.223  1.00  0.00    -0.504 OA
ATOM     19  H   UNL     1     -16.457 -10.615  -8.626  1.00  0.00     0.293 HD
ENDBRANCH  15  18
BRANCH  17  20
ATOM     20  O   UNL     1     -17.502  -7.870  -9.252  1.00  0.00    -0.504 OA
ATOM     21  H   UNL     1     -18.487  -7.881  -9.012  1.00  0.00     0.293 HD
ENDBRANCH  17  20
ENDBRANCH   1  12
BRANCH   2  22
ATOM     22  O   UNL     1     -19.505  -7.127 -13.338  1.00  0.00    -0.502 OA
ATOM     23  H   UNL     1     -19.233  -7.268 -12.373  1.00  0.00     0.293 HD
ENDBRANCH   2  22
BRANCH   6  24
ATOM     24  O   UNL     1     -19.452  -5.955 -18.534  1.00  0.00    -0.507 OA
ATOM     25  H   UNL     1     -19.585  -5.174 -19.157  1.00  0.00     0.293 HD
ENDBRANCH   6  24
BRANCH   8  26
ATOM     26  O   UNL     1     -14.875  -6.967 -19.577  1.00  0.00    -0.508 OA
ATOM     27  H   UNL     1     -14.195  -6.218 -19.646  1.00  0.00     0.293 HD
ENDBRANCH   8  26
TORSDOF 6
ENDMDL
