MODEL 1
REMARK VINA RESULT:    -4.576      0.000      0.000
REMARK INTER + INTRA:          -6.896
REMARK INTER:                  -6.181
REMARK INTRA:                  -0.715
REMARK UNBOUND:                -0.715
REMARK SMILES C[C@@H](O)[C@@H](O)[C@@H](O)[C@H](O)C=O
REMARK SMILES IDX 4 1 2 2 1 3 3 4 6 6 8 7 10 8 11 9 9 10 7 12 5 14
REMARK H PARENT 3 5 9 11 7 13 5 15
REMARK Flexibility Score: inf
ROOT
ATOM      1  C   UNL     1      -7.730  17.392 -13.978  1.00  0.00     0.174 C 
ENDROOT
BRANCH   1   2
ATOM      2  C   UNL     1      -7.916  18.841 -14.516  1.00  0.00     0.142 C 
ATOM      3  C   UNL     1      -8.196  18.848 -16.024  1.00  0.00     0.041 C 
BRANCH   2   4
ATOM      4  O   UNL     1      -8.951  19.506 -13.834  1.00  0.00    -0.391 OA
ATOM      5  H   UNL     1      -8.566  20.331 -13.436  1.00  0.00     0.211 HD
ENDBRANCH   2   4
ENDBRANCH   1   2
BRANCH   1   6
ATOM      6  C   UNL     1      -8.872  16.912 -13.037  1.00  0.00     0.181 C 
BRANCH   6   7
ATOM      7  C   UNL     1      -8.644  15.509 -12.414  1.00  0.00     0.209 C 
BRANCH   7   8
ATOM      8  C   UNL     1      -8.328  14.483 -13.473  1.00  0.00     0.258 C 
ATOM      9  O   UNL     1      -9.180  14.162 -14.287  1.00  0.00    -0.300 OA
ENDBRANCH   7   8
BRANCH   7  10
ATOM     10  O   UNL     1      -7.628  15.529 -11.443  1.00  0.00    -0.383 OA
ATOM     11  H   UNL     1      -7.161  16.402 -11.508  1.00  0.00     0.211 HD
ENDBRANCH   7  10
ENDBRANCH   6   7
BRANCH   6  12
ATOM     12  O   UNL     1     -10.091  16.921 -13.739  1.00  0.00    -0.387 OA
ATOM     13  H   UNL     1     -10.716  16.330 -13.244  1.00  0.00     0.211 HD
ENDBRANCH   6  12
ENDBRANCH   1   6
BRANCH   1  14
ATOM     14  O   UNL     1      -6.470  17.216 -13.372  1.00  0.00    -0.388 OA
ATOM     15  H   UNL     1      -5.775  17.283 -14.076  1.00  0.00     0.211 HD
ENDBRANCH   1  14
TORSDOF 8
ENDMDL
MODEL 2
REMARK VINA RESULT:    -4.478      1.554      4.014
REMARK INTER + INTRA:          -6.763
REMARK INTER:                  -6.206
REMARK INTRA:                  -0.557
REMARK UNBOUND:                -0.715
REMARK SMILES C[C@@H](O)[C@@H](O)[C@@H](O)[C@H](O)C=O
REMARK SMILES IDX 4 1 2 2 1 3 3 4 6 6 8 7 10 8 11 9 9 10 7 12 5 14
REMARK H PARENT 3 5 9 11 7 13 5 15
REMARK Flexibility Score: inf
ROOT
ATOM      1  C   UNL     1      -9.112  16.437 -12.614  1.00  0.00     0.174 C 
ENDROOT
BRANCH   1   2
ATOM      2  C   UNL     1      -8.437  15.099 -12.192  1.00  0.00     0.142 C 
ATOM      3  C   UNL     1      -7.684  14.455 -13.362  1.00  0.00     0.041 C 
BRANCH   2   4
ATOM      4  O   UNL     1      -7.562  15.292 -11.108  1.00  0.00    -0.391 OA
ATOM      5  H   UNL     1      -7.087  14.435 -10.949  1.00  0.00     0.211 HD
ENDBRANCH   2   4
ENDBRANCH   1   2
BRANCH   1   6
ATOM      6  C   UNL     1      -8.484  17.094 -13.877  1.00  0.00     0.181 C 
BRANCH   6   7
ATOM      7  C   UNL     1      -7.993  18.551 -13.667  1.00  0.00     0.209 C 
BRANCH   7   8
ATOM      8  C   UNL     1      -7.057  18.978 -14.770  1.00  0.00     0.258 C 
ATOM      9  O   UNL     1      -7.439  18.978 -15.930  1.00  0.00    -0.300 OA
ENDBRANCH   7   8
BRANCH   7  10
ATOM     10  O   UNL     1      -9.066  19.454 -13.568  1.00  0.00    -0.383 OA
ATOM     11  H   UNL     1      -9.830  18.976 -13.152  1.00  0.00     0.211 HD
ENDBRANCH   7  10
ENDBRANCH   6   7
BRANCH   6  12
ATOM     12  O   UNL     1      -9.412  17.059 -14.933  1.00  0.00    -0.387 OA
ATOM     13  H   UNL     1     -10.073  16.350 -14.716  1.00  0.00     0.211 HD
ENDBRANCH   6  12
ENDBRANCH   1   6
BRANCH   1  14
ATOM     14  O   UNL     1      -9.173  17.354 -11.546  1.00  0.00    -0.388 OA
ATOM     15  H   UNL     1     -10.092  17.337 -11.175  1.00  0.00     0.211 HD
ENDBRANCH   1  14
TORSDOF 8
ENDMDL
MODEL 3
REMARK VINA RESULT:    -4.397      1.117      1.961
REMARK INTER + INTRA:          -6.654
REMARK INTER:                  -6.352
REMARK INTRA:                  -0.302
REMARK UNBOUND:                -0.715
REMARK SMILES C[C@@H](O)[C@@H](O)[C@@H](O)[C@H](O)C=O
REMARK SMILES IDX 4 1 2 2 1 3 3 4 6 6 8 7 10 8 11 9 9 10 7 12 5 14
REMARK H PARENT 3 5 9 11 7 13 5 15
REMARK Flexibility Score: inf
ROOT
ATOM      1  C   UNL     1      -8.724  17.350 -13.471  1.00  0.00     0.174 C 
ENDROOT
BRANCH   1   2
ATOM      2  C   UNL     1      -8.222  18.541 -14.339  1.00  0.00     0.142 C 
ATOM      3  C   UNL     1      -8.291  18.215 -15.836  1.00  0.00     0.041 C 
BRANCH   2   4
ATOM      4  O   UNL     1      -8.958  19.709 -14.069  1.00  0.00    -0.391 OA
ATOM      5  H   UNL     1      -9.689  19.465 -13.442  1.00  0.00     0.211 HD
ENDBRANCH   2   4
ENDBRANCH   1   2
BRANCH   1   6
ATOM      6  C   UNL     1      -7.768  16.123 -13.462  1.00  0.00     0.181 C 
BRANCH   6   7
ATOM      7  C   UNL     1      -8.134  15.030 -12.423  1.00  0.00     0.209 C 
BRANCH   7   8
ATOM      8  C   UNL     1      -7.667  13.668 -12.873  1.00  0.00     0.258 C 
ATOM      9  O   UNL     1      -6.473  13.435 -12.977  1.00  0.00    -0.300 OA
ENDBRANCH   7   8
BRANCH   7  10
ATOM     10  O   UNL     1      -7.613  15.323 -11.151  1.00  0.00    -0.383 OA
ATOM     11  H   UNL     1      -6.622  15.297 -11.214  1.00  0.00     0.211 HD
ENDBRANCH   7  10
ENDBRANCH   6   7
BRANCH   6  12
ATOM     12  O   UNL     1      -6.449  16.559 -13.239  1.00  0.00    -0.387 OA
ATOM     13  H   UNL     1      -6.504  17.495 -12.912  1.00  0.00     0.211 HD
ENDBRANCH   6  12
ENDBRANCH   1   6
BRANCH   1  14
ATOM     14  O   UNL     1     -10.035  16.965 -13.816  1.00  0.00    -0.388 OA
ATOM     15  H   UNL     1     -10.265  17.390 -14.682  1.00  0.00     0.211 HD
ENDBRANCH   1  14
TORSDOF 8
ENDMDL
MODEL 4
REMARK VINA RESULT:    -4.345      1.300      3.919
REMARK INTER + INTRA:          -6.584
REMARK INTER:                  -5.763
REMARK INTRA:                  -0.821
REMARK UNBOUND:                -0.715
REMARK SMILES C[C@@H](O)[C@@H](O)[C@@H](O)[C@H](O)C=O
REMARK SMILES IDX 4 1 2 2 1 3 3 4 6 6 8 7 10 8 11 9 9 10 7 12 5 14
REMARK H PARENT 3 5 9 11 7 13 5 15
REMARK Flexibility Score: inf
ROOT
ATOM      1  C   UNL     1      -8.355  15.002 -12.322  1.00  0.00     0.174 C 
ENDROOT
BRANCH   1   2
ATOM      2  C   UNL     1      -8.085  14.209 -13.634  1.00  0.00     0.142 C 
ATOM      3  C   UNL     1      -7.553  12.801 -13.341  1.00  0.00     0.041 C 
BRANCH   2   4
ATOM      4  O   UNL     1      -9.246  14.128 -14.425  1.00  0.00    -0.391 OA
ATOM      5  H   UNL     1      -9.156  14.792 -15.158  1.00  0.00     0.211 HD
ENDBRANCH   2   4
ENDBRANCH   1   2
BRANCH   1   6
ATOM      6  C   UNL     1      -8.007  16.515 -12.410  1.00  0.00     0.181 C 
BRANCH   6   7
ATOM      7  C   UNL     1      -9.114  17.394 -13.052  1.00  0.00     0.209 C 
BRANCH   7   8
ATOM      8  C   UNL     1      -8.734  17.821 -14.448  1.00  0.00     0.258 C 
ATOM      9  O   UNL     1      -8.869  17.046 -15.382  1.00  0.00    -0.300 OA
ENDBRANCH   7   8
BRANCH   7  10
ATOM     10  O   UNL     1     -10.356  16.736 -13.070  1.00  0.00    -0.383 OA
ATOM     11  H   UNL     1     -10.244  15.885 -13.568  1.00  0.00     0.211 HD
ENDBRANCH   7  10
ENDBRANCH   6   7
BRANCH   6  12
ATOM     12  O   UNL     1      -6.806  16.678 -13.124  1.00  0.00    -0.387 OA
ATOM     13  H   UNL     1      -7.043  16.716 -14.088  1.00  0.00     0.211 HD
ENDBRANCH   6  12
ENDBRANCH   1   6
BRANCH   1  14
ATOM     14  O   UNL     1      -7.730  14.404 -11.210  1.00  0.00    -0.388 OA
ATOM     15  H   UNL     1      -7.084  13.729 -11.542  1.00  0.00     0.211 HD
ENDBRANCH   1  14
TORSDOF 8
ENDMDL
MODEL 5
REMARK VINA RESULT:    -4.300      1.325      3.925
REMARK INTER + INTRA:          -6.523
REMARK INTER:                  -5.947
REMARK INTRA:                  -0.575
REMARK UNBOUND:                -0.715
REMARK SMILES C[C@@H](O)[C@@H](O)[C@@H](O)[C@H](O)C=O
REMARK SMILES IDX 4 1 2 2 1 3 3 4 6 6 8 7 10 8 11 9 9 10 7 12 5 14
REMARK H PARENT 3 5 9 11 7 13 5 15
REMARK Flexibility Score: inf
ROOT
ATOM      1  C   UNL     1      -8.453  15.271 -12.898  1.00  0.00     0.174 C 
ENDROOT
BRANCH   1   2
ATOM      2  C   UNL     1      -7.787  13.904 -13.233  1.00  0.00     0.142 C 
ATOM      3  C   UNL     1      -8.526  13.181 -14.365  1.00  0.00     0.041 C 
BRANCH   2   4
ATOM      4  O   UNL     1      -6.432  14.072 -13.575  1.00  0.00    -0.391 OA
ATOM      5  H   UNL     1      -6.048  13.169 -13.727  1.00  0.00     0.211 HD
ENDBRANCH   2   4
ENDBRANCH   1   2
BRANCH   1   6
ATOM      6  C   UNL     1      -8.586  16.229 -14.117  1.00  0.00     0.181 C 
BRANCH   6   7
ATOM      7  C   UNL     1      -7.452  17.282 -14.233  1.00  0.00     0.209 C 
BRANCH   7   8
ATOM      8  C   UNL     1      -7.926  18.646 -13.797  1.00  0.00     0.258 C 
ATOM      9  O   UNL     1      -8.307  18.824 -12.651  1.00  0.00    -0.300 OA
ENDBRANCH   7   8
BRANCH   7  10
ATOM     10  O   UNL     1      -6.315  16.908 -13.496  1.00  0.00    -0.383 OA
ATOM     11  H   UNL     1      -6.284  17.467 -12.677  1.00  0.00     0.211 HD
ENDBRANCH   7  10
ENDBRANCH   6   7
BRANCH   6  12
ATOM     12  O   UNL     1      -9.830  16.882 -14.066  1.00  0.00    -0.387 OA
ATOM     13  H   UNL     1      -9.755  17.695 -14.631  1.00  0.00     0.211 HD
ENDBRANCH   6  12
ENDBRANCH   1   6
BRANCH   1  14
ATOM     14  O   UNL     1      -7.817  15.914 -11.818  1.00  0.00    -0.388 OA
ATOM     15  H   UNL     1      -8.426  16.618 -11.474  1.00  0.00     0.211 HD
ENDBRANCH   1  14
TORSDOF 8
ENDMDL
MODEL 6
REMARK VINA RESULT:    -4.282      1.196      1.927
REMARK INTER + INTRA:          -6.499
REMARK INTER:                  -5.632
REMARK INTRA:                  -0.868
REMARK UNBOUND:                -0.715
REMARK SMILES C[C@@H](O)[C@@H](O)[C@@H](O)[C@H](O)C=O
REMARK SMILES IDX 4 1 2 2 1 3 3 4 6 6 8 7 10 8 11 9 9 10 7 12 5 14
REMARK H PARENT 3 5 9 11 7 13 5 15
REMARK Flexibility Score: inf
ROOT
ATOM      1  C   UNL     1      -8.363  18.016 -13.151  1.00  0.00     0.174 C 
ENDROOT
BRANCH   1   2
ATOM      2  C   UNL     1      -7.128  18.097 -14.096  1.00  0.00     0.142 C 
ATOM      3  C   UNL     1      -6.690  19.549 -14.325  1.00  0.00     0.041 C 
BRANCH   2   4
ATOM      4  O   UNL     1      -6.053  17.346 -13.588  1.00  0.00    -0.391 OA
ATOM      5  H   UNL     1      -5.329  17.983 -13.349  1.00  0.00     0.211 HD
ENDBRANCH   2   4
ENDBRANCH   1   2
BRANCH   1   6
ATOM      6  C   UNL     1      -9.203  16.717 -13.312  1.00  0.00     0.181 C 
BRANCH   6   7
ATOM      7  C   UNL     1      -8.707  15.520 -12.456  1.00  0.00     0.209 C 
BRANCH   7   8
ATOM      8  C   UNL     1      -8.078  14.454 -13.318  1.00  0.00     0.258 C 
ATOM      9  O   UNL     1      -6.915  14.564 -13.674  1.00  0.00    -0.300 OA
ENDBRANCH   7   8
BRANCH   7  10
ATOM     10  O   UNL     1      -7.804  15.931 -11.460  1.00  0.00    -0.383 OA
ATOM     11  H   UNL     1      -8.032  15.447 -10.624  1.00  0.00     0.211 HD
ENDBRANCH   7  10
ENDBRANCH   6   7
BRANCH   6  12
ATOM     12  O   UNL     1      -9.233  16.343 -14.668  1.00  0.00    -0.387 OA
ATOM     13  H   UNL     1      -8.975  15.386 -14.711  1.00  0.00     0.211 HD
ENDBRANCH   6  12
ENDBRANCH   1   6
BRANCH   1  14
ATOM     14  O   UNL     1      -9.179  19.160 -13.255  1.00  0.00    -0.388 OA
ATOM     15  H   UNL     1      -8.592  19.950 -13.373  1.00  0.00     0.211 HD
ENDBRANCH   1  14
TORSDOF 8
ENDMDL
MODEL 7
REMARK VINA RESULT:    -4.269      1.558      2.068
REMARK INTER + INTRA:          -6.482
REMARK INTER:                  -5.712
REMARK INTRA:                  -0.769
REMARK UNBOUND:                -0.715
REMARK SMILES C[C@@H](O)[C@@H](O)[C@@H](O)[C@H](O)C=O
REMARK SMILES IDX 4 1 2 2 1 3 3 4 6 6 8 7 10 8 11 9 9 10 7 12 5 14
REMARK H PARENT 3 5 9 11 7 13 5 15
REMARK Flexibility Score: inf
ROOT
ATOM      1  C   UNL     1      -8.635  17.915 -14.322  1.00  0.00     0.174 C 
ENDROOT
BRANCH   1   2
ATOM      2  C   UNL     1      -7.721  19.165 -14.154  1.00  0.00     0.142 C 
ATOM      3  C   UNL     1      -8.204  20.334 -15.022  1.00  0.00     0.041 C 
BRANCH   2   4
ATOM      4  O   UNL     1      -7.652  19.564 -12.807  1.00  0.00    -0.391 OA
ATOM      5  H   UNL     1      -8.511  19.314 -12.376  1.00  0.00     0.211 HD
ENDBRANCH   2   4
ENDBRANCH   1   2
BRANCH   1   6
ATOM      6  C   UNL     1      -8.055  16.615 -13.695  1.00  0.00     0.181 C 
BRANCH   6   7
ATOM      7  C   UNL     1      -8.829  16.100 -12.452  1.00  0.00     0.209 C 
BRANCH   7   8
ATOM      8  C   UNL     1      -8.063  15.012 -11.743  1.00  0.00     0.258 C 
ATOM      9  O   UNL     1      -7.550  14.107 -12.384  1.00  0.00    -0.300 OA
ENDBRANCH   7   8
BRANCH   7  10
ATOM     10  O   UNL     1      -9.129  17.141 -11.556  1.00  0.00    -0.383 OA
ATOM     11  H   UNL     1      -8.584  17.930 -11.812  1.00  0.00     0.211 HD
ENDBRANCH   7  10
ENDBRANCH   6   7
BRANCH   6  12
ATOM     12  O   UNL     1      -6.705  16.821 -13.355  1.00  0.00    -0.387 OA
ATOM     13  H   UNL     1      -6.688  17.504 -12.635  1.00  0.00     0.211 HD
ENDBRANCH   6  12
ENDBRANCH   1   6
BRANCH   1  14
ATOM     14  O   UNL     1      -8.998  17.708 -15.667  1.00  0.00    -0.388 OA
ATOM     15  H   UNL     1      -9.870  17.237 -15.685  1.00  0.00     0.211 HD
ENDBRANCH   1  14
TORSDOF 8
ENDMDL
MODEL 8
REMARK VINA RESULT:    -4.157      1.697      4.422
REMARK INTER + INTRA:          -6.330
REMARK INTER:                  -5.572
REMARK INTRA:                  -0.758
REMARK UNBOUND:                -0.715
REMARK SMILES C[C@@H](O)[C@@H](O)[C@@H](O)[C@H](O)C=O
REMARK SMILES IDX 4 1 2 2 1 3 3 4 6 6 8 7 10 8 11 9 9 10 7 12 5 14
REMARK H PARENT 3 5 9 11 7 13 5 15
REMARK Flexibility Score: inf
ROOT
ATOM      1  C   UNL     1      -8.228  14.489 -14.053  1.00  0.00     0.174 C 
ENDROOT
BRANCH   1   2
ATOM      2  C   UNL     1      -7.427  13.256 -13.541  1.00  0.00     0.142 C 
ATOM      3  C   UNL     1      -6.223  12.955 -14.442  1.00  0.00     0.041 C 
BRANCH   2   4
ATOM      4  O   UNL     1      -6.998  13.446 -12.215  1.00  0.00    -0.391 OA
ATOM      5  H   UNL     1      -7.357  14.319 -11.906  1.00  0.00     0.211 HD
ENDBRANCH   2   4
ENDBRANCH   1   2
BRANCH   1   6
ATOM      6  C   UNL     1      -8.268  15.680 -13.053  1.00  0.00     0.181 C 
BRANCH   6   7
ATOM      7  C   UNL     1      -9.364  16.737 -13.356  1.00  0.00     0.209 C 
BRANCH   7   8
ATOM      8  C   UNL     1      -9.145  17.998 -12.558  1.00  0.00     0.258 C 
ATOM      9  O   UNL     1      -8.351  18.839 -12.950  1.00  0.00    -0.300 OA
ENDBRANCH   7   8
BRANCH   7  10
ATOM     10  O   UNL     1      -9.433  17.039 -14.727  1.00  0.00    -0.383 OA
ATOM     11  H   UNL     1      -9.836  16.260 -15.192  1.00  0.00     0.211 HD
ENDBRANCH   7  10
ENDBRANCH   6   7
BRANCH   6  12
ATOM     12  O   UNL     1      -7.009  16.306 -13.020  1.00  0.00    -0.387 OA
ATOM     13  H   UNL     1      -7.078  17.126 -13.577  1.00  0.00     0.211 HD
ENDBRANCH   6  12
ENDBRANCH   1   6
BRANCH   1  14
ATOM     14  O   UNL     1      -9.527  14.135 -14.468  1.00  0.00    -0.388 OA
ATOM     15  H   UNL     1      -9.986  13.691 -13.709  1.00  0.00     0.211 HD
ENDBRANCH   1  14
TORSDOF 8
ENDMDL
MODEL 9
REMARK VINA RESULT:    -3.991      1.554      4.109
REMARK INTER + INTRA:          -6.105
REMARK INTER:                  -5.589
REMARK INTRA:                  -0.517
REMARK UNBOUND:                -0.715
REMARK SMILES C[C@@H](O)[C@@H](O)[C@@H](O)[C@H](O)C=O
REMARK SMILES IDX 4 1 2 2 1 3 3 4 6 6 8 7 10 8 11 9 9 10 7 12 5 14
REMARK H PARENT 3 5 9 11 7 13 5 15
REMARK Flexibility Score: inf
ROOT
ATOM      1  C   UNL     1      -7.997  13.975 -13.388  1.00  0.00     0.174 C 
ENDROOT
BRANCH   1   2
ATOM      2  C   UNL     1      -8.469  13.760 -14.856  1.00  0.00     0.142 C 
ATOM      3  C   UNL     1      -7.548  12.790 -15.606  1.00  0.00     0.041 C 
BRANCH   2   4
ATOM      4  O   UNL     1      -9.795  13.292 -14.898  1.00  0.00    -0.391 OA
ATOM      5  H   UNL     1     -10.285  13.711 -14.142  1.00  0.00     0.211 HD
ENDBRANCH   2   4
ENDBRANCH   1   2
BRANCH   1   6
ATOM      6  C   UNL     1      -8.283  15.399 -12.830  1.00  0.00     0.181 C 
BRANCH   6   7
ATOM      7  C   UNL     1      -7.731  16.556 -13.705  1.00  0.00     0.209 C 
BRANCH   7   8
ATOM      8  C   UNL     1      -8.502  17.831 -13.476  1.00  0.00     0.258 C 
ATOM      9  O   UNL     1      -8.876  18.126 -12.352  1.00  0.00    -0.300 OA
ENDBRANCH   7   8
BRANCH   7  10
ATOM     10  O   UNL     1      -6.361  16.773 -13.479  1.00  0.00    -0.383 OA
ATOM     11  H   UNL     1      -6.270  17.320 -12.656  1.00  0.00     0.211 HD
ENDBRANCH   7  10
ENDBRANCH   6   7
BRANCH   6  12
ATOM     12  O   UNL     1      -7.761  15.505 -11.528  1.00  0.00    -0.387 OA
ATOM     13  H   UNL     1      -8.501  15.814 -10.943  1.00  0.00     0.211 HD
ENDBRANCH   6  12
ENDBRANCH   1   6
BRANCH   1  14
ATOM     14  O   UNL     1      -6.641  13.630 -13.217  1.00  0.00    -0.388 OA
ATOM     15  H   UNL     1      -6.110  14.466 -13.186  1.00  0.00     0.211 HD
ENDBRANCH   1  14
TORSDOF 8
ENDMDL
