MODEL 1
REMARK VINA RESULT:    -4.441      0.000      0.000
REMARK INTER + INTRA:          -5.401
REMARK INTER:                  -6.258
REMARK INTRA:                   0.857
REMARK UNBOUND:                 0.857
REMARK SMILES CC1=CCC(=C(C)C)C(=O)CC(C)=CCC1
REMARK SMILES IDX 12 1 14 2 13 3 15 4 16 5 2 6 1 7 3 8 11 10 9 11 10 12 5 13
REMARK SMILES IDX 6 14 7 15 8 16 4 17
REMARK H PARENT
REMARK Flexibility Score: 60.00
ROOT
ATOM      1  C   UNL     1      18.971 -24.617 -24.617  1.00  0.00    -0.070 C 
ATOM      2  C   UNL     1      19.656 -23.453 -24.723  1.00  0.00    -0.027 C 
ATOM      3  C   UNL     1      19.478 -25.635 -23.627  1.00  0.00     0.039 C 
ENDROOT
BRANCH   2   4
ATOM      4  C   UNL     1      19.270 -22.261 -25.565  1.00  0.00     0.032 C 
BRANCH   4   5
ATOM      5  C   UNL     1      18.864 -21.041 -24.715  1.00  0.00     0.034 C 
BRANCH   5   6
ATOM      6  C   UNL     1      18.012 -21.433 -23.524  1.00  0.00    -0.077 C 
ATOM      7  C   UNL     1      18.619 -21.332 -22.146  1.00  0.00     0.039 C 
ATOM      8  C   UNL     1      16.745 -21.893 -23.626  1.00  0.00    -0.023 CG0
ATOM      9  G   UNL     1      15.981 -22.096 -24.911  1.00  0.00     0.000 G0
ENDBRANCH   5   6
ENDBRANCH   4   5
ENDBRANCH   2   4
BRANCH   1  10
ATOM     10  C   UNL     1      17.695 -24.918 -25.388  1.00  0.00     0.111 C 
BRANCH  10  11
ATOM     11  C   UNL     1      16.466 -24.621 -24.564  1.00  0.00     0.163 C 
ATOM     12  O   UNL     1      16.256 -25.322 -23.538  1.00  0.00    -0.294 OA
BRANCH  11  13
ATOM     13  C   UNL     1      15.483 -23.565 -24.961  1.00  0.00    -0.002 C 
ATOM     14  C   UNL     1      14.197 -23.874 -25.306  1.00  0.00    -0.069 C 
ATOM     15  C   UNL     1      13.220 -22.804 -25.744  1.00  0.00     0.039 C 
ATOM     16  C   UNL     1      13.675 -25.291 -25.234  1.00  0.00     0.039 C 
BRANCH  13  17
ATOM     17  C   UNL     1      15.954 -22.123 -24.894  1.00  0.00     0.066 CG0
ATOM     18  G   UNL     1      16.749 -21.903 -23.630  1.00  0.00     0.000 G0
ENDBRANCH  13  17
ENDBRANCH  11  13
ENDBRANCH  10  11
ENDBRANCH   1  10
TORSDOF 0
ENDMDL
MODEL 2
REMARK VINA RESULT:    -4.356      1.944      3.851
REMARK INTER + INTRA:          -5.282
REMARK INTER:                  -5.914
REMARK INTRA:                   0.632
REMARK UNBOUND:                 0.857
REMARK SMILES CC1=CCC(=C(C)C)C(=O)CC(C)=CCC1
REMARK SMILES IDX 12 1 14 2 13 3 15 4 16 5 2 6 1 7 3 8 11 10 9 11 10 12 5 13
REMARK SMILES IDX 6 14 7 15 8 16 4 17
REMARK H PARENT
REMARK Flexibility Score: 60.00
ROOT
ATOM      1  C   UNL     1      18.228 -23.846 -25.627  1.00  0.00    -0.070 C 
ATOM      2  C   UNL     1      17.156 -23.529 -26.392  1.00  0.00    -0.027 C 
ATOM      3  C   UNL     1      18.388 -25.290 -25.219  1.00  0.00     0.039 C 
ENDROOT
BRANCH   2   4
ATOM      4  C   UNL     1      16.859 -22.178 -26.999  1.00  0.00     0.032 C 
BRANCH   4   5
ATOM      5  C   UNL     1      15.926 -21.325 -26.116  1.00  0.00     0.034 C 
BRANCH   5   6
ATOM      6  C   UNL     1      15.153 -22.168 -25.120  1.00  0.00    -0.077 C 
ATOM      7  C   UNL     1      13.998 -22.994 -25.628  1.00  0.00     0.039 C 
ATOM      8  C   UNL     1      15.423 -22.202 -23.797  1.00  0.00    -0.023 CG0
ATOM      9  G   UNL     1      16.511 -21.423 -23.098  1.00  0.00     0.000 G0
ENDBRANCH   5   6
ENDBRANCH   4   5
ENDBRANCH   2   4
BRANCH   1  10
ATOM     10  C   UNL     1      19.299 -22.847 -25.220  1.00  0.00     0.111 C 
BRANCH  10  11
ATOM     11  C   UNL     1      18.752 -21.799 -24.283  1.00  0.00     0.163 C 
ATOM     12  O   UNL     1      19.119 -20.604 -24.448  1.00  0.00    -0.294 OA
BRANCH  11  13
ATOM     13  C   UNL     1      17.839 -22.149 -23.150  1.00  0.00    -0.002 C 
ATOM     14  C   UNL     1      18.200 -23.050 -22.187  1.00  0.00    -0.069 C 
ATOM     15  C   UNL     1      17.256 -23.427 -21.067  1.00  0.00     0.039 C 
ATOM     16  C   UNL     1      19.571 -23.687 -22.173  1.00  0.00     0.039 C 
BRANCH  13  17
ATOM     17  C   UNL     1      16.518 -21.403 -23.072  1.00  0.00     0.066 CG0
ATOM     18  G   UNL     1      15.441 -22.197 -23.770  1.00  0.00     0.000 G0
ENDBRANCH  13  17
ENDBRANCH  11  13
ENDBRANCH  10  11
ENDBRANCH   1  10
TORSDOF 0
ENDMDL
MODEL 3
REMARK VINA RESULT:    -4.332      1.844      4.055
REMARK INTER + INTRA:          -5.247
REMARK INTER:                  -5.814
REMARK INTRA:                   0.567
REMARK UNBOUND:                 0.857
REMARK SMILES CC1=CCC(=C(C)C)C(=O)CC(C)=CCC1
REMARK SMILES IDX 12 1 14 2 13 3 15 4 16 5 2 6 1 7 3 8 11 10 9 11 10 12 5 13
REMARK SMILES IDX 6 14 7 15 8 16 4 17
REMARK H PARENT
REMARK Flexibility Score: 60.00
ROOT
ATOM      1  C   UNL     1      19.092 -24.231 -24.690  1.00  0.00    -0.070 C 
ATOM      2  C   UNL     1      18.892 -23.257 -25.610  1.00  0.00    -0.027 C 
ATOM      3  C   UNL     1      18.744 -25.644 -25.087  1.00  0.00     0.039 C 
ENDROOT
BRANCH   2   4
ATOM      4  C   UNL     1      19.266 -21.801 -25.466  1.00  0.00     0.032 C 
BRANCH   4   5
ATOM      5  C   UNL     1      18.049 -20.863 -25.582  1.00  0.00     0.034 C 
BRANCH   5   6
ATOM      6  C   UNL     1      16.911 -21.287 -24.674  1.00  0.00    -0.077 C 
ATOM      7  C   UNL     1      15.574 -21.593 -25.301  1.00  0.00     0.039 C 
ATOM      8  C   UNL     1      17.019 -21.383 -23.331  1.00  0.00    -0.023 CG0
ATOM      9  G   UNL     1      18.257 -21.087 -22.521  1.00  0.00     0.000 G0
ENDBRANCH   5   6
ENDBRANCH   4   5
ENDBRANCH   2   4
BRANCH   1  10
ATOM     10  C   UNL     1      19.703 -23.985 -23.320  1.00  0.00     0.111 C 
BRANCH  10  11
ATOM     11  C   UNL     1      18.652 -23.613 -22.303  1.00  0.00     0.163 C 
ATOM     12  O   UNL     1      17.749 -24.454 -22.047  1.00  0.00    -0.294 OA
BRANCH  11  13
ATOM     13  C   UNL     1      18.631 -22.270 -21.642  1.00  0.00    -0.002 C 
ATOM     14  C   UNL     1      18.990 -22.108 -20.333  1.00  0.00    -0.069 C 
ATOM     15  C   UNL     1      18.928 -20.753 -19.661  1.00  0.00     0.039 C 
ATOM     16  C   UNL     1      19.500 -23.263 -19.502  1.00  0.00     0.039 C 
BRANCH  13  17
ATOM     17  C   UNL     1      18.263 -21.080 -22.510  1.00  0.00     0.066 CG0
ATOM     18  G   UNL     1      17.028 -21.398 -23.317  1.00  0.00     0.000 G0
ENDBRANCH  13  17
ENDBRANCH  11  13
ENDBRANCH  10  11
ENDBRANCH   1  10
TORSDOF 0
ENDMDL
MODEL 4
REMARK VINA RESULT:    -4.308      8.644     10.954
REMARK INTER + INTRA:          -5.214
REMARK INTER:                  -5.495
REMARK INTRA:                   0.281
REMARK UNBOUND:                 0.857
REMARK SMILES CC1=CCC(=C(C)C)C(=O)CC(C)=CCC1
REMARK SMILES IDX 12 1 14 2 13 3 15 4 16 5 2 6 1 7 3 8 11 10 9 11 10 12 5 13
REMARK SMILES IDX 6 14 7 15 8 16 4 17
REMARK H PARENT
REMARK Flexibility Score: 60.00
ROOT
ATOM      1  C   UNL     1      21.009 -25.100 -12.733  1.00  0.00    -0.070 C 
ATOM      2  C   UNL     1      19.965 -24.253 -12.902  1.00  0.00    -0.027 C 
ATOM      3  C   UNL     1      21.152 -25.767 -11.388  1.00  0.00     0.039 C 
ENDROOT
BRANCH   2   4
ATOM      4  C   UNL     1      19.572 -23.564 -14.187  1.00  0.00     0.032 C 
BRANCH   4   5
ATOM      5  C   UNL     1      18.775 -24.484 -15.132  1.00  0.00     0.034 C 
BRANCH   5   6
ATOM      6  C   UNL     1      19.285 -24.418 -16.558  1.00  0.00    -0.077 C 
ATOM      7  C   UNL     1      19.076 -23.141 -17.334  1.00  0.00     0.039 C 
ATOM      8  C   UNL     1      19.896 -25.448 -17.185  1.00  0.00    -0.023 CG0
ATOM      9  G   UNL     1      20.163 -26.809 -16.591  1.00  0.00     0.000 G0
ENDBRANCH   5   6
ENDBRANCH   4   5
ENDBRANCH   2   4
BRANCH   1  10
ATOM     10  C   UNL     1      21.992 -25.458 -13.836  1.00  0.00     0.111 C 
BRANCH  10  11
ATOM     11  C   UNL     1      21.631 -26.766 -14.497  1.00  0.00     0.163 C 
ATOM     12  O   UNL     1      21.440 -27.771 -13.760  1.00  0.00    -0.294 OA
BRANCH  11  13
ATOM     13  C   UNL     1      21.547 -26.904 -15.985  1.00  0.00    -0.002 C 
ATOM     14  C   UNL     1      22.656 -27.141 -16.748  1.00  0.00    -0.069 C 
ATOM     15  C   UNL     1      22.569 -27.240 -18.256  1.00  0.00     0.039 C 
ATOM     16  C   UNL     1      24.018 -27.352 -16.125  1.00  0.00     0.039 C 
BRANCH  13  17
ATOM     17  C   UNL     1      20.164 -26.842 -16.607  1.00  0.00     0.066 CG0
ATOM     18  G   UNL     1      19.920 -25.467 -17.178  1.00  0.00     0.000 G0
ENDBRANCH  13  17
ENDBRANCH  11  13
ENDBRANCH  10  11
ENDBRANCH   1  10
TORSDOF 0
ENDMDL
MODEL 5
REMARK VINA RESULT:    -4.252      1.887      2.736
REMARK INTER + INTRA:          -5.134
REMARK INTER:                  -5.945
REMARK INTRA:                   0.811
REMARK UNBOUND:                 0.857
REMARK SMILES CC1=CCC(=C(C)C)C(=O)CC(C)=CCC1
REMARK SMILES IDX 12 1 14 2 13 3 15 4 16 5 2 6 1 7 3 8 11 10 9 11 10 12 5 13
REMARK SMILES IDX 6 14 7 15 8 16 4 17
REMARK H PARENT
REMARK Flexibility Score: 60.00
ROOT
ATOM      1  C   UNL     1      18.855 -24.214 -24.802  1.00  0.00    -0.070 C 
ATOM      2  C   UNL     1      18.996 -24.445 -23.475  1.00  0.00    -0.027 C 
ATOM      3  C   UNL     1      18.122 -25.252 -25.615  1.00  0.00     0.039 C 
ENDROOT
BRANCH   2   4
ATOM      4  C   UNL     1      19.596 -23.500 -22.461  1.00  0.00     0.032 C 
BRANCH   4   5
ATOM      5  C   UNL     1      18.564 -23.004 -21.430  1.00  0.00     0.034 C 
BRANCH   5   6
ATOM      6  C   UNL     1      18.088 -21.596 -21.729  1.00  0.00    -0.077 C 
ATOM      7  C   UNL     1      18.633 -20.466 -20.892  1.00  0.00     0.039 C 
ATOM      8  C   UNL     1      17.183 -21.296 -22.686  1.00  0.00    -0.023 CG0
ATOM      9  G   UNL     1      16.502 -22.288 -23.598  1.00  0.00     0.000 G0
ENDBRANCH   5   6
ENDBRANCH   4   5
ENDBRANCH   2   4
BRANCH   1  10
ATOM     10  C   UNL     1      19.334 -22.947 -25.494  1.00  0.00     0.111 C 
BRANCH  10  11
ATOM     11  C   UNL     1      18.363 -21.809 -25.300  1.00  0.00     0.163 C 
ATOM     12  O   UNL     1      18.816 -20.632 -25.316  1.00  0.00    -0.294 OA
BRANCH  11  13
ATOM     13  C   UNL     1      16.908 -22.045 -25.043  1.00  0.00    -0.002 C 
ATOM     14  C   UNL     1      15.997 -22.098 -26.061  1.00  0.00    -0.069 C 
ATOM     15  C   UNL     1      14.522 -22.298 -25.789  1.00  0.00     0.039 C 
ATOM     16  C   UNL     1      16.420 -21.997 -27.509  1.00  0.00     0.039 C 
BRANCH  13  17
ATOM     17  C   UNL     1      16.494 -22.296 -23.604  1.00  0.00     0.066 CG0
ATOM     18  G   UNL     1      17.178 -21.306 -22.694  1.00  0.00     0.000 G0
ENDBRANCH  13  17
ENDBRANCH  11  13
ENDBRANCH  10  11
ENDBRANCH   1  10
TORSDOF 0
ENDMDL
MODEL 6
REMARK VINA RESULT:    -4.235      2.880      4.795
REMARK INTER + INTRA:          -5.111
REMARK INTER:                  -5.423
REMARK INTRA:                   0.312
REMARK UNBOUND:                 0.857
REMARK SMILES CC1=CCC(=C(C)C)C(=O)CC(C)=CCC1
REMARK SMILES IDX 12 1 14 2 13 3 15 4 16 5 2 6 1 7 3 8 11 10 9 11 10 12 5 13
REMARK SMILES IDX 6 14 7 15 8 16 4 17
REMARK H PARENT
REMARK Flexibility Score: 60.00
ROOT
ATOM      1  C   UNL     1      18.274 -21.474 -24.963  1.00  0.00    -0.070 C 
ATOM      2  C   UNL     1      18.833 -22.593 -25.484  1.00  0.00    -0.027 C 
ATOM      3  C   UNL     1      17.378 -20.661 -25.863  1.00  0.00     0.039 C 
ENDROOT
BRANCH   2   4
ATOM      4  C   UNL     1      19.670 -23.605 -24.739  1.00  0.00     0.032 C 
BRANCH   4   5
ATOM      5  C   UNL     1      18.826 -24.514 -23.826  1.00  0.00     0.034 C 
BRANCH   5   6
ATOM      6  C   UNL     1      19.405 -24.617 -22.428  1.00  0.00    -0.077 C 
ATOM      7  C   UNL     1      20.767 -25.245 -22.263  1.00  0.00     0.039 C 
ATOM      8  C   UNL     1      18.760 -24.201 -21.316  1.00  0.00    -0.023 CG0
ATOM      9  G   UNL     1      17.384 -23.583 -21.273  1.00  0.00     0.000 G0
ENDBRANCH   5   6
ENDBRANCH   4   5
ENDBRANCH   2   4
BRANCH   1  10
ATOM     10  C   UNL     1      18.450 -21.038 -23.518  1.00  0.00     0.111 C 
BRANCH  10  11
ATOM     11  C   UNL     1      17.275 -21.453 -22.667  1.00  0.00     0.163 C 
ATOM     12  O   UNL     1      16.115 -21.224 -23.103  1.00  0.00    -0.294 OA
BRANCH  11  13
ATOM     13  C   UNL     1      17.456 -22.074 -21.317  1.00  0.00    -0.002 C 
ATOM     14  C   UNL     1      17.626 -21.314 -20.193  1.00  0.00    -0.069 C 
ATOM     15  C   UNL     1      17.847 -21.950 -18.838  1.00  0.00     0.039 C 
ATOM     16  C   UNL     1      17.566 -19.804 -20.241  1.00  0.00     0.039 C 
BRANCH  13  17
ATOM     17  C   UNL     1      17.368 -23.588 -21.236  1.00  0.00     0.066 CG0
ATOM     18  G   UNL     1      18.751 -24.185 -21.323  1.00  0.00     0.000 G0
ENDBRANCH  13  17
ENDBRANCH  11  13
ENDBRANCH  10  11
ENDBRANCH   1  10
TORSDOF 0
ENDMDL
MODEL 7
REMARK VINA RESULT:    -4.233      1.532      2.477
REMARK INTER + INTRA:          -5.108
REMARK INTER:                  -5.713
REMARK INTRA:                   0.605
REMARK UNBOUND:                 0.857
REMARK SMILES CC1=CCC(=C(C)C)C(=O)CC(C)=CCC1
REMARK SMILES IDX 12 1 14 2 13 3 15 4 16 5 2 6 1 7 3 8 11 10 9 11 10 12 5 13
REMARK SMILES IDX 6 14 7 15 8 16 4 17
REMARK H PARENT
REMARK Flexibility Score: 60.00
ROOT
ATOM      1  C   UNL     1      17.158 -21.810 -26.215  1.00  0.00    -0.070 C 
ATOM      2  C   UNL     1      18.283 -21.516 -25.519  1.00  0.00    -0.027 C 
ATOM      3  C   UNL     1      16.277 -20.658 -26.632  1.00  0.00     0.039 C 
ENDROOT
BRANCH   2   4
ATOM      4  C   UNL     1      19.354 -22.493 -25.096  1.00  0.00     0.032 C 
BRANCH   4   5
ATOM      5  C   UNL     1      19.273 -22.848 -23.599  1.00  0.00     0.034 C 
BRANCH   5   6
ATOM      6  C   UNL     1      18.282 -21.974 -22.856  1.00  0.00    -0.077 C 
ATOM      7  C   UNL     1      18.743 -20.620 -22.376  1.00  0.00     0.039 C 
ATOM      8  C   UNL     1      17.014 -22.348 -22.576  1.00  0.00    -0.023 CG0
ATOM      9  G   UNL     1      16.383 -23.669 -22.941  1.00  0.00     0.000 G0
ENDBRANCH   5   6
ENDBRANCH   4   5
ENDBRANCH   2   4
BRANCH   1  10
ATOM     10  C   UNL     1      16.778 -23.216 -26.650  1.00  0.00     0.111 C 
BRANCH  10  11
ATOM     11  C   UNL     1      16.444 -24.091 -25.466  1.00  0.00     0.163 C 
ATOM     12  O   UNL     1      16.780 -25.305 -25.511  1.00  0.00    -0.294 OA
BRANCH  11  13
ATOM     13  C   UNL     1      15.690 -23.568 -24.284  1.00  0.00    -0.002 C 
ATOM     14  C   UNL     1      14.419 -23.079 -24.401  1.00  0.00    -0.069 C 
ATOM     15  C   UNL     1      13.677 -22.517 -23.207  1.00  0.00     0.039 C 
ATOM     16  C   UNL     1      13.676 -23.108 -25.718  1.00  0.00     0.039 C 
BRANCH  13  17
ATOM     17  C   UNL     1      16.370 -23.672 -22.931  1.00  0.00     0.066 CG0
ATOM     18  G   UNL     1      17.007 -22.350 -22.575  1.00  0.00     0.000 G0
ENDBRANCH  13  17
ENDBRANCH  11  13
ENDBRANCH  10  11
ENDBRANCH   1  10
TORSDOF 0
ENDMDL
MODEL 8
REMARK VINA RESULT:    -4.162      2.061      4.834
REMARK INTER + INTRA:          -5.008
REMARK INTER:                  -5.776
REMARK INTRA:                   0.769
REMARK UNBOUND:                 0.857
REMARK SMILES CC1=CCC(=C(C)C)C(=O)CC(C)=CCC1
REMARK SMILES IDX 12 1 14 2 13 3 15 4 16 5 2 6 1 7 3 8 11 10 9 11 10 12 5 13
REMARK SMILES IDX 6 14 7 15 8 16 4 17
REMARK H PARENT
REMARK Flexibility Score: 60.00
ROOT
ATOM      1  C   UNL     1      17.533 -21.477 -25.749  1.00  0.00    -0.070 C 
ATOM      2  C   UNL     1      17.620 -22.705 -26.313  1.00  0.00    -0.027 C 
ATOM      3  C   UNL     1      16.493 -20.531 -26.297  1.00  0.00     0.039 C 
ENDROOT
BRANCH   2   4
ATOM      4  C   UNL     1      18.509 -23.838 -25.857  1.00  0.00     0.032 C 
BRANCH   4   5
ATOM      5  C   UNL     1      17.715 -25.116 -25.524  1.00  0.00     0.034 C 
BRANCH   5   6
ATOM      6  C   UNL     1      16.722 -24.895 -24.400  1.00  0.00    -0.077 C 
ATOM      7  C   UNL     1      15.281 -25.275 -24.634  1.00  0.00     0.039 C 
ATOM      8  C   UNL     1      17.049 -24.354 -23.205  1.00  0.00    -0.023 CG0
ATOM      9  G   UNL     1      18.423 -23.881 -22.797  1.00  0.00     0.000 G0
ENDBRANCH   5   6
ENDBRANCH   4   5
ENDBRANCH   2   4
BRANCH   1  10
ATOM     10  C   UNL     1      18.374 -21.031 -24.563  1.00  0.00     0.111 C 
BRANCH  10  11
ATOM     11  C   UNL     1      17.749 -21.445 -23.253  1.00  0.00     0.163 C 
ATOM     12  O   UNL     1      16.663 -20.902 -22.916  1.00  0.00    -0.294 OA
BRANCH  11  13
ATOM     13  C   UNL     1      18.407 -22.431 -22.339  1.00  0.00    -0.002 C 
ATOM     14  C   UNL     1      18.895 -22.062 -21.117  1.00  0.00    -0.069 C 
ATOM     15  C   UNL     1      19.593 -23.057 -20.215  1.00  0.00     0.039 C 
ATOM     16  C   UNL     1      18.732 -20.655 -20.589  1.00  0.00     0.039 C 
BRANCH  13  17
ATOM     17  C   UNL     1      18.443 -23.878 -22.796  1.00  0.00     0.066 CG0
ATOM     18  G   UNL     1      17.058 -24.322 -23.198  1.00  0.00     0.000 G0
ENDBRANCH  13  17
ENDBRANCH  11  13
ENDBRANCH  10  11
ENDBRANCH   1  10
TORSDOF 0
ENDMDL
MODEL 9
REMARK VINA RESULT:    -4.048      1.847      3.220
REMARK INTER + INTRA:          -4.847
REMARK INTER:                  -5.545
REMARK INTRA:                   0.698
REMARK UNBOUND:                 0.857
REMARK SMILES CC1=CCC(=C(C)C)C(=O)CC(C)=CCC1
REMARK SMILES IDX 12 1 14 2 13 3 15 4 16 5 2 6 1 7 3 8 11 10 9 11 10 12 5 13
REMARK SMILES IDX 6 14 7 15 8 16 4 17
REMARK H PARENT
REMARK Flexibility Score: 60.00
ROOT
ATOM      1  C   UNL     1      19.286 -23.695 -24.977  1.00  0.00    -0.070 C 
ATOM      2  C   UNL     1      20.002 -23.908 -23.847  1.00  0.00    -0.027 C 
ATOM      3  C   UNL     1      19.508 -22.394 -25.707  1.00  0.00     0.039 C 
ENDROOT
BRANCH   2   4
ATOM      4  C   UNL     1      20.018 -25.173 -23.023  1.00  0.00     0.032 C 
BRANCH   4   5
ATOM      5  C   UNL     1      19.224 -25.034 -21.710  1.00  0.00     0.034 C 
BRANCH   5   6
ATOM      6  C   UNL     1      17.828 -25.614 -21.821  1.00  0.00    -0.077 C 
ATOM      7  C   UNL     1      17.623 -27.060 -21.445  1.00  0.00     0.039 C 
ATOM      8  C   UNL     1      16.758 -24.917 -22.264  1.00  0.00    -0.023 CG0
ATOM      9  G   UNL     1      16.770 -23.477 -22.717  1.00  0.00     0.000 G0
ENDBRANCH   5   6
ENDBRANCH   4   5
ENDBRANCH   2   4
BRANCH   1  10
ATOM     10  C   UNL     1      18.331 -24.716 -25.576  1.00  0.00     0.111 C 
BRANCH  10  11
ATOM     11  C   UNL     1      16.930 -24.543 -25.044  1.00  0.00     0.163 C 
ATOM     12  O   UNL     1      16.064 -25.405 -25.357  1.00  0.00    -0.294 OA
BRANCH  11  13
ATOM     13  C   UNL     1      16.540 -23.363 -24.210  1.00  0.00    -0.002 C 
ATOM     14  C   UNL     1      15.934 -22.266 -24.756  1.00  0.00    -0.069 C 
ATOM     15  C   UNL     1      15.578 -21.061 -23.912  1.00  0.00     0.039 C 
ATOM     16  C   UNL     1      15.556 -22.215 -26.219  1.00  0.00     0.039 C 
BRANCH  13  17
ATOM     17  C   UNL     1      16.780 -23.466 -22.714  1.00  0.00     0.066 CG0
ATOM     18  G   UNL     1      16.751 -24.914 -22.290  1.00  0.00     0.000 G0
ENDBRANCH  13  17
ENDBRANCH  11  13
ENDBRANCH  10  11
ENDBRANCH   1  10
TORSDOF 0
ENDMDL
