MODEL 1
REMARK VINA RESULT:    -4.697      0.000      0.000
REMARK INTER + INTRA:         -10.465
REMARK INTER:                  -8.815
REMARK INTRA:                  -1.650
REMARK UNBOUND:                -1.650
REMARK SMILES O=C([O-])CCCCCCCCCCCCCCC(=O)[O-]
REMARK SMILES IDX 10 1 9 2 8 3 7 4 6 5 5 6 4 7 2 8 1 9 3 10 11 11 12 12 13 13
REMARK SMILES IDX 14 14 15 15 16 16 17 17 18 18 19 19 20 20
REMARK H PARENT
REMARK Flexibility Score: inf
ROOT
ATOM      1  C   UNL     1      22.765   7.916  13.010  1.00  0.00     0.000 C 
ENDROOT
BRANCH   1   2
ATOM      2  C   UNL     1      23.844   6.883  13.393  1.00  0.00     0.000 C 
BRANCH   2   3
ATOM      3  C   UNL     1      25.281   7.260  12.996  1.00  0.00     0.000 C 
BRANCH   3   4
ATOM      4  C   UNL     1      26.008   6.136  12.242  1.00  0.00     0.000 C 
BRANCH   4   5
ATOM      5  C   UNL     1      25.649   6.156  10.749  1.00  0.00     0.000 C 
BRANCH   5   6
ATOM      6  C   UNL     1      25.605   7.578  10.168  1.00  0.00     0.006 C 
BRANCH   6   7
ATOM      7  C   UNL     1      24.256   7.907   9.514  1.00  0.00     0.053 C 
BRANCH   7   8
ATOM      8  C   UNL     1      23.829   9.296   9.869  1.00  0.00     0.041 C 
ATOM      9  O   UNL     1      24.444   9.940  10.760  1.00  0.00    -0.550 OA
ATOM     10  O   UNL     1      22.720   9.862   9.251  1.00  0.00    -0.550 OA
ENDBRANCH   7   8
ENDBRANCH   6   7
ENDBRANCH   5   6
ENDBRANCH   4   5
ENDBRANCH   3   4
ENDBRANCH   2   3
ENDBRANCH   1   2
BRANCH   1  11
ATOM     11  C   UNL     1      21.654   7.388  12.083  1.00  0.00     0.000 C 
BRANCH  11  12
ATOM     12  C   UNL     1      20.598   8.434  11.676  1.00  0.00     0.000 C 
BRANCH  12  13
ATOM     13  C   UNL     1      19.327   7.822  11.050  1.00  0.00     0.000 C 
BRANCH  13  14
ATOM     14  C   UNL     1      19.323   6.287  11.109  1.00  0.00     0.000 C 
BRANCH  14  15
ATOM     15  C   UNL     1      19.381   5.682   9.701  1.00  0.00     0.000 C 
BRANCH  15  16
ATOM     16  C   UNL     1      20.141   6.605   8.737  1.00  0.00     0.006 C 
BRANCH  16  17
ATOM     17  C   UNL     1      19.364   6.855   7.438  1.00  0.00     0.053 C 
BRANCH  17  18
ATOM     18  C   UNL     1      19.535   8.260   6.950  1.00  0.00     0.041 C 
ATOM     19  O   UNL     1      20.687   8.719   6.729  1.00  0.00    -0.550 OA
ATOM     20  O   UNL     1      18.423   9.074   6.770  1.00  0.00    -0.550 OA
ENDBRANCH  17  18
ENDBRANCH  16  17
ENDBRANCH  15  16
ENDBRANCH  14  15
ENDBRANCH  13  14
ENDBRANCH  12  13
ENDBRANCH  11  12
ENDBRANCH   1  11
TORSDOF 15
ENDMDL
MODEL 2
REMARK VINA RESULT:    -4.613      2.295      3.420
REMARK INTER + INTRA:         -10.307
REMARK INTER:                  -8.578
REMARK INTRA:                  -1.729
REMARK UNBOUND:                -1.650
REMARK SMILES O=C([O-])CCCCCCCCCCCCCCC(=O)[O-]
REMARK SMILES IDX 10 1 9 2 8 3 7 4 6 5 5 6 4 7 2 8 1 9 3 10 11 11 12 12 13 13
REMARK SMILES IDX 14 14 15 15 16 16 17 17 18 18 19 19 20 20
REMARK H PARENT
REMARK Flexibility Score: inf
ROOT
ATOM      1  C   UNL     1      22.658   9.803   9.975  1.00  0.00     0.000 C 
ENDROOT
BRANCH   1   2
ATOM      2  C   UNL     1      23.787   8.823   9.593  1.00  0.00     0.000 C 
BRANCH   2   3
ATOM      3  C   UNL     1      24.982   8.793  10.562  1.00  0.00     0.000 C 
BRANCH   3   4
ATOM      4  C   UNL     1      24.670   9.445  11.917  1.00  0.00     0.000 C 
BRANCH   4   5
ATOM      5  C   UNL     1      25.171   8.570  13.075  1.00  0.00     0.000 C 
BRANCH   5   6
ATOM      6  C   UNL     1      25.224   7.078  12.712  1.00  0.00     0.006 C 
BRANCH   6   7
ATOM      7  C   UNL     1      23.959   6.320  13.138  1.00  0.00     0.053 C 
BRANCH   7   8
ATOM      8  C   UNL     1      24.259   4.867  13.324  1.00  0.00     0.041 C 
ATOM      9  O   UNL     1      25.256   4.347  12.757  1.00  0.00    -0.550 OA
ATOM     10  O   UNL     1      23.409   4.073  14.084  1.00  0.00    -0.550 OA
ENDBRANCH   7   8
ENDBRANCH   6   7
ENDBRANCH   5   6
ENDBRANCH   4   5
ENDBRANCH   3   4
ENDBRANCH   2   3
ENDBRANCH   1   2
BRANCH   1  11
ATOM     11  C   UNL     1      21.288   9.151  10.236  1.00  0.00     0.000 C 
BRANCH  11  12
ATOM     12  C   UNL     1      21.141   8.482  11.616  1.00  0.00     0.000 C 
BRANCH  12  13
ATOM     13  C   UNL     1      20.818   6.975  11.544  1.00  0.00     0.000 C 
BRANCH  13  14
ATOM     14  C   UNL     1      19.394   6.701  11.039  1.00  0.00     0.000 C 
BRANCH  14  15
ATOM     15  C   UNL     1      19.408   5.720   9.860  1.00  0.00     0.000 C 
BRANCH  15  16
ATOM     16  C   UNL     1      18.952   6.410   8.565  1.00  0.00     0.006 C 
BRANCH  16  17
ATOM     17  C   UNL     1      20.128   6.996   7.774  1.00  0.00     0.053 C 
BRANCH  17  18
ATOM     18  C   UNL     1      19.741   8.247   7.048  1.00  0.00     0.041 C 
ATOM     19  O   UNL     1      18.526   8.531   6.877  1.00  0.00    -0.550 OA
ATOM     20  O   UNL     1      20.723   9.084   6.531  1.00  0.00    -0.550 OA
ENDBRANCH  17  18
ENDBRANCH  16  17
ENDBRANCH  15  16
ENDBRANCH  14  15
ENDBRANCH  13  14
ENDBRANCH  12  13
ENDBRANCH  11  12
ENDBRANCH   1  11
TORSDOF 15
ENDMDL
MODEL 3
REMARK VINA RESULT:    -4.550      2.093      6.439
REMARK INTER + INTRA:         -10.190
REMARK INTER:                  -8.328
REMARK INTRA:                  -1.862
REMARK UNBOUND:                -1.650
REMARK SMILES O=C([O-])CCCCCCCCCCCCCCC(=O)[O-]
REMARK SMILES IDX 10 1 9 2 8 3 7 4 6 5 5 6 4 7 2 8 1 9 3 10 11 11 12 12 13 13
REMARK SMILES IDX 14 14 15 15 16 16 17 17 18 18 19 19 20 20
REMARK H PARENT
REMARK Flexibility Score: inf
ROOT
ATOM      1  C   UNL     1      21.462   9.215  10.345  1.00  0.00     0.000 C 
ENDROOT
BRANCH   1   2
ATOM      2  C   UNL     1      21.531   8.397  11.652  1.00  0.00     0.000 C 
BRANCH   2   3
ATOM      3  C   UNL     1      20.918   6.989  11.575  1.00  0.00     0.000 C 
BRANCH   3   4
ATOM      4  C   UNL     1      19.476   6.992  11.046  1.00  0.00     0.000 C 
BRANCH   4   5
ATOM      5  C   UNL     1      19.244   5.823  10.077  1.00  0.00     0.000 C 
BRANCH   5   6
ATOM      6  C   UNL     1      19.011   6.288   8.631  1.00  0.00     0.006 C 
BRANCH   6   7
ATOM      7  C   UNL     1      20.224   7.024   8.044  1.00  0.00     0.053 C 
BRANCH   7   8
ATOM      8  C   UNL     1      19.776   8.159   7.179  1.00  0.00     0.041 C 
ATOM      9  O   UNL     1      18.553   8.321   6.928  1.00  0.00    -0.550 OA
ATOM     10  O   UNL     1      20.715   9.009   6.607  1.00  0.00    -0.550 OA
ENDBRANCH   7   8
ENDBRANCH   6   7
ENDBRANCH   5   6
ENDBRANCH   4   5
ENDBRANCH   3   4
ENDBRANCH   2   3
ENDBRANCH   1   2
BRANCH   1  11
ATOM     11  C   UNL     1      22.825   9.590   9.736  1.00  0.00     0.000 C 
BRANCH  11  12
ATOM     12  C   UNL     1      23.916   8.510   9.873  1.00  0.00     0.000 C 
BRANCH  12  13
ATOM     13  C   UNL     1      25.167   8.986  10.641  1.00  0.00     0.000 C 
BRANCH  13  14
ATOM     14  C   UNL     1      24.922  10.289  11.416  1.00  0.00     0.000 C 
BRANCH  14  15
ATOM     15  C   UNL     1      24.633  10.004  12.895  1.00  0.00     0.000 C 
BRANCH  15  16
ATOM     16  C   UNL     1      25.243   8.661  13.326  1.00  0.00     0.006 C 
BRANCH  16  17
ATOM     17  C   UNL     1      24.237   7.782  14.080  1.00  0.00     0.053 C 
BRANCH  17  18
ATOM     18  C   UNL     1      24.515   6.324  13.881  1.00  0.00     0.041 C 
ATOM     19  O   UNL     1      23.736   5.619  13.186  1.00  0.00    -0.550 OA
ATOM     20  O   UNL     1      25.616   5.736  14.490  1.00  0.00    -0.550 OA
ENDBRANCH  17  18
ENDBRANCH  16  17
ENDBRANCH  15  16
ENDBRANCH  14  15
ENDBRANCH  13  14
ENDBRANCH  12  13
ENDBRANCH  11  12
ENDBRANCH   1  11
TORSDOF 15
ENDMDL
MODEL 4
REMARK VINA RESULT:    -4.531      3.197      6.314
REMARK INTER + INTRA:         -10.154
REMARK INTER:                  -8.380
REMARK INTRA:                  -1.774
REMARK UNBOUND:                -1.650
REMARK SMILES O=C([O-])CCCCCCCCCCCCCCC(=O)[O-]
REMARK SMILES IDX 10 1 9 2 8 3 7 4 6 5 5 6 4 7 2 8 1 9 3 10 11 11 12 12 13 13
REMARK SMILES IDX 14 14 15 15 16 16 17 17 18 18 19 19 20 20
REMARK H PARENT
REMARK Flexibility Score: inf
ROOT
ATOM      1  C   UNL     1      25.080   8.926  10.632  1.00  0.00     0.000 C 
ENDROOT
BRANCH   1   2
ATOM      2  C   UNL     1      23.982   8.830   9.553  1.00  0.00     0.000 C 
BRANCH   2   3
ATOM      3  C   UNL     1      22.809   9.812   9.724  1.00  0.00     0.000 C 
BRANCH   3   4
ATOM      4  C   UNL     1      21.521   9.127  10.204  1.00  0.00     0.000 C 
BRANCH   4   5
ATOM      5  C   UNL     1      21.398   7.714   9.614  1.00  0.00     0.000 C 
BRANCH   5   6
ATOM      6  C   UNL     1      20.278   7.604   8.568  1.00  0.00     0.006 C 
BRANCH   6   7
ATOM      7  C   UNL     1      19.279   6.484   8.889  1.00  0.00     0.053 C 
BRANCH   7   8
ATOM      8  C   UNL     1      19.176   6.283  10.367  1.00  0.00     0.041 C 
ATOM      9  O   UNL     1      19.537   5.193  10.886  1.00  0.00    -0.550 OA
ATOM     10  O   UNL     1      18.634   7.280  11.168  1.00  0.00    -0.550 OA
ENDBRANCH   7   8
ENDBRANCH   6   7
ENDBRANCH   5   6
ENDBRANCH   4   5
ENDBRANCH   3   4
ENDBRANCH   2   3
ENDBRANCH   1   2
BRANCH   1  11
ATOM     11  C   UNL     1      25.138  10.266  11.388  1.00  0.00     0.000 C 
BRANCH  11  12
ATOM     12  C   UNL     1      24.618  10.216  12.838  1.00  0.00     0.000 C 
BRANCH  12  13
ATOM     13  C   UNL     1      24.496   8.785  13.404  1.00  0.00     0.000 C 
BRANCH  13  14
ATOM     14  C   UNL     1      23.037   8.313  13.500  1.00  0.00     0.000 C 
BRANCH  14  15
ATOM     15  C   UNL     1      22.861   6.936  12.848  1.00  0.00     0.000 C 
BRANCH  15  16
ATOM     16  C   UNL     1      24.139   6.094  12.986  1.00  0.00     0.006 C 
BRANCH  16  17
ATOM     17  C   UNL     1      23.866   4.726  13.624  1.00  0.00     0.053 C 
BRANCH  17  18
ATOM     18  C   UNL     1      24.920   3.726  13.265  1.00  0.00     0.041 C 
ATOM     19  O   UNL     1      25.758   3.984  12.360  1.00  0.00    -0.550 OA
ATOM     20  O   UNL     1      24.958   2.493  13.905  1.00  0.00    -0.550 OA
ENDBRANCH  17  18
ENDBRANCH  16  17
ENDBRANCH  15  16
ENDBRANCH  14  15
ENDBRANCH  13  14
ENDBRANCH  12  13
ENDBRANCH  11  12
ENDBRANCH   1  11
TORSDOF 15
ENDMDL
MODEL 5
REMARK VINA RESULT:    -4.496      2.546      3.992
REMARK INTER + INTRA:         -10.088
REMARK INTER:                  -8.098
REMARK INTRA:                  -1.990
REMARK UNBOUND:                -1.650
REMARK SMILES O=C([O-])CCCCCCCCCCCCCCC(=O)[O-]
REMARK SMILES IDX 10 1 9 2 8 3 7 4 6 5 5 6 4 7 2 8 1 9 3 10 11 11 12 12 13 13
REMARK SMILES IDX 14 14 15 15 16 16 17 17 18 18 19 19 20 20
REMARK H PARENT
REMARK Flexibility Score: inf
ROOT
ATOM      1  C   UNL     1      25.010   6.695  11.085  1.00  0.00     0.000 C 
ENDROOT
BRANCH   1   2
ATOM      2  C   UNL     1      24.604   6.699  12.574  1.00  0.00     0.000 C 
BRANCH   2   3
ATOM      3  C   UNL     1      23.103   6.906  12.842  1.00  0.00     0.000 C 
BRANCH   3   4
ATOM      4  C   UNL     1      22.764   8.340  13.274  1.00  0.00     0.000 C 
BRANCH   4   5
ATOM      5  C   UNL     1      23.524   8.721  14.553  1.00  0.00     0.000 C 
BRANCH   5   6
ATOM      6  C   UNL     1      24.133  10.130  14.484  1.00  0.00     0.006 C 
BRANCH   6   7
ATOM      7  C   UNL     1      25.279  10.230  13.468  1.00  0.00     0.053 C 
BRANCH   7   8
ATOM      8  C   UNL     1      25.334  11.603  12.878  1.00  0.00     0.041 C 
ATOM      9  O   UNL     1      25.916  11.798  11.777  1.00  0.00    -0.550 OA
ATOM     10  O   UNL     1      24.788  12.679  13.567  1.00  0.00    -0.550 OA
ENDBRANCH   7   8
ENDBRANCH   6   7
ENDBRANCH   5   6
ENDBRANCH   4   5
ENDBRANCH   3   4
ENDBRANCH   2   3
ENDBRANCH   1   2
BRANCH   1  11
ATOM     11  C   UNL     1      25.328   8.080  10.492  1.00  0.00     0.000 C 
BRANCH  11  12
ATOM     12  C   UNL     1      24.247   8.646   9.550  1.00  0.00     0.000 C 
BRANCH  12  13
ATOM     13  C   UNL     1      23.343   9.708  10.211  1.00  0.00     0.000 C 
BRANCH  13  14
ATOM     14  C   UNL     1      21.857   9.506   9.876  1.00  0.00     0.000 C 
BRANCH  14  15
ATOM     15  C   UNL     1      21.577   8.054   9.472  1.00  0.00     0.000 C 
BRANCH  15  16
ATOM     16  C   UNL     1      20.257   7.945   8.693  1.00  0.00     0.006 C 
BRANCH  16  17
ATOM     17  C   UNL     1      19.540   6.614   8.950  1.00  0.00     0.053 C 
BRANCH  17  18
ATOM     18  C   UNL     1      19.289   6.390  10.409  1.00  0.00     0.041 C 
ATOM     19  O   UNL     1      19.483   5.255  10.920  1.00  0.00    -0.550 OA
ATOM     20  O   UNL     1      18.810   7.427  11.200  1.00  0.00    -0.550 OA
ENDBRANCH  17  18
ENDBRANCH  16  17
ENDBRANCH  15  16
ENDBRANCH  14  15
ENDBRANCH  13  14
ENDBRANCH  12  13
ENDBRANCH  11  12
ENDBRANCH   1  11
TORSDOF 15
ENDMDL
MODEL 6
REMARK VINA RESULT:    -4.411      1.377      6.158
REMARK INTER + INTRA:          -9.929
REMARK INTER:                  -8.149
REMARK INTRA:                  -1.780
REMARK UNBOUND:                -1.650
REMARK SMILES O=C([O-])CCCCCCCCCCCCCCC(=O)[O-]
REMARK SMILES IDX 10 1 9 2 8 3 7 4 6 5 5 6 4 7 2 8 1 9 3 10 11 11 12 12 13 13
REMARK SMILES IDX 14 14 15 15 16 16 17 17 18 18 19 19 20 20
REMARK H PARENT
REMARK Flexibility Score: inf
ROOT
ATOM      1  C   UNL     1      21.557   9.127  10.878  1.00  0.00     0.000 C 
ENDROOT
BRANCH   1   2
ATOM      2  C   UNL     1      20.905   7.880  11.508  1.00  0.00     0.000 C 
BRANCH   2   3
ATOM      3  C   UNL     1      19.435   7.643  11.118  1.00  0.00     0.000 C 
BRANCH   3   4
ATOM      4  C   UNL     1      19.066   6.153  11.052  1.00  0.00     0.000 C 
BRANCH   4   5
ATOM      5  C   UNL     1      19.373   5.573   9.664  1.00  0.00     0.000 C 
BRANCH   5   6
ATOM      6  C   UNL     1      18.995   6.531   8.524  1.00  0.00     0.006 C 
BRANCH   6   7
ATOM      7  C   UNL     1      20.221   7.092   7.791  1.00  0.00     0.053 C 
BRANCH   7   8
ATOM      8  C   UNL     1      19.848   8.311   7.008  1.00  0.00     0.041 C 
ATOM      9  O   UNL     1      20.744   9.039   6.504  1.00  0.00    -0.550 OA
ATOM     10  O   UNL     1      18.513   8.671   6.876  1.00  0.00    -0.550 OA
ENDBRANCH   7   8
ENDBRANCH   6   7
ENDBRANCH   5   6
ENDBRANCH   4   5
ENDBRANCH   3   4
ENDBRANCH   2   3
ENDBRANCH   1   2
BRANCH   1  11
ATOM     11  C   UNL     1      22.588   8.837   9.771  1.00  0.00     0.000 C 
BRANCH  11  12
ATOM     12  C   UNL     1      23.315   7.485   9.901  1.00  0.00     0.000 C 
BRANCH  12  13
ATOM     13  C   UNL     1      24.767   7.607  10.409  1.00  0.00     0.000 C 
BRANCH  13  14
ATOM     14  C   UNL     1      25.073   6.635  11.558  1.00  0.00     0.000 C 
BRANCH  14  15
ATOM     15  C   UNL     1      25.206   7.382  12.890  1.00  0.00     0.000 C 
BRANCH  15  16
ATOM     16  C   UNL     1      23.826   7.754  13.454  1.00  0.00     0.006 C 
BRANCH  16  17
ATOM     17  C   UNL     1      23.796   9.177  14.025  1.00  0.00     0.053 C 
BRANCH  17  18
ATOM     18  C   UNL     1      24.823  10.056  13.380  1.00  0.00     0.041 C 
ATOM     19  O   UNL     1      25.881  10.353  13.996  1.00  0.00    -0.550 OA
ATOM     20  O   UNL     1      24.596  10.575  12.111  1.00  0.00    -0.550 OA
ENDBRANCH  17  18
ENDBRANCH  16  17
ENDBRANCH  15  16
ENDBRANCH  14  15
ENDBRANCH  13  14
ENDBRANCH  12  13
ENDBRANCH  11  12
ENDBRANCH   1  11
TORSDOF 15
ENDMDL
MODEL 7
REMARK VINA RESULT:    -4.394      3.072      4.681
REMARK INTER + INTRA:          -9.897
REMARK INTER:                  -7.590
REMARK INTRA:                  -2.307
REMARK UNBOUND:                -1.650
REMARK SMILES O=C([O-])CCCCCCCCCCCCCCC(=O)[O-]
REMARK SMILES IDX 10 1 9 2 8 3 7 4 6 5 5 6 4 7 2 8 1 9 3 10 11 11 12 12 13 13
REMARK SMILES IDX 14 14 15 15 16 16 17 17 18 18 19 19 20 20
REMARK H PARENT
REMARK Flexibility Score: inf
ROOT
ATOM      1  C   UNL     1      25.547  10.133  12.897  1.00  0.00     0.000 C 
ENDROOT
BRANCH   1   2
ATOM      2  C   UNL     1      24.264  10.180  13.752  1.00  0.00     0.000 C 
BRANCH   2   3
ATOM      3  C   UNL     1      23.762   8.815  14.255  1.00  0.00     0.000 C 
BRANCH   3   4
ATOM      4  C   UNL     1      22.722   8.178  13.320  1.00  0.00     0.000 C 
BRANCH   4   5
ATOM      5  C   UNL     1      23.161   6.771  12.890  1.00  0.00     0.000 C 
BRANCH   5   6
ATOM      6  C   UNL     1      24.531   6.376  13.461  1.00  0.00     0.006 C 
BRANCH   6   7
ATOM      7  C   UNL     1      24.499   5.030  14.200  1.00  0.00     0.053 C 
BRANCH   7   8
ATOM      8  C   UNL     1      24.960   3.929  13.299  1.00  0.00     0.041 C 
ATOM      9  O   UNL     1      25.665   4.190  12.288  1.00  0.00    -0.550 OA
ATOM     10  O   UNL     1      24.569   2.619  13.546  1.00  0.00    -0.550 OA
ENDBRANCH   7   8
ENDBRANCH   6   7
ENDBRANCH   5   6
ENDBRANCH   4   5
ENDBRANCH   3   4
ENDBRANCH   2   3
ENDBRANCH   1   2
BRANCH   1  11
ATOM     11  C   UNL     1      25.323  10.237  11.377  1.00  0.00     0.000 C 
BRANCH  11  12
ATOM     12  C   UNL     1      25.324   8.890  10.629  1.00  0.00     0.000 C 
BRANCH  12  13
ATOM     13  C   UNL     1      24.017   8.607   9.858  1.00  0.00     0.000 C 
BRANCH  13  14
ATOM     14  C   UNL     1      23.087   9.829   9.807  1.00  0.00     0.000 C 
BRANCH  14  15
ATOM     15  C   UNL     1      21.627   9.418  10.031  1.00  0.00     0.000 C 
BRANCH  15  16
ATOM     16  C   UNL     1      21.456   7.897   9.901  1.00  0.00     0.006 C 
BRANCH  16  17
ATOM     17  C   UNL     1      20.253   7.377  10.697  1.00  0.00     0.053 C 
BRANCH  17  18
ATOM     18  C   UNL     1      19.436   6.408   9.900  1.00  0.00     0.041 C 
ATOM     19  O   UNL     1      19.335   6.540   8.651  1.00  0.00    -0.550 OA
ATOM     20  O   UNL     1      18.759   5.377  10.539  1.00  0.00    -0.550 OA
ENDBRANCH  17  18
ENDBRANCH  16  17
ENDBRANCH  15  16
ENDBRANCH  14  15
ENDBRANCH  13  14
ENDBRANCH  12  13
ENDBRANCH  11  12
ENDBRANCH   1  11
TORSDOF 15
ENDMDL
MODEL 8
REMARK VINA RESULT:    -4.384      2.389      6.284
REMARK INTER + INTRA:          -9.879
REMARK INTER:                  -7.647
REMARK INTRA:                  -2.232
REMARK UNBOUND:                -1.650
REMARK SMILES O=C([O-])CCCCCCCCCCCCCCC(=O)[O-]
REMARK SMILES IDX 10 1 9 2 8 3 7 4 6 5 5 6 4 7 2 8 1 9 3 10 11 11 12 12 13 13
REMARK SMILES IDX 14 14 15 15 16 16 17 17 18 18 19 19 20 20
REMARK H PARENT
REMARK Flexibility Score: inf
ROOT
ATOM      1  C   UNL     1      24.834   7.295   9.698  1.00  0.00     0.000 C 
ENDROOT
BRANCH   1   2
ATOM      2  C   UNL     1      25.192   8.706  10.208  1.00  0.00     0.000 C 
BRANCH   2   3
ATOM      3  C   UNL     1      23.995   9.652  10.410  1.00  0.00     0.000 C 
BRANCH   3   4
ATOM      4  C   UNL     1      22.856   9.397   9.412  1.00  0.00     0.000 C 
BRANCH   4   5
ATOM      5  C   UNL     1      21.528   9.154  10.146  1.00  0.00     0.000 C 
BRANCH   5   6
ATOM      6  C   UNL     1      21.150   7.666  10.210  1.00  0.00     0.006 C 
BRANCH   6   7
ATOM      7  C   UNL     1      19.898   7.411  11.060  1.00  0.00     0.053 C 
BRANCH   7   8
ATOM      8  C   UNL     1      19.155   6.218  10.550  1.00  0.00     0.041 C 
ATOM      9  O   UNL     1      18.443   5.532  11.331  1.00  0.00    -0.550 OA
ATOM     10  O   UNL     1      19.288   5.831   9.222  1.00  0.00    -0.550 OA
ENDBRANCH   7   8
ENDBRANCH   6   7
ENDBRANCH   5   6
ENDBRANCH   4   5
ENDBRANCH   3   4
ENDBRANCH   2   3
ENDBRANCH   1   2
BRANCH   1  11
ATOM     11  C   UNL     1      25.747   6.165  10.208  1.00  0.00     0.000 C 
BRANCH  11  12
ATOM     12  C   UNL     1      25.988   6.164  11.730  1.00  0.00     0.000 C 
BRANCH  12  13
ATOM     13  C   UNL     1      24.938   5.360  12.525  1.00  0.00     0.000 C 
BRANCH  13  14
ATOM     14  C   UNL     1      24.293   6.184  13.649  1.00  0.00     0.000 C 
BRANCH  14  15
ATOM     15  C   UNL     1      23.267   7.175  13.087  1.00  0.00     0.000 C 
BRANCH  15  16
ATOM     16  C   UNL     1      23.284   8.493  13.876  1.00  0.00     0.006 C 
BRANCH  16  17
ATOM     17  C   UNL     1      24.691   9.097  13.967  1.00  0.00     0.053 C 
BRANCH  17  18
ATOM     18  C   UNL     1      24.646  10.580  14.170  1.00  0.00     0.041 C 
ATOM     19  O   UNL     1      25.399  11.335  13.499  1.00  0.00    -0.550 OA
ATOM     20  O   UNL     1      23.798  11.127  15.124  1.00  0.00    -0.550 OA
ENDBRANCH  17  18
ENDBRANCH  16  17
ENDBRANCH  15  16
ENDBRANCH  14  15
ENDBRANCH  13  14
ENDBRANCH  12  13
ENDBRANCH  11  12
ENDBRANCH   1  11
TORSDOF 15
ENDMDL
MODEL 9
REMARK VINA RESULT:    -4.224      1.761      3.395
REMARK INTER + INTRA:          -9.578
REMARK INTER:                  -7.690
REMARK INTRA:                  -1.888
REMARK UNBOUND:                -1.650
REMARK SMILES O=C([O-])CCCCCCCCCCCCCCC(=O)[O-]
REMARK SMILES IDX 10 1 9 2 8 3 7 4 6 5 5 6 4 7 2 8 1 9 3 10 11 11 12 12 13 13
REMARK SMILES IDX 14 14 15 15 16 16 17 17 18 18 19 19 20 20
REMARK H PARENT
REMARK Flexibility Score: inf
ROOT
ATOM      1  C   UNL     1      25.415   7.370   9.543  1.00  0.00     0.000 C 
ENDROOT
BRANCH   1   2
ATOM      2  C   UNL     1      25.826   6.135  10.372  1.00  0.00     0.000 C 
BRANCH   2   3
ATOM      3  C   UNL     1      25.749   6.316  11.898  1.00  0.00     0.000 C 
BRANCH   3   4
ATOM      4  C   UNL     1      24.588   5.538  12.535  1.00  0.00     0.000 C 
BRANCH   4   5
ATOM      5  C   UNL     1      23.628   6.488  13.267  1.00  0.00     0.000 C 
BRANCH   5   6
ATOM      6  C   UNL     1      24.345   7.705  13.872  1.00  0.00     0.006 C 
BRANCH   6   7
ATOM      7  C   UNL     1      23.410   8.908  14.062  1.00  0.00     0.053 C 
BRANCH   7   8
ATOM      8  C   UNL     1      24.204  10.162  14.245  1.00  0.00     0.041 C 
ATOM      9  O   UNL     1      23.827  11.037  15.069  1.00  0.00    -0.550 OA
ATOM     10  O   UNL     1      25.333  10.390  13.469  1.00  0.00    -0.550 OA
ENDBRANCH   7   8
ENDBRANCH   6   7
ENDBRANCH   5   6
ENDBRANCH   4   5
ENDBRANCH   3   4
ENDBRANCH   2   3
ENDBRANCH   1   2
BRANCH   1  11
ATOM     11  C   UNL     1      25.265   8.675  10.347  1.00  0.00     0.000 C 
BRANCH  11  12
ATOM     12  C   UNL     1      23.889   9.357  10.225  1.00  0.00     0.000 C 
BRANCH  12  13
ATOM     13  C   UNL     1      22.710   8.364  10.138  1.00  0.00     0.000 C 
BRANCH  13  14
ATOM     14  C   UNL     1      21.576   8.709  11.114  1.00  0.00     0.000 C 
BRANCH  14  15
ATOM     15  C   UNL     1      20.623   7.521  11.292  1.00  0.00     0.000 C 
BRANCH  15  16
ATOM     16  C   UNL     1      20.052   7.065   9.940  1.00  0.00     0.006 C 
BRANCH  16  17
ATOM     17  C   UNL     1      19.687   8.249   9.036  1.00  0.00     0.053 C 
BRANCH  17  18
ATOM     18  C   UNL     1      19.559   7.835   7.603  1.00  0.00     0.041 C 
ATOM     19  O   UNL     1      19.000   6.746   7.305  1.00  0.00    -0.550 OA
ATOM     20  O   UNL     1      20.087   8.636   6.597  1.00  0.00    -0.550 OA
ENDBRANCH  17  18
ENDBRANCH  16  17
ENDBRANCH  15  16
ENDBRANCH  14  15
ENDBRANCH  13  14
ENDBRANCH  12  13
ENDBRANCH  11  12
ENDBRANCH   1  11
TORSDOF 15
ENDMDL
