MODEL 1
REMARK VINA RESULT:    -5.780      0.000      0.000
REMARK INTER + INTRA:          -6.679
REMARK INTER:                  -6.287
REMARK INTRA:                  -0.392
REMARK UNBOUND:                -0.392
REMARK SMILES C=C(C)[C@H]1CC[C@]2(C)CC[C@]3(C)[C@@H](CC[C@H]4[C@@]5(C)CC[C@@H](O)C(C)(C)[C@@H]5CC[C@]43C)[C@H]12
REMARK SMILES IDX 4 1 5 2 6 3 7 4 31 5 13 6 14 7 15 8 16 9 17 10 19 11 20 12
REMARK SMILES IDX 21 13 23 14 26 15 27 16 28 17 29 18 11 19 10 20 9 21 12 22
REMARK SMILES IDX 30 23 24 24 25 25 18 26 8 27 2 28 3 29 1 30 22 31
REMARK H PARENT 22 32
REMARK Flexibility Score: inf
ROOT
ATOM      1  C   UNL     1       4.649 -60.961 199.698  1.00  0.00     0.018 C 
ATOM      2  C   UNL     1       5.496 -60.958 200.970  1.00  0.00     0.009 C 
ATOM      3  C   UNL     1       6.380 -59.711 200.898  1.00  0.00     0.008 C 
ATOM      4  C   UNL     1       6.098 -59.008 199.543  1.00  0.00    -0.029 C 
ATOM      5  C   UNL     1       5.423 -60.099 198.683  1.00  0.00     0.006 C 
ATOM      6  C   UNL     1       4.557 -59.621 197.452  1.00  0.00    -0.000 C 
ATOM      7  C   UNL     1       5.343 -59.681 196.120  1.00  0.00     0.005 C 
ATOM      8  C   UNL     1       5.673 -58.355 195.455  1.00  0.00     0.005 C 
ATOM      9  C   UNL     1       4.527 -57.290 195.323  1.00  0.00     0.002 C 
ATOM     10  C   UNL     1       4.191 -56.879 193.804  1.00  0.00    -0.026 C 
ATOM     11  C   UNL     1       5.497 -56.589 192.963  1.00  0.00     0.010 C 
ATOM     12  C   UNL     1       5.259 -56.506 191.445  1.00  0.00     0.033 C 
ATOM     13  C   UNL     1       4.535 -57.743 190.892  1.00  0.00     0.120 C 
ATOM     14  C   UNL     1       3.176 -58.047 191.613  1.00  0.00    -0.006 C 
ATOM     15  C   UNL     1       3.371 -58.069 193.186  1.00  0.00     0.003 C 
ATOM     16  C   UNL     1       2.060 -58.318 193.981  1.00  0.00     0.005 C 
ATOM     17  C   UNL     1       2.307 -58.629 195.468  1.00  0.00     0.008 C 
ATOM     18  C   UNL     1       3.258 -57.643 196.238  1.00  0.00    -0.024 C 
ATOM     19  C   UNL     1       3.689 -58.309 197.654  1.00  0.00    -0.024 C 
ATOM     20  C   UNL     1       4.515 -57.269 198.487  1.00  0.00     0.008 C 
ATOM     21  C   UNL     1       5.145 -57.813 199.777  1.00  0.00     0.007 C 
ATOM     22  C   UNL     1       2.394 -58.715 198.467  1.00  0.00     0.012 C 
ATOM     23  C   UNL     1       2.465 -56.315 196.532  1.00  0.00     0.012 C 
ATOM     24  C   UNL     1       2.108 -57.020 191.149  1.00  0.00     0.014 C 
ATOM     25  C   UNL     1       2.683 -59.438 191.119  1.00  0.00     0.014 C 
ATOM     26  C   UNL     1       3.417 -55.515 193.779  1.00  0.00     0.012 C 
ATOM     27  C   UNL     1       7.435 -58.527 198.938  1.00  0.00     0.011 C 
ENDROOT
BRANCH   1  28
ATOM     28  C   UNL     1       4.330 -62.368 199.199  1.00  0.00    -0.077 C 
ATOM     29  C   UNL     1       5.299 -63.514 199.364  1.00  0.00     0.039 C 
ATOM     30  C   UNL     1       3.155 -62.610 198.595  1.00  0.00     0.008 C 
ENDBRANCH   1  28
BRANCH  13  31
ATOM     31  O   UNL     1       5.404 -58.854 190.877  1.00  0.00    -0.393 OA
ATOM     32  H   UNL     1       4.860 -59.678 190.796  1.00  0.00     0.210 HD
ENDBRANCH  13  31
TORSDOF 2
ENDMDL
MODEL 2
REMARK VINA RESULT:    -5.352      2.405      7.490
REMARK INTER + INTRA:          -6.213
REMARK INTER:                  -5.730
REMARK INTRA:                  -0.483
REMARK UNBOUND:                -0.392
REMARK SMILES C=C(C)[C@H]1CC[C@]2(C)CC[C@]3(C)[C@@H](CC[C@H]4[C@@]5(C)CC[C@@H](O)C(C)(C)[C@@H]5CC[C@]43C)[C@H]12
REMARK SMILES IDX 4 1 5 2 6 3 7 4 31 5 13 6 14 7 15 8 16 9 17 10 19 11 20 12
REMARK SMILES IDX 21 13 23 14 26 15 27 16 28 17 29 18 11 19 10 20 9 21 12 22
REMARK SMILES IDX 30 23 24 24 25 25 18 26 8 27 2 28 3 29 1 30 22 31
REMARK H PARENT 22 32
REMARK Flexibility Score: inf
ROOT
ATOM      1  C   UNL     1       6.203 -55.330 192.958  1.00  0.00     0.018 C 
ATOM      2  C   UNL     1       6.461 -55.478 191.459  1.00  0.00     0.009 C 
ATOM      3  C   UNL     1       6.033 -56.898 191.084  1.00  0.00     0.008 C 
ATOM      4  C   UNL     1       5.578 -57.615 192.384  1.00  0.00    -0.029 C 
ATOM      5  C   UNL     1       6.190 -56.764 193.519  1.00  0.00     0.006 C 
ATOM      6  C   UNL     1       5.537 -56.889 194.952  1.00  0.00    -0.000 C 
ATOM      7  C   UNL     1       6.311 -57.868 195.868  1.00  0.00     0.005 C 
ATOM      8  C   UNL     1       5.604 -59.159 196.249  1.00  0.00     0.005 C 
ATOM      9  C   UNL     1       4.117 -59.067 196.740  1.00  0.00     0.002 C 
ATOM     10  C   UNL     1       3.889 -59.622 198.234  1.00  0.00    -0.026 C 
ATOM     11  C   UNL     1       4.605 -61.010 198.470  1.00  0.00     0.010 C 
ATOM     12  C   UNL     1       4.691 -61.428 199.948  1.00  0.00     0.033 C 
ATOM     13  C   UNL     1       5.329 -60.345 200.832  1.00  0.00     0.120 C 
ATOM     14  C   UNL     1       4.614 -58.952 200.728  1.00  0.00    -0.006 C 
ATOM     15  C   UNL     1       4.444 -58.524 199.212  1.00  0.00     0.003 C 
ATOM     16  C   UNL     1       3.701 -57.173 199.017  1.00  0.00     0.005 C 
ATOM     17  C   UNL     1       3.804 -56.630 197.580  1.00  0.00     0.008 C 
ATOM     18  C   UNL     1       3.457 -57.640 196.428  1.00  0.00    -0.024 C 
ATOM     19  C   UNL     1       3.959 -57.030 195.010  1.00  0.00    -0.024 C 
ATOM     20  C   UNL     1       3.483 -57.962 193.844  1.00  0.00     0.008 C 
ATOM     21  C   UNL     1       4.034 -57.612 192.455  1.00  0.00     0.007 C 
ATOM     22  C   UNL     1       3.344 -55.585 194.804  1.00  0.00     0.012 C 
ATOM     23  C   UNL     1       1.892 -57.810 196.370  1.00  0.00     0.012 C 
ATOM     24  C   UNL     1       3.266 -59.009 201.496  1.00  0.00     0.014 C 
ATOM     25  C   UNL     1       5.497 -57.914 201.479  1.00  0.00     0.014 C 
ATOM     26  C   UNL     1       2.369 -59.940 198.459  1.00  0.00     0.012 C 
ATOM     27  C   UNL     1       6.119 -59.061 192.377  1.00  0.00     0.011 C 
ENDROOT
BRANCH   1  28
ATOM     28  C   UNL     1       7.204 -54.405 193.646  1.00  0.00    -0.077 C 
ATOM     29  C   UNL     1       8.671 -54.746 193.743  1.00  0.00     0.039 C 
ATOM     30  C   UNL     1       6.782 -53.249 194.183  1.00  0.00     0.008 C 
ENDBRANCH   1  28
BRANCH  13  31
ATOM     31  O   UNL     1       6.715 -60.265 200.587  1.00  0.00    -0.393 OA
ATOM     32  H   UNL     1       7.159 -61.027 201.037  1.00  0.00     0.210 HD
ENDBRANCH  13  31
TORSDOF 2
ENDMDL
MODEL 3
REMARK VINA RESULT:    -5.345      2.630      7.524
REMARK INTER + INTRA:          -6.205
REMARK INTER:                  -5.717
REMARK INTRA:                  -0.489
REMARK UNBOUND:                -0.392
REMARK SMILES C=C(C)[C@H]1CC[C@]2(C)CC[C@]3(C)[C@@H](CC[C@H]4[C@@]5(C)CC[C@@H](O)C(C)(C)[C@@H]5CC[C@]43C)[C@H]12
REMARK SMILES IDX 4 1 5 2 6 3 7 4 31 5 13 6 14 7 15 8 16 9 17 10 19 11 20 12
REMARK SMILES IDX 21 13 23 14 26 15 27 16 28 17 29 18 11 19 10 20 9 21 12 22
REMARK SMILES IDX 30 23 24 24 25 25 18 26 8 27 2 28 3 29 1 30 22 31
REMARK H PARENT 22 32
REMARK Flexibility Score: inf
ROOT
ATOM      1  C   UNL     1       5.608 -55.679 193.022  1.00  0.00     0.018 C 
ATOM      2  C   UNL     1       5.553 -54.317 192.331  1.00  0.00     0.009 C 
ATOM      3  C   UNL     1       5.503 -53.268 193.444  1.00  0.00     0.008 C 
ATOM      4  C   UNL     1       5.463 -54.020 194.802  1.00  0.00    -0.029 C 
ATOM      5  C   UNL     1       5.022 -55.453 194.428  1.00  0.00     0.006 C 
ATOM      6  C   UNL     1       5.354 -56.605 195.456  1.00  0.00    -0.000 C 
ATOM      7  C   UNL     1       4.148 -56.947 196.366  1.00  0.00     0.005 C 
ATOM      8  C   UNL     1       4.282 -56.606 197.842  1.00  0.00     0.005 C 
ATOM      9  C   UNL     1       5.608 -57.013 198.576  1.00  0.00     0.002 C 
ATOM     10  C   UNL     1       5.385 -58.023 199.809  1.00  0.00    -0.026 C 
ATOM     11  C   UNL     1       4.195 -57.570 200.744  1.00  0.00     0.010 C 
ATOM     12  C   UNL     1       3.734 -58.647 201.740  1.00  0.00     0.033 C 
ATOM     13  C   UNL     1       3.393 -59.979 201.054  1.00  0.00     0.120 C 
ATOM     14  C   UNL     1       4.562 -60.550 200.178  1.00  0.00    -0.006 C 
ATOM     15  C   UNL     1       5.109 -59.440 199.187  1.00  0.00     0.003 C 
ATOM     16  C   UNL     1       6.304 -59.910 198.312  1.00  0.00     0.005 C 
ATOM     17  C   UNL     1       6.628 -58.938 197.163  1.00  0.00     0.008 C 
ATOM     18  C   UNL     1       6.772 -57.422 197.552  1.00  0.00    -0.024 C 
ATOM     19  C   UNL     1       6.749 -56.518 196.205  1.00  0.00    -0.024 C 
ATOM     20  C   UNL     1       7.040 -55.023 196.576  1.00  0.00     0.008 C 
ATOM     21  C   UNL     1       6.876 -54.017 195.429  1.00  0.00     0.007 C 
ATOM     22  C   UNL     1       7.860 -57.030 195.201  1.00  0.00     0.012 C 
ATOM     23  C   UNL     1       8.162 -57.221 198.264  1.00  0.00     0.012 C 
ATOM     24  C   UNL     1       5.663 -61.129 201.106  1.00  0.00     0.014 C 
ATOM     25  C   UNL     1       3.999 -61.754 199.369  1.00  0.00     0.014 C 
ATOM     26  C   UNL     1       6.637 -57.995 200.754  1.00  0.00     0.012 C 
ATOM     27  C   UNL     1       4.451 -53.319 195.736  1.00  0.00     0.011 C 
ENDROOT
BRANCH   1  28
ATOM     28  C   UNL     1       4.906 -56.777 192.228  1.00  0.00    -0.077 C 
ATOM     29  C   UNL     1       5.595 -58.072 191.873  1.00  0.00     0.039 C 
ATOM     30  C   UNL     1       3.635 -56.602 191.829  1.00  0.00     0.008 C 
ENDBRANCH   1  28
BRANCH  13  31
ATOM     31  O   UNL     1       2.182 -59.867 200.339  1.00  0.00    -0.393 OA
ATOM     32  H   UNL     1       1.431 -59.923 200.982  1.00  0.00     0.210 HD
ENDBRANCH  13  31
TORSDOF 2
ENDMDL
MODEL 4
REMARK VINA RESULT:    -5.334      2.694      4.700
REMARK INTER + INTRA:          -6.193
REMARK INTER:                  -5.836
REMARK INTRA:                  -0.357
REMARK UNBOUND:                -0.392
REMARK SMILES C=C(C)[C@H]1CC[C@]2(C)CC[C@]3(C)[C@@H](CC[C@H]4[C@@]5(C)CC[C@@H](O)C(C)(C)[C@@H]5CC[C@]43C)[C@H]12
REMARK SMILES IDX 4 1 5 2 6 3 7 4 31 5 13 6 14 7 15 8 16 9 17 10 19 11 20 12
REMARK SMILES IDX 21 13 23 14 26 15 27 16 28 17 29 18 11 19 10 20 9 21 12 22
REMARK SMILES IDX 30 23 24 24 25 25 18 26 8 27 2 28 3 29 1 30 22 31
REMARK H PARENT 22 32
REMARK Flexibility Score: inf
ROOT
ATOM      1  C   UNL     1       9.269 -57.533 200.398  1.00  0.00     0.018 C 
ATOM      2  C   UNL     1       9.352 -57.368 201.915  1.00  0.00     0.009 C 
ATOM      3  C   UNL     1       8.075 -56.641 202.342  1.00  0.00     0.008 C 
ATOM      4  C   UNL     1       7.263 -56.319 201.059  1.00  0.00    -0.029 C 
ATOM      5  C   UNL     1       8.295 -56.443 199.916  1.00  0.00     0.006 C 
ATOM      6  C   UNL     1       7.737 -56.678 198.457  1.00  0.00    -0.000 C 
ATOM      7  C   UNL     1       7.650 -55.365 197.641  1.00  0.00     0.005 C 
ATOM      8  C   UNL     1       6.259 -54.862 197.291  1.00  0.00     0.005 C 
ATOM      9  C   UNL     1       5.227 -55.892 196.712  1.00  0.00     0.002 C 
ATOM     10  C   UNL     1       4.692 -55.520 195.240  1.00  0.00    -0.026 C 
ATOM     11  C   UNL     1       4.283 -53.998 195.121  1.00  0.00     0.010 C 
ATOM     12  C   UNL     1       4.073 -53.516 193.676  1.00  0.00     0.033 C 
ATOM     13  C   UNL     1       5.279 -53.815 192.772  1.00  0.00     0.120 C 
ATOM     14  C   UNL     1       5.692 -55.328 192.758  1.00  0.00    -0.006 C 
ATOM     15  C   UNL     1       5.848 -55.876 194.237  1.00  0.00     0.003 C 
ATOM     16  C   UNL     1       6.212 -57.385 194.315  1.00  0.00     0.005 C 
ATOM     17  C   UNL     1       6.647 -57.828 195.724  1.00  0.00     0.008 C 
ATOM     18  C   UNL     1       5.703 -57.410 196.908  1.00  0.00    -0.024 C 
ATOM     19  C   UNL     1       6.478 -57.632 198.317  1.00  0.00    -0.024 C 
ATOM     20  C   UNL     1       5.491 -57.359 199.503  1.00  0.00     0.008 C 
ATOM     21  C   UNL     1       6.126 -57.355 200.900  1.00  0.00     0.007 C 
ATOM     22  C   UNL     1       6.999 -59.124 198.408  1.00  0.00     0.012 C 
ATOM     23  C   UNL     1       4.434 -58.343 196.885  1.00  0.00     0.012 C 
ATOM     24  C   UNL     1       4.663 -56.133 191.919  1.00  0.00     0.014 C 
ATOM     25  C   UNL     1       7.048 -55.438 192.004  1.00  0.00     0.014 C 
ATOM     26  C   UNL     1       3.358 -56.291 194.947  1.00  0.00     0.012 C 
ATOM     27  C   UNL     1       6.685 -54.891 201.175  1.00  0.00     0.011 C 
ENDROOT
BRANCH   1  28
ATOM     28  C   UNL     1      10.636 -57.485 199.719  1.00  0.00    -0.077 C 
ATOM     29  C   UNL     1      11.140 -56.244 199.023  1.00  0.00     0.039 C 
ATOM     30  C   UNL     1      11.426 -58.571 199.735  1.00  0.00     0.008 C 
ENDBRANCH   1  28
BRANCH  13  31
ATOM     31  O   UNL     1       6.354 -52.960 193.090  1.00  0.00    -0.393 OA
ATOM     32  H   UNL     1       7.042 -53.484 193.572  1.00  0.00     0.210 HD
ENDBRANCH  13  31
TORSDOF 2
ENDMDL
MODEL 5
REMARK VINA RESULT:    -5.264      3.816      5.854
REMARK INTER + INTRA:          -6.117
REMARK INTER:                  -5.628
REMARK INTRA:                  -0.489
REMARK UNBOUND:                -0.392
REMARK SMILES C=C(C)[C@H]1CC[C@]2(C)CC[C@]3(C)[C@@H](CC[C@H]4[C@@]5(C)CC[C@@H](O)C(C)(C)[C@@H]5CC[C@]43C)[C@H]12
REMARK SMILES IDX 4 1 5 2 6 3 7 4 31 5 13 6 14 7 15 8 16 9 17 10 19 11 20 12
REMARK SMILES IDX 21 13 23 14 26 15 27 16 28 17 29 18 11 19 10 20 9 21 12 22
REMARK SMILES IDX 30 23 24 24 25 25 18 26 8 27 2 28 3 29 1 30 22 31
REMARK H PARENT 22 32
REMARK Flexibility Score: inf
ROOT
ATOM      1  C   UNL     1      10.858 -55.989 198.180  1.00  0.00     0.018 C 
ATOM      2  C   UNL     1      12.383 -56.041 198.259  1.00  0.00     0.009 C 
ATOM      3  C   UNL     1      12.896 -55.872 196.828  1.00  0.00     0.008 C 
ATOM      4  C   UNL     1      11.662 -55.783 195.890  1.00  0.00    -0.029 C 
ATOM      5  C   UNL     1      10.505 -56.368 196.730  1.00  0.00     0.006 C 
ATOM      6  C   UNL     1       9.033 -55.982 196.304  1.00  0.00    -0.000 C 
ATOM      7  C   UNL     1       8.366 -57.077 195.435  1.00  0.00     0.005 C 
ATOM      8  C   UNL     1       8.085 -56.727 193.983  1.00  0.00     0.005 C 
ATOM      9  C   UNL     1       7.404 -55.346 193.677  1.00  0.00     0.002 C 
ATOM     10  C   UNL     1       5.985 -55.472 192.927  1.00  0.00    -0.026 C 
ATOM     11  C   UNL     1       6.036 -56.494 191.723  1.00  0.00     0.010 C 
ATOM     12  C   UNL     1       4.654 -56.892 191.178  1.00  0.00     0.033 C 
ATOM     13  C   UNL     1       3.714 -57.412 192.277  1.00  0.00     0.120 C 
ATOM     14  C   UNL     1       3.532 -56.410 193.470  1.00  0.00    -0.006 C 
ATOM     15  C   UNL     1       4.941 -55.925 194.010  1.00  0.00     0.003 C 
ATOM     16  C   UNL     1       4.851 -54.891 195.167  1.00  0.00     0.005 C 
ATOM     17  C   UNL     1       6.199 -54.656 195.871  1.00  0.00     0.008 C 
ATOM     18  C   UNL     1       7.429 -54.359 194.940  1.00  0.00    -0.024 C 
ATOM     19  C   UNL     1       8.799 -54.498 195.799  1.00  0.00    -0.024 C 
ATOM     20  C   UNL     1      10.015 -54.058 194.914  1.00  0.00     0.008 C 
ATOM     21  C   UNL     1      11.400 -54.303 195.530  1.00  0.00     0.007 C 
ATOM     22  C   UNL     1       8.723 -53.567 197.077  1.00  0.00     0.012 C 
ATOM     23  C   UNL     1       7.314 -52.876 194.422  1.00  0.00     0.012 C 
ATOM     24  C   UNL     1       2.618 -55.239 193.022  1.00  0.00     0.014 C 
ATOM     25  C   UNL     1       2.760 -57.157 194.596  1.00  0.00     0.014 C 
ATOM     26  C   UNL     1       5.619 -54.107 192.245  1.00  0.00     0.012 C 
ATOM     27  C   UNL     1      11.939 -56.612 194.615  1.00  0.00     0.011 C 
ENDROOT
BRANCH   1  28
ATOM     28  C   UNL     1      10.178 -56.865 199.230  1.00  0.00    -0.077 C 
ATOM     29  C   UNL     1       9.091 -56.332 200.132  1.00  0.00     0.039 C 
ATOM     30  C   UNL     1      10.545 -58.149 199.366  1.00  0.00     0.008 C 
ENDBRANCH   1  28
BRANCH  13  31
ATOM     31  O   UNL     1       4.116 -58.696 192.699  1.00  0.00    -0.393 OA
ATOM     32  H   UNL     1       3.317 -59.280 192.737  1.00  0.00     0.210 HD
ENDBRANCH  13  31
TORSDOF 2
ENDMDL
MODEL 6
REMARK VINA RESULT:    -5.211      3.835      5.528
REMARK INTER + INTRA:          -6.060
REMARK INTER:                  -5.603
REMARK INTRA:                  -0.457
REMARK UNBOUND:                -0.392
REMARK SMILES C=C(C)[C@H]1CC[C@]2(C)CC[C@]3(C)[C@@H](CC[C@H]4[C@@]5(C)CC[C@@H](O)C(C)(C)[C@@H]5CC[C@]43C)[C@H]12
REMARK SMILES IDX 4 1 5 2 6 3 7 4 31 5 13 6 14 7 15 8 16 9 17 10 19 11 20 12
REMARK SMILES IDX 21 13 23 14 26 15 27 16 28 17 29 18 11 19 10 20 9 21 12 22
REMARK SMILES IDX 30 23 24 24 25 25 18 26 8 27 2 28 3 29 1 30 22 31
REMARK H PARENT 22 32
REMARK Flexibility Score: inf
ROOT
ATOM      1  C   UNL     1       4.623 -59.575 200.180  1.00  0.00     0.018 C 
ATOM      2  C   UNL     1       3.753 -59.627 201.436  1.00  0.00     0.009 C 
ATOM      3  C   UNL     1       3.811 -58.232 202.060  1.00  0.00     0.008 C 
ATOM      4  C   UNL     1       4.774 -57.368 201.201  1.00  0.00    -0.029 C 
ATOM      5  C   UNL     1       5.595 -58.401 200.398  1.00  0.00     0.006 C 
ATOM      6  C   UNL     1       6.302 -57.898 199.078  1.00  0.00    -0.000 C 
ATOM      7  C   UNL     1       7.793 -57.549 199.306  1.00  0.00     0.005 C 
ATOM      8  C   UNL     1       8.184 -56.084 199.189  1.00  0.00     0.005 C 
ATOM      9  C   UNL     1       7.653 -55.277 197.951  1.00  0.00     0.002 C 
ATOM     10  C   UNL     1       8.819 -54.676 197.019  1.00  0.00    -0.026 C 
ATOM     11  C   UNL     1       9.954 -53.971 197.862  1.00  0.00     0.010 C 
ATOM     12  C   UNL     1      11.231 -53.665 197.063  1.00  0.00     0.033 C 
ATOM     13  C   UNL     1      11.793 -54.904 196.349  1.00  0.00     0.120 C 
ATOM     14  C   UNL     1      10.752 -55.611 195.411  1.00  0.00    -0.006 C 
ATOM     15  C   UNL     1       9.395 -55.877 196.186  1.00  0.00     0.003 C 
ATOM     16  C   UNL     1       8.290 -56.536 195.314  1.00  0.00     0.005 C 
ATOM     17  C   UNL     1       7.099 -57.054 196.140  1.00  0.00     0.008 C 
ATOM     18  C   UNL     1       6.480 -56.048 197.177  1.00  0.00    -0.024 C 
ATOM     19  C   UNL     1       5.503 -56.855 198.190  1.00  0.00    -0.024 C 
ATOM     20  C   UNL     1       4.770 -55.836 199.129  1.00  0.00     0.008 C 
ATOM     21  C   UNL     1       3.946 -56.461 200.262  1.00  0.00     0.007 C 
ATOM     22  C   UNL     1       4.425 -57.664 197.360  1.00  0.00     0.012 C 
ATOM     23  C   UNL     1       5.618 -54.991 196.389  1.00  0.00     0.012 C 
ATOM     24  C   UNL     1      10.560 -54.762 194.126  1.00  0.00     0.014 C 
ATOM     25  C   UNL     1      11.376 -56.960 194.951  1.00  0.00     0.014 C 
ATOM     26  C   UNL     1       8.244 -53.522 196.125  1.00  0.00     0.012 C 
ATOM     27  C   UNL     1       5.658 -56.516 202.139  1.00  0.00     0.011 C 
ENDROOT
BRANCH   1  28
ATOM     28  C   UNL     1       5.314 -60.903 199.880  1.00  0.00    -0.077 C 
ATOM     29  C   UNL     1       6.014 -61.701 200.953  1.00  0.00     0.039 C 
ATOM     30  C   UNL     1       5.305 -61.390 198.628  1.00  0.00     0.008 C 
ENDBRANCH   1  28
BRANCH  13  31
ATOM     31  O   UNL     1      12.373 -55.787 197.282  1.00  0.00    -0.393 OA
ATOM     32  H   UNL     1      12.217 -56.716 196.977  1.00  0.00     0.210 HD
ENDBRANCH  13  31
TORSDOF 2
ENDMDL
MODEL 7
REMARK VINA RESULT:    -5.062      3.557      7.449
REMARK INTER + INTRA:          -5.897
REMARK INTER:                  -5.410
REMARK INTRA:                  -0.488
REMARK UNBOUND:                -0.392
REMARK SMILES C=C(C)[C@H]1CC[C@]2(C)CC[C@]3(C)[C@@H](CC[C@H]4[C@@]5(C)CC[C@@H](O)C(C)(C)[C@@H]5CC[C@]43C)[C@H]12
REMARK SMILES IDX 4 1 5 2 6 3 7 4 31 5 13 6 14 7 15 8 16 9 17 10 19 11 20 12
REMARK SMILES IDX 21 13 23 14 26 15 27 16 28 17 29 18 11 19 10 20 9 21 12 22
REMARK SMILES IDX 30 23 24 24 25 25 18 26 8 27 2 28 3 29 1 30 22 31
REMARK H PARENT 22 32
REMARK Flexibility Score: inf
ROOT
ATOM      1  C   UNL     1      10.116 -54.926 195.850  1.00  0.00     0.018 C 
ATOM      2  C   UNL     1      10.354 -53.983 194.672  1.00  0.00     0.009 C 
ATOM      3  C   UNL     1       8.974 -53.631 194.112  1.00  0.00     0.008 C 
ATOM      4  C   UNL     1       7.917 -54.423 194.928  1.00  0.00    -0.029 C 
ATOM      5  C   UNL     1       8.728 -55.549 195.608  1.00  0.00     0.006 C 
ATOM      6  C   UNL     1       8.096 -56.228 196.886  1.00  0.00    -0.000 C 
ATOM      7  C   UNL     1       7.375 -57.557 196.549  1.00  0.00     0.005 C 
ATOM      8  C   UNL     1       5.863 -57.577 196.704  1.00  0.00     0.005 C 
ATOM      9  C   UNL     1       5.248 -56.981 198.019  1.00  0.00     0.002 C 
ATOM     10  C   UNL     1       4.395 -58.042 198.878  1.00  0.00    -0.026 C 
ATOM     11  C   UNL     1       3.404 -58.880 197.977  1.00  0.00     0.010 C 
ATOM     12  C   UNL     1       2.805 -60.110 198.679  1.00  0.00     0.033 C 
ATOM     13  C   UNL     1       3.879 -61.028 199.282  1.00  0.00     0.120 C 
ATOM     14  C   UNL     1       4.850 -60.290 200.269  1.00  0.00    -0.006 C 
ATOM     15  C   UNL     1       5.432 -58.976 199.600  1.00  0.00     0.003 C 
ATOM     16  C   UNL     1       6.371 -58.158 200.529  1.00  0.00     0.005 C 
ATOM     17  C   UNL     1       7.153 -57.062 199.783  1.00  0.00     0.008 C 
ATOM     18  C   UNL     1       6.310 -56.116 198.853  1.00  0.00    -0.024 C 
ATOM     19  C   UNL     1       7.313 -55.281 197.887  1.00  0.00    -0.024 C 
ATOM     20  C   UNL     1       6.489 -54.232 197.065  1.00  0.00     0.008 C 
ATOM     21  C   UNL     1       7.274 -53.487 195.976  1.00  0.00     0.007 C 
ATOM     22  C   UNL     1       8.390 -54.523 198.766  1.00  0.00     0.012 C 
ATOM     23  C   UNL     1       5.527 -55.095 199.761  1.00  0.00     0.012 C 
ATOM     24  C   UNL     1       4.111 -60.013 201.605  1.00  0.00     0.014 C 
ATOM     25  C   UNL     1       6.009 -61.272 200.609  1.00  0.00     0.014 C 
ATOM     26  C   UNL     1       3.447 -57.283 199.873  1.00  0.00     0.012 C 
ATOM     27  C   UNL     1       6.845 -54.974 193.961  1.00  0.00     0.011 C 
ENDROOT
BRANCH   1  28
ATOM     28  C   UNL     1      11.232 -55.952 196.026  1.00  0.00    -0.077 C 
ATOM     29  C   UNL     1      11.853 -56.235 197.373  1.00  0.00     0.039 C 
ATOM     30  C   UNL     1      11.685 -56.633 194.961  1.00  0.00     0.008 C 
ENDBRANCH   1  28
BRANCH  13  31
ATOM     31  O   UNL     1       4.562 -61.720 198.261  1.00  0.00    -0.393 OA
ATOM     32  H   UNL     1       4.012 -62.495 197.983  1.00  0.00     0.210 HD
ENDBRANCH  13  31
TORSDOF 2
ENDMDL
MODEL 8
REMARK VINA RESULT:    -5.053      3.812      7.487
REMARK INTER + INTRA:          -5.888
REMARK INTER:                  -5.547
REMARK INTRA:                  -0.341
REMARK UNBOUND:                -0.392
REMARK SMILES C=C(C)[C@H]1CC[C@]2(C)CC[C@]3(C)[C@@H](CC[C@H]4[C@@]5(C)CC[C@@H](O)C(C)(C)[C@@H]5CC[C@]43C)[C@H]12
REMARK SMILES IDX 4 1 5 2 6 3 7 4 31 5 13 6 14 7 15 8 16 9 17 10 19 11 20 12
REMARK SMILES IDX 21 13 23 14 26 15 27 16 28 17 29 18 11 19 10 20 9 21 12 22
REMARK SMILES IDX 30 23 24 24 25 25 18 26 8 27 2 28 3 29 1 30 22 31
REMARK H PARENT 22 32
REMARK Flexibility Score: inf
ROOT
ATOM      1  C   UNL     1       4.216 -58.206 191.659  1.00  0.00     0.018 C 
ATOM      2  C   UNL     1       2.751 -58.635 191.581  1.00  0.00     0.009 C 
ATOM      3  C   UNL     1       2.087 -58.145 192.870  1.00  0.00     0.008 C 
ATOM      4  C   UNL     1       3.184 -57.477 193.742  1.00  0.00    -0.029 C 
ATOM      5  C   UNL     1       4.511 -58.010 193.157  1.00  0.00     0.006 C 
ATOM      6  C   UNL     1       5.820 -57.177 193.451  1.00  0.00    -0.000 C 
ATOM      7  C   UNL     1       6.628 -57.750 194.641  1.00  0.00     0.005 C 
ATOM      8  C   UNL     1       6.696 -56.901 195.900  1.00  0.00     0.005 C 
ATOM      9  C   UNL     1       7.032 -55.376 195.743  1.00  0.00     0.002 C 
ATOM     10  C   UNL     1       8.371 -54.922 196.511  1.00  0.00    -0.026 C 
ATOM     11  C   UNL     1       8.435 -55.490 197.984  1.00  0.00     0.010 C 
ATOM     12  C   UNL     1       9.817 -55.359 198.647  1.00  0.00     0.033 C 
ATOM     13  C   UNL     1      10.942 -55.966 197.794  1.00  0.00     0.120 C 
ATOM     14  C   UNL     1      11.008 -55.383 196.340  1.00  0.00    -0.006 C 
ATOM     15  C   UNL     1       9.582 -55.437 195.652  1.00  0.00     0.003 C 
ATOM     16  C   UNL     1       9.548 -54.835 194.220  1.00  0.00     0.005 C 
ATOM     17  C   UNL     1       8.250 -55.158 193.460  1.00  0.00     0.008 C 
ATOM     18  C   UNL     1       6.906 -54.876 194.225  1.00  0.00    -0.024 C 
ATOM     19  C   UNL     1       5.681 -55.597 193.441  1.00  0.00    -0.024 C 
ATOM     20  C   UNL     1       4.324 -55.196 194.116  1.00  0.00     0.008 C 
ATOM     21  C   UNL     1       3.087 -55.941 193.597  1.00  0.00     0.007 C 
ATOM     22  C   UNL     1       5.668 -55.130 191.929  1.00  0.00     0.012 C 
ATOM     23  C   UNL     1       6.651 -53.322 194.226  1.00  0.00     0.012 C 
ATOM     24  C   UNL     1      11.604 -53.950 196.388  1.00  0.00     0.014 C 
ATOM     25  C   UNL     1      12.021 -56.246 195.534  1.00  0.00     0.014 C 
ATOM     26  C   UNL     1       8.371 -53.365 196.709  1.00  0.00     0.012 C 
ATOM     27  C   UNL     1       2.981 -57.898 195.215  1.00  0.00     0.011 C 
ENDROOT
BRANCH   1  28
ATOM     28  C   UNL     1       5.160 -59.185 190.965  1.00  0.00    -0.077 C 
ATOM     29  C   UNL     1       5.998 -60.172 191.740  1.00  0.00     0.039 C 
ATOM     30  C   UNL     1       5.257 -59.181 189.626  1.00  0.00     0.008 C 
ENDBRANCH   1  28
BRANCH  13  31
ATOM     31  O   UNL     1      10.867 -57.374 197.814  1.00  0.00    -0.393 OA
ATOM     32  H   UNL     1      11.117 -57.691 198.718  1.00  0.00     0.210 HD
ENDBRANCH  13  31
TORSDOF 2
ENDMDL
MODEL 9
REMARK VINA RESULT:    -5.005      3.887      7.455
REMARK INTER + INTRA:          -5.836
REMARK INTER:                  -5.669
REMARK INTRA:                  -0.167
REMARK UNBOUND:                -0.392
REMARK SMILES C=C(C)[C@H]1CC[C@]2(C)CC[C@]3(C)[C@@H](CC[C@H]4[C@@]5(C)CC[C@@H](O)C(C)(C)[C@@H]5CC[C@]43C)[C@H]12
REMARK SMILES IDX 4 1 5 2 6 3 7 4 31 5 13 6 14 7 15 8 16 9 17 10 19 11 20 12
REMARK SMILES IDX 21 13 23 14 26 15 27 16 28 17 29 18 11 19 10 20 9 21 12 22
REMARK SMILES IDX 30 23 24 24 25 25 18 26 8 27 2 28 3 29 1 30 22 31
REMARK H PARENT 22 32
REMARK Flexibility Score: inf
ROOT
ATOM      1  C   UNL     1       4.710 -59.704 190.304  1.00  0.00     0.018 C 
ATOM      2  C   UNL     1       3.461 -60.317 189.672  1.00  0.00     0.009 C 
ATOM      3  C   UNL     1       2.263 -59.701 190.396  1.00  0.00     0.008 C 
ATOM      4  C   UNL     1       2.810 -58.765 191.507  1.00  0.00    -0.029 C 
ATOM      5  C   UNL     1       4.273 -59.222 191.700  1.00  0.00     0.006 C 
ATOM      6  C   UNL     1       5.272 -58.197 192.369  1.00  0.00    -0.000 C 
ATOM      7  C   UNL     1       5.456 -58.457 193.884  1.00  0.00     0.005 C 
ATOM      8  C   UNL     1       4.908 -57.406 194.835  1.00  0.00     0.005 C 
ATOM      9  C   UNL     1       5.230 -55.900 194.533  1.00  0.00     0.002 C 
ATOM     10  C   UNL     1       6.048 -55.161 195.706  1.00  0.00    -0.026 C 
ATOM     11  C   UNL     1       5.442 -55.459 197.134  1.00  0.00     0.010 C 
ATOM     12  C   UNL     1       6.356 -55.050 198.301  1.00  0.00     0.033 C 
ATOM     13  C   UNL     1       7.766 -55.649 198.186  1.00  0.00     0.120 C 
ATOM     14  C   UNL     1       8.479 -55.316 196.829  1.00  0.00    -0.006 C 
ATOM     15  C   UNL     1       7.534 -55.662 195.604  1.00  0.00     0.003 C 
ATOM     16  C   UNL     1       8.147 -55.318 194.218  1.00  0.00     0.005 C 
ATOM     17  C   UNL     1       7.357 -55.922 193.043  1.00  0.00     0.008 C 
ATOM     18  C   UNL     1       5.804 -55.683 193.052  1.00  0.00    -0.024 C 
ATOM     19  C   UNL     1       5.103 -56.671 191.972  1.00  0.00    -0.024 C 
ATOM     20  C   UNL     1       3.576 -56.331 191.870  1.00  0.00     0.008 C 
ATOM     21  C   UNL     1       2.743 -57.300 191.020  1.00  0.00     0.007 C 
ATOM     22  C   UNL     1       5.775 -56.472 190.552  1.00  0.00     0.012 C 
ATOM     23  C   UNL     1       5.528 -54.194 192.617  1.00  0.00     0.012 C 
ATOM     24  C   UNL     1       8.939 -53.834 196.841  1.00  0.00     0.014 C 
ATOM     25  C   UNL     1       9.776 -56.173 196.758  1.00  0.00     0.014 C 
ATOM     26  C   UNL     1       5.907 -53.605 195.556  1.00  0.00     0.012 C 
ATOM     27  C   UNL     1       1.963 -58.953 192.786  1.00  0.00     0.011 C 
ENDROOT
BRANCH   1  28
ATOM     28  C   UNL     1       5.899 -60.662 190.324  1.00  0.00    -0.077 C 
ATOM     29  C   UNL     1       6.588 -61.108 189.058  1.00  0.00     0.039 C 
ATOM     30  C   UNL     1       6.358 -61.129 191.497  1.00  0.00     0.008 C 
ENDBRANCH   1  28
BRANCH  13  31
ATOM     31  O   UNL     1       7.735 -57.032 198.461  1.00  0.00    -0.393 OA
ATOM     32  H   UNL     1       8.414 -57.231 199.154  1.00  0.00     0.210 HD
ENDBRANCH  13  31
TORSDOF 2
ENDMDL
