MODEL 1
REMARK VINA RESULT:     9.457      0.000      0.000
REMARK INTER + INTRA:          16.423
REMARK INTER:                  17.197
REMARK INTRA:                  -0.774
REMARK UNBOUND:                -0.774
REMARK SMILES CCCCCCCCCCCCCCCC(=O)[O-]
REMARK SMILES IDX 9 1 10 2 11 3 12 4 13 5 14 6 15 7 16 8 17 9 18 10 8 11 7 12
REMARK SMILES IDX 6 13 5 14 4 15 3 16 2 17 1 18
REMARK H PARENT
REMARK Flexibility Score: inf
ROOT
ATOM      1  C   UNL     1     -34.684  14.701  17.651  1.00  0.00     0.000 C 
ENDROOT
BRANCH   1   2
ATOM      2  C   UNL     1     -34.990  13.514  16.721  1.00  0.00     0.000 C 
BRANCH   2   3
ATOM      3  C   UNL     1     -33.972  12.371  16.867  1.00  0.00     0.000 C 
BRANCH   3   4
ATOM      4  C   UNL     1     -32.544  12.876  17.133  1.00  0.00     0.000 C 
BRANCH   4   5
ATOM      5  C   UNL     1     -31.936  12.174  18.357  1.00  0.00     0.000 C 
BRANCH   5   6
ATOM      6  C   UNL     1     -32.967  11.347  19.140  1.00  0.00     0.006 C 
BRANCH   6   7
ATOM      7  C   UNL     1     -33.691  12.167  20.215  1.00  0.00     0.053 C 
BRANCH   7   8
ATOM      8  C   UNL     1     -34.118  11.284  21.345  1.00  0.00     0.041 C 
ATOM      9  O   UNL     1     -34.361  11.779  22.478  1.00  0.00    -0.550 OA
ATOM     10  O   UNL     1     -34.200   9.910  21.161  1.00  0.00    -0.550 OA
ENDBRANCH   7   8
ENDBRANCH   6   7
ENDBRANCH   5   6
ENDBRANCH   4   5
ENDBRANCH   3   4
ENDBRANCH   2   3
ENDBRANCH   1   2
BRANCH   1  11
ATOM     11  C   UNL     1     -34.957  16.065  16.992  1.00  0.00     0.000 C 
BRANCH  11  12
ATOM     12  C   UNL     1     -35.288  17.214  17.965  1.00  0.00    -0.000 C 
BRANCH  12  13
ATOM     13  C   UNL     1     -36.770  17.244  18.375  1.00  0.00    -0.000 C 
BRANCH  13  14
ATOM     14  C   UNL     1     -37.561  16.024  17.868  1.00  0.00    -0.000 C 
BRANCH  14  15
ATOM     15  C   UNL     1     -38.523  15.392  18.891  1.00  0.00    -0.000 C 
BRANCH  15  16
ATOM     16  C   UNL     1     -39.958  15.930  18.780  1.00  0.00    -0.000 C 
BRANCH  16  17
ATOM     17  C   UNL     1     -40.384  16.057  17.313  1.00  0.00    -0.003 C 
ATOM     18  C   UNL     1     -40.917  17.455  17.013  1.00  0.00     0.004 C 
ENDBRANCH  16  17
ENDBRANCH  15  16
ENDBRANCH  14  15
ENDBRANCH  13  14
ENDBRANCH  12  13
ENDBRANCH  11  12
ENDBRANCH   1  11
TORSDOF 14
ENDMDL
MODEL 2
REMARK VINA RESULT:     9.485      3.295      7.597
REMARK INTER + INTRA:          16.474
REMARK INTER:                  16.853
REMARK INTRA:                  -0.379
REMARK UNBOUND:                -0.774
REMARK SMILES CCCCCCCCCCCCCCCC(=O)[O-]
REMARK SMILES IDX 9 1 10 2 11 3 12 4 13 5 14 6 15 7 16 8 17 9 18 10 8 11 7 12
REMARK SMILES IDX 6 13 5 14 4 15 3 16 2 17 1 18
REMARK H PARENT
REMARK Flexibility Score: inf
ROOT
ATOM      1  C   UNL     1     -32.850  12.728  17.174  1.00  0.00     0.000 C 
ENDROOT
BRANCH   1   2
ATOM      2  C   UNL     1     -33.894  13.685  16.572  1.00  0.00     0.000 C 
BRANCH   2   3
ATOM      3  C   UNL     1     -34.404  14.719  17.590  1.00  0.00     0.000 C 
BRANCH   3   4
ATOM      4  C   UNL     1     -35.018  15.959  16.921  1.00  0.00     0.000 C 
BRANCH   4   5
ATOM      5  C   UNL     1     -35.410  17.009  17.973  1.00  0.00     0.000 C 
BRANCH   5   6
ATOM      6  C   UNL     1     -36.916  17.013  18.275  1.00  0.00     0.006 C 
BRANCH   6   7
ATOM      7  C   UNL     1     -37.563  15.637  18.078  1.00  0.00     0.053 C 
BRANCH   7   8
ATOM      8  C   UNL     1     -38.949  15.626  18.642  1.00  0.00     0.041 C 
ATOM      9  O   UNL     1     -39.230  14.879  19.616  1.00  0.00    -0.550 OA
ATOM     10  O   UNL     1     -39.942  16.402  18.059  1.00  0.00    -0.550 OA
ENDBRANCH   7   8
ENDBRANCH   6   7
ENDBRANCH   5   6
ENDBRANCH   4   5
ENDBRANCH   3   4
ENDBRANCH   2   3
ENDBRANCH   1   2
BRANCH   1  11
ATOM     11  C   UNL     1     -33.457  11.737  18.184  1.00  0.00     0.000 C 
BRANCH  11  12
ATOM     12  C   UNL     1     -32.984  11.904  19.641  1.00  0.00    -0.000 C 
BRANCH  12  13
ATOM     13  C   UNL     1     -33.934  11.249  20.658  1.00  0.00    -0.000 C 
BRANCH  13  14
ATOM     14  C   UNL     1     -33.762   9.721  20.746  1.00  0.00    -0.000 C 
BRANCH  14  15
ATOM     15  C   UNL     1     -34.101   9.098  22.113  1.00  0.00    -0.000 C 
BRANCH  15  16
ATOM     16  C   UNL     1     -33.686   7.624  22.222  1.00  0.00    -0.000 C 
BRANCH  16  17
ATOM     17  C   UNL     1     -34.856   6.758  22.703  1.00  0.00    -0.003 C 
ATOM     18  C   UNL     1     -34.740   6.455  24.195  1.00  0.00     0.004 C 
ENDBRANCH  16  17
ENDBRANCH  15  16
ENDBRANCH  14  15
ENDBRANCH  13  14
ENDBRANCH  12  13
ENDBRANCH  11  12
ENDBRANCH   1  11
TORSDOF 14
ENDMDL
MODEL 3
REMARK VINA RESULT:     9.706      3.140      7.309
REMARK INTER + INTRA:          16.877
REMARK INTER:                  17.378
REMARK INTRA:                  -0.501
REMARK UNBOUND:                -0.774
REMARK SMILES CCCCCCCCCCCCCCCC(=O)[O-]
REMARK SMILES IDX 9 1 10 2 11 3 12 4 13 5 14 6 15 7 16 8 17 9 18 10 8 11 7 12
REMARK SMILES IDX 6 13 5 14 4 15 3 16 2 17 1 18
REMARK H PARENT
REMARK Flexibility Score: inf
ROOT
ATOM      1  C   UNL     1     -32.891  12.374  17.700  1.00  0.00     0.000 C 
ENDROOT
BRANCH   1   2
ATOM      2  C   UNL     1     -33.947  13.226  16.976  1.00  0.00     0.000 C 
BRANCH   2   3
ATOM      3  C   UNL     1     -34.453  14.396  17.836  1.00  0.00     0.000 C 
BRANCH   3   4
ATOM      4  C   UNL     1     -34.888  15.608  16.997  1.00  0.00     0.000 C 
BRANCH   4   5
ATOM      5  C   UNL     1     -35.188  16.817  17.897  1.00  0.00     0.000 C 
BRANCH   5   6
ATOM      6  C   UNL     1     -36.682  16.953  18.229  1.00  0.00     0.006 C 
BRANCH   6   7
ATOM      7  C   UNL     1     -37.492  15.711  17.836  1.00  0.00     0.053 C 
BRANCH   7   8
ATOM      8  C   UNL     1     -38.836  15.735  18.492  1.00  0.00     0.041 C 
ATOM      9  O   UNL     1     -39.756  16.458  18.026  1.00  0.00    -0.550 OA
ATOM     10  O   UNL     1     -39.058  14.999  19.649  1.00  0.00    -0.550 OA
ENDBRANCH   7   8
ENDBRANCH   6   7
ENDBRANCH   5   6
ENDBRANCH   4   5
ENDBRANCH   3   4
ENDBRANCH   2   3
ENDBRANCH   1   2
BRANCH   1  11
ATOM     11  C   UNL     1     -33.144  12.264  19.215  1.00  0.00     0.000 C 
BRANCH  11  12
ATOM     12  C   UNL     1     -33.229  10.828  19.768  1.00  0.00    -0.000 C 
BRANCH  12  13
ATOM     13  C   UNL     1     -34.185  10.703  20.967  1.00  0.00    -0.000 C 
BRANCH  13  14
ATOM     14  C   UNL     1     -34.082  11.888  21.945  1.00  0.00    -0.000 C 
BRANCH  14  15
ATOM     15  C   UNL     1     -34.731  11.662  23.324  1.00  0.00    -0.000 C 
BRANCH  15  16
ATOM     16  C   UNL     1     -33.745  11.130  24.374  1.00  0.00    -0.000 C 
BRANCH  16  17
ATOM     17  C   UNL     1     -34.488  10.593  25.603  1.00  0.00    -0.003 C 
ATOM     18  C   UNL     1     -33.639   9.573  26.357  1.00  0.00     0.004 C 
ENDBRANCH  16  17
ENDBRANCH  15  16
ENDBRANCH  14  15
ENDBRANCH  13  14
ENDBRANCH  12  13
ENDBRANCH  11  12
ENDBRANCH   1  11
TORSDOF 14
ENDMDL
MODEL 4
REMARK VINA RESULT:    10.011      2.520      4.453
REMARK INTER + INTRA:          17.430
REMARK INTER:                  18.179
REMARK INTRA:                  -0.749
REMARK UNBOUND:                -0.774
REMARK SMILES CCCCCCCCCCCCCCCC(=O)[O-]
REMARK SMILES IDX 9 1 10 2 11 3 12 4 13 5 14 6 15 7 16 8 17 9 18 10 8 11 7 12
REMARK SMILES IDX 6 13 5 14 4 15 3 16 2 17 1 18
REMARK H PARENT
REMARK Flexibility Score: inf
ROOT
ATOM      1  C   UNL     1     -33.172  12.048  19.249  1.00  0.00     0.000 C 
ENDROOT
BRANCH   1   2
ATOM      2  C   UNL     1     -33.383  10.633  19.813  1.00  0.00     0.000 C 
BRANCH   2   3
ATOM      3  C   UNL     1     -34.080  10.641  21.184  1.00  0.00     0.000 C 
BRANCH   3   4
ATOM      4  C   UNL     1     -34.180  12.049  21.792  1.00  0.00     0.000 C 
BRANCH   4   5
ATOM      5  C   UNL     1     -34.678  11.983  23.244  1.00  0.00     0.000 C 
BRANCH   5   6
ATOM      6  C   UNL     1     -34.067  10.811  24.028  1.00  0.00     0.006 C 
BRANCH   6   7
ATOM      7  C   UNL     1     -34.076  11.043  25.543  1.00  0.00     0.053 C 
BRANCH   7   8
ATOM      8  C   UNL     1     -33.988   9.739  26.272  1.00  0.00     0.041 C 
ATOM      9  O   UNL     1     -34.954   8.931  26.244  1.00  0.00    -0.550 OA
ATOM     10  O   UNL     1     -32.859   9.437  27.022  1.00  0.00    -0.550 OA
ENDBRANCH   7   8
ENDBRANCH   6   7
ENDBRANCH   5   6
ENDBRANCH   4   5
ENDBRANCH   3   4
ENDBRANCH   2   3
ENDBRANCH   1   2
BRANCH   1  11
ATOM     11  C   UNL     1     -32.961  12.061  17.723  1.00  0.00     0.000 C 
BRANCH  11  12
ATOM     12  C   UNL     1     -33.814  13.082  16.946  1.00  0.00    -0.000 C 
BRANCH  12  13
ATOM     13  C   UNL     1     -34.268  14.268  17.814  1.00  0.00    -0.000 C 
BRANCH  13  14
ATOM     14  C   UNL     1     -35.146  15.274  17.047  1.00  0.00    -0.000 C 
BRANCH  14  15
ATOM     15  C   UNL     1     -35.286  16.660  17.705  1.00  0.00    -0.000 C 
BRANCH  15  16
ATOM     16  C   UNL     1     -36.687  16.915  18.280  1.00  0.00    -0.000 C 
BRANCH  16  17
ATOM     17  C   UNL     1     -37.577  15.676  18.128  1.00  0.00    -0.003 C 
ATOM     18  C   UNL     1     -39.018  15.982  18.525  1.00  0.00     0.004 C 
ENDBRANCH  16  17
ENDBRANCH  15  16
ENDBRANCH  14  15
ENDBRANCH  13  14
ENDBRANCH  12  13
ENDBRANCH  11  12
ENDBRANCH   1  11
TORSDOF 14
ENDMDL
MODEL 5
REMARK VINA RESULT:    10.093      2.290      3.541
REMARK INTER + INTRA:          17.581
REMARK INTER:                  18.139
REMARK INTRA:                  -0.559
REMARK UNBOUND:                -0.774
REMARK SMILES CCCCCCCCCCCCCCCC(=O)[O-]
REMARK SMILES IDX 9 1 10 2 11 3 12 4 13 5 14 6 15 7 16 8 17 9 18 10 8 11 7 12
REMARK SMILES IDX 6 13 5 14 4 15 3 16 2 17 1 18
REMARK H PARENT
REMARK Flexibility Score: inf
ROOT
ATOM      1  C   UNL     1     -33.219  12.379  17.357  1.00  0.00     0.000 C 
ENDROOT
BRANCH   1   2
ATOM      2  C   UNL     1     -32.920  12.527  18.859  1.00  0.00     0.000 C 
BRANCH   2   3
ATOM      3  C   UNL     1     -32.837  11.171  19.580  1.00  0.00     0.000 C 
BRANCH   3   4
ATOM      4  C   UNL     1     -33.895  11.019  20.685  1.00  0.00     0.000 C 
BRANCH   4   5
ATOM      5  C   UNL     1     -34.345   9.555  20.812  1.00  0.00     0.000 C 
BRANCH   5   6
ATOM      6  C   UNL     1     -34.030   8.955  22.190  1.00  0.00     0.006 C 
BRANCH   6   7
ATOM      7  C   UNL     1     -33.709   7.456  22.124  1.00  0.00     0.053 C 
BRANCH   7   8
ATOM      8  C   UNL     1     -34.669   6.679  22.969  1.00  0.00     0.041 C 
ATOM      9  O   UNL     1     -35.811   6.390  22.525  1.00  0.00    -0.550 OA
ATOM     10  O   UNL     1     -34.321   6.319  24.264  1.00  0.00    -0.550 OA
ENDBRANCH   7   8
ENDBRANCH   6   7
ENDBRANCH   5   6
ENDBRANCH   4   5
ENDBRANCH   3   4
ENDBRANCH   2   3
ENDBRANCH   1   2
BRANCH   1  11
ATOM     11  C   UNL     1     -34.260  13.394  16.850  1.00  0.00     0.000 C 
BRANCH  11  12
ATOM     12  C   UNL     1     -34.532  14.586  17.787  1.00  0.00    -0.000 C 
BRANCH  12  13
ATOM     13  C   UNL     1     -35.083  15.817  17.047  1.00  0.00    -0.000 C 
BRANCH  13  14
ATOM     14  C   UNL     1     -35.636  16.894  17.998  1.00  0.00    -0.000 C 
BRANCH  14  15
ATOM     15  C   UNL     1     -37.168  16.904  18.161  1.00  0.00    -0.000 C 
BRANCH  15  16
ATOM     16  C   UNL     1     -37.748  15.518  18.478  1.00  0.00    -0.000 C 
BRANCH  16  17
ATOM     17  C   UNL     1     -39.266  15.592  18.681  1.00  0.00    -0.003 C 
ATOM     18  C   UNL     1     -39.913  16.529  17.665  1.00  0.00     0.004 C 
ENDBRANCH  16  17
ENDBRANCH  15  16
ENDBRANCH  14  15
ENDBRANCH  13  14
ENDBRANCH  12  13
ENDBRANCH  11  12
ENDBRANCH   1  11
TORSDOF 14
ENDMDL
MODEL 6
REMARK VINA RESULT:    10.268      2.648      6.640
REMARK INTER + INTRA:          17.899
REMARK INTER:                  18.496
REMARK INTRA:                  -0.597
REMARK UNBOUND:                -0.774
REMARK SMILES CCCCCCCCCCCCCCCC(=O)[O-]
REMARK SMILES IDX 9 1 10 2 11 3 12 4 13 5 14 6 15 7 16 8 17 9 18 10 8 11 7 12
REMARK SMILES IDX 6 13 5 14 4 15 3 16 2 17 1 18
REMARK H PARENT
REMARK Flexibility Score: inf
ROOT
ATOM      1  C   UNL     1     -34.456  14.247  17.416  1.00  0.00     0.000 C 
ENDROOT
BRANCH   1   2
ATOM      2  C   UNL     1     -34.926  15.070  16.204  1.00  0.00     0.000 C 
BRANCH   2   3
ATOM      3  C   UNL     1     -34.986  16.578  16.501  1.00  0.00     0.000 C 
BRANCH   3   4
ATOM      4  C   UNL     1     -34.774  16.900  17.989  1.00  0.00     0.000 C 
BRANCH   4   5
ATOM      5  C   UNL     1     -35.960  17.700  18.550  1.00  0.00     0.000 C 
BRANCH   5   6
ATOM      6  C   UNL     1     -37.316  17.183  18.045  1.00  0.00     0.006 C 
BRANCH   6   7
ATOM      7  C   UNL     1     -37.568  15.718  18.423  1.00  0.00     0.053 C 
BRANCH   7   8
ATOM      8  C   UNL     1     -39.011  15.506  18.758  1.00  0.00     0.041 C 
ATOM      9  O   UNL     1     -39.341  14.653  19.624  1.00  0.00    -0.550 OA
ATOM     10  O   UNL     1     -39.993  16.214  18.079  1.00  0.00    -0.550 OA
ENDBRANCH   7   8
ENDBRANCH   6   7
ENDBRANCH   5   6
ENDBRANCH   4   5
ENDBRANCH   3   4
ENDBRANCH   2   3
ENDBRANCH   1   2
BRANCH   1  11
ATOM     11  C   UNL     1     -34.091  12.797  17.051  1.00  0.00     0.000 C 
BRANCH  11  12
ATOM     12  C   UNL     1     -32.587  12.463  17.091  1.00  0.00    -0.000 C 
BRANCH  12  13
ATOM     13  C   UNL     1     -32.093  12.089  18.499  1.00  0.00    -0.000 C 
BRANCH  13  14
ATOM     14  C   UNL     1     -33.228  12.026  19.538  1.00  0.00    -0.000 C 
BRANCH  14  15
ATOM     15  C   UNL     1     -33.711  10.609  19.900  1.00  0.00    -0.000 C 
BRANCH  15  16
ATOM     16  C   UNL     1     -34.004  10.436  21.397  1.00  0.00    -0.000 C 
BRANCH  16  17
ATOM     17  C   UNL     1     -34.307  11.786  22.057  1.00  0.00    -0.003 C 
ATOM     18  C   UNL     1     -34.307  11.668  23.578  1.00  0.00     0.004 C 
ENDBRANCH  16  17
ENDBRANCH  15  16
ENDBRANCH  14  15
ENDBRANCH  13  14
ENDBRANCH  12  13
ENDBRANCH  11  12
ENDBRANCH   1  11
TORSDOF 14
ENDMDL
MODEL 7
REMARK VINA RESULT:    10.397      1.259      2.195
REMARK INTER + INTRA:          18.132
REMARK INTER:                  18.851
REMARK INTRA:                  -0.719
REMARK UNBOUND:                -0.774
REMARK SMILES CCCCCCCCCCCCCCCC(=O)[O-]
REMARK SMILES IDX 9 1 10 2 11 3 12 4 13 5 14 6 15 7 16 8 17 9 18 10 8 11 7 12
REMARK SMILES IDX 6 13 5 14 4 15 3 16 2 17 1 18
REMARK H PARENT
REMARK Flexibility Score: inf
ROOT
ATOM      1  C   UNL     1     -34.106  13.493  16.523  1.00  0.00     0.000 C 
ENDROOT
BRANCH   1   2
ATOM      2  C   UNL     1     -32.895  12.775  17.143  1.00  0.00     0.000 C 
BRANCH   2   3
ATOM      3  C   UNL     1     -33.296  11.515  17.929  1.00  0.00     0.000 C 
BRANCH   3   4
ATOM      4  C   UNL     1     -32.742  11.507  19.363  1.00  0.00     0.000 C 
BRANCH   4   5
ATOM      5  C   UNL     1     -33.801  12.003  20.360  1.00  0.00     0.000 C 
BRANCH   5   6
ATOM      6  C   UNL     1     -34.068  10.998  21.491  1.00  0.00     0.006 C 
BRANCH   6   7
ATOM      7  C   UNL     1     -34.434   9.603  20.969  1.00  0.00     0.053 C 
BRANCH   7   8
ATOM      8  C   UNL     1     -33.554   8.566  21.592  1.00  0.00     0.041 C 
ATOM      9  O   UNL     1     -32.325   8.531  21.318  1.00  0.00    -0.550 OA
ATOM     10  O   UNL     1     -34.100   7.606  22.434  1.00  0.00    -0.550 OA
ENDBRANCH   7   8
ENDBRANCH   6   7
ENDBRANCH   5   6
ENDBRANCH   4   5
ENDBRANCH   3   4
ENDBRANCH   2   3
ENDBRANCH   1   2
BRANCH   1  11
ATOM     11  C   UNL     1     -34.694  14.581  17.441  1.00  0.00     0.000 C 
BRANCH  11  12
ATOM     12  C   UNL     1     -35.084  15.897  16.742  1.00  0.00    -0.000 C 
BRANCH  12  13
ATOM     13  C   UNL     1     -35.235  17.074  17.720  1.00  0.00    -0.000 C 
BRANCH  13  14
ATOM     14  C   UNL     1     -36.616  17.118  18.400  1.00  0.00    -0.000 C 
BRANCH  14  15
ATOM     15  C   UNL     1     -37.633  16.078  17.893  1.00  0.00    -0.000 C 
BRANCH  15  16
ATOM     16  C   UNL     1     -38.736  15.767  18.915  1.00  0.00    -0.000 C 
BRANCH  16  17
ATOM     17  C   UNL     1     -40.111  15.708  18.238  1.00  0.00    -0.003 C 
ATOM     18  C   UNL     1     -40.318  16.899  17.307  1.00  0.00     0.004 C 
ENDBRANCH  16  17
ENDBRANCH  15  16
ENDBRANCH  14  15
ENDBRANCH  13  14
ENDBRANCH  12  13
ENDBRANCH  11  12
ENDBRANCH   1  11
TORSDOF 14
ENDMDL
MODEL 8
REMARK VINA RESULT:    10.729      3.653      7.854
REMARK INTER + INTRA:          18.736
REMARK INTER:                  19.534
REMARK INTRA:                  -0.797
REMARK UNBOUND:                -0.774
REMARK SMILES CCCCCCCCCCCCCCCC(=O)[O-]
REMARK SMILES IDX 9 1 10 2 11 3 12 4 13 5 14 6 15 7 16 8 17 9 18 10 8 11 7 12
REMARK SMILES IDX 6 13 5 14 4 15 3 16 2 17 1 18
REMARK H PARENT
REMARK Flexibility Score: inf
ROOT
ATOM      1  C   UNL     1     -33.426  10.623  19.784  1.00  0.00     0.000 C 
ENDROOT
BRANCH   1   2
ATOM      2  C   UNL     1     -32.985  12.001  19.263  1.00  0.00     0.000 C 
BRANCH   2   3
ATOM      3  C   UNL     1     -32.796  12.023  17.737  1.00  0.00     0.000 C 
BRANCH   3   4
ATOM      4  C   UNL     1     -33.935  12.751  17.007  1.00  0.00     0.000 C 
BRANCH   4   5
ATOM      5  C   UNL     1     -34.248  14.095  17.684  1.00  0.00     0.000 C 
BRANCH   5   6
ATOM      6  C   UNL     1     -35.418  14.836  17.020  1.00  0.00     0.006 C 
BRANCH   6   7
ATOM      7  C   UNL     1     -35.136  16.331  16.822  1.00  0.00     0.053 C 
BRANCH   7   8
ATOM      8  C   UNL     1     -35.626  17.114  17.998  1.00  0.00     0.041 C 
ATOM      9  O   UNL     1     -36.830  17.030  18.358  1.00  0.00    -0.550 OA
ATOM     10  O   UNL     1     -34.766  17.977  18.666  1.00  0.00    -0.550 OA
ENDBRANCH   7   8
ENDBRANCH   6   7
ENDBRANCH   5   6
ENDBRANCH   4   5
ENDBRANCH   3   4
ENDBRANCH   2   3
ENDBRANCH   1   2
BRANCH   1  11
ATOM     11  C   UNL     1     -33.964  10.670  21.227  1.00  0.00     0.000 C 
BRANCH  11  12
ATOM     12  C   UNL     1     -34.369  12.067  21.736  1.00  0.00    -0.000 C 
BRANCH  12  13
ATOM     13  C   UNL     1     -34.566  12.116  23.260  1.00  0.00    -0.000 C 
BRANCH  13  14
ATOM     14  C   UNL     1     -33.955  10.903  23.986  1.00  0.00    -0.000 C 
BRANCH  14  15
ATOM     15  C   UNL     1     -34.177  10.867  25.510  1.00  0.00    -0.000 C 
BRANCH  15  16
ATOM     16  C   UNL     1     -35.030   9.675  25.966  1.00  0.00    -0.000 C 
BRANCH  16  17
ATOM     17  C   UNL     1     -34.176   8.641  26.709  1.00  0.00    -0.003 C 
ATOM     18  C   UNL     1     -32.917   9.281  27.289  1.00  0.00     0.004 C 
ENDBRANCH  16  17
ENDBRANCH  15  16
ENDBRANCH  14  15
ENDBRANCH  13  14
ENDBRANCH  12  13
ENDBRANCH  11  12
ENDBRANCH   1  11
TORSDOF 14
ENDMDL
