MODEL 1
REMARK VINA RESULT:    -2.188      0.000      0.000
REMARK INTER + INTRA:          -1.874
REMARK INTER:                  -2.699
REMARK INTRA:                   0.825
REMARK UNBOUND:                 0.825
REMARK SMILES CC1=CC=CC(C)(C)CC1=O
REMARK SMILES IDX 1 1 2 2 3 3 10 4 11 5 9 6 4 8 5 9 6 10 7 11 8 12
REMARK H PARENT
REMARK Flexibility Score: 80.00
ROOT
ATOM      1  C   UNL     1      70.121  -7.856  52.314  1.00  0.00     0.048 C 
ATOM      2  C   UNL     1      71.090  -8.476  51.334  1.00  0.00    -0.008 C 
ATOM      3  C   UNL     1      71.438  -7.754  50.246  1.00  0.00     0.007 C 
ENDROOT
BRANCH   2   4
ATOM      4  C   UNL     1      71.541  -9.864  51.627  1.00  0.00     0.159 C 
ATOM      5  O   UNL     1      71.202 -10.389  52.723  1.00  0.00    -0.295 OA
BRANCH   4   6
ATOM      6  C   UNL     1      72.348 -10.703  50.683  1.00  0.00     0.091 CG0
ATOM      7  G   UNL     1      73.651 -10.027  50.199  1.00  0.00     0.000 G0
ENDBRANCH   4   6
ENDBRANCH   2   4
BRANCH   3   8
ATOM      8  C   UNL     1      72.360  -8.094  49.139  1.00  0.00    -0.003 C 
ATOM      9  C   UNL     1      73.322  -9.025  49.111  1.00  0.00    -0.020 C 
BRANCH   9  10
ATOM     10  C   UNL     1      73.642 -10.009  50.209  1.00  0.00    -0.010 CG0
ATOM     11  C   UNL     1      74.553 -11.111  49.621  1.00  0.00     0.016 C 
ATOM     12  C   UNL     1      74.420  -9.309  51.348  1.00  0.00     0.016 C 
ATOM     13  G   UNL     1      72.336 -10.675  50.700  1.00  0.00     0.000 G0
ENDBRANCH   9  10
ENDBRANCH   3   8
TORSDOF 0
ENDMDL
MODEL 2
REMARK VINA RESULT:    -2.034     20.417     21.457
REMARK INTER + INTRA:          -1.685
REMARK INTER:                  -2.536
REMARK INTRA:                   0.851
REMARK UNBOUND:                 0.825
REMARK SMILES CC1=CC=CC(C)(C)CC1=O
REMARK SMILES IDX 1 1 2 2 3 3 10 4 11 5 9 6 4 8 5 9 6 10 7 11 8 12
REMARK H PARENT
REMARK Flexibility Score: 80.00
ROOT
ATOM      1  C   UNL     1      77.974   3.408  64.514  1.00  0.00     0.048 C 
ATOM      2  C   UNL     1      78.533   2.908  65.825  1.00  0.00    -0.008 C 
ATOM      3  C   UNL     1      77.658   2.500  66.771  1.00  0.00     0.007 C 
ENDROOT
BRANCH   2   4
ATOM      4  C   UNL     1      80.012   2.957  65.984  1.00  0.00     0.159 C 
ATOM      5  O   UNL     1      80.714   3.287  64.989  1.00  0.00    -0.295 OA
BRANCH   4   6
ATOM      6  C   UNL     1      80.730   2.677  67.270  1.00  0.00     0.091 CG0
ATOM      7  G   UNL     1      80.365   1.317  67.908  1.00  0.00     0.000 G0
ENDBRANCH   4   6
ENDBRANCH   2   4
BRANCH   3   8
ATOM      8  C   UNL     1      77.912   1.960  68.125  1.00  0.00    -0.003 C 
ATOM      9  C   UNL     1      79.038   1.424  68.613  1.00  0.00    -0.020 C 
BRANCH   9  10
ATOM     10  C   UNL     1      80.357   1.313  67.889  1.00  0.00    -0.010 CG0
ATOM     11  C   UNL     1      81.449   0.956  68.924  1.00  0.00     0.016 C 
ATOM     12  C   UNL     1      80.303   0.173  66.845  1.00  0.00     0.016 C 
ATOM     13  G   UNL     1      80.717   2.680  67.262  1.00  0.00     0.000 G0
ENDBRANCH   9  10
ENDBRANCH   3   8
TORSDOF 0
ENDMDL
MODEL 3
REMARK VINA RESULT:    -1.993     15.689     16.630
REMARK INTER + INTRA:          -1.634
REMARK INTER:                  -2.466
REMARK INTRA:                   0.832
REMARK UNBOUND:                 0.825
REMARK SMILES CC1=CC=CC(C)(C)CC1=O
REMARK SMILES IDX 1 1 2 2 3 3 10 4 11 5 9 6 4 8 5 9 6 10 7 11 8 12
REMARK H PARENT
REMARK Flexibility Score: 80.00
ROOT
ATOM      1  C   UNL     1      75.419  -8.431  66.541  1.00  0.00     0.048 C 
ATOM      2  C   UNL     1      73.941  -8.136  66.434  1.00  0.00    -0.008 C 
ATOM      3  C   UNL     1      73.113  -9.158  66.128  1.00  0.00     0.007 C 
ENDROOT
BRANCH   2   4
ATOM      4  C   UNL     1      73.528  -6.719  66.623  1.00  0.00     0.159 C 
ATOM      5  O   UNL     1      74.403  -5.876  66.965  1.00  0.00    -0.295 OA
BRANCH   4   6
ATOM      6  C   UNL     1      72.135  -6.212  66.398  1.00  0.00     0.091 CG0
ATOM      7  G   UNL     1      71.048  -7.001  67.163  1.00  0.00     0.000 G0
ENDBRANCH   4   6
ENDBRANCH   2   4
BRANCH   3   8
ATOM      8  C   UNL     1      71.642  -9.169  65.968  1.00  0.00    -0.003 C 
ATOM      9  C   UNL     1      70.746  -8.283  66.422  1.00  0.00    -0.020 C 
BRANCH   9  10
ATOM     10  C   UNL     1      71.056  -7.002  67.158  1.00  0.00    -0.010 CG0
ATOM     11  C   UNL     1      69.778  -6.131  67.172  1.00  0.00     0.016 C 
ATOM     12  C   UNL     1      71.440  -7.304  68.625  1.00  0.00     0.016 C 
ATOM     13  G   UNL     1      72.158  -6.226  66.400  1.00  0.00     0.000 G0
ENDBRANCH   9  10
ENDBRANCH   3   8
TORSDOF 0
ENDMDL
MODEL 4
REMARK VINA RESULT:    -1.968     19.614     20.640
REMARK INTER + INTRA:          -1.604
REMARK INTER:                  -2.438
REMARK INTRA:                   0.834
REMARK UNBOUND:                 0.825
REMARK SMILES CC1=CC=CC(C)(C)CC1=O
REMARK SMILES IDX 1 1 2 2 3 3 10 4 11 5 9 6 4 8 5 9 6 10 7 11 8 12
REMARK H PARENT
REMARK Flexibility Score: 80.00
ROOT
ATOM      1  C   UNL     1      79.126   3.294  64.809  1.00  0.00     0.048 C 
ATOM      2  C   UNL     1      79.810   2.313  65.732  1.00  0.00    -0.008 C 
ATOM      3  C   UNL     1      80.501   2.808  66.781  1.00  0.00     0.007 C 
ENDROOT
BRANCH   2   4
ATOM      4  C   UNL     1      79.706   0.873  65.371  1.00  0.00     0.159 C 
ATOM      5  O   UNL     1      79.000   0.549  64.377  1.00  0.00    -0.295 OA
BRANCH   4   6
ATOM      6  C   UNL     1      80.423  -0.229  66.093  1.00  0.00     0.091 CG0
ATOM      7  G   UNL     1      80.215  -0.215  67.625  1.00  0.00     0.000 G0
ENDBRANCH   4   6
ENDBRANCH   2   4
BRANCH   3   8
ATOM      8  C   UNL     1      81.251   2.098  67.842  1.00  0.00    -0.003 C 
ATOM      9  C   UNL     1      81.132   0.826  68.239  1.00  0.00    -0.020 C 
BRANCH   9  10
ATOM     10  C   UNL     1      80.227  -0.217  67.628  1.00  0.00    -0.010 CG0
ATOM     11  C   UNL     1      80.656  -1.603  68.162  1.00  0.00     0.016 C 
ATOM     12  C   UNL     1      78.761   0.025  68.059  1.00  0.00     0.016 C 
ATOM     13  G   UNL     1      80.405  -0.217  66.092  1.00  0.00     0.000 G0
ENDBRANCH   9  10
ENDBRANCH   3   8
TORSDOF 0
ENDMDL
MODEL 5
REMARK VINA RESULT:    -1.967      2.670      4.099
REMARK INTER + INTRA:          -1.602
REMARK INTER:                  -2.438
REMARK INTRA:                   0.836
REMARK UNBOUND:                 0.825
REMARK SMILES CC1=CC=CC(C)(C)CC1=O
REMARK SMILES IDX 1 1 2 2 3 3 10 4 11 5 9 6 4 8 5 9 6 10 7 11 8 12
REMARK H PARENT
REMARK Flexibility Score: 80.00
ROOT
ATOM      1  C   UNL     1      67.337  -8.904  53.413  1.00  0.00     0.048 C 
ATOM      2  C   UNL     1      68.846  -8.867  53.489  1.00  0.00    -0.008 C 
ATOM      3  C   UNL     1      69.482  -9.963  53.955  1.00  0.00     0.007 C 
ENDROOT
BRANCH   2   4
ATOM      4  C   UNL     1      69.503  -7.593  53.090  1.00  0.00     0.159 C 
ATOM      5  O   UNL     1      68.786  -6.660  52.635  1.00  0.00    -0.295 OA
BRANCH   4   6
ATOM      6  C   UNL     1      70.972  -7.326  53.228  1.00  0.00     0.091 CG0
ATOM      7  G   UNL     1      71.871  -8.413  52.595  1.00  0.00     0.000 G0
ENDBRANCH   4   6
ENDBRANCH   2   4
BRANCH   3   8
ATOM      8  C   UNL     1      70.930 -10.215  54.129  1.00  0.00    -0.003 C 
ATOM      9  C   UNL     1      71.962  -9.596  53.542  1.00  0.00    -0.020 C 
BRANCH   9  10
ATOM     10  C   UNL     1      71.874  -8.421  52.598  1.00  0.00    -0.010 CG0
ATOM     11  C   UNL     1      73.291  -7.823  52.437  1.00  0.00     0.016 C 
ATOM     12  C   UNL     1      71.395  -8.888  51.203  1.00  0.00     0.016 C 
ATOM     13  G   UNL     1      70.960  -7.335  53.210  1.00  0.00     0.000 G0
ENDBRANCH   9  10
ENDBRANCH   3   8
TORSDOF 0
ENDMDL
MODEL 6
REMARK VINA RESULT:    -1.941     14.802     15.971
REMARK INTER + INTRA:          -1.570
REMARK INTER:                  -2.406
REMARK INTRA:                   0.836
REMARK UNBOUND:                 0.825
REMARK SMILES CC1=CC=CC(C)(C)CC1=O
REMARK SMILES IDX 1 1 2 2 3 3 10 4 11 5 9 6 4 8 5 9 6 10 7 11 8 12
REMARK H PARENT
REMARK Flexibility Score: 80.00
ROOT
ATOM      1  C   UNL     1      70.709  -8.509  68.328  1.00  0.00     0.048 C 
ATOM      2  C   UNL     1      71.796  -7.824  67.532  1.00  0.00    -0.008 C 
ATOM      3  C   UNL     1      72.320  -6.682  68.030  1.00  0.00     0.007 C 
ENDROOT
BRANCH   2   4
ATOM      4  C   UNL     1      72.161  -8.443  66.229  1.00  0.00     0.159 C 
ATOM      5  O   UNL     1      71.613  -9.532  65.904  1.00  0.00    -0.295 OA
BRANCH   4   6
ATOM      6  C   UNL     1      73.118  -7.836  65.248  1.00  0.00     0.091 CG0
ATOM      7  G   UNL     1      74.473  -7.422  65.867  1.00  0.00     0.000 G0
ENDBRANCH   4   6
ENDBRANCH   2   4
BRANCH   3   8
ATOM      8  C   UNL     1      73.386  -5.813  67.484  1.00  0.00    -0.003 C 
ATOM      9  C   UNL     1      74.330  -6.116  66.584  1.00  0.00    -0.020 C 
BRANCH   9  10
ATOM     10  C   UNL     1      74.477  -7.429  65.854  1.00  0.00    -0.010 CG0
ATOM     11  C   UNL     1      75.468  -7.225  64.685  1.00  0.00     0.016 C 
ATOM     12  C   UNL     1      75.069  -8.503  66.796  1.00  0.00     0.016 C 
ATOM     13  G   UNL     1      73.111  -7.843  65.261  1.00  0.00     0.000 G0
ENDBRANCH   9  10
ENDBRANCH   3   8
TORSDOF 0
ENDMDL
MODEL 7
REMARK VINA RESULT:    -1.936     14.791     15.885
REMARK INTER + INTRA:          -1.564
REMARK INTER:                  -2.409
REMARK INTRA:                   0.845
REMARK UNBOUND:                 0.825
REMARK SMILES CC1=CC=CC(C)(C)CC1=O
REMARK SMILES IDX 1 1 2 2 3 3 10 4 11 5 9 6 4 8 5 9 6 10 7 11 8 12
REMARK H PARENT
REMARK Flexibility Score: 80.00
ROOT
ATOM      1  C   UNL     1      67.582   6.795  53.460  1.00  0.00     0.048 C 
ATOM      2  C   UNL     1      66.966   5.861  52.444  1.00  0.00    -0.008 C 
ATOM      3  C   UNL     1      67.796   5.214  51.596  1.00  0.00     0.007 C 
ENDROOT
BRANCH   2   4
ATOM      4  C   UNL     1      65.481   5.776  52.428  1.00  0.00     0.159 C 
ATOM      5  O   UNL     1      64.831   6.409  53.306  1.00  0.00    -0.295 OA
BRANCH   4   6
ATOM      6  C   UNL     1      64.693   5.011  51.408  1.00  0.00     0.091 CG0
ATOM      7  G   UNL     1      65.158   3.549  51.223  1.00  0.00     0.000 G0
ENDBRANCH   4   6
ENDBRANCH   2   4
BRANCH   3   8
ATOM      8  C   UNL     1      67.484   4.245  50.522  1.00  0.00    -0.003 C 
ATOM      9  C   UNL     1      66.380   3.505  50.360  1.00  0.00    -0.020 C 
BRANCH   9  10
ATOM     10  C   UNL     1      65.144   3.549  51.225  1.00  0.00    -0.010 CG0
ATOM     11  C   UNL     1      64.011   2.798  50.488  1.00  0.00     0.016 C 
ATOM     12  C   UNL     1      65.401   2.821  52.565  1.00  0.00     0.016 C 
ATOM     13  G   UNL     1      64.702   5.018  51.418  1.00  0.00     0.000 G0
ENDBRANCH   9  10
ENDBRANCH   3   8
TORSDOF 0
ENDMDL
MODEL 8
REMARK VINA RESULT:    -1.902      2.401      4.182
REMARK INTER + INTRA:          -1.522
REMARK INTER:                  -2.358
REMARK INTRA:                   0.837
REMARK UNBOUND:                 0.825
REMARK SMILES CC1=CC=CC(C)(C)CC1=O
REMARK SMILES IDX 1 1 2 2 3 3 10 4 11 5 9 6 4 8 5 9 6 10 7 11 8 12
REMARK H PARENT
REMARK Flexibility Score: 80.00
ROOT
ATOM      1  C   UNL     1      72.216 -10.942  50.322  1.00  0.00     0.048 C 
ATOM      2  C   UNL     1      71.719  -9.795  51.171  1.00  0.00    -0.008 C 
ATOM      3  C   UNL     1      71.467 -10.038  52.476  1.00  0.00     0.007 C 
ENDROOT
BRANCH   2   4
ATOM      4  C   UNL     1      71.498  -8.497  50.477  1.00  0.00     0.159 C 
ATOM      5  O   UNL     1      71.804  -8.406  49.256  1.00  0.00    -0.295 OA
BRANCH   4   6
ATOM      6  C   UNL     1      70.894  -7.289  51.127  1.00  0.00     0.091 CG0
ATOM      7  G   UNL     1      71.557  -6.900  52.468  1.00  0.00     0.000 G0
ENDBRANCH   4   6
ENDBRANCH   2   4
BRANCH   3   8
ATOM      8  C   UNL     1      70.989  -9.120  53.534  1.00  0.00    -0.003 C 
ATOM      9  C   UNL     1      71.040  -7.783  53.565  1.00  0.00    -0.020 C 
BRANCH   9  10
ATOM     10  C   UNL     1      71.548  -6.885  52.462  1.00  0.00    -0.010 CG0
ATOM     11  C   UNL     1      71.111  -5.436  52.777  1.00  0.00     0.016 C 
ATOM     12  C   UNL     1      73.093  -6.915  52.414  1.00  0.00     0.016 C 
ATOM     13  G   UNL     1      70.901  -7.302  51.121  1.00  0.00     0.000 G0
ENDBRANCH   9  10
ENDBRANCH   3   8
TORSDOF 0
ENDMDL
MODEL 9
REMARK VINA RESULT:    -1.855     11.554     12.538
REMARK INTER + INTRA:          -1.465
REMARK INTER:                  -2.309
REMARK INTRA:                   0.845
REMARK UNBOUND:                 0.825
REMARK SMILES CC1=CC=CC(C)(C)CC1=O
REMARK SMILES IDX 1 1 2 2 3 3 10 4 11 5 9 6 4 8 5 9 6 10 7 11 8 12
REMARK H PARENT
REMARK Flexibility Score: 80.00
ROOT
ATOM      1  C   UNL     1      82.001   1.996  54.194  1.00  0.00     0.048 C 
ATOM      2  C   UNL     1      81.178   1.262  53.160  1.00  0.00    -0.008 C 
ATOM      3  C   UNL     1      81.214   1.714  51.887  1.00  0.00     0.007 C 
ENDROOT
BRANCH   2   4
ATOM      4  C   UNL     1      80.349   0.128  53.649  1.00  0.00     0.159 C 
ATOM      5  O   UNL     1      80.437  -0.205  54.863  1.00  0.00    -0.295 OA
BRANCH   4   6
ATOM      6  C   UNL     1      79.376  -0.631  52.798  1.00  0.00     0.091 CG0
ATOM      7  G   UNL     1      79.975  -1.148  51.469  1.00  0.00     0.000 G0
ENDBRANCH   4   6
ENDBRANCH   2   4
BRANCH   3   8
ATOM      8  C   UNL     1      80.530   1.197  50.680  1.00  0.00    -0.003 C 
ATOM      9  C   UNL     1      80.018  -0.021  50.468  1.00  0.00    -0.020 C 
BRANCH   9  10
ATOM     10  C   UNL     1      79.962  -1.150  51.469  1.00  0.00    -0.010 CG0
ATOM     11  C   UNL     1      79.006  -2.235  50.921  1.00  0.00     0.016 C 
ATOM     12  C   UNL     1      81.360  -1.790  51.636  1.00  0.00     0.016 C 
ATOM     13  G   UNL     1      79.381  -0.627  52.803  1.00  0.00     0.000 G0
ENDBRANCH   9  10
ENDBRANCH   3   8
TORSDOF 0
ENDMDL
