MODEL 1
REMARK VINA RESULT:    -3.128      0.000      0.000
REMARK INTER + INTRA:          -5.141
REMARK INTER:                  -4.226
REMARK INTRA:                  -0.915
REMARK UNBOUND:                -0.915
REMARK SMILES O=C[C@@H](O)[C@H](O)[C@@H](O)CO
REMARK SMILES IDX 7 1 9 2 10 3 5 5 3 6 2 7 1 8 4 9 6 11 8 13
REMARK H PARENT 10 4 4 10 6 12 8 14
REMARK Flexibility Score: inf
ROOT
ATOM      1  C   UNL     1      16.172   0.635   0.954  1.00  0.00     0.171 C 
ENDROOT
BRANCH   1   2
ATOM      2  C   UNL     1      16.325   1.023   2.437  1.00  0.00     0.190 C 
BRANCH   2   3
ATOM      3  O   UNL     1      15.070   1.079   3.060  1.00  0.00    -0.394 OA
ATOM      4  H   UNL     1      14.449   1.504   2.413  1.00  0.00     0.210 HD
ENDBRANCH   2   3
ENDBRANCH   1   2
BRANCH   1   5
ATOM      5  C   UNL     1      15.932  -0.888   0.779  1.00  0.00     0.181 C 
BRANCH   5   6
ATOM      6  C   UNL     1      14.454  -1.200   0.451  1.00  0.00     0.209 C 
BRANCH   6   7
ATOM      7  C   UNL     1      14.302  -2.614  -0.037  1.00  0.00     0.258 C 
ATOM      8  O   UNL     1      15.279  -3.266  -0.371  1.00  0.00    -0.300 OA
ENDBRANCH   6   7
BRANCH   6   9
ATOM      9  O   UNL     1      13.643  -1.021   1.585  1.00  0.00    -0.383 OA
ATOM     10  H   UNL     1      12.850  -0.497   1.303  1.00  0.00     0.211 HD
ENDBRANCH   6   9
ENDBRANCH   5   6
BRANCH   5  11
ATOM     11  O   UNL     1      16.317  -1.584   1.940  1.00  0.00    -0.387 OA
ATOM     12  H   UNL     1      16.322  -2.550   1.715  1.00  0.00     0.211 HD
ENDBRANCH   5  11
ENDBRANCH   1   5
BRANCH   1  13
ATOM     13  O   UNL     1      15.155   1.391   0.344  1.00  0.00    -0.388 OA
ATOM     14  H   UNL     1      15.077   1.090  -0.599  1.00  0.00     0.211 HD
ENDBRANCH   1  13
TORSDOF 8
ENDMDL
MODEL 2
REMARK VINA RESULT:    -3.000      3.302      4.786
REMARK INTER + INTRA:          -4.968
REMARK INTER:                  -4.048
REMARK INTRA:                  -0.920
REMARK UNBOUND:                -0.915
REMARK SMILES O=C[C@@H](O)[C@H](O)[C@@H](O)CO
REMARK SMILES IDX 7 1 9 2 10 3 5 5 3 6 2 7 1 8 4 9 6 11 8 13
REMARK H PARENT 10 4 4 10 6 12 8 14
REMARK Flexibility Score: inf
ROOT
ATOM      1  C   UNL     1      15.546   3.583  -2.054  1.00  0.00     0.171 C 
ENDROOT
BRANCH   1   2
ATOM      2  C   UNL     1      14.704   4.792  -1.602  1.00  0.00     0.190 C 
BRANCH   2   3
ATOM      3  O   UNL     1      13.650   4.372  -0.777  1.00  0.00    -0.394 OA
ATOM      4  H   UNL     1      13.437   3.439  -1.038  1.00  0.00     0.210 HD
ENDBRANCH   2   3
ENDBRANCH   1   2
BRANCH   1   5
ATOM      5  C   UNL     1      16.594   3.179  -0.985  1.00  0.00     0.181 C 
BRANCH   5   6
ATOM      6  C   UNL     1      16.302   1.780  -0.395  1.00  0.00     0.209 C 
BRANCH   6   7
ATOM      7  C   UNL     1      17.392   1.360   0.550  1.00  0.00     0.258 C 
ATOM      8  O   UNL     1      17.434   1.800   1.689  1.00  0.00    -0.300 OA
ENDBRANCH   6   7
BRANCH   6   9
ATOM      9  O   UNL     1      15.076   1.776   0.293  1.00  0.00    -0.383 OA
ATOM     10  H   UNL     1      15.247   1.408   1.199  1.00  0.00     0.211 HD
ENDBRANCH   6   9
ENDBRANCH   5   6
BRANCH   5  11
ATOM     11  O   UNL     1      16.634   4.131   0.051  1.00  0.00    -0.387 OA
ATOM     12  H   UNL     1      15.814   4.684  -0.027  1.00  0.00     0.211 HD
ENDBRANCH   5  11
ENDBRANCH   1   5
BRANCH   1  13
ATOM     13  O   UNL     1      14.717   2.501  -2.398  1.00  0.00    -0.388 OA
ATOM     14  H   UNL     1      14.319   2.693  -3.288  1.00  0.00     0.211 HD
ENDBRANCH   1  13
TORSDOF 8
ENDMDL
MODEL 3
REMARK VINA RESULT:    -2.998      1.643      2.252
REMARK INTER + INTRA:          -4.965
REMARK INTER:                  -4.256
REMARK INTRA:                  -0.709
REMARK UNBOUND:                -0.915
REMARK SMILES O=C[C@@H](O)[C@H](O)[C@@H](O)CO
REMARK SMILES IDX 7 1 9 2 10 3 5 5 3 6 2 7 1 8 4 9 6 11 8 13
REMARK H PARENT 10 4 4 10 6 12 8 14
REMARK Flexibility Score: inf
ROOT
ATOM      1  C   UNL     1      17.074   1.348   2.018  1.00  0.00     0.171 C 
ENDROOT
BRANCH   1   2
ATOM      2  C   UNL     1      17.673   1.914   3.319  1.00  0.00     0.190 C 
BRANCH   2   3
ATOM      3  O   UNL     1      16.975   1.422   4.432  1.00  0.00    -0.394 OA
ATOM      4  H   UNL     1      17.653   1.037   5.047  1.00  0.00     0.210 HD
ENDBRANCH   2   3
ENDBRANCH   1   2
BRANCH   1   5
ATOM      5  C   UNL     1      15.954   0.313   2.301  1.00  0.00     0.181 C 
BRANCH   5   6
ATOM      6  C   UNL     1      15.710  -0.614   1.088  1.00  0.00     0.209 C 
BRANCH   6   7
ATOM      7  C   UNL     1      14.644  -1.628   1.397  1.00  0.00     0.258 C 
ATOM      8  O   UNL     1      13.462  -1.328   1.338  1.00  0.00    -0.300 OA
ENDBRANCH   6   7
BRANCH   6   9
ATOM      9  O   UNL     1      15.316   0.131  -0.037  1.00  0.00    -0.383 OA
ATOM     10  H   UNL     1      14.619  -0.393  -0.510  1.00  0.00     0.211 HD
ENDBRANCH   6   9
ENDBRANCH   5   6
BRANCH   5  11
ATOM     11  O   UNL     1      14.756   0.965   2.648  1.00  0.00    -0.387 OA
ATOM     12  H   UNL     1      14.333   1.270   1.804  1.00  0.00     0.211 HD
ENDBRANCH   5  11
ENDBRANCH   1   5
BRANCH   1  13
ATOM     13  O   UNL     1      16.619   2.386   1.187  1.00  0.00    -0.388 OA
ATOM     14  H   UNL     1      17.062   2.286   0.304  1.00  0.00     0.211 HD
ENDBRANCH   1  13
TORSDOF 8
ENDMDL
MODEL 4
REMARK VINA RESULT:    -2.961      1.445      2.125
REMARK INTER + INTRA:          -4.914
REMARK INTER:                  -4.426
REMARK INTRA:                  -0.489
REMARK UNBOUND:                -0.915
REMARK SMILES O=C[C@@H](O)[C@H](O)[C@@H](O)CO
REMARK SMILES IDX 7 1 9 2 10 3 5 5 3 6 2 7 1 8 4 9 6 11 8 13
REMARK H PARENT 10 4 4 10 6 12 8 14
REMARK Flexibility Score: inf
ROOT
ATOM      1  C   UNL     1      14.871  -0.924   1.156  1.00  0.00     0.171 C 
ENDROOT
BRANCH   1   2
ATOM      2  C   UNL     1      15.610   0.106   2.032  1.00  0.00     0.190 C 
BRANCH   2   3
ATOM      3  O   UNL     1      14.691   0.929   2.699  1.00  0.00    -0.394 OA
ATOM      4  H   UNL     1      13.852   0.909   2.169  1.00  0.00     0.210 HD
ENDBRANCH   2   3
ENDBRANCH   1   2
BRANCH   1   5
ATOM      5  C   UNL     1      15.686  -2.235   0.999  1.00  0.00     0.181 C 
BRANCH   5   6
ATOM      6  C   UNL     1      15.344  -2.966  -0.320  1.00  0.00     0.209 C 
BRANCH   6   7
ATOM      7  C   UNL     1      15.984  -4.326  -0.358  1.00  0.00     0.258 C 
ATOM      8  O   UNL     1      15.426  -5.292   0.139  1.00  0.00    -0.300 OA
ENDBRANCH   6   7
BRANCH   6   9
ATOM      9  O   UNL     1      13.953  -3.114  -0.462  1.00  0.00    -0.383 OA
ATOM     10  H   UNL     1      13.551  -2.210  -0.389  1.00  0.00     0.211 HD
ENDBRANCH   6   9
ENDBRANCH   5   6
BRANCH   5  11
ATOM     11  O   UNL     1      15.455  -3.093   2.090  1.00  0.00    -0.387 OA
ATOM     12  H   UNL     1      15.182  -3.972   1.719  1.00  0.00     0.211 HD
ENDBRANCH   5  11
ENDBRANCH   1   5
BRANCH   1  13
ATOM     13  O   UNL     1      13.584  -1.174   1.662  1.00  0.00    -0.388 OA
ATOM     14  H   UNL     1      13.110  -0.304   1.733  1.00  0.00     0.211 HD
ENDBRANCH   1  13
TORSDOF 8
ENDMDL
MODEL 5
REMARK VINA RESULT:    -2.929      4.116      5.497
REMARK INTER + INTRA:          -4.872
REMARK INTER:                  -4.096
REMARK INTRA:                  -0.776
REMARK UNBOUND:                -0.915
REMARK SMILES O=C[C@@H](O)[C@H](O)[C@@H](O)CO
REMARK SMILES IDX 7 1 9 2 10 3 5 5 3 6 2 7 1 8 4 9 6 11 8 13
REMARK H PARENT 10 4 4 10 6 12 8 14
REMARK Flexibility Score: inf
ROOT
ATOM      1  C   UNL     1      14.640   4.931  -1.695  1.00  0.00     0.171 C 
ENDROOT
BRANCH   1   2
ATOM      2  C   UNL     1      14.781   6.461  -1.576  1.00  0.00     0.190 C 
BRANCH   2   3
ATOM      3  O   UNL     1      15.198   6.814  -0.284  1.00  0.00    -0.394 OA
ATOM      4  H   UNL     1      16.165   7.032  -0.346  1.00  0.00     0.210 HD
ENDBRANCH   2   3
ENDBRANCH   1   2
BRANCH   1   5
ATOM      5  C   UNL     1      16.000   4.211  -1.502  1.00  0.00     0.181 C 
BRANCH   5   6
ATOM      6  C   UNL     1      15.957   2.756  -2.024  1.00  0.00     0.209 C 
BRANCH   6   7
ATOM      7  C   UNL     1      16.320   1.787  -0.934  1.00  0.00     0.258 C 
ATOM      8  O   UNL     1      15.485   1.419  -0.123  1.00  0.00    -0.300 OA
ENDBRANCH   6   7
BRANCH   6   9
ATOM      9  O   UNL     1      14.675   2.438  -2.506  1.00  0.00    -0.383 OA
ATOM     10  H   UNL     1      14.494   3.033  -3.280  1.00  0.00     0.211 HD
ENDBRANCH   6   9
ENDBRANCH   5   6
BRANCH   5  11
ATOM     11  O   UNL     1      16.374   4.217  -0.146  1.00  0.00    -0.387 OA
ATOM     12  H   UNL     1      16.899   3.392   0.018  1.00  0.00     0.211 HD
ENDBRANCH   5  11
ENDBRANCH   1   5
BRANCH   1  13
ATOM     13  O   UNL     1      13.670   4.450  -0.798  1.00  0.00    -0.388 OA
ATOM     14  H   UNL     1      13.805   3.471  -0.700  1.00  0.00     0.211 HD
ENDBRANCH   1  13
TORSDOF 8
ENDMDL
MODEL 6
REMARK VINA RESULT:    -2.921      1.257      3.920
REMARK INTER + INTRA:          -4.860
REMARK INTER:                  -4.369
REMARK INTRA:                  -0.491
REMARK UNBOUND:                -0.915
REMARK SMILES O=C[C@@H](O)[C@H](O)[C@@H](O)CO
REMARK SMILES IDX 7 1 9 2 10 3 5 5 3 6 2 7 1 8 4 9 6 11 8 13
REMARK H PARENT 10 4 4 10 6 12 8 14
REMARK Flexibility Score: inf
ROOT
ATOM      1  C   UNL     1      14.821  -1.472   1.355  1.00  0.00     0.171 C 
ENDROOT
BRANCH   1   2
ATOM      2  C   UNL     1      14.844  -2.440   0.158  1.00  0.00     0.190 C 
BRANCH   2   3
ATOM      3  O   UNL     1      13.552  -2.601  -0.366  1.00  0.00    -0.394 OA
ATOM      4  H   UNL     1      13.410  -3.577  -0.481  1.00  0.00     0.210 HD
ENDBRANCH   2   3
ENDBRANCH   1   2
BRANCH   1   5
ATOM      5  C   UNL     1      15.760  -0.258   1.132  1.00  0.00     0.181 C 
BRANCH   5   6
ATOM      6  C   UNL     1      15.992   0.536   2.439  1.00  0.00     0.209 C 
BRANCH   6   7
ATOM      7  C   UNL     1      17.025   1.608   2.237  1.00  0.00     0.258 C 
ATOM      8  O   UNL     1      17.569   1.754   1.154  1.00  0.00    -0.300 OA
ENDBRANCH   6   7
BRANCH   6   9
ATOM      9  O   UNL     1      14.797   1.132   2.878  1.00  0.00    -0.383 OA
ATOM     10  H   UNL     1      14.072   0.820   2.276  1.00  0.00     0.211 HD
ENDBRANCH   6   9
ENDBRANCH   5   6
BRANCH   5  11
ATOM     11  O   UNL     1      15.236   0.598   0.146  1.00  0.00    -0.387 OA
ATOM     12  H   UNL     1      14.593   1.205   0.595  1.00  0.00     0.211 HD
ENDBRANCH   5  11
ENDBRANCH   1   5
BRANCH   1  13
ATOM     13  O   UNL     1      13.506  -1.061   1.638  1.00  0.00    -0.388 OA
ATOM     14  H   UNL     1      12.959  -1.210   0.822  1.00  0.00     0.211 HD
ENDBRANCH   1  13
TORSDOF 8
ENDMDL
MODEL 7
REMARK VINA RESULT:    -2.888      3.970      5.951
REMARK INTER + INTRA:          -4.816
REMARK INTER:                  -4.438
REMARK INTRA:                  -0.378
REMARK UNBOUND:                -0.915
REMARK SMILES O=C[C@@H](O)[C@H](O)[C@@H](O)CO
REMARK SMILES IDX 7 1 9 2 10 3 5 5 3 6 2 7 1 8 4 9 6 11 8 13
REMARK H PARENT 10 4 4 10 6 12 8 14
REMARK Flexibility Score: inf
ROOT
ATOM      1  C   UNL     1      16.522   2.761  -0.891  1.00  0.00     0.171 C 
ENDROOT
BRANCH   1   2
ATOM      2  C   UNL     1      16.016   1.346  -0.556  1.00  0.00     0.190 C 
BRANCH   2   3
ATOM      3  O   UNL     1      15.148   1.385   0.546  1.00  0.00    -0.394 OA
ATOM      4  H   UNL     1      14.529   0.615   0.450  1.00  0.00     0.210 HD
ENDBRANCH   2   3
ENDBRANCH   1   2
BRANCH   1   5
ATOM      5  C   UNL     1      15.611   3.469  -1.928  1.00  0.00     0.181 C 
BRANCH   5   6
ATOM      6  C   UNL     1      15.011   4.778  -1.364  1.00  0.00     0.209 C 
BRANCH   6   7
ATOM      7  C   UNL     1      14.956   5.840  -2.425  1.00  0.00     0.258 C 
ATOM      8  O   UNL     1      14.042   6.651  -2.450  1.00  0.00    -0.300 OA
ENDBRANCH   6   7
BRANCH   6   9
ATOM      9  O   UNL     1      13.712   4.559  -0.873  1.00  0.00    -0.383 OA
ATOM     10  H   UNL     1      13.413   3.674  -1.209  1.00  0.00     0.211 HD
ENDBRANCH   6   9
ENDBRANCH   5   6
BRANCH   5  11
ATOM     11  O   UNL     1      14.574   2.611  -2.340  1.00  0.00    -0.387 OA
ATOM     12  H   UNL     1      13.876   3.176  -2.762  1.00  0.00     0.211 HD
ENDBRANCH   5  11
ENDBRANCH   1   5
BRANCH   1  13
ATOM     13  O   UNL     1      16.665   3.529   0.279  1.00  0.00    -0.388 OA
ATOM     14  H   UNL     1      17.302   4.265   0.083  1.00  0.00     0.211 HD
ENDBRANCH   1  13
TORSDOF 8
ENDMDL
MODEL 8
REMARK VINA RESULT:    -2.766      4.997      6.524
REMARK INTER + INTRA:          -4.651
REMARK INTER:                  -3.689
REMARK INTRA:                  -0.962
REMARK UNBOUND:                -0.915
REMARK SMILES O=C[C@@H](O)[C@H](O)[C@@H](O)CO
REMARK SMILES IDX 7 1 9 2 10 3 5 5 3 6 2 7 1 8 4 9 6 11 8 13
REMARK H PARENT 10 4 4 10 6 12 8 14
REMARK Flexibility Score: inf
ROOT
ATOM      1  C   UNL     1      15.767  -6.949   2.839  1.00  0.00     0.171 C 
ENDROOT
BRANCH   1   2
ATOM      2  C   UNL     1      14.896  -8.116   2.337  1.00  0.00     0.190 C 
BRANCH   2   3
ATOM      3  O   UNL     1      14.063  -7.689   1.292  1.00  0.00    -0.394 OA
ATOM      4  H   UNL     1      14.400  -6.802   1.002  1.00  0.00     0.210 HD
ENDBRANCH   2   3
ENDBRANCH   1   2
BRANCH   1   5
ATOM      5  C   UNL     1      16.790  -6.491   1.767  1.00  0.00     0.181 C 
BRANCH   5   6
ATOM      6  C   UNL     1      16.405  -5.124   1.155  1.00  0.00     0.209 C 
BRANCH   6   7
ATOM      7  C   UNL     1      17.531  -4.575   0.324  1.00  0.00     0.258 C 
ATOM      8  O   UNL     1      17.951  -5.193  -0.643  1.00  0.00    -0.300 OA
ENDBRANCH   6   7
BRANCH   6   9
ATOM      9  O   UNL     1      15.261  -5.244   0.348  1.00  0.00    -0.383 OA
ATOM     10  H   UNL     1      14.789  -4.371   0.372  1.00  0.00     0.211 HD
ENDBRANCH   6   9
ENDBRANCH   5   6
BRANCH   5  11
ATOM     11  O   UNL     1      16.899  -7.453   0.746  1.00  0.00    -0.387 OA
ATOM     12  H   UNL     1      16.172  -8.113   0.886  1.00  0.00     0.211 HD
ENDBRANCH   5  11
ENDBRANCH   1   5
BRANCH   1  13
ATOM     13  O   UNL     1      14.963  -5.880   3.275  1.00  0.00    -0.388 OA
ATOM     14  H   UNL     1      15.306  -5.583   4.159  1.00  0.00     0.211 HD
ENDBRANCH   1  13
TORSDOF 8
ENDMDL
MODEL 9
REMARK VINA RESULT:    -2.731      4.871      7.125
REMARK INTER + INTRA:          -4.604
REMARK INTER:                  -3.892
REMARK INTRA:                  -0.712
REMARK UNBOUND:                -0.915
REMARK SMILES O=C[C@@H](O)[C@H](O)[C@@H](O)CO
REMARK SMILES IDX 7 1 9 2 10 3 5 5 3 6 2 7 1 8 4 9 6 11 8 13
REMARK H PARENT 10 4 4 10 6 12 8 14
REMARK Flexibility Score: inf
ROOT
ATOM      1  C   UNL     1      15.213  -7.856   2.062  1.00  0.00     0.171 C 
ENDROOT
BRANCH   1   2
ATOM      2  C   UNL     1      15.788  -9.199   1.574  1.00  0.00     0.190 C 
BRANCH   2   3
ATOM      3  O   UNL     1      16.799  -8.983   0.626  1.00  0.00    -0.394 OA
ATOM      4  H   UNL     1      16.685  -9.676  -0.075  1.00  0.00     0.210 HD
ENDBRANCH   2   3
ENDBRANCH   1   2
BRANCH   1   5
ATOM      5  C   UNL     1      16.238  -6.701   1.908  1.00  0.00     0.181 C 
BRANCH   5   6
ATOM      6  C   UNL     1      16.138  -5.688   3.072  1.00  0.00     0.209 C 
BRANCH   6   7
ATOM      7  C   UNL     1      16.421  -4.293   2.591  1.00  0.00     0.258 C 
ATOM      8  O   UNL     1      15.522  -3.588   2.157  1.00  0.00    -0.300 OA
ENDBRANCH   6   7
BRANCH   6   9
ATOM      9  O   UNL     1      14.857  -5.719   3.651  1.00  0.00    -0.383 OA
ATOM     10  H   UNL     1      14.397  -4.877   3.397  1.00  0.00     0.211 HD
ENDBRANCH   6   9
ENDBRANCH   5   6
BRANCH   5  11
ATOM     11  O   UNL     1      16.050  -6.035   0.683  1.00  0.00    -0.387 OA
ATOM     12  H   UNL     1      16.930  -6.008   0.226  1.00  0.00     0.211 HD
ENDBRANCH   5  11
ENDBRANCH   1   5
BRANCH   1  13
ATOM     13  O   UNL     1      14.004  -7.563   1.405  1.00  0.00    -0.388 OA
ATOM     14  H   UNL     1      14.131  -7.750   0.438  1.00  0.00     0.211 HD
ENDBRANCH   1  13
TORSDOF 8
ENDMDL
