MODEL 1
REMARK VINA RESULT:    -5.170      0.000      0.000
REMARK INTER + INTRA:         -12.064
REMARK INTER:                  -9.703
REMARK INTRA:                  -2.360
REMARK UNBOUND:                -2.360
REMARK SMILES CCCCCCCCC=CCCCCCCCC(=O)[O-]
REMARK SMILES IDX 10 1 9 2 11 3 12 4 13 5 14 6 15 7 16 8 17 9 18 10 19 11
REMARK SMILES IDX 20 12 8 13 7 14 6 15 5 16 4 17 3 18 2 19 1 20
REMARK H PARENT
REMARK Flexibility Score: inf
ROOT
ATOM      1  C   UNL     1      12.736  24.492  29.922  1.00  0.00    -0.031 C 
ATOM      2  C   UNL     1      12.095  23.995  30.990  1.00  0.00    -0.031 C 
ENDROOT
BRANCH   1   3
ATOM      3  C   UNL     1      14.112  24.021  29.533  1.00  0.00     0.027 C 
BRANCH   3   4
ATOM      4  C   UNL     1      14.662  23.001  30.538  1.00  0.00     0.004 C 
BRANCH   4   5
ATOM      5  C   UNL     1      16.154  22.713  30.309  1.00  0.00     0.000 C 
BRANCH   5   6
ATOM      6  C   UNL     1      16.440  21.225  30.041  1.00  0.00     0.000 C 
BRANCH   6   7
ATOM      7  C   UNL     1      16.967  20.943  28.618  1.00  0.00     0.000 C 
BRANCH   7   8
ATOM      8  C   UNL     1      16.209  21.748  27.548  1.00  0.00     0.006 C 
BRANCH   8   9
ATOM      9  C   UNL     1      16.898  21.691  26.178  1.00  0.00     0.053 C 
BRANCH   9  10
ATOM     10  C   UNL     1      16.204  22.554  25.170  1.00  0.00     0.041 C 
ATOM     11  O   UNL     1      15.961  23.761  25.431  1.00  0.00    -0.550 OA
ATOM     12  O   UNL     1      15.856  22.034  23.930  1.00  0.00    -0.550 OA
ENDBRANCH   9  10
ENDBRANCH   8   9
ENDBRANCH   7   8
ENDBRANCH   6   7
ENDBRANCH   5   6
ENDBRANCH   4   5
ENDBRANCH   3   4
ENDBRANCH   1   3
BRANCH   2  13
ATOM     13  C   UNL     1      10.716  24.461  31.371  1.00  0.00     0.027 C 
BRANCH  13  14
ATOM     14  C   UNL     1       9.726  23.288  31.460  1.00  0.00     0.004 C 
BRANCH  14  15
ATOM     15  C   UNL     1      10.350  21.910  31.165  1.00  0.00     0.000 C 
BRANCH  15  16
ATOM     16  C   UNL     1       9.603  21.074  30.110  1.00  0.00     0.000 C 
BRANCH  16  17
ATOM     17  C   UNL     1      10.537  20.300  29.155  1.00  0.00    -0.000 C 
BRANCH  17  18
ATOM     18  C   UNL     1      11.766  21.127  28.742  1.00  0.00    -0.000 C 
BRANCH  18  19
ATOM     19  C   UNL     1      13.051  20.288  28.685  1.00  0.00    -0.003 C 
ATOM     20  C   UNL     1      13.242  19.410  29.921  1.00  0.00     0.004 C 
ENDBRANCH  18  19
ENDBRANCH  17  18
ENDBRANCH  16  17
ENDBRANCH  15  16
ENDBRANCH  14  15
ENDBRANCH  13  14
ENDBRANCH   2  13
TORSDOF 15
ENDMDL
MODEL 2
REMARK VINA RESULT:    -5.127      1.271      3.062
REMARK INTER + INTRA:         -11.983
REMARK INTER:                  -9.717
REMARK INTRA:                  -2.266
REMARK UNBOUND:                -2.360
REMARK SMILES CCCCCCCCC=CCCCCCCCC(=O)[O-]
REMARK SMILES IDX 10 1 9 2 11 3 12 4 13 5 14 6 15 7 16 8 17 9 18 10 19 11
REMARK SMILES IDX 20 12 8 13 7 14 6 15 5 16 4 17 3 18 2 19 1 20
REMARK H PARENT
REMARK Flexibility Score: inf
ROOT
ATOM      1  C   UNL     1      13.386  20.830  28.417  1.00  0.00    -0.031 C 
ATOM      2  C   UNL     1      12.376  20.438  29.209  1.00  0.00    -0.031 C 
ENDROOT
BRANCH   1   3
ATOM      3  C   UNL     1      14.823  20.719  28.853  1.00  0.00     0.027 C 
BRANCH   3   4
ATOM      4  C   UNL     1      14.976  20.972  30.358  1.00  0.00     0.004 C 
BRANCH   4   5
ATOM      5  C   UNL     1      15.964  22.111  30.654  1.00  0.00     0.000 C 
BRANCH   5   6
ATOM      6  C   UNL     1      16.845  22.467  29.444  1.00  0.00     0.000 C 
BRANCH   6   7
ATOM      7  C   UNL     1      16.449  23.794  28.761  1.00  0.00     0.000 C 
BRANCH   7   8
ATOM      8  C   UNL     1      17.015  23.902  27.334  1.00  0.00     0.006 C 
BRANCH   8   9
ATOM      9  C   UNL     1      15.961  23.583  26.264  1.00  0.00     0.053 C 
BRANCH   9  10
ATOM     10  C   UNL     1      16.275  22.312  25.536  1.00  0.00     0.041 C 
ATOM     11  O   UNL     1      17.032  21.454  26.059  1.00  0.00    -0.550 OA
ATOM     12  O   UNL     1      15.703  22.062  24.295  1.00  0.00    -0.550 OA
ENDBRANCH   9  10
ENDBRANCH   8   9
ENDBRANCH   7   8
ENDBRANCH   6   7
ENDBRANCH   5   6
ENDBRANCH   4   5
ENDBRANCH   3   4
ENDBRANCH   1   3
BRANCH   2  13
ATOM     13  C   UNL     1      10.942  20.540  28.767  1.00  0.00     0.027 C 
BRANCH  13  14
ATOM     14  C   UNL     1       9.972  20.147  29.893  1.00  0.00     0.004 C 
BRANCH  14  15
ATOM     15  C   UNL     1      10.084  21.021  31.157  1.00  0.00     0.000 C 
BRANCH  15  16
ATOM     16  C   UNL     1       9.169  22.260  31.171  1.00  0.00     0.000 C 
BRANCH  16  17
ATOM     17  C   UNL     1       9.919  23.583  31.434  1.00  0.00    -0.000 C 
BRANCH  17  18
ATOM     18  C   UNL     1      10.963  23.889  30.347  1.00  0.00    -0.000 C 
BRANCH  18  19
ATOM     19  C   UNL     1      12.400  23.891  30.891  1.00  0.00    -0.003 C 
ATOM     20  C   UNL     1      13.367  24.678  30.008  1.00  0.00     0.004 C 
ENDBRANCH  18  19
ENDBRANCH  17  18
ENDBRANCH  16  17
ENDBRANCH  15  16
ENDBRANCH  14  15
ENDBRANCH  13  14
ENDBRANCH   2  13
TORSDOF 15
ENDMDL
MODEL 3
REMARK VINA RESULT:    -4.987      2.492      5.848
REMARK INTER + INTRA:         -11.719
REMARK INTER:                  -9.826
REMARK INTRA:                  -1.893
REMARK UNBOUND:                -2.360
REMARK SMILES CCCCCCCCC=CCCCCCCCC(=O)[O-]
REMARK SMILES IDX 10 1 9 2 11 3 12 4 13 5 14 6 15 7 16 8 17 9 18 10 19 11
REMARK SMILES IDX 20 12 8 13 7 14 6 15 5 16 4 17 3 18 2 19 1 20
REMARK H PARENT
REMARK Flexibility Score: inf
ROOT
ATOM      1  C   UNL     1      11.760  24.296  30.413  1.00  0.00    -0.031 C 
ATOM      2  C   UNL     1      13.030  24.010  30.738  1.00  0.00    -0.031 C 
ENDROOT
BRANCH   1   3
ATOM      3  C   UNL     1      10.674  24.372  31.453  1.00  0.00     0.027 C 
BRANCH   3   4
ATOM      4  C   UNL     1       9.878  23.064  31.531  1.00  0.00     0.004 C 
BRANCH   4   5
ATOM      5  C   UNL     1       9.639  22.449  30.142  1.00  0.00     0.000 C 
BRANCH   5   6
ATOM      6  C   UNL     1       9.358  20.938  30.199  1.00  0.00     0.000 C 
BRANCH   6   7
ATOM      7  C   UNL     1      10.418  20.084  29.471  1.00  0.00     0.000 C 
BRANCH   7   8
ATOM      8  C   UNL     1      11.642  20.915  29.048  1.00  0.00     0.006 C 
BRANCH   8   9
ATOM      9  C   UNL     1      12.928  20.079  29.007  1.00  0.00     0.053 C 
BRANCH   9  10
ATOM     10  C   UNL     1      13.548  19.945  30.364  1.00  0.00     0.041 C 
ATOM     11  O   UNL     1      14.540  19.189  30.535  1.00  0.00    -0.550 OA
ATOM     12  O   UNL     1      13.050  20.680  31.433  1.00  0.00    -0.550 OA
ENDBRANCH   9  10
ENDBRANCH   8   9
ENDBRANCH   7   8
ENDBRANCH   6   7
ENDBRANCH   5   6
ENDBRANCH   4   5
ENDBRANCH   3   4
ENDBRANCH   1   3
BRANCH   2  13
ATOM     13  C   UNL     1      14.115  23.944  29.699  1.00  0.00     0.027 C 
BRANCH  13  14
ATOM     14  C   UNL     1      15.298  23.083  30.168  1.00  0.00     0.004 C 
BRANCH  14  15
ATOM     15  C   UNL     1      16.229  22.615  29.031  1.00  0.00     0.000 C 
BRANCH  15  16
ATOM     16  C   UNL     1      16.926  23.749  28.257  1.00  0.00     0.000 C 
BRANCH  16  17
ATOM     17  C   UNL     1      16.324  24.008  26.859  1.00  0.00    -0.000 C 
BRANCH  17  18
ATOM     18  C   UNL     1      15.519  22.805  26.338  1.00  0.00    -0.000 C 
BRANCH  18  19
ATOM     19  C   UNL     1      16.301  21.970  25.313  1.00  0.00    -0.003 C 
ATOM     20  C   UNL     1      15.635  21.942  23.938  1.00  0.00     0.004 C 
ENDBRANCH  18  19
ENDBRANCH  17  18
ENDBRANCH  16  17
ENDBRANCH  15  16
ENDBRANCH  14  15
ENDBRANCH  13  14
ENDBRANCH   2  13
TORSDOF 15
ENDMDL
MODEL 4
REMARK VINA RESULT:    -4.786      1.163      2.999
REMARK INTER + INTRA:         -11.343
REMARK INTER:                  -8.797
REMARK INTRA:                  -2.546
REMARK UNBOUND:                -2.360
REMARK SMILES CCCCCCCCC=CCCCCCCCC(=O)[O-]
REMARK SMILES IDX 10 1 9 2 11 3 12 4 13 5 14 6 15 7 16 8 17 9 18 10 19 11
REMARK SMILES IDX 20 12 8 13 7 14 6 15 5 16 4 17 3 18 2 19 1 20
REMARK H PARENT
REMARK Flexibility Score: inf
ROOT
ATOM      1  C   UNL     1      13.554  22.222  29.755  1.00  0.00    -0.031 C 
ATOM      2  C   UNL     1      13.633  20.901  29.534  1.00  0.00    -0.031 C 
ENDROOT
BRANCH   1   3
ATOM      3  C   UNL     1      14.716  23.004  30.306  1.00  0.00     0.027 C 
BRANCH   3   4
ATOM      4  C   UNL     1      15.750  22.084  30.967  1.00  0.00     0.004 C 
BRANCH   4   5
ATOM      5  C   UNL     1      17.163  22.306  30.404  1.00  0.00     0.000 C 
BRANCH   5   6
ATOM      6  C   UNL     1      17.589  21.210  29.412  1.00  0.00     0.000 C 
BRANCH   6   7
ATOM      7  C   UNL     1      16.941  21.353  28.017  1.00  0.00     0.000 C 
BRANCH   7   8
ATOM      8  C   UNL     1      17.078  22.780  27.458  1.00  0.00     0.006 C 
BRANCH   8   9
ATOM      9  C   UNL     1      15.816  23.238  26.716  1.00  0.00     0.053 C 
BRANCH   9  10
ATOM     10  C   UNL     1      15.351  22.215  25.726  1.00  0.00     0.041 C 
ATOM     11  O   UNL     1      15.995  22.027  24.661  1.00  0.00    -0.550 OA
ATOM     12  O   UNL     1      14.225  21.446  25.995  1.00  0.00    -0.550 OA
ENDBRANCH   9  10
ENDBRANCH   8   9
ENDBRANCH   7   8
ENDBRANCH   6   7
ENDBRANCH   5   6
ENDBRANCH   4   5
ENDBRANCH   3   4
ENDBRANCH   1   3
BRANCH   2  13
ATOM     13  C   UNL     1      12.474  20.123  28.974  1.00  0.00     0.027 C 
BRANCH  13  14
ATOM     14  C   UNL     1      11.229  21.007  28.799  1.00  0.00     0.004 C 
BRANCH  14  15
ATOM     15  C   UNL     1      10.005  20.544  29.614  1.00  0.00     0.000 C 
BRANCH  15  16
ATOM     16  C   UNL     1      10.263  20.358  31.121  1.00  0.00     0.000 C 
BRANCH  16  17
ATOM     17  C   UNL     1      10.587  21.672  31.862  1.00  0.00    -0.000 C 
BRANCH  17  18
ATOM     18  C   UNL     1       9.508  22.747  31.644  1.00  0.00    -0.000 C 
BRANCH  18  19
ATOM     19  C   UNL     1      10.069  24.028  31.010  1.00  0.00    -0.003 C 
ATOM     20  C   UNL     1      11.366  24.497  31.668  1.00  0.00     0.004 C 
ENDBRANCH  18  19
ENDBRANCH  17  18
ENDBRANCH  16  17
ENDBRANCH  15  16
ENDBRANCH  14  15
ENDBRANCH  13  14
ENDBRANCH   2  13
TORSDOF 15
ENDMDL
MODEL 5
REMARK VINA RESULT:    -4.782      1.379      2.460
REMARK INTER + INTRA:         -11.335
REMARK INTER:                  -8.797
REMARK INTRA:                  -2.538
REMARK UNBOUND:                -2.360
REMARK SMILES CCCCCCCCC=CCCCCCCCC(=O)[O-]
REMARK SMILES IDX 10 1 9 2 11 3 12 4 13 5 14 6 15 7 16 8 17 9 18 10 19 11
REMARK SMILES IDX 20 12 8 13 7 14 6 15 5 16 4 17 3 18 2 19 1 20
REMARK H PARENT
REMARK Flexibility Score: inf
ROOT
ATOM      1  C   UNL     1      13.133  22.247  29.117  1.00  0.00    -0.031 C 
ATOM      2  C   UNL     1      13.532  23.041  30.123  1.00  0.00    -0.031 C 
ENDROOT
BRANCH   1   3
ATOM      3  C   UNL     1      13.720  20.877  28.909  1.00  0.00     0.027 C 
BRANCH   3   4
ATOM      4  C   UNL     1      14.651  20.482  30.063  1.00  0.00     0.004 C 
BRANCH   4   5
ATOM      5  C   UNL     1      16.059  20.114  29.569  1.00  0.00     0.000 C 
BRANCH   5   6
ATOM      6  C   UNL     1      16.636  21.147  28.586  1.00  0.00     0.000 C 
BRANCH   6   7
ATOM      7  C   UNL     1      17.200  22.408  29.275  1.00  0.00     0.000 C 
BRANCH   7   8
ATOM      8  C   UNL     1      17.261  23.613  28.321  1.00  0.00     0.006 C 
BRANCH   8   9
ATOM      9  C   UNL     1      15.933  23.842  27.586  1.00  0.00     0.053 C 
BRANCH   9  10
ATOM     10  C   UNL     1      16.096  23.751  26.100  1.00  0.00     0.041 C 
ATOM     11  O   UNL     1      15.997  24.784  25.388  1.00  0.00    -0.550 OA
ATOM     12  O   UNL     1      16.391  22.530  25.506  1.00  0.00    -0.550 OA
ENDBRANCH   9  10
ENDBRANCH   8   9
ENDBRANCH   7   8
ENDBRANCH   6   7
ENDBRANCH   5   6
ENDBRANCH   4   5
ENDBRANCH   3   4
ENDBRANCH   1   3
BRANCH   2  13
ATOM     13  C   UNL     1      12.936  24.406  30.335  1.00  0.00     0.027 C 
BRANCH  13  14
ATOM     14  C   UNL     1      11.402  24.375  30.254  1.00  0.00     0.004 C 
BRANCH  14  15
ATOM     15  C   UNL     1      10.708  23.973  31.571  1.00  0.00     0.000 C 
BRANCH  15  16
ATOM     16  C   UNL     1       9.344  23.278  31.399  1.00  0.00     0.000 C 
BRANCH  16  17
ATOM     17  C   UNL     1       9.400  21.746  31.577  1.00  0.00    -0.000 C 
BRANCH  17  18
ATOM     18  C   UNL     1      10.757  21.271  32.125  1.00  0.00    -0.000 C 
BRANCH  18  19
ATOM     19  C   UNL     1      11.253  19.987  31.444  1.00  0.00    -0.003 C 
ATOM     20  C   UNL     1      10.431  19.615  30.210  1.00  0.00     0.004 C 
ENDBRANCH  18  19
ENDBRANCH  17  18
ENDBRANCH  16  17
ENDBRANCH  15  16
ENDBRANCH  14  15
ENDBRANCH  13  14
ENDBRANCH   2  13
TORSDOF 15
ENDMDL
MODEL 6
REMARK VINA RESULT:    -4.767      1.342      1.823
REMARK INTER + INTRA:         -11.308
REMARK INTER:                  -9.058
REMARK INTRA:                  -2.250
REMARK UNBOUND:                -2.360
REMARK SMILES CCCCCCCCC=CCCCCCCCC(=O)[O-]
REMARK SMILES IDX 10 1 9 2 11 3 12 4 13 5 14 6 15 7 16 8 17 9 18 10 19 11
REMARK SMILES IDX 20 12 8 13 7 14 6 15 5 16 4 17 3 18 2 19 1 20
REMARK H PARENT
REMARK Flexibility Score: inf
ROOT
ATOM      1  C   UNL     1      12.068  24.160  30.192  1.00  0.00    -0.031 C 
ATOM      2  C   UNL     1      11.752  24.524  31.444  1.00  0.00    -0.031 C 
ENDROOT
BRANCH   1   3
ATOM      3  C   UNL     1      13.479  24.243  29.675  1.00  0.00     0.027 C 
BRANCH   3   4
ATOM      4  C   UNL     1      14.442  23.412  30.533  1.00  0.00     0.004 C 
BRANCH   4   5
ATOM      5  C   UNL     1      14.278  21.903  30.288  1.00  0.00     0.000 C 
BRANCH   5   6
ATOM      6  C   UNL     1      15.608  21.135  30.380  1.00  0.00     0.000 C 
BRANCH   6   7
ATOM      7  C   UNL     1      16.062  20.521  29.039  1.00  0.00     0.000 C 
BRANCH   7   8
ATOM      8  C   UNL     1      17.118  21.388  28.332  1.00  0.00     0.006 C 
BRANCH   8   9
ATOM      9  C   UNL     1      16.779  21.631  26.855  1.00  0.00     0.053 C 
BRANCH   9  10
ATOM     10  C   UNL     1      15.500  22.394  26.696  1.00  0.00     0.041 C 
ATOM     11  O   UNL     1      14.426  21.785  26.450  1.00  0.00    -0.550 OA
ATOM     12  O   UNL     1      15.489  23.774  26.854  1.00  0.00    -0.550 OA
ENDBRANCH   9  10
ENDBRANCH   8   9
ENDBRANCH   7   8
ENDBRANCH   6   7
ENDBRANCH   5   6
ENDBRANCH   4   5
ENDBRANCH   3   4
ENDBRANCH   1   3
BRANCH   2  13
ATOM     13  C   UNL     1      10.343  24.431  31.962  1.00  0.00     0.027 C 
BRANCH  13  14
ATOM     14  C   UNL     1       9.505  23.429  31.151  1.00  0.00     0.004 C 
BRANCH  14  15
ATOM     15  C   UNL     1       8.827  22.338  32.002  1.00  0.00     0.000 C 
BRANCH  15  16
ATOM     16  C   UNL     1       9.344  20.909  31.757  1.00  0.00     0.000 C 
BRANCH  16  17
ATOM     17  C   UNL     1      10.865  20.835  31.500  1.00  0.00    -0.000 C 
BRANCH  17  18
ATOM     18  C   UNL     1      11.225  19.798  30.422  1.00  0.00    -0.000 C 
BRANCH  18  19
ATOM     19  C   UNL     1      10.593  20.118  29.059  1.00  0.00    -0.003 C 
ATOM     20  C   UNL     1      11.090  21.438  28.471  1.00  0.00     0.004 C 
ENDBRANCH  18  19
ENDBRANCH  17  18
ENDBRANCH  16  17
ENDBRANCH  15  16
ENDBRANCH  14  15
ENDBRANCH  13  14
ENDBRANCH   2  13
TORSDOF 15
ENDMDL
MODEL 7
REMARK VINA RESULT:    -4.745      2.628      4.276
REMARK INTER + INTRA:         -11.266
REMARK INTER:                  -9.170
REMARK INTRA:                  -2.095
REMARK UNBOUND:                -2.360
REMARK SMILES CCCCCCCCC=CCCCCCCCC(=O)[O-]
REMARK SMILES IDX 10 1 9 2 11 3 12 4 13 5 14 6 15 7 16 8 17 9 18 10 19 11
REMARK SMILES IDX 20 12 8 13 7 14 6 15 5 16 4 17 3 18 2 19 1 20
REMARK H PARENT
REMARK Flexibility Score: inf
ROOT
ATOM      1  C   UNL     1      15.166  23.757  29.107  1.00  0.00    -0.031 C 
ATOM      2  C   UNL     1      14.828  23.039  30.189  1.00  0.00    -0.031 C 
ENDROOT
BRANCH   1   3
ATOM      3  C   UNL     1      16.587  23.829  28.617  1.00  0.00     0.027 C 
BRANCH   3   4
ATOM      4  C   UNL     1      16.677  23.550  27.111  1.00  0.00     0.004 C 
BRANCH   4   5
ATOM      5  C   UNL     1      16.390  22.076  26.779  1.00  0.00     0.000 C 
BRANCH   5   6
ATOM      6  C   UNL     1      15.050  21.880  26.049  1.00  0.00     0.000 C 
BRANCH   6   7
ATOM      7  C   UNL     1      13.961  21.221  26.923  1.00  0.00     0.000 C 
BRANCH   7   8
ATOM      8  C   UNL     1      14.561  20.400  28.077  1.00  0.00     0.006 C 
BRANCH   8   9
ATOM      9  C   UNL     1      13.517  19.507  28.761  1.00  0.00     0.053 C 
BRANCH   9  10
ATOM     10  C   UNL     1      13.779  19.368  30.229  1.00  0.00     0.041 C 
ATOM     11  O   UNL     1      12.821  19.373  31.046  1.00  0.00    -0.550 OA
ATOM     12  O   UNL     1      15.078  19.199  30.692  1.00  0.00    -0.550 OA
ENDBRANCH   9  10
ENDBRANCH   8   9
ENDBRANCH   7   8
ENDBRANCH   6   7
ENDBRANCH   5   6
ENDBRANCH   4   5
ENDBRANCH   3   4
ENDBRANCH   1   3
BRANCH   2  13
ATOM     13  C   UNL     1      13.405  22.961  30.672  1.00  0.00     0.027 C 
BRANCH  13  14
ATOM     14  C   UNL     1      12.790  24.357  30.856  1.00  0.00     0.004 C 
BRANCH  14  15
ATOM     15  C   UNL     1      11.368  24.502  30.280  1.00  0.00     0.000 C 
BRANCH  15  16
ATOM     16  C   UNL     1      10.241  24.508  31.330  1.00  0.00     0.000 C 
BRANCH  16  17
ATOM     17  C   UNL     1       9.810  23.097  31.785  1.00  0.00    -0.000 C 
BRANCH  17  18
ATOM     18  C   UNL     1       8.943  22.384  30.734  1.00  0.00    -0.000 C 
BRANCH  18  19
ATOM     19  C   UNL     1       9.551  21.051  30.272  1.00  0.00    -0.003 C 
ATOM     20  C   UNL     1      10.472  21.207  29.062  1.00  0.00     0.004 C 
ENDBRANCH  18  19
ENDBRANCH  17  18
ENDBRANCH  16  17
ENDBRANCH  15  16
ENDBRANCH  14  15
ENDBRANCH  13  14
ENDBRANCH   2  13
TORSDOF 15
ENDMDL
MODEL 8
REMARK VINA RESULT:    -4.704      2.629      6.324
REMARK INTER + INTRA:         -11.189
REMARK INTER:                  -9.174
REMARK INTRA:                  -2.015
REMARK UNBOUND:                -2.360
REMARK SMILES CCCCCCCCC=CCCCCCCCC(=O)[O-]
REMARK SMILES IDX 10 1 9 2 11 3 12 4 13 5 14 6 15 7 16 8 17 9 18 10 19 11
REMARK SMILES IDX 20 12 8 13 7 14 6 15 5 16 4 17 3 18 2 19 1 20
REMARK H PARENT
REMARK Flexibility Score: inf
ROOT
ATOM      1  C   UNL     1      13.835  22.541  30.128  1.00  0.00    -0.031 C 
ATOM      2  C   UNL     1      14.855  21.908  30.727  1.00  0.00    -0.031 C 
ENDROOT
BRANCH   1   3
ATOM      3  C   UNL     1      13.709  24.041  30.152  1.00  0.00     0.027 C 
BRANCH   3   4
ATOM      4  C   UNL     1      12.267  24.480  30.434  1.00  0.00     0.004 C 
BRANCH   4   5
ATOM      5  C   UNL     1      11.472  23.401  31.188  1.00  0.00     0.000 C 
BRANCH   5   6
ATOM      6  C   UNL     1       9.971  23.725  31.284  1.00  0.00     0.000 C 
BRANCH   6   7
ATOM      7  C   UNL     1       9.065  22.648  30.650  1.00  0.00     0.000 C 
BRANCH   7   8
ATOM      8  C   UNL     1       9.432  21.230  31.120  1.00  0.00     0.006 C 
BRANCH   8   9
ATOM      9  C   UNL     1       9.797  20.306  29.951  1.00  0.00     0.053 C 
BRANCH   9  10
ATOM     10  C   UNL     1      11.196  19.783  30.070  1.00  0.00     0.041 C 
ATOM     11  O   UNL     1      11.634  19.399  31.186  1.00  0.00    -0.550 OA
ATOM     12  O   UNL     1      12.003  19.688  28.944  1.00  0.00    -0.550 OA
ENDBRANCH   9  10
ENDBRANCH   8   9
ENDBRANCH   7   8
ENDBRANCH   6   7
ENDBRANCH   5   6
ENDBRANCH   4   5
ENDBRANCH   3   4
ENDBRANCH   1   3
BRANCH   2  13
ATOM     13  C   UNL     1      14.984  20.410  30.693  1.00  0.00     0.027 C 
BRANCH  13  14
ATOM     14  C   UNL     1      16.015  19.952  29.649  1.00  0.00     0.004 C 
BRANCH  14  15
ATOM     15  C   UNL     1      17.095  21.003  29.325  1.00  0.00     0.000 C 
BRANCH  15  16
ATOM     16  C   UNL     1      17.133  21.460  27.855  1.00  0.00     0.000 C 
BRANCH  16  17
ATOM     17  C   UNL     1      16.805  22.956  27.661  1.00  0.00    -0.000 C 
BRANCH  17  18
ATOM     18  C   UNL     1      15.563  23.172  26.780  1.00  0.00    -0.000 C 
BRANCH  18  19
ATOM     19  C   UNL     1      15.318  22.008  25.808  1.00  0.00    -0.003 C 
ATOM     20  C   UNL     1      15.989  22.217  24.451  1.00  0.00     0.004 C 
ENDBRANCH  18  19
ENDBRANCH  17  18
ENDBRANCH  16  17
ENDBRANCH  15  16
ENDBRANCH  14  15
ENDBRANCH  13  14
ENDBRANCH   2  13
TORSDOF 15
ENDMDL
MODEL 9
REMARK VINA RESULT:    -4.073      2.215      4.252
REMARK INTER + INTRA:         -10.006
REMARK INTER:                  -8.137
REMARK INTRA:                  -1.868
REMARK UNBOUND:                -2.360
REMARK SMILES CCCCCCCCC=CCCCCCCCC(=O)[O-]
REMARK SMILES IDX 10 1 9 2 11 3 12 4 13 5 14 6 15 7 16 8 17 9 18 10 19 11
REMARK SMILES IDX 20 12 8 13 7 14 6 15 5 16 4 17 3 18 2 19 1 20
REMARK H PARENT
REMARK Flexibility Score: inf
ROOT
ATOM      1  C   UNL     1      15.387  23.712  27.726  1.00  0.00    -0.031 C 
ATOM      2  C   UNL     1      15.153  23.840  29.041  1.00  0.00    -0.031 C 
ENDROOT
BRANCH   1   3
ATOM      3  C   UNL     1      16.603  22.994  27.205  1.00  0.00     0.027 C 
BRANCH   3   4
ATOM      4  C   UNL     1      16.595  21.513  27.603  1.00  0.00     0.004 C 
BRANCH   4   5
ATOM      5  C   UNL     1      17.279  21.276  28.960  1.00  0.00     0.000 C 
BRANCH   5   6
ATOM      6  C   UNL     1      16.665  20.103  29.741  1.00  0.00     0.000 C 
BRANCH   6   7
ATOM      7  C   UNL     1      15.906  20.537  31.014  1.00  0.00     0.000 C 
BRANCH   7   8
ATOM      8  C   UNL     1      14.382  20.389  30.859  1.00  0.00     0.006 C 
BRANCH   8   9
ATOM      9  C   UNL     1      13.998  19.618  29.589  1.00  0.00     0.053 C 
BRANCH   9  10
ATOM     10  C   UNL     1      12.855  20.264  28.870  1.00  0.00     0.041 C 
ATOM     11  O   UNL     1      13.073  21.129  27.982  1.00  0.00    -0.550 OA
ATOM     12  O   UNL     1      11.549  19.886  29.157  1.00  0.00    -0.550 OA
ENDBRANCH   9  10
ENDBRANCH   8   9
ENDBRANCH   7   8
ENDBRANCH   6   7
ENDBRANCH   5   6
ENDBRANCH   4   5
ENDBRANCH   3   4
ENDBRANCH   1   3
BRANCH   2  13
ATOM     13  C   UNL     1      13.932  24.549  29.560  1.00  0.00     0.027 C 
BRANCH  13  14
ATOM     14  C   UNL     1      13.166  23.690  30.578  1.00  0.00     0.004 C 
BRANCH  14  15
ATOM     15  C   UNL     1      11.678  23.478  30.235  1.00  0.00     0.000 C 
BRANCH  15  16
ATOM     16  C   UNL     1      10.705  24.428  30.959  1.00  0.00     0.000 C 
BRANCH  16  17
ATOM     17  C   UNL     1       9.942  23.765  32.125  1.00  0.00    -0.000 C 
BRANCH  17  18
ATOM     18  C   UNL     1       9.702  22.264  31.888  1.00  0.00    -0.000 C 
BRANCH  18  19
ATOM     19  C   UNL     1       8.210  21.908  31.817  1.00  0.00    -0.003 C 
ATOM     20  C   UNL     1       7.748  21.569  30.400  1.00  0.00     0.004 C 
ENDBRANCH  18  19
ENDBRANCH  17  18
ENDBRANCH  16  17
ENDBRANCH  15  16
ENDBRANCH  14  15
ENDBRANCH  13  14
ENDBRANCH   2  13
TORSDOF 15
ENDMDL
