MODEL 1
REMARK VINA RESULT:    -3.869      0.000      0.000
REMARK INTER + INTRA:          -4.773
REMARK INTER:                  -4.434
REMARK INTRA:                  -0.338
REMARK UNBOUND:                -0.338
REMARK SMILES COc1ccc(C(C)=O)c(O)c1
REMARK SMILES IDX 6 1 10 2 12 3 3 4 4 5 5 6 7 7 8 8 9 9 11 10 2 12 1 13
REMARK H PARENT 11 11
REMARK Flexibility Score: inf
ROOT
ATOM      1  C   UNL     1       0.962 -15.063  10.031  1.00  0.00     0.059 A 
ATOM      2  C   UNL     1       1.586 -16.315  10.246  1.00  0.00     0.130 A 
ATOM      3  C   UNL     1       2.282 -16.551  11.439  1.00  0.00     0.093 A 
ATOM      4  C   UNL     1       2.340 -15.569  12.445  1.00  0.00     0.122 A 
ATOM      5  C   UNL     1       1.697 -14.346  12.239  1.00  0.00     0.047 A 
ATOM      6  C   UNL     1       1.015 -14.093  11.047  1.00  0.00     0.019 A 
ENDROOT
BRANCH   1   7
ATOM      7  C   UNL     1       0.287 -14.731   8.754  1.00  0.00     0.163 C 
ATOM      8  C   UNL     1       0.497 -13.405   8.089  1.00  0.00     0.093 C 
ATOM      9  O   UNL     1      -0.412 -15.599   8.167  1.00  0.00    -0.294 OA
ENDBRANCH   1   7
BRANCH   2  10
ATOM     10  O   UNL     1       1.514 -17.357   9.318  1.00  0.00    -0.507 OA
ATOM     11  H   UNL     1       1.281 -17.219   8.344  1.00  0.00     0.293 HD
ENDBRANCH   2  10
BRANCH   4  12
ATOM     12  O   UNL     1       3.020 -15.769  13.655  1.00  0.00    -0.497 OA
ATOM     13  C   UNL     1       3.773 -16.935  13.972  1.00  0.00     0.278 C 
ENDBRANCH   4  12
TORSDOF 3
ENDMDL
MODEL 2
REMARK VINA RESULT:    -3.820      1.474      4.574
REMARK INTER + INTRA:          -4.716
REMARK INTER:                  -4.412
REMARK INTRA:                  -0.304
REMARK UNBOUND:                -0.338
REMARK SMILES COc1ccc(C(C)=O)c(O)c1
REMARK SMILES IDX 6 1 10 2 12 3 3 4 4 5 5 6 7 7 8 8 9 9 11 10 2 12 1 13
REMARK H PARENT 11 11
REMARK Flexibility Score: inf
ROOT
ATOM      1  C   UNL     1       1.379 -15.154  11.084  1.00  0.00     0.059 A 
ATOM      2  C   UNL     1       1.180 -15.826   9.854  1.00  0.00     0.130 A 
ATOM      3  C   UNL     1       0.780 -15.105   8.722  1.00  0.00     0.093 A 
ATOM      4  C   UNL     1       0.605 -13.710   8.782  1.00  0.00     0.122 A 
ATOM      5  C   UNL     1       0.831 -13.048   9.990  1.00  0.00     0.047 A 
ATOM      6  C   UNL     1       1.213 -13.758  11.130  1.00  0.00     0.019 A 
ENDROOT
BRANCH   1   7
ATOM      7  C   UNL     1       1.719 -15.880  12.330  1.00  0.00     0.163 C 
ATOM      8  C   UNL     1       1.315 -15.347  13.671  1.00  0.00     0.093 C 
ATOM      9  O   UNL     1       2.284 -17.004  12.270  1.00  0.00    -0.294 OA
ENDBRANCH   1   7
BRANCH   2  10
ATOM     10  O   UNL     1       1.398 -17.198   9.707  1.00  0.00    -0.507 OA
ATOM     11  H   UNL     1       1.118 -17.722   8.889  1.00  0.00     0.293 HD
ENDBRANCH   2  10
BRANCH   4  12
ATOM     12  O   UNL     1       0.212 -12.952   7.670  1.00  0.00    -0.497 OA
ATOM     13  C   UNL     1       1.086 -12.117   6.916  1.00  0.00     0.278 C 
ENDBRANCH   4  12
TORSDOF 3
ENDMDL
MODEL 3
REMARK VINA RESULT:    -3.513      1.960      2.679
REMARK INTER + INTRA:          -4.365
REMARK INTER:                  -4.061
REMARK INTRA:                  -0.304
REMARK UNBOUND:                -0.338
REMARK SMILES COc1ccc(C(C)=O)c(O)c1
REMARK SMILES IDX 6 1 10 2 12 3 3 4 4 5 5 6 7 7 8 8 9 9 11 10 2 12 1 13
REMARK H PARENT 11 11
REMARK Flexibility Score: inf
ROOT
ATOM      1  C   UNL     1       0.998 -13.967  10.113  1.00  0.00     0.059 A 
ATOM      2  C   UNL     1       1.260 -13.767  11.490  1.00  0.00     0.130 A 
ATOM      3  C   UNL     1       1.667 -14.846  12.285  1.00  0.00     0.093 A 
ATOM      4  C   UNL     1       1.853 -16.123  11.726  1.00  0.00     0.122 A 
ATOM      5  C   UNL     1       1.622 -16.308  10.362  1.00  0.00     0.047 A 
ATOM      6  C   UNL     1       1.199 -15.244   9.562  1.00  0.00     0.019 A 
ENDROOT
BRANCH   1   7
ATOM      7  C   UNL     1       0.484 -12.881   9.246  1.00  0.00     0.163 C 
ATOM      8  C   UNL     1       0.526 -12.996   7.753  1.00  0.00     0.093 C 
ATOM      9  O   UNL     1      -0.075 -11.875   9.760  1.00  0.00    -0.294 OA
ENDBRANCH   1   7
BRANCH   2  10
ATOM     10  O   UNL     1       1.158 -12.513  12.097  1.00  0.00    -0.507 OA
ATOM     11  H   UNL     1       1.374 -12.347  13.071  1.00  0.00     0.293 HD
ENDBRANCH   2  10
BRANCH   4  12
ATOM     12  O   UNL     1       2.266 -17.226  12.487  1.00  0.00    -0.497 OA
ATOM     13  C   UNL     1       1.686 -17.609  13.731  1.00  0.00     0.278 C 
ENDBRANCH   4  12
TORSDOF 3
ENDMDL
MODEL 4
REMARK VINA RESULT:    -3.496      2.200      4.968
REMARK INTER + INTRA:          -4.345
REMARK INTER:                  -4.008
REMARK INTRA:                  -0.336
REMARK UNBOUND:                -0.338
REMARK SMILES COc1ccc(C(C)=O)c(O)c1
REMARK SMILES IDX 6 1 10 2 12 3 3 4 4 5 5 6 7 7 8 8 9 9 11 10 2 12 1 13
REMARK H PARENT 11 11
REMARK Flexibility Score: inf
ROOT
ATOM      1  C   UNL     1       3.072 -14.946   9.650  1.00  0.00     0.059 A 
ATOM      2  C   UNL     1       1.735 -15.408   9.681  1.00  0.00     0.130 A 
ATOM      3  C   UNL     1       0.719 -14.645   9.091  1.00  0.00     0.093 A 
ATOM      4  C   UNL     1       1.016 -13.437   8.434  1.00  0.00     0.122 A 
ATOM      5  C   UNL     1       2.341 -13.000   8.381  1.00  0.00     0.047 A 
ATOM      6  C   UNL     1       3.360 -13.743   8.981  1.00  0.00     0.019 A 
ENDROOT
BRANCH   1   7
ATOM      7  C   UNL     1       4.170 -15.670  10.332  1.00  0.00     0.163 C 
ATOM      8  C   UNL     1       5.470 -15.939   9.638  1.00  0.00     0.093 C 
ATOM      9  O   UNL     1       4.051 -15.999  11.543  1.00  0.00    -0.294 OA
ENDBRANCH   1   7
BRANCH   2  10
ATOM     10  O   UNL     1       1.378 -16.630  10.259  1.00  0.00    -0.507 OA
ATOM     11  H   UNL     1       0.882 -16.706  11.136  1.00  0.00     0.293 HD
ENDBRANCH   2  10
BRANCH   4  12
ATOM     12  O   UNL     1       0.030 -12.648   7.825  1.00  0.00    -0.497 OA
ATOM     13  C   UNL     1       0.232 -11.875   6.646  1.00  0.00     0.278 C 
ENDBRANCH   4  12
TORSDOF 3
ENDMDL
MODEL 5
REMARK VINA RESULT:    -3.471      1.711      2.461
REMARK INTER + INTRA:          -4.316
REMARK INTER:                  -3.974
REMARK INTRA:                  -0.342
REMARK UNBOUND:                -0.338
REMARK SMILES COc1ccc(C(C)=O)c(O)c1
REMARK SMILES IDX 6 1 10 2 12 3 3 4 4 5 5 6 7 7 8 8 9 9 11 10 2 12 1 13
REMARK H PARENT 11 11
REMARK Flexibility Score: inf
ROOT
ATOM      1  C   UNL     1       1.254 -13.704   8.734  1.00  0.00     0.059 A 
ATOM      2  C   UNL     1       0.527 -14.917   8.669  1.00  0.00     0.130 A 
ATOM      3  C   UNL     1       0.812 -15.949   9.573  1.00  0.00     0.093 A 
ATOM      4  C   UNL     1       1.791 -15.783  10.569  1.00  0.00     0.122 A 
ATOM      5  C   UNL     1       2.484 -14.574  10.647  1.00  0.00     0.047 A 
ATOM      6  C   UNL     1       2.222 -13.544   9.741  1.00  0.00     0.019 A 
ENDROOT
BRANCH   1   7
ATOM      7  C   UNL     1       1.052 -12.614   7.750  1.00  0.00     0.163 C 
ATOM      8  C   UNL     1       2.210 -12.012   7.014  1.00  0.00     0.093 C 
ATOM      9  O   UNL     1      -0.114 -12.236   7.459  1.00  0.00    -0.294 OA
ENDBRANCH   1   7
BRANCH   2  10
ATOM     10  O   UNL     1      -0.502 -15.125   7.748  1.00  0.00    -0.507 OA
ATOM     11  H   UNL     1      -0.868 -14.397   7.149  1.00  0.00     0.293 HD
ENDBRANCH   2  10
BRANCH   4  12
ATOM     12  O   UNL     1       2.100 -16.789  11.496  1.00  0.00    -0.497 OA
ATOM     13  C   UNL     1       1.853 -16.697  12.896  1.00  0.00     0.278 C 
ENDBRANCH   4  12
TORSDOF 3
ENDMDL
MODEL 6
REMARK VINA RESULT:    -3.406      5.273      6.921
REMARK INTER + INTRA:          -4.242
REMARK INTER:                  -3.946
REMARK INTRA:                  -0.295
REMARK UNBOUND:                -0.338
REMARK SMILES COc1ccc(C(C)=O)c(O)c1
REMARK SMILES IDX 6 1 10 2 12 3 3 4 4 5 5 6 7 7 8 8 9 9 11 10 2 12 1 13
REMARK H PARENT 11 11
REMARK Flexibility Score: inf
ROOT
ATOM      1  C   UNL     1       2.663 -19.792  14.656  1.00  0.00     0.059 A 
ATOM      2  C   UNL     1       1.914 -20.068  15.825  1.00  0.00     0.130 A 
ATOM      3  C   UNL     1       0.875 -19.210  16.205  1.00  0.00     0.093 A 
ATOM      4  C   UNL     1       0.540 -18.092  15.420  1.00  0.00     0.122 A 
ATOM      5  C   UNL     1       1.263 -17.841  14.252  1.00  0.00     0.047 A 
ATOM      6  C   UNL     1       2.313 -18.679  13.872  1.00  0.00     0.019 A 
ENDROOT
BRANCH   1   7
ATOM      7  C   UNL     1       3.827 -20.618  14.255  1.00  0.00     0.163 C 
ATOM      8  C   UNL     1       5.226 -20.098  14.381  1.00  0.00     0.093 C 
ATOM      9  O   UNL     1       3.654 -21.808  13.879  1.00  0.00    -0.294 OA
ENDBRANCH   1   7
BRANCH   2  10
ATOM     10  O   UNL     1       2.150 -21.195  16.617  1.00  0.00    -0.507 OA
ATOM     11  H   UNL     1       1.693 -21.358  17.504  1.00  0.00     0.293 HD
ENDBRANCH   2  10
BRANCH   4  12
ATOM     12  O   UNL     1      -0.498 -17.214  15.762  1.00  0.00    -0.497 OA
ATOM     13  C   UNL     1      -0.426 -16.252  16.810  1.00  0.00     0.278 C 
ENDBRANCH   4  12
TORSDOF 3
ENDMDL
MODEL 7
REMARK VINA RESULT:    -3.395      2.855      3.198
REMARK INTER + INTRA:          -4.229
REMARK INTER:                  -3.894
REMARK INTRA:                  -0.335
REMARK UNBOUND:                -0.338
REMARK SMILES COc1ccc(C(C)=O)c(O)c1
REMARK SMILES IDX 6 1 10 2 12 3 3 4 4 5 5 6 7 7 8 8 9 9 11 10 2 12 1 13
REMARK H PARENT 11 11
REMARK Flexibility Score: inf
ROOT
ATOM      1  C   UNL     1       2.148 -14.073   9.154  1.00  0.00     0.059 A 
ATOM      2  C   UNL     1       2.118 -15.402   9.641  1.00  0.00     0.130 A 
ATOM      3  C   UNL     1       3.295 -16.159   9.674  1.00  0.00     0.093 A 
ATOM      4  C   UNL     1       4.520 -15.605   9.260  1.00  0.00     0.122 A 
ATOM      5  C   UNL     1       4.549 -14.284   8.808  1.00  0.00     0.047 A 
ATOM      6  C   UNL     1       3.379 -13.524   8.753  1.00  0.00     0.019 A 
ENDROOT
BRANCH   1   7
ATOM      7  C   UNL     1       0.918 -13.258   9.017  1.00  0.00     0.163 C 
ATOM      8  C   UNL     1       0.471 -12.748   7.681  1.00  0.00     0.093 C 
ATOM      9  O   UNL     1       0.184 -13.053  10.021  1.00  0.00    -0.294 OA
ENDBRANCH   1   7
BRANCH   2  10
ATOM     10  O   UNL     1       0.949 -15.994  10.128  1.00  0.00    -0.507 OA
ATOM     11  H   UNL     1       0.644 -15.913  11.088  1.00  0.00     0.293 HD
ENDBRANCH   2  10
BRANCH   4  12
ATOM     12  O   UNL     1       5.721 -16.327   9.284  1.00  0.00    -0.497 OA
ATOM     13  C   UNL     1       6.820 -16.035  10.142  1.00  0.00     0.278 C 
ENDBRANCH   4  12
TORSDOF 3
ENDMDL
MODEL 8
REMARK VINA RESULT:    -3.382      2.436      3.022
REMARK INTER + INTRA:          -4.215
REMARK INTER:                  -3.923
REMARK INTRA:                  -0.291
REMARK UNBOUND:                -0.338
REMARK SMILES COc1ccc(C(C)=O)c(O)c1
REMARK SMILES IDX 6 1 10 2 12 3 3 4 4 5 5 6 7 7 8 8 9 9 11 10 2 12 1 13
REMARK H PARENT 11 11
REMARK Flexibility Score: inf
ROOT
ATOM      1  C   UNL     1       1.578 -13.565   8.463  1.00  0.00     0.059 A 
ATOM      2  C   UNL     1       2.847 -13.778   9.054  1.00  0.00     0.130 A 
ATOM      3  C   UNL     1       3.018 -14.811   9.984  1.00  0.00     0.093 A 
ATOM      4  C   UNL     1       1.952 -15.666  10.316  1.00  0.00     0.122 A 
ATOM      5  C   UNL     1       0.710 -15.471   9.707  1.00  0.00     0.047 A 
ATOM      6  C   UNL     1       0.522 -14.433   8.792  1.00  0.00     0.019 A 
ENDROOT
BRANCH   1   7
ATOM      7  C   UNL     1       1.321 -12.436   7.539  1.00  0.00     0.163 C 
ATOM      8  C   UNL     1      -0.058 -11.875   7.367  1.00  0.00     0.093 C 
ATOM      9  O   UNL     1       2.281 -11.876   6.946  1.00  0.00    -0.294 OA
ENDBRANCH   1   7
BRANCH   2  10
ATOM     10  O   UNL     1       3.965 -13.008   8.723  1.00  0.00    -0.507 OA
ATOM     11  H   UNL     1       4.842 -13.057   9.224  1.00  0.00     0.293 HD
ENDBRANCH   2  10
BRANCH   4  12
ATOM     12  O   UNL     1       2.085 -16.715  11.236  1.00  0.00    -0.497 OA
ATOM     13  C   UNL     1       2.303 -16.538  12.632  1.00  0.00     0.278 C 
ENDBRANCH   4  12
TORSDOF 3
ENDMDL
MODEL 9
REMARK VINA RESULT:    -3.380      1.432      5.003
REMARK INTER + INTRA:          -4.212
REMARK INTER:                  -3.906
REMARK INTRA:                  -0.306
REMARK UNBOUND:                -0.338
REMARK SMILES COc1ccc(C(C)=O)c(O)c1
REMARK SMILES IDX 6 1 10 2 12 3 3 4 4 5 5 6 7 7 8 8 9 9 11 10 2 12 1 13
REMARK H PARENT 11 11
REMARK Flexibility Score: inf
ROOT
ATOM      1  C   UNL     1       1.945 -15.808  11.725  1.00  0.00     0.059 A 
ATOM      2  C   UNL     1       1.530 -14.456  11.795  1.00  0.00     0.130 A 
ATOM      3  C   UNL     1       0.973 -13.839  10.668  1.00  0.00     0.093 A 
ATOM      4  C   UNL     1       0.788 -14.556   9.472  1.00  0.00     0.122 A 
ATOM      5  C   UNL     1       1.172 -15.898   9.418  1.00  0.00     0.047 A 
ATOM      6  C   UNL     1       1.744 -16.519  10.529  1.00  0.00     0.019 A 
ENDROOT
BRANCH   1   7
ATOM      7  C   UNL     1       2.617 -16.482  12.860  1.00  0.00     0.163 C 
ATOM      8  C   UNL     1       2.081 -17.760  13.429  1.00  0.00     0.093 C 
ATOM      9  O   UNL     1       3.703 -16.028  13.310  1.00  0.00    -0.294 OA
ENDBRANCH   1   7
BRANCH   2  10
ATOM     10  O   UNL     1       1.624 -13.704  12.969  1.00  0.00    -0.507 OA
ATOM     11  H   UNL     1       2.285 -12.949  13.094  1.00  0.00     0.293 HD
ENDBRANCH   2  10
BRANCH   4  12
ATOM     12  O   UNL     1       0.227 -13.977   8.325  1.00  0.00    -0.497 OA
ATOM     13  C   UNL     1       0.730 -12.808   7.686  1.00  0.00     0.278 C 
ENDBRANCH   4  12
TORSDOF 3
ENDMDL
