MODEL 1
REMARK VINA RESULT:    -4.188      0.000      0.000
REMARK INTER + INTRA:          -4.311
REMARK INTER:                  -4.311
REMARK INTRA:                   0.000
REMARK UNBOUND:                 0.000
REMARK SMILES Cc1cccc(O)c1C
REMARK SMILES IDX 1 1 2 2 8 3 6 4 5 5 4 6 3 7 9 8 7 9
REMARK H PARENT 7 10
REMARK Flexibility Score: inf
ROOT
ATOM      1  C   UNL     1     477.306  38.847 461.523  1.00  0.00     0.045 C 
ATOM      2  C   UNL     1     477.500  37.352 461.525  1.00  0.00    -0.045 A 
ATOM      3  C   UNL     1     478.471  36.716 460.703  1.00  0.00    -0.006 A 
ATOM      4  C   UNL     1     478.599  35.304 460.757  1.00  0.00     0.118 A 
ATOM      5  C   UNL     1     477.779  34.559 461.607  1.00  0.00     0.046 A 
ATOM      6  C   UNL     1     476.831  35.188 462.409  1.00  0.00     0.004 A 
ATOM      7  C   UNL     1     476.691  36.573 462.370  1.00  0.00     0.004 A 
ATOM      8  C   UNL     1     479.369  37.503 459.776  1.00  0.00     0.048 C 
ENDROOT
BRANCH   4   9
ATOM      9  O   UNL     1     479.530  34.612 459.979  1.00  0.00    -0.508 OA
ATOM     10  H   UNL     1     479.365  34.343 459.018  1.00  0.00     0.293 HD
ENDBRANCH   4   9
TORSDOF 1
ENDMDL
MODEL 2
REMARK VINA RESULT:    -4.150      1.928      2.902
REMARK INTER + INTRA:          -4.271
REMARK INTER:                  -4.271
REMARK INTRA:                   0.000
REMARK UNBOUND:                 0.000
REMARK SMILES Cc1cccc(O)c1C
REMARK SMILES IDX 1 1 2 2 8 3 6 4 5 5 4 6 3 7 9 8 7 9
REMARK H PARENT 7 10
REMARK Flexibility Score: inf
ROOT
ATOM      1  C   UNL     1     479.408  34.920 459.890  1.00  0.00     0.045 C 
ATOM      2  C   UNL     1     478.359  35.378 460.871  1.00  0.00    -0.045 A 
ATOM      3  C   UNL     1     478.015  36.750 461.023  1.00  0.00    -0.006 A 
ATOM      4  C   UNL     1     477.017  37.109 461.966  1.00  0.00     0.118 A 
ATOM      5  C   UNL     1     476.389  36.122 462.730  1.00  0.00     0.046 A 
ATOM      6  C   UNL     1     476.731  34.782 462.577  1.00  0.00     0.004 A 
ATOM      7  C   UNL     1     477.707  34.411 461.655  1.00  0.00     0.004 A 
ATOM      8  C   UNL     1     478.682  37.833 460.207  1.00  0.00     0.048 C 
ENDROOT
BRANCH   4   9
ATOM      9  O   UNL     1     476.628  38.435 462.169  1.00  0.00    -0.508 OA
ATOM     10  H   UNL     1     476.362  39.059 461.419  1.00  0.00     0.293 HD
ENDBRANCH   4   9
TORSDOF 1
ENDMDL
MODEL 3
REMARK VINA RESULT:    -4.041      1.614      3.017
REMARK INTER + INTRA:          -4.160
REMARK INTER:                  -4.160
REMARK INTRA:                   0.000
REMARK UNBOUND:                 0.000
REMARK SMILES Cc1cccc(O)c1C
REMARK SMILES IDX 1 1 2 2 8 3 6 4 5 5 4 6 3 7 9 8 7 9
REMARK H PARENT 7 10
REMARK Flexibility Score: inf
ROOT
ATOM      1  C   UNL     1     476.042  35.115 463.111  1.00  0.00     0.045 C 
ATOM      2  C   UNL     1     477.070  35.566 462.104  1.00  0.00    -0.045 A 
ATOM      3  C   UNL     1     477.231  36.935 461.751  1.00  0.00    -0.006 A 
ATOM      4  C   UNL     1     478.219  37.287 460.796  1.00  0.00     0.118 A 
ATOM      5  C   UNL     1     479.017  36.298 460.217  1.00  0.00     0.046 A 
ATOM      6  C   UNL     1     478.854  34.961 460.567  1.00  0.00     0.004 A 
ATOM      7  C   UNL     1     477.889  34.596 461.503  1.00  0.00     0.004 A 
ATOM      8  C   UNL     1     476.378  38.022 462.366  1.00  0.00     0.048 C 
ENDROOT
BRANCH   4   9
ATOM      9  O   UNL     1     478.433  38.610 460.401  1.00  0.00    -0.508 OA
ATOM     10  H   UNL     1     477.965  39.041 459.615  1.00  0.00     0.293 HD
ENDBRANCH   4   9
TORSDOF 1
ENDMDL
MODEL 4
REMARK VINA RESULT:    -3.954      1.953      3.699
REMARK INTER + INTRA:          -4.070
REMARK INTER:                  -4.070
REMARK INTRA:                   0.000
REMARK UNBOUND:                 0.000
REMARK SMILES Cc1cccc(O)c1C
REMARK SMILES IDX 1 1 2 2 8 3 6 4 5 5 4 6 3 7 9 8 7 9
REMARK H PARENT 7 10
REMARK Flexibility Score: inf
ROOT
ATOM      1  C   UNL     1     479.401  34.648 460.111  1.00  0.00     0.045 C 
ATOM      2  C   UNL     1     478.610  35.825 460.621  1.00  0.00    -0.045 A 
ATOM      3  C   UNL     1     477.543  35.672 461.550  1.00  0.00    -0.006 A 
ATOM      4  C   UNL     1     476.842  36.825 461.988  1.00  0.00     0.118 A 
ATOM      5  C   UNL     1     477.201  38.087 461.508  1.00  0.00     0.046 A 
ATOM      6  C   UNL     1     478.245  38.229 460.599  1.00  0.00     0.004 A 
ATOM      7  C   UNL     1     478.945  37.109 460.158  1.00  0.00     0.004 A 
ATOM      8  C   UNL     1     477.139  34.316 462.083  1.00  0.00     0.048 C 
ENDROOT
BRANCH   4   9
ATOM      9  O   UNL     1     475.785  36.751 462.898  1.00  0.00    -0.508 OA
ATOM     10  H   UNL     1     475.604  35.944 463.480  1.00  0.00     0.293 HD
ENDBRANCH   4   9
TORSDOF 1
ENDMDL
MODEL 5
REMARK VINA RESULT:    -3.805      1.837      2.826
REMARK INTER + INTRA:          -3.917
REMARK INTER:                  -3.917
REMARK INTRA:                   0.000
REMARK UNBOUND:                 0.000
REMARK SMILES Cc1cccc(O)c1C
REMARK SMILES IDX 1 1 2 2 8 3 6 4 5 5 4 6 3 7 9 8 7 9
REMARK H PARENT 7 10
REMARK Flexibility Score: inf
ROOT
ATOM      1  C   UNL     1     479.273  37.881 459.639  1.00  0.00     0.045 C 
ATOM      2  C   UNL     1     478.462  36.961 460.515  1.00  0.00    -0.045 A 
ATOM      3  C   UNL     1     477.399  37.437 461.333  1.00  0.00    -0.006 A 
ATOM      4  C   UNL     1     476.679  36.513 462.132  1.00  0.00     0.118 A 
ATOM      5  C   UNL     1     477.015  35.157 462.110  1.00  0.00     0.046 A 
ATOM      6  C   UNL     1     478.057  34.698 461.309  1.00  0.00     0.004 A 
ATOM      7  C   UNL     1     478.775  35.590 460.517  1.00  0.00     0.004 A 
ATOM      8  C   UNL     1     477.018  38.899 461.370  1.00  0.00     0.048 C 
ENDROOT
BRANCH   4   9
ATOM      9  O   UNL     1     475.624  36.908 462.957  1.00  0.00    -0.508 OA
ATOM     10  H   UNL     1     475.686  36.941 463.966  1.00  0.00     0.293 HD
ENDBRANCH   4   9
TORSDOF 1
ENDMDL
MODEL 6
REMARK VINA RESULT:    -3.688      0.974      2.609
REMARK INTER + INTRA:          -3.795
REMARK INTER:                  -3.795
REMARK INTRA:                   0.000
REMARK UNBOUND:                 0.000
REMARK SMILES Cc1cccc(O)c1C
REMARK SMILES IDX 1 1 2 2 8 3 6 4 5 5 4 6 3 7 9 8 7 9
REMARK H PARENT 7 10
REMARK Flexibility Score: inf
ROOT
ATOM      1  C   UNL     1     475.968  38.262 462.421  1.00  0.00     0.045 C 
ATOM      2  C   UNL     1     477.083  37.654 461.611  1.00  0.00    -0.045 A 
ATOM      3  C   UNL     1     477.442  36.282 461.729  1.00  0.00    -0.006 A 
ATOM      4  C   UNL     1     478.503  35.777 460.934  1.00  0.00     0.118 A 
ATOM      5  C   UNL     1     479.180  36.622 460.051  1.00  0.00     0.046 A 
ATOM      6  C   UNL     1     478.824  37.963 459.940  1.00  0.00     0.004 A 
ATOM      7  C   UNL     1     477.785  38.476 460.712  1.00  0.00     0.004 A 
ATOM      8  C   UNL     1     476.723  35.350 462.677  1.00  0.00     0.048 C 
ENDROOT
BRANCH   4   9
ATOM      9  O   UNL     1     478.909  34.442 460.997  1.00  0.00    -0.508 OA
ATOM     10  H   UNL     1     479.515  34.010 460.313  1.00  0.00     0.293 HD
ENDBRANCH   4   9
TORSDOF 1
ENDMDL
MODEL 7
REMARK VINA RESULT:    -3.599      5.438      6.544
REMARK INTER + INTRA:          -3.705
REMARK INTER:                  -3.705
REMARK INTRA:                   0.000
REMARK UNBOUND:                 0.000
REMARK SMILES Cc1cccc(O)c1C
REMARK SMILES IDX 1 1 2 2 8 3 6 4 5 5 4 6 3 7 9 8 7 9
REMARK H PARENT 7 10
REMARK Flexibility Score: inf
ROOT
ATOM      1  C   UNL     1     481.368  40.222 460.604  1.00  0.00     0.045 C 
ATOM      2  C   UNL     1     482.704  39.567 460.364  1.00  0.00    -0.045 A 
ATOM      3  C   UNL     1     482.939  38.715 459.248  1.00  0.00    -0.006 A 
ATOM      4  C   UNL     1     484.222  38.133 459.085  1.00  0.00     0.118 A 
ATOM      5  C   UNL     1     485.234  38.397 460.011  1.00  0.00     0.046 A 
ATOM      6  C   UNL     1     484.997  39.230 461.100  1.00  0.00     0.004 A 
ATOM      7  C   UNL     1     483.744  39.812 461.277  1.00  0.00     0.004 A 
ATOM      8  C   UNL     1     481.858  38.416 458.234  1.00  0.00     0.048 C 
ENDROOT
BRANCH   4   9
ATOM      9  O   UNL     1     484.524  37.287 458.014  1.00  0.00    -0.508 OA
ATOM     10  H   UNL     1     484.849  36.337 458.128  1.00  0.00     0.293 HD
ENDBRANCH   4   9
TORSDOF 1
ENDMDL
MODEL 8
REMARK VINA RESULT:    -3.495      4.850      6.676
REMARK INTER + INTRA:          -3.597
REMARK INTER:                  -3.597
REMARK INTRA:                   0.000
REMARK UNBOUND:                 0.000
REMARK SMILES Cc1cccc(O)c1C
REMARK SMILES IDX 1 1 2 2 8 3 6 4 5 5 4 6 3 7 9 8 7 9
REMARK H PARENT 7 10
REMARK Flexibility Score: inf
ROOT
ATOM      1  C   UNL     1     480.865  38.724 459.971  1.00  0.00     0.045 C 
ATOM      2  C   UNL     1     482.016  38.555 459.013  1.00  0.00    -0.045 A 
ATOM      3  C   UNL     1     483.366  38.764 459.410  1.00  0.00    -0.006 A 
ATOM      4  C   UNL     1     484.399  38.587 458.455  1.00  0.00     0.118 A 
ATOM      5  C   UNL     1     484.086  38.214 457.146  1.00  0.00     0.046 A 
ATOM      6  C   UNL     1     482.763  38.011 456.764  1.00  0.00     0.004 A 
ATOM      7  C   UNL     1     481.735  38.180 457.688  1.00  0.00     0.004 A 
ATOM      8  C   UNL     1     483.727  39.168 460.821  1.00  0.00     0.048 C 
ENDROOT
BRANCH   4   9
ATOM      9  O   UNL     1     485.747  38.774 458.774  1.00  0.00    -0.508 OA
ATOM     10  H   UNL     1     486.372  39.357 458.233  1.00  0.00     0.293 HD
ENDBRANCH   4   9
TORSDOF 1
ENDMDL
MODEL 9
REMARK VINA RESULT:    -3.387      7.627      8.305
REMARK INTER + INTRA:          -3.486
REMARK INTER:                  -3.486
REMARK INTRA:                   0.000
REMARK UNBOUND:                 0.000
REMARK SMILES Cc1cccc(O)c1C
REMARK SMILES IDX 1 1 2 2 8 3 6 4 5 5 4 6 3 7 9 8 7 9
REMARK H PARENT 7 10
REMARK Flexibility Score: inf
ROOT
ATOM      1  C   UNL     1     483.061  41.323 455.809  1.00  0.00     0.045 C 
ATOM      2  C   UNL     1     483.843  40.600 456.875  1.00  0.00    -0.045 A 
ATOM      3  C   UNL     1     483.815  39.183 457.003  1.00  0.00    -0.006 A 
ATOM      4  C   UNL     1     484.577  38.569 458.030  1.00  0.00     0.118 A 
ATOM      5  C   UNL     1     485.339  39.353 458.899  1.00  0.00     0.046 A 
ATOM      6  C   UNL     1     485.362  40.738 458.770  1.00  0.00     0.004 A 
ATOM      7  C   UNL     1     484.621  41.359 457.767  1.00  0.00     0.004 A 
ATOM      8  C   UNL     1     482.997  38.316 456.072  1.00  0.00     0.048 C 
ENDROOT
BRANCH   4   9
ATOM      9  O   UNL     1     484.597  37.185 458.214  1.00  0.00    -0.508 OA
ATOM     10  H   UNL     1     484.048  36.540 457.661  1.00  0.00     0.293 HD
ENDBRANCH   4   9
TORSDOF 1
ENDMDL
