MODEL 1
REMARK VINA RESULT:    -3.278      0.000      0.000
REMARK INTER + INTRA:          -6.295
REMARK INTER:                  -5.195
REMARK INTRA:                  -1.100
REMARK UNBOUND:                -1.100
REMARK SMILES CCCCCCCCCCCC(=O)[O-]
REMARK SMILES IDX 7 1 8 2 9 3 10 4 11 5 12 6 13 7 14 8 6 9 5 10 4 11 3 12 2 13
REMARK SMILES IDX 1 14
REMARK H PARENT
REMARK Flexibility Score: inf
ROOT
ATOM      1  C   UNL     1     -48.105 -49.421  68.190  1.00  0.00     0.000 C 
ENDROOT
BRANCH   1   2
ATOM      2  C   UNL     1     -48.170 -48.229  67.219  1.00  0.00     0.000 C 
BRANCH   2   3
ATOM      3  C   UNL     1     -49.271 -47.224  67.591  1.00  0.00     0.000 C 
BRANCH   3   4
ATOM      4  C   UNL     1     -50.040 -46.708  66.366  1.00  0.00     0.006 C 
BRANCH   4   5
ATOM      5  C   UNL     1     -49.422 -47.238  65.068  1.00  0.00     0.053 C 
BRANCH   5   6
ATOM      6  C   UNL     1     -49.453 -46.187  64.004  1.00  0.00     0.041 C 
ATOM      7  O   UNL     1     -50.471 -45.462  63.861  1.00  0.00    -0.550 OA
ATOM      8  O   UNL     1     -48.376 -46.042  63.139  1.00  0.00    -0.550 OA
ENDBRANCH   5   6
ENDBRANCH   4   5
ENDBRANCH   3   4
ENDBRANCH   2   3
ENDBRANCH   1   2
BRANCH   1   9
ATOM      9  C   UNL     1     -48.965 -49.204  69.446  1.00  0.00     0.000 C 
BRANCH   9  10
ATOM     10  C   UNL     1     -48.117 -48.981  70.710  1.00  0.00    -0.000 C 
BRANCH  10  11
ATOM     11  C   UNL     1     -47.848 -47.492  70.983  1.00  0.00    -0.000 C 
BRANCH  11  12
ATOM     12  C   UNL     1     -46.347 -47.153  70.974  1.00  0.00    -0.000 C 
BRANCH  12  13
ATOM     13  C   UNL     1     -45.469 -48.375  70.668  1.00  0.00    -0.003 C 
ATOM     14  C   UNL     1     -44.718 -48.246  69.343  1.00  0.00     0.004 C 
ENDBRANCH  12  13
ENDBRANCH  11  12
ENDBRANCH  10  11
ENDBRANCH   9  10
ENDBRANCH   1   9
TORSDOF 10
ENDMDL
MODEL 2
REMARK VINA RESULT:    -3.244      1.140      2.260
REMARK INTER + INTRA:          -6.240
REMARK INTER:                  -5.322
REMARK INTRA:                  -0.918
REMARK UNBOUND:                -1.100
REMARK SMILES CCCCCCCCCCCC(=O)[O-]
REMARK SMILES IDX 7 1 8 2 9 3 10 4 11 5 12 6 13 7 14 8 6 9 5 10 4 11 3 12 2 13
REMARK SMILES IDX 1 14
REMARK H PARENT
REMARK Flexibility Score: inf
ROOT
ATOM      1  C   UNL     1     -47.949 -47.141  69.688  1.00  0.00     0.000 C 
ENDROOT
BRANCH   1   2
ATOM      2  C   UNL     1     -48.686 -48.279  68.959  1.00  0.00     0.000 C 
BRANCH   2   3
ATOM      3  C   UNL     1     -48.580 -48.167  67.431  1.00  0.00     0.000 C 
BRANCH   3   4
ATOM      4  C   UNL     1     -49.521 -47.102  66.850  1.00  0.00     0.006 C 
BRANCH   4   5
ATOM      5  C   UNL     1     -49.556 -47.177  65.320  1.00  0.00     0.053 C 
BRANCH   5   6
ATOM      6  C   UNL     1     -50.580 -46.233  64.772  1.00  0.00     0.041 C 
ATOM      7  O   UNL     1     -50.230 -45.282  64.027  1.00  0.00    -0.550 OA
ATOM      8  O   UNL     1     -51.916 -46.378  65.124  1.00  0.00    -0.550 OA
ENDBRANCH   5   6
ENDBRANCH   4   5
ENDBRANCH   3   4
ENDBRANCH   2   3
ENDBRANCH   1   2
BRANCH   1   9
ATOM      9  C   UNL     1     -47.325 -47.600  71.015  1.00  0.00     0.000 C 
BRANCH   9  10
ATOM     10  C   UNL     1     -45.924 -47.006  71.245  1.00  0.00    -0.000 C 
BRANCH  10  11
ATOM     11  C   UNL     1     -44.803 -47.927  70.737  1.00  0.00    -0.000 C 
BRANCH  11  12
ATOM     12  C   UNL     1     -45.264 -49.387  70.583  1.00  0.00    -0.000 C 
BRANCH  12  13
ATOM     13  C   UNL     1     -44.835 -50.001  69.242  1.00  0.00    -0.003 C 
ATOM     14  C   UNL     1     -45.051 -49.053  68.063  1.00  0.00     0.004 C 
ENDBRANCH  12  13
ENDBRANCH  11  12
ENDBRANCH  10  11
ENDBRANCH   9  10
ENDBRANCH   1   9
TORSDOF 10
ENDMDL
MODEL 3
REMARK VINA RESULT:    -3.220      5.271      7.590
REMARK INTER + INTRA:          -6.202
REMARK INTER:                  -5.412
REMARK INTRA:                  -0.791
REMARK UNBOUND:                -1.100
REMARK SMILES CCCCCCCCCCCC(=O)[O-]
REMARK SMILES IDX 7 1 8 2 9 3 10 4 11 5 12 6 13 7 14 8 6 9 5 10 4 11 3 12 2 13
REMARK SMILES IDX 1 14
REMARK H PARENT
REMARK Flexibility Score: inf
ROOT
ATOM      1  C   UNL     1     -45.421 -48.102  70.702  1.00  0.00     0.000 C 
ENDROOT
BRANCH   1   2
ATOM      2  C   UNL     1     -43.964 -47.644  70.889  1.00  0.00     0.000 C 
BRANCH   2   3
ATOM      3  C   UNL     1     -43.858 -46.166  71.297  1.00  0.00     0.000 C 
BRANCH   3   4
ATOM      4  C   UNL     1     -43.146 -45.976  72.645  1.00  0.00     0.006 C 
BRANCH   4   5
ATOM      5  C   UNL     1     -43.136 -44.501  73.056  1.00  0.00     0.053 C 
BRANCH   5   6
ATOM      6  C   UNL     1     -43.953 -44.294  74.292  1.00  0.00     0.041 C 
ATOM      7  O   UNL     1     -44.435 -45.282  74.905  1.00  0.00    -0.550 OA
ATOM      8  O   UNL     1     -44.224 -43.007  74.738  1.00  0.00    -0.550 OA
ENDBRANCH   5   6
ENDBRANCH   4   5
ENDBRANCH   3   4
ENDBRANCH   2   3
ENDBRANCH   1   2
BRANCH   1   9
ATOM      9  C   UNL     1     -46.434 -47.002  71.060  1.00  0.00     0.000 C 
BRANCH   9  10
ATOM     10  C   UNL     1     -47.886 -47.511  71.051  1.00  0.00    -0.000 C 
BRANCH  10  11
ATOM     11  C   UNL     1     -47.987 -48.996  70.667  1.00  0.00    -0.000 C 
BRANCH  11  12
ATOM     12  C   UNL     1     -48.865 -49.224  69.424  1.00  0.00    -0.000 C 
BRANCH  12  13
ATOM     13  C   UNL     1     -48.641 -48.159  68.341  1.00  0.00    -0.003 C 
ATOM     14  C   UNL     1     -47.443 -48.472  67.445  1.00  0.00     0.004 C 
ENDBRANCH  12  13
ENDBRANCH  11  12
ENDBRANCH  10  11
ENDBRANCH   9  10
ENDBRANCH   1   9
TORSDOF 10
ENDMDL
MODEL 4
REMARK VINA RESULT:    -3.167      4.294      6.037
REMARK INTER + INTRA:          -6.119
REMARK INTER:                  -5.223
REMARK INTRA:                  -0.896
REMARK UNBOUND:                -1.100
REMARK SMILES CCCCCCCCCCCC(=O)[O-]
REMARK SMILES IDX 7 1 8 2 9 3 10 4 11 5 12 6 13 7 14 8 6 9 5 10 4 11 3 12 2 13
REMARK SMILES IDX 1 14
REMARK H PARENT
REMARK Flexibility Score: inf
ROOT
ATOM      1  C   UNL     1     -44.346 -47.150  70.291  1.00  0.00     0.000 C 
ENDROOT
BRANCH   1   2
ATOM      2  C   UNL     1     -43.913 -48.596  70.591  1.00  0.00     0.000 C 
BRANCH   2   3
ATOM      3  C   UNL     1     -44.937 -49.632  70.102  1.00  0.00     0.000 C 
BRANCH   3   4
ATOM      4  C   UNL     1     -46.274 -48.995  69.695  1.00  0.00     0.006 C 
BRANCH   4   5
ATOM      5  C   UNL     1     -47.350 -49.256  70.753  1.00  0.00     0.053 C 
BRANCH   5   6
ATOM      6  C   UNL     1     -48.260 -48.075  70.879  1.00  0.00     0.041 C 
ATOM      7  O   UNL     1     -49.417 -48.215  71.353  1.00  0.00    -0.550 OA
ATOM      8  O   UNL     1     -47.846 -46.828  70.426  1.00  0.00    -0.550 OA
ENDBRANCH   5   6
ENDBRANCH   4   5
ENDBRANCH   3   4
ENDBRANCH   2   3
ENDBRANCH   1   2
BRANCH   1   9
ATOM      9  C   UNL     1     -44.559 -46.322  71.569  1.00  0.00     0.000 C 
BRANCH   9  10
ATOM     10  C   UNL     1     -43.319 -45.494  71.949  1.00  0.00    -0.000 C 
BRANCH  10  11
ATOM     11  C   UNL     1     -42.539 -45.003  70.720  1.00  0.00    -0.000 C 
BRANCH  11  12
ATOM     12  C   UNL     1     -42.954 -43.587  70.284  1.00  0.00    -0.000 C 
BRANCH  12  13
ATOM     13  C   UNL     1     -42.839 -43.380  68.767  1.00  0.00    -0.003 C 
ATOM     14  C   UNL     1     -42.367 -44.636  68.034  1.00  0.00     0.004 C 
ENDBRANCH  12  13
ENDBRANCH  11  12
ENDBRANCH  10  11
ENDBRANCH   9  10
ENDBRANCH   1   9
TORSDOF 10
ENDMDL
MODEL 5
REMARK VINA RESULT:    -3.117      4.092      5.818
REMARK INTER + INTRA:          -6.040
REMARK INTER:                  -5.168
REMARK INTRA:                  -0.872
REMARK UNBOUND:                -1.100
REMARK SMILES CCCCCCCCCCCC(=O)[O-]
REMARK SMILES IDX 7 1 8 2 9 3 10 4 11 5 12 6 13 7 14 8 6 9 5 10 4 11 3 12 2 13
REMARK SMILES IDX 1 14
REMARK H PARENT
REMARK Flexibility Score: inf
ROOT
ATOM      1  C   UNL     1     -45.229 -48.132  70.701  1.00  0.00     0.000 C 
ENDROOT
BRANCH   1   2
ATOM      2  C   UNL     1     -46.277 -47.151  71.255  1.00  0.00     0.000 C 
BRANCH   2   3
ATOM      3  C   UNL     1     -47.584 -47.165  70.448  1.00  0.00     0.000 C 
BRANCH   3   4
ATOM      4  C   UNL     1     -48.690 -47.983  71.128  1.00  0.00     0.006 C 
BRANCH   4   5
ATOM      5  C   UNL     1     -49.292 -49.005  70.159  1.00  0.00     0.053 C 
BRANCH   5   6
ATOM      6  C   UNL     1     -48.323 -50.115  69.898  1.00  0.00     0.041 C 
ATOM      7  O   UNL     1     -48.071 -50.470  68.717  1.00  0.00    -0.550 OA
ATOM      8  O   UNL     1     -47.736 -50.789  70.961  1.00  0.00    -0.550 OA
ENDBRANCH   5   6
ENDBRANCH   4   5
ENDBRANCH   3   4
ENDBRANCH   2   3
ENDBRANCH   1   2
BRANCH   1   9
ATOM      9  C   UNL     1     -43.795 -47.591  70.819  1.00  0.00     0.000 C 
BRANCH   9  10
ATOM     10  C   UNL     1     -43.754 -46.064  71.003  1.00  0.00    -0.000 C 
BRANCH  10  11
ATOM     11  C   UNL     1     -42.551 -45.603  71.841  1.00  0.00    -0.000 C 
BRANCH  11  12
ATOM     12  C   UNL     1     -42.775 -45.798  73.351  1.00  0.00    -0.000 C 
BRANCH  12  13
ATOM     13  C   UNL     1     -44.102 -45.194  73.832  1.00  0.00    -0.003 C 
ATOM     14  C   UNL     1     -43.918 -43.852  74.538  1.00  0.00     0.004 C 
ENDBRANCH  12  13
ENDBRANCH  11  12
ENDBRANCH  10  11
ENDBRANCH   9  10
ENDBRANCH   1   9
TORSDOF 10
ENDMDL
MODEL 6
REMARK VINA RESULT:    -3.088      1.596      2.862
REMARK INTER + INTRA:          -5.994
REMARK INTER:                  -4.761
REMARK INTRA:                  -1.233
REMARK UNBOUND:                -1.100
REMARK SMILES CCCCCCCCCCCC(=O)[O-]
REMARK SMILES IDX 7 1 8 2 9 3 10 4 11 5 12 6 13 7 14 8 6 9 5 10 4 11 3 12 2 13
REMARK SMILES IDX 1 14
REMARK H PARENT
REMARK Flexibility Score: inf
ROOT
ATOM      1  C   UNL     1     -45.724 -48.683  67.325  1.00  0.00     0.000 C 
ENDROOT
BRANCH   1   2
ATOM      2  C   UNL     1     -47.193 -49.144  67.345  1.00  0.00     0.000 C 
BRANCH   2   3
ATOM      3  C   UNL     1     -48.109 -48.230  66.516  1.00  0.00     0.000 C 
BRANCH   3   4
ATOM      4  C   UNL     1     -49.060 -47.398  67.390  1.00  0.00     0.006 C 
BRANCH   4   5
ATOM      5  C   UNL     1     -50.508 -47.868  67.224  1.00  0.00     0.053 C 
BRANCH   5   6
ATOM      6  C   UNL     1     -51.306 -46.854  66.468  1.00  0.00     0.041 C 
ATOM      7  O   UNL     1     -52.458 -46.533  66.860  1.00  0.00    -0.550 OA
ATOM      8  O   UNL     1     -50.796 -46.299  65.301  1.00  0.00    -0.550 OA
ENDBRANCH   5   6
ENDBRANCH   4   5
ENDBRANCH   3   4
ENDBRANCH   2   3
ENDBRANCH   1   2
BRANCH   1   9
ATOM      9  C   UNL     1     -44.963 -49.090  68.598  1.00  0.00     0.000 C 
BRANCH   9  10
ATOM     10  C   UNL     1     -44.872 -47.946  69.622  1.00  0.00    -0.000 C 
BRANCH  10  11
ATOM     11  C   UNL     1     -45.820 -48.146  70.815  1.00  0.00    -0.000 C 
BRANCH  11  12
ATOM     12  C   UNL     1     -47.005 -47.165  70.799  1.00  0.00    -0.000 C 
BRANCH  12  13
ATOM     13  C   UNL     1     -48.357 -47.872  70.979  1.00  0.00    -0.003 C 
ATOM     14  C   UNL     1     -48.276 -49.375  70.719  1.00  0.00     0.004 C 
ENDBRANCH  12  13
ENDBRANCH  11  12
ENDBRANCH  10  11
ENDBRANCH   9  10
ENDBRANCH   1   9
TORSDOF 10
ENDMDL
MODEL 7
REMARK VINA RESULT:    -3.085      4.296      6.469
REMARK INTER + INTRA:          -5.989
REMARK INTER:                  -5.096
REMARK INTRA:                  -0.894
REMARK UNBOUND:                -1.100
REMARK SMILES CCCCCCCCCCCC(=O)[O-]
REMARK SMILES IDX 7 1 8 2 9 3 10 4 11 5 12 6 13 7 14 8 6 9 5 10 4 11 3 12 2 13
REMARK SMILES IDX 1 14
REMARK H PARENT
REMARK Flexibility Score: inf
ROOT
ATOM      1  C   UNL     1     -46.556 -47.168  71.043  1.00  0.00     0.000 C 
ENDROOT
BRANCH   1   2
ATOM      2  C   UNL     1     -45.598 -48.335  70.744  1.00  0.00     0.000 C 
BRANCH   2   3
ATOM      3  C   UNL     1     -44.124 -47.901  70.732  1.00  0.00     0.000 C 
BRANCH   3   4
ATOM      4  C   UNL     1     -43.909 -46.524  71.376  1.00  0.00     0.006 C 
BRANCH   4   5
ATOM      5  C   UNL     1     -43.290 -45.542  70.377  1.00  0.00     0.053 C 
BRANCH   5   6
ATOM      6  C   UNL     1     -42.885 -44.277  71.066  1.00  0.00     0.041 C 
ATOM      7  O   UNL     1     -42.488 -43.289  70.395  1.00  0.00    -0.550 OA
ATOM      8  O   UNL     1     -42.899 -44.207  72.454  1.00  0.00    -0.550 OA
ENDBRANCH   5   6
ENDBRANCH   4   5
ENDBRANCH   3   4
ENDBRANCH   2   3
ENDBRANCH   1   2
BRANCH   1   9
ATOM      9  C   UNL     1     -48.032 -47.596  71.011  1.00  0.00     0.000 C 
BRANCH   9  10
ATOM     10  C   UNL     1     -48.211 -49.068  70.601  1.00  0.00    -0.000 C 
BRANCH  10  11
ATOM     11  C   UNL     1     -48.921 -49.220  69.246  1.00  0.00    -0.000 C 
BRANCH  11  12
ATOM     12  C   UNL     1     -48.774 -47.972  68.360  1.00  0.00    -0.000 C 
BRANCH  12  13
ATOM     13  C   UNL     1     -48.082 -48.278  67.023  1.00  0.00    -0.003 C 
ATOM     14  C   UNL     1     -46.635 -48.735  67.199  1.00  0.00     0.004 C 
ENDBRANCH  12  13
ENDBRANCH  11  12
ENDBRANCH  10  11
ENDBRANCH   9  10
ENDBRANCH   1   9
TORSDOF 10
ENDMDL
MODEL 8
REMARK VINA RESULT:    -3.054      2.084      3.462
REMARK INTER + INTRA:          -5.940
REMARK INTER:                  -4.563
REMARK INTRA:                  -1.378
REMARK UNBOUND:                -1.100
REMARK SMILES CCCCCCCCCCCC(=O)[O-]
REMARK SMILES IDX 7 1 8 2 9 3 10 4 11 5 12 6 13 7 14 8 6 9 5 10 4 11 3 12 2 13
REMARK SMILES IDX 1 14
REMARK H PARENT
REMARK Flexibility Score: inf
ROOT
ATOM      1  C   UNL     1     -45.598 -49.437  69.324  1.00  0.00     0.000 C 
ENDROOT
BRANCH   1   2
ATOM      2  C   UNL     1     -44.886 -48.650  68.210  1.00  0.00     0.000 C 
BRANCH   2   3
ATOM      3  C   UNL     1     -45.697 -48.609  66.905  1.00  0.00     0.000 C 
BRANCH   3   4
ATOM      4  C   UNL     1     -47.149 -49.069  67.098  1.00  0.00     0.006 C 
BRANCH   4   5
ATOM      5  C   UNL     1     -48.080 -48.380  66.096  1.00  0.00     0.053 C 
BRANCH   5   6
ATOM      6  C   UNL     1     -49.377 -48.015  66.748  1.00  0.00     0.041 C 
ATOM      7  O   UNL     1     -50.355 -48.806  66.699  1.00  0.00    -0.550 OA
ATOM      8  O   UNL     1     -49.519 -46.780  67.367  1.00  0.00    -0.550 OA
ENDBRANCH   5   6
ENDBRANCH   4   5
ENDBRANCH   3   4
ENDBRANCH   2   3
ENDBRANCH   1   2
BRANCH   1   9
ATOM      9  C   UNL     1     -45.504 -48.738  70.690  1.00  0.00     0.000 C 
BRANCH   9  10
ATOM     10  C   UNL     1     -45.901 -47.253  70.621  1.00  0.00    -0.000 C 
BRANCH  10  11
ATOM     11  C   UNL     1     -47.380 -47.054  70.254  1.00  0.00    -0.000 C 
BRANCH  11  12
ATOM     12  C   UNL     1     -48.325 -47.873  71.150  1.00  0.00    -0.000 C 
BRANCH  12  13
ATOM     13  C   UNL     1     -49.204 -48.843  70.346  1.00  0.00    -0.003 C 
ATOM     14  C   UNL     1     -48.886 -50.309  70.638  1.00  0.00     0.004 C 
ENDBRANCH  12  13
ENDBRANCH  11  12
ENDBRANCH  10  11
ENDBRANCH   9  10
ENDBRANCH   1   9
TORSDOF 10
ENDMDL
MODEL 9
REMARK VINA RESULT:    -2.985      1.857      3.439
REMARK INTER + INTRA:          -5.831
REMARK INTER:                  -4.244
REMARK INTRA:                  -1.587
REMARK UNBOUND:                -1.100
REMARK SMILES CCCCCCCCCCCC(=O)[O-]
REMARK SMILES IDX 7 1 8 2 9 3 10 4 11 5 12 6 13 7 14 8 6 9 5 10 4 11 3 12 2 13
REMARK SMILES IDX 1 14
REMARK H PARENT
REMARK Flexibility Score: inf
ROOT
ATOM      1  C   UNL     1     -47.883 -47.490  71.072  1.00  0.00     0.000 C 
ENDROOT
BRANCH   1   2
ATOM      2  C   UNL     1     -48.128 -48.973  70.742  1.00  0.00     0.000 C 
BRANCH   2   3
ATOM      3  C   UNL     1     -49.016 -49.163  69.503  1.00  0.00     0.000 C 
BRANCH   3   4
ATOM      4  C   UNL     1     -48.209 -49.518  68.246  1.00  0.00     0.006 C 
BRANCH   4   5
ATOM      5  C   UNL     1     -47.903 -48.266  67.419  1.00  0.00     0.053 C 
BRANCH   5   6
ATOM      6  C   UNL     1     -49.070 -47.911  66.552  1.00  0.00     0.041 C 
ATOM      7  O   UNL     1     -49.338 -48.603  65.536  1.00  0.00    -0.550 OA
ATOM      8  O   UNL     1     -49.833 -46.786  66.841  1.00  0.00    -0.550 OA
ENDBRANCH   5   6
ENDBRANCH   4   5
ENDBRANCH   3   4
ENDBRANCH   2   3
ENDBRANCH   1   2
BRANCH   1   9
ATOM      9  C   UNL     1     -46.426 -47.065  70.825  1.00  0.00     0.000 C 
BRANCH   9  10
ATOM     10  C   UNL     1     -45.459 -48.261  70.797  1.00  0.00    -0.000 C 
BRANCH  10  11
ATOM     11  C   UNL     1     -44.759 -48.422  69.438  1.00  0.00    -0.000 C 
BRANCH  11  12
ATOM     12  C   UNL     1     -44.638 -49.893  69.007  1.00  0.00    -0.000 C 
BRANCH  12  13
ATOM     13  C   UNL     1     -44.725 -50.863  70.195  1.00  0.00    -0.003 C 
ATOM     14  C   UNL     1     -45.890 -51.845  70.071  1.00  0.00     0.004 C 
ENDBRANCH  12  13
ENDBRANCH  11  12
ENDBRANCH  10  11
ENDBRANCH   9  10
ENDBRANCH   1   9
TORSDOF 10
ENDMDL
