MODEL 1
REMARK VINA RESULT:    -3.939      0.000      0.000
REMARK INTER + INTRA:          -5.603
REMARK INTER:                  -5.320
REMARK INTRA:                  -0.283
REMARK UNBOUND:                -0.283
REMARK SMILES C=C1CCC=C(C)CC[C@H]2[C@H]1CC2(C)C
REMARK SMILES IDX 11 1 12 2 13 3 10 4 14 5 15 6 9 7 8 8 6 9 7 10 5 11 2 13
REMARK SMILES IDX 1 14 3 15 4 16
REMARK H PARENT
REMARK Flexibility Score: 70.00
ROOT
ATOM      1  C   UNL     1      29.608  25.656  10.907  1.00  0.00     0.018 C 
ATOM      2  C   UNL     1      29.638  24.153  10.601  1.00  0.00     0.015 C 
ATOM      3  C   UNL     1      31.109  24.085  11.045  1.00  0.00    -0.031 C 
ATOM      4  C   UNL     1      31.015  25.553  11.525  1.00  0.00     0.002 C 
ATOM      5  C   UNL     1      32.064  23.819   9.864  1.00  0.00     0.011 C 
ATOM      6  C   UNL     1      31.340  23.083  12.191  1.00  0.00     0.011 C 
ENDROOT
BRANCH   4   7
ATOM      7  C   UNL     1      32.022  26.584  10.976  1.00  0.00     0.009 C 
BRANCH   7   8
ATOM      8  C   UNL     1      32.109  27.838  11.874  1.00  0.00     0.030 C 
BRANCH   8   9
ATOM      9  C   UNL     1      31.353  29.011  11.278  1.00  0.00    -0.077 C 
ATOM     10  C   UNL     1      32.085  29.914  10.315  1.00  0.00     0.039 C 
ATOM     11  C   UNL     1      30.044  29.266  11.510  1.00  0.00    -0.028 CG0
ATOM     12  G   UNL     1      29.149  28.549  12.499  1.00  0.00     0.000 G0
ENDBRANCH   8   9
ENDBRANCH   7   8
ENDBRANCH   4   7
BRANCH   1  13
ATOM     13  C   UNL     1      28.493  26.127  11.833  1.00  0.00    -0.074 C 
ATOM     14  C   UNL     1      27.717  25.209  12.432  1.00  0.00     0.008 C 
BRANCH  13  15
ATOM     15  C   UNL     1      28.078  27.590  11.894  1.00  0.00     0.035 C 
BRANCH  15  16
ATOM     16  C   UNL     1      29.143  28.534  12.492  1.00  0.00     0.032 CG0
ATOM     17  G   UNL     1      30.037  29.255  11.505  1.00  0.00     0.000 G0
ENDBRANCH  15  16
ENDBRANCH  13  15
ENDBRANCH   1  13
TORSDOF 0
ENDMDL
MODEL 2
REMARK VINA RESULT:    -3.496      2.335      5.263
REMARK INTER + INTRA:          -5.006
REMARK INTER:                  -5.055
REMARK INTRA:                   0.049
REMARK UNBOUND:                -0.283
REMARK SMILES C=C1CCC=C(C)CC[C@H]2[C@H]1CC2(C)C
REMARK SMILES IDX 11 1 12 2 13 3 10 4 14 5 15 6 9 7 8 8 6 9 7 10 5 11 2 13
REMARK SMILES IDX 1 14 3 15 4 16
REMARK H PARENT
REMARK Flexibility Score: 70.00
ROOT
ATOM      1  C   UNL     1      29.966  26.654  10.636  1.00  0.00     0.018 C 
ATOM      2  C   UNL     1      29.927  28.187  10.608  1.00  0.00     0.015 C 
ATOM      3  C   UNL     1      28.935  28.191  11.784  1.00  0.00    -0.031 C 
ATOM      4  C   UNL     1      29.125  26.662  11.926  1.00  0.00     0.002 C 
ATOM      5  C   UNL     1      27.529  28.662  11.361  1.00  0.00     0.011 C 
ATOM      6  C   UNL     1      29.452  28.984  12.998  1.00  0.00     0.011 C 
ENDROOT
BRANCH   4   7
ATOM      7  C   UNL     1      27.883  25.748  11.875  1.00  0.00     0.009 C 
BRANCH   7   8
ATOM      8  C   UNL     1      28.269  24.262  11.702  1.00  0.00     0.030 C 
BRANCH   8   9
ATOM      9  C   UNL     1      28.940  23.706  12.945  1.00  0.00    -0.077 C 
ATOM     10  C   UNL     1      28.070  23.367  14.131  1.00  0.00     0.039 C 
ATOM     11  C   UNL     1      30.264  23.439  13.036  1.00  0.00    -0.028 CG0
ATOM     12  G   UNL     1      31.323  23.778  12.009  1.00  0.00     0.000 G0
ENDBRANCH   8   9
ENDBRANCH   7   8
ENDBRANCH   4   7
BRANCH   1  13
ATOM     13  C   UNL     1      31.349  26.023  10.733  1.00  0.00    -0.074 C 
ATOM     14  C   UNL     1      32.111  25.957   9.628  1.00  0.00     0.008 C 
BRANCH  13  15
ATOM     15  C   UNL     1      31.783  25.247  11.969  1.00  0.00     0.035 C 
BRANCH  15  16
ATOM     16  C   UNL     1      31.315  23.776  11.999  1.00  0.00     0.032 CG0
ATOM     17  G   UNL     1      30.274  23.420  13.039  1.00  0.00     0.000 G0
ENDBRANCH  15  16
ENDBRANCH  13  15
ENDBRANCH   1  13
TORSDOF 0
ENDMDL
MODEL 3
REMARK VINA RESULT:    -2.768      1.637      3.557
REMARK INTER + INTRA:          -4.021
REMARK INTER:                  -3.749
REMARK INTRA:                  -0.272
REMARK UNBOUND:                -0.283
REMARK SMILES C=C1CCC=C(C)CC[C@H]2[C@H]1CC2(C)C
REMARK SMILES IDX 11 1 12 2 13 3 10 4 14 5 15 6 9 7 8 8 6 9 7 10 5 11 2 13
REMARK SMILES IDX 1 14 3 15 4 16
REMARK H PARENT
REMARK Flexibility Score: 70.00
ROOT
ATOM      1  C   UNL     1      30.020  24.410  12.147  1.00  0.00     0.018 C 
ATOM      2  C   UNL     1      29.239  23.165  12.589  1.00  0.00     0.015 C 
ATOM      3  C   UNL     1      27.919  23.836  12.175  1.00  0.00    -0.031 C 
ATOM      4  C   UNL     1      28.726  25.006  11.562  1.00  0.00     0.002 C 
ATOM      5  C   UNL     1      27.036  24.187  13.389  1.00  0.00     0.011 C 
ATOM      6  C   UNL     1      27.138  23.020  11.129  1.00  0.00     0.011 C 
ENDROOT
BRANCH   4   7
ATOM      7  C   UNL     1      28.426  26.445  12.028  1.00  0.00     0.009 C 
BRANCH   7   8
ATOM      8  C   UNL     1      28.681  27.478  10.909  1.00  0.00     0.030 C 
BRANCH   8   9
ATOM      9  C   UNL     1      29.987  28.223  11.116  1.00  0.00    -0.077 C 
ATOM     10  C   UNL     1      29.939  29.563  11.808  1.00  0.00     0.039 C 
ATOM     11  C   UNL     1      31.201  27.734  10.771  1.00  0.00    -0.028 CG0
ATOM     12  G   UNL     1      31.472  26.463   9.994  1.00  0.00     0.000 G0
ENDBRANCH   8   9
ENDBRANCH   7   8
ENDBRANCH   4   7
BRANCH   1  13
ATOM     13  C   UNL     1      31.160  24.169  11.166  1.00  0.00    -0.074 C 
ATOM     14  C   UNL     1      31.456  22.908  10.812  1.00  0.00     0.008 C 
BRANCH  13  15
ATOM     15  C   UNL     1      32.124  25.283  10.782  1.00  0.00     0.035 C 
BRANCH  15  16
ATOM     16  C   UNL     1      31.480  26.446   9.997  1.00  0.00     0.032 CG0
ATOM     17  G   UNL     1      31.212  27.718  10.774  1.00  0.00     0.000 G0
ENDBRANCH  15  16
ENDBRANCH  13  15
ENDBRANCH   1  13
TORSDOF 0
ENDMDL
MODEL 4
REMARK VINA RESULT:    -2.616      1.435      2.010
REMARK INTER + INTRA:          -3.816
REMARK INTER:                  -4.918
REMARK INTRA:                   1.101
REMARK UNBOUND:                -0.283
REMARK SMILES C=C1CCC=C(C)CC[C@H]2[C@H]1CC2(C)C
REMARK SMILES IDX 11 1 12 2 13 3 10 4 14 5 15 6 9 7 8 8 6 9 7 10 5 11 2 13
REMARK SMILES IDX 1 14 3 15 4 16
REMARK H PARENT
REMARK Flexibility Score: 70.00
ROOT
ATOM      1  C   UNL     1      29.506  24.028  11.956  1.00  0.00     0.018 C 
ATOM      2  C   UNL     1      29.594  22.745  12.793  1.00  0.00     0.015 C 
ATOM      3  C   UNL     1      31.042  23.087  13.179  1.00  0.00    -0.031 C 
ATOM      4  C   UNL     1      30.883  24.464  12.490  1.00  0.00     0.002 C 
ATOM      5  C   UNL     1      32.061  22.123  12.537  1.00  0.00     0.011 C 
ATOM      6  C   UNL     1      31.246  23.187  14.701  1.00  0.00     0.011 C 
ENDROOT
BRANCH   4   7
ATOM      7  C   UNL     1      31.886  24.869  11.391  1.00  0.00     0.009 C 
BRANCH   7   8
ATOM      8  C   UNL     1      31.190  25.584  10.212  1.00  0.00     0.030 C 
BRANCH   8   9
ATOM      9  C   UNL     1      31.231  27.094  10.366  1.00  0.00    -0.077 C 
ATOM     10  C   UNL     1      32.125  27.880   9.439  1.00  0.00     0.039 C 
ATOM     11  C   UNL     1      30.469  27.786  11.245  1.00  0.00    -0.028 CG0
ATOM     12  G   UNL     1      29.576  27.201  12.319  1.00  0.00     0.000 G0
ENDBRANCH   8   9
ENDBRANCH   7   8
ENDBRANCH   4   7
BRANCH   1  13
ATOM     13  C   UNL     1      28.334  24.950  12.270  1.00  0.00    -0.074 C 
ATOM     14  C   UNL     1      27.188  24.413  12.719  1.00  0.00     0.008 C 
BRANCH  13  15
ATOM     15  C   UNL     1      28.343  26.414  11.852  1.00  0.00     0.035 C 
BRANCH  15  16
ATOM     16  C   UNL     1      29.572  27.213  12.337  1.00  0.00     0.032 CG0
ATOM     17  G   UNL     1      30.463  27.800  11.262  1.00  0.00     0.000 G0
ENDBRANCH  15  16
ENDBRANCH  13  15
ENDBRANCH   1  13
TORSDOF 0
ENDMDL
MODEL 5
REMARK VINA RESULT:    -2.490      2.016      4.374
REMARK INTER + INTRA:          -3.646
REMARK INTER:                  -4.695
REMARK INTRA:                   1.049
REMARK UNBOUND:                -0.283
REMARK SMILES C=C1CCC=C(C)CC[C@H]2[C@H]1CC2(C)C
REMARK SMILES IDX 11 1 12 2 13 3 10 4 14 5 15 6 9 7 8 8 6 9 7 10 5 11 2 13
REMARK SMILES IDX 1 14 3 15 4 16
REMARK H PARENT
REMARK Flexibility Score: 70.00
ROOT
ATOM      1  C   UNL     1      30.867  23.962  12.695  1.00  0.00     0.018 C 
ATOM      2  C   UNL     1      32.115  23.084  12.856  1.00  0.00     0.015 C 
ATOM      3  C   UNL     1      31.227  21.843  13.047  1.00  0.00    -0.031 C 
ATOM      4  C   UNL     1      29.985  22.699  12.700  1.00  0.00     0.002 C 
ATOM      5  C   UNL     1      31.290  21.297  14.488  1.00  0.00     0.011 C 
ATOM      6  C   UNL     1      31.514  20.739  12.014  1.00  0.00     0.011 C 
ENDROOT
BRANCH   4   7
ATOM      7  C   UNL     1      28.812  22.753  13.700  1.00  0.00     0.009 C 
BRANCH   7   8
ATOM      8  C   UNL     1      28.099  24.123  13.677  1.00  0.00     0.030 C 
BRANCH   8   9
ATOM      9  C   UNL     1      27.580  24.466  12.293  1.00  0.00    -0.077 C 
ATOM     10  C   UNL     1      26.552  23.552  11.672  1.00  0.00     0.039 C 
ATOM     11  C   UNL     1      27.939  25.573  11.602  1.00  0.00    -0.028 CG0
ATOM     12  G   UNL     1      29.009  26.570  11.993  1.00  0.00     0.000 G0
ENDBRANCH   8   9
ENDBRANCH   7   8
ENDBRANCH   4   7
BRANCH   1  13
ATOM     13  C   UNL     1      30.813  24.822  11.439  1.00  0.00    -0.074 C 
ATOM     14  C   UNL     1      31.315  24.331  10.295  1.00  0.00     0.008 C 
BRANCH  13  15
ATOM     15  C   UNL     1      30.445  26.298  11.504  1.00  0.00     0.035 C 
BRANCH  15  16
ATOM     16  C   UNL     1      29.002  26.579  11.976  1.00  0.00     0.032 CG0
ATOM     17  G   UNL     1      27.952  25.562  11.580  1.00  0.00     0.000 G0
ENDBRANCH  15  16
ENDBRANCH  13  15
ENDBRANCH   1  13
TORSDOF 0
ENDMDL
MODEL 6
REMARK VINA RESULT:    -2.285      2.407      4.672
REMARK INTER + INTRA:          -3.370
REMARK INTER:                  -3.854
REMARK INTRA:                   0.485
REMARK UNBOUND:                -0.283
REMARK SMILES C=C1CCC=C(C)CC[C@H]2[C@H]1CC2(C)C
REMARK SMILES IDX 11 1 12 2 13 3 10 4 14 5 15 6 9 7 8 8 6 9 7 10 5 11 2 13
REMARK SMILES IDX 1 14 3 15 4 16
REMARK H PARENT
REMARK Flexibility Score: 70.00
ROOT
ATOM      1  C   UNL     1      29.442  26.331  12.437  1.00  0.00     0.018 C 
ATOM      2  C   UNL     1      29.566  27.849  12.250  1.00  0.00     0.015 C 
ATOM      3  C   UNL     1      30.837  27.648  11.408  1.00  0.00    -0.031 C 
ATOM      4  C   UNL     1      30.600  26.119  11.444  1.00  0.00     0.002 C 
ATOM      5  C   UNL     1      32.102  28.154  12.130  1.00  0.00     0.011 C 
ATOM      6  C   UNL     1      30.717  28.249   9.996  1.00  0.00     0.011 C 
ENDROOT
BRANCH   4   7
ATOM      7  C   UNL     1      31.722  25.202  11.970  1.00  0.00     0.009 C 
BRANCH   7   8
ATOM      8  C   UNL     1      31.354  24.562  13.327  1.00  0.00     0.030 C 
BRANCH   8   9
ATOM      9  C   UNL     1      30.911  23.119  13.167  1.00  0.00    -0.077 C 
ATOM     10  C   UNL     1      31.968  22.075  12.903  1.00  0.00     0.039 C 
ATOM     11  C   UNL     1      29.631  22.700  13.305  1.00  0.00    -0.028 CG0
ATOM     12  G   UNL     1      28.411  23.579  13.483  1.00  0.00     0.000 G0
ENDBRANCH   8   9
ENDBRANCH   7   8
ENDBRANCH   4   7
BRANCH   1  13
ATOM     13  C   UNL     1      28.100  25.719  12.055  1.00  0.00    -0.074 C 
ATOM     14  C   UNL     1      27.060  26.534  11.818  1.00  0.00     0.008 C 
BRANCH  13  15
ATOM     15  C   UNL     1      27.845  24.224  12.185  1.00  0.00     0.035 C 
BRANCH  15  16
ATOM     16  C   UNL     1      28.413  23.585  13.470  1.00  0.00     0.032 CG0
ATOM     17  G   UNL     1      29.622  22.688  13.301  1.00  0.00     0.000 G0
ENDBRANCH  15  16
ENDBRANCH  13  15
ENDBRANCH   1  13
TORSDOF 0
ENDMDL
MODEL 7
REMARK VINA RESULT:    -2.132      2.213      5.123
REMARK INTER + INTRA:          -3.163
REMARK INTER:                  -4.535
REMARK INTRA:                   1.372
REMARK UNBOUND:                -0.283
REMARK SMILES C=C1CCC=C(C)CC[C@H]2[C@H]1CC2(C)C
REMARK SMILES IDX 11 1 12 2 13 3 10 4 14 5 15 6 9 7 8 8 6 9 7 10 5 11 2 13
REMARK SMILES IDX 1 14 3 15 4 16
REMARK H PARENT
REMARK Flexibility Score: 70.00
ROOT
ATOM      1  C   UNL     1      30.425  25.657  10.537  1.00  0.00     0.018 C 
ATOM      2  C   UNL     1      31.270  26.930  10.389  1.00  0.00     0.015 C 
ATOM      3  C   UNL     1      30.594  27.531  11.632  1.00  0.00    -0.031 C 
ATOM      4  C   UNL     1      29.886  26.178  11.882  1.00  0.00     0.002 C 
ATOM      5  C   UNL     1      29.675  28.719  11.280  1.00  0.00     0.011 C 
ATOM      6  C   UNL     1      31.600  27.906  12.736  1.00  0.00     0.011 C 
ENDROOT
BRANCH   4   7
ATOM      7  C   UNL     1      28.348  26.149  11.999  1.00  0.00     0.009 C 
BRANCH   7   8
ATOM      8  C   UNL     1      27.779  24.734  11.755  1.00  0.00     0.030 C 
BRANCH   8   9
ATOM      9  C   UNL     1      27.886  23.862  12.993  1.00  0.00    -0.077 C 
ATOM     10  C   UNL     1      26.614  23.486  13.710  1.00  0.00     0.039 C 
ATOM     11  C   UNL     1      29.050  23.352  13.461  1.00  0.00    -0.028 CG0
ATOM     12  G   UNL     1      30.440  23.668  12.952  1.00  0.00     0.000 G0
ENDBRANCH   8   9
ENDBRANCH   7   8
ENDBRANCH   4   7
BRANCH   1  13
ATOM     13  C   UNL     1      31.198  24.345  10.578  1.00  0.00    -0.074 C 
ATOM     14  C   UNL     1      32.109  24.098   9.623  1.00  0.00     0.008 C 
BRANCH  13  15
ATOM     15  C   UNL     1      30.790  23.213  11.511  1.00  0.00     0.035 C 
BRANCH  15  16
ATOM     16  C   UNL     1      30.460  23.657  12.953  1.00  0.00     0.032 CG0
ATOM     17  G   UNL     1      29.061  23.356  13.448  1.00  0.00     0.000 G0
ENDBRANCH  15  16
ENDBRANCH  13  15
ENDBRANCH   1  13
TORSDOF 0
ENDMDL
MODEL 8
REMARK VINA RESULT:    -1.785      1.906      3.672
REMARK INTER + INTRA:          -2.694
REMARK INTER:                  -3.825
REMARK INTRA:                   1.130
REMARK UNBOUND:                -0.283
REMARK SMILES C=C1CCC=C(C)CC[C@H]2[C@H]1CC2(C)C
REMARK SMILES IDX 11 1 12 2 13 3 10 4 14 5 15 6 9 7 8 8 6 9 7 10 5 11 2 13
REMARK SMILES IDX 1 14 3 15 4 16
REMARK H PARENT
REMARK Flexibility Score: 70.00
ROOT
ATOM      1  C   UNL     1      30.928  25.151  13.257  1.00  0.00     0.018 C 
ATOM      2  C   UNL     1      31.694  23.942  13.811  1.00  0.00     0.015 C 
ATOM      3  C   UNL     1      30.791  22.992  13.007  1.00  0.00    -0.031 C 
ATOM      4  C   UNL     1      30.149  24.217  12.312  1.00  0.00     0.002 C 
ATOM      5  C   UNL     1      29.858  22.165  13.914  1.00  0.00     0.011 C 
ATOM      6  C   UNL     1      31.583  22.090  12.043  1.00  0.00     0.011 C 
ENDROOT
BRANCH   4   7
ATOM      7  C   UNL     1      28.618  24.393  12.372  1.00  0.00     0.009 C 
BRANCH   7   8
ATOM      8  C   UNL     1      28.082  25.190  11.162  1.00  0.00     0.030 C 
BRANCH   8   9
ATOM      9  C   UNL     1      28.419  26.666  11.266  1.00  0.00    -0.077 C 
ATOM     10  C   UNL     1      27.389  27.589  11.870  1.00  0.00     0.039 C 
ATOM     11  C   UNL     1      29.609  27.199  10.903  1.00  0.00    -0.028 CG0
ATOM     12  G   UNL     1      30.741  26.479  10.201  1.00  0.00     0.000 G0
ENDBRANCH   8   9
ENDBRANCH   7   8
ENDBRANCH   4   7
BRANCH   1  13
ATOM     13  C   UNL     1      31.775  26.232  12.597  1.00  0.00    -0.074 C 
ATOM     14  C   UNL     1      32.111  27.319  13.311  1.00  0.00     0.008 C 
BRANCH  13  15
ATOM     15  C   UNL     1      32.029  26.233  11.096  1.00  0.00     0.035 C 
BRANCH  15  16
ATOM     16  C   UNL     1      30.771  26.468  10.232  1.00  0.00     0.032 CG0
ATOM     17  G   UNL     1      29.625  27.202  10.895  1.00  0.00     0.000 G0
ENDBRANCH  15  16
ENDBRANCH  13  15
ENDBRANCH   1  13
TORSDOF 0
ENDMDL
MODEL 9
REMARK VINA RESULT:    -1.225      2.459      4.746
REMARK INTER + INTRA:          -1.938
REMARK INTER:                  -2.020
REMARK INTRA:                   0.082
REMARK UNBOUND:                -0.283
REMARK SMILES C=C1CCC=C(C)CC[C@H]2[C@H]1CC2(C)C
REMARK SMILES IDX 11 1 12 2 13 3 10 4 14 5 15 6 9 7 8 8 6 9 7 10 5 11 2 13
REMARK SMILES IDX 1 14 3 15 4 16
REMARK H PARENT
REMARK Flexibility Score: 70.00
ROOT
ATOM      1  C   UNL     1      31.291  22.873  12.508  1.00  0.00     0.018 C 
ATOM      2  C   UNL     1      31.957  21.988  13.569  1.00  0.00     0.015 C 
ATOM      3  C   UNL     1      30.579  21.645  14.159  1.00  0.00    -0.031 C 
ATOM      4  C   UNL     1      29.908  22.385  12.977  1.00  0.00     0.002 C 
ATOM      5  C   UNL     1      30.369  22.268  15.554  1.00  0.00     0.011 C 
ATOM      6  C   UNL     1      30.294  20.132  14.170  1.00  0.00     0.011 C 
ENDROOT
BRANCH   4   7
ATOM      7  C   UNL     1      28.907  23.520  13.278  1.00  0.00     0.009 C 
BRANCH   7   8
ATOM      8  C   UNL     1      28.360  24.163  11.984  1.00  0.00     0.030 C 
BRANCH   8   9
ATOM      9  C   UNL     1      29.091  25.447  11.640  1.00  0.00    -0.077 C 
ATOM     10  C   UNL     1      28.763  26.687  12.434  1.00  0.00     0.039 C 
ATOM     11  C   UNL     1      30.064  25.537  10.702  1.00  0.00    -0.028 CG0
ATOM     12  G   UNL     1      30.487  24.449   9.738  1.00  0.00     0.000 G0
ENDBRANCH   8   9
ENDBRANCH   7   8
ENDBRANCH   4   7
BRANCH   1  13
ATOM     13  C   UNL     1      31.661  22.573  11.061  1.00  0.00    -0.074 C 
ATOM     14  C   UNL     1      32.085  21.340  10.742  1.00  0.00     0.008 C 
BRANCH  13  15
ATOM     15  C   UNL     1      31.806  23.687  10.032  1.00  0.00     0.035 C 
BRANCH  15  16
ATOM     16  C   UNL     1      30.498  24.444   9.717  1.00  0.00     0.032 CG0
ATOM     17  G   UNL     1      30.080  25.510  10.708  1.00  0.00     0.000 G0
ENDBRANCH  15  16
ENDBRANCH  13  15
ENDBRANCH   1  13
TORSDOF 0
ENDMDL
