MODEL 1
REMARK VINA RESULT:    -5.553      0.000      0.000
REMARK INTER + INTRA:          -7.398
REMARK INTER:                  -7.177
REMARK INTRA:                  -0.221
REMARK UNBOUND:                -0.221
REMARK SMILES CCO[C@@H]1O[C@H](CO)[C@@H](O)[C@@H](O)[C@H]1O
REMARK SMILES IDX 4 1 13 2 11 3 9 4 6 5 5 6 3 7 2 8 1 9 14 10 12 12 7 14 8 15
REMARK SMILES IDX 10 17
REMARK H PARENT 14 11 12 13 8 16 10 18
REMARK Flexibility Score: inf
ROOT
ATOM      1  C   UNL     1      38.459   9.454  45.502  1.00  0.00     0.281 C 
ATOM      2  C   UNL     1      38.408  10.670  44.547  1.00  0.00     0.202 C 
ATOM      3  C   UNL     1      37.208  10.556  43.588  1.00  0.00     0.179 C 
ATOM      4  C   UNL     1      35.899  10.264  44.346  1.00  0.00     0.177 C 
ATOM      5  C   UNL     1      36.090   9.097  45.344  1.00  0.00     0.178 C 
ATOM      6  O   UNL     1      37.229   9.255  46.189  1.00  0.00    -0.341 OA
ENDROOT
BRANCH   1   7
ATOM      7  O   UNL     1      38.826   8.276  44.799  1.00  0.00    -0.350 OA
BRANCH   7   8
ATOM      8  C   UNL     1      39.714   7.481  45.556  1.00  0.00     0.160 C 
ATOM      9  C   UNL     1      40.010   6.201  44.790  1.00  0.00     0.035 C 
ENDBRANCH   7   8
ENDBRANCH   1   7
BRANCH   2  10
ATOM     10  O   UNL     1      38.399  11.885  45.259  1.00  0.00    -0.385 OA
ATOM     11  H   UNL     1      39.282  11.999  45.698  1.00  0.00     0.211 HD
ENDBRANCH   2  10
BRANCH   3  12
ATOM     12  O   UNL     1      37.091  11.684  42.754  1.00  0.00    -0.387 OA
ATOM     13  H   UNL     1      36.131  11.818  42.541  1.00  0.00     0.211 HD
ENDBRANCH   3  12
BRANCH   5  14
ATOM     14  C   UNL     1      36.016   7.709  44.676  1.00  0.00     0.191 C 
BRANCH  14  15
ATOM     15  O   UNL     1      35.603   6.752  45.612  1.00  0.00    -0.394 OA
ATOM     16  H   UNL     1      35.672   5.873  45.155  1.00  0.00     0.210 HD
ENDBRANCH  14  15
ENDBRANCH   5  14
BRANCH   4  17
ATOM     17  O   UNL     1      35.465  11.401  45.052  1.00  0.00    -0.387 OA
ATOM     18  H   UNL     1      36.036  11.480  45.860  1.00  0.00     0.211 HD
ENDBRANCH   4  17
TORSDOF 7
ENDMDL
MODEL 2
REMARK VINA RESULT:    -5.396      5.840      8.589
REMARK INTER + INTRA:          -7.194
REMARK INTER:                  -6.741
REMARK INTRA:                  -0.453
REMARK UNBOUND:                -0.221
REMARK SMILES CCO[C@@H]1O[C@H](CO)[C@@H](O)[C@@H](O)[C@H]1O
REMARK SMILES IDX 4 1 13 2 11 3 9 4 6 5 5 6 3 7 2 8 1 9 14 10 12 12 7 14 8 15
REMARK SMILES IDX 10 17
REMARK H PARENT 14 11 12 13 8 16 10 18
REMARK Flexibility Score: inf
ROOT
ATOM      1  C   UNL     1      34.114   2.364  43.928  1.00  0.00     0.281 C 
ATOM      2  C   UNL     1      32.786   1.766  44.453  1.00  0.00     0.202 C 
ATOM      3  C   UNL     1      31.587   2.602  43.968  1.00  0.00     0.179 C 
ATOM      4  C   UNL     1      31.639   2.845  42.447  1.00  0.00     0.177 C 
ATOM      5  C   UNL     1      33.039   3.345  42.018  1.00  0.00     0.178 C 
ATOM      6  O   UNL     1      34.106   2.539  42.516  1.00  0.00    -0.341 OA
ENDROOT
BRANCH   1   7
ATOM      7  O   UNL     1      34.403   3.594  44.575  1.00  0.00    -0.350 OA
BRANCH   7   8
ATOM      8  C   UNL     1      35.613   3.524  45.298  1.00  0.00     0.160 C 
ATOM      9  C   UNL     1      36.558   4.602  44.791  1.00  0.00     0.035 C 
ENDBRANCH   7   8
ENDBRANCH   1   7
BRANCH   2  10
ATOM     10  O   UNL     1      32.659   0.408  44.102  1.00  0.00    -0.385 OA
ATOM     11  H   UNL     1      32.450   0.352  43.133  1.00  0.00     0.211 HD
ENDBRANCH   2  10
BRANCH   3  12
ATOM     12  O   UNL     1      30.359   2.042  44.367  1.00  0.00    -0.387 OA
ATOM     13  H   UNL     1      30.542   1.184  44.833  1.00  0.00     0.211 HD
ENDBRANCH   3  12
BRANCH   5  14
ATOM     14  C   UNL     1      33.248   4.852  42.269  1.00  0.00     0.191 C 
BRANCH  14  15
ATOM     15  O   UNL     1      34.566   5.209  41.957  1.00  0.00    -0.394 OA
ATOM     16  H   UNL     1      34.612   5.259  40.966  1.00  0.00     0.210 HD
ENDBRANCH  14  15
ENDBRANCH   5  14
BRANCH   4  17
ATOM     17  O   UNL     1      31.341   1.665  41.742  1.00  0.00    -0.387 OA
ATOM     18  H   UNL     1      32.192   1.166  41.631  1.00  0.00     0.211 HD
ENDBRANCH   4  17
TORSDOF 7
ENDMDL
MODEL 3
REMARK VINA RESULT:    -5.237     14.259     15.906
REMARK INTER + INTRA:          -6.989
REMARK INTER:                  -6.622
REMARK INTRA:                  -0.368
REMARK UNBOUND:                -0.221
REMARK SMILES CCO[C@@H]1O[C@H](CO)[C@@H](O)[C@@H](O)[C@H]1O
REMARK SMILES IDX 4 1 13 2 11 3 9 4 6 5 5 6 3 7 2 8 1 9 14 10 12 12 7 14 8 15
REMARK SMILES IDX 10 17
REMARK H PARENT 14 11 12 13 8 16 10 18
REMARK Flexibility Score: inf
ROOT
ATOM      1  C   UNL     1      24.610   4.245  39.318  1.00  0.00     0.281 C 
ATOM      2  C   UNL     1      24.384   5.736  38.966  1.00  0.00     0.202 C 
ATOM      3  C   UNL     1      23.388   5.872  37.799  1.00  0.00     0.179 C 
ATOM      4  C   UNL     1      22.105   5.056  38.047  1.00  0.00     0.177 C 
ATOM      5  C   UNL     1      22.448   3.613  38.489  1.00  0.00     0.178 C 
ATOM      6  O   UNL     1      23.389   3.556  39.560  1.00  0.00    -0.341 OA
ENDROOT
BRANCH   1   7
ATOM      7  O   UNL     1      25.349   3.594  38.295  1.00  0.00    -0.350 OA
BRANCH   7   8
ATOM      8  C   UNL     1      26.622   4.181  38.127  1.00  0.00     0.160 C 
ATOM      9  C   UNL     1      26.796   4.580  36.670  1.00  0.00     0.035 C 
ENDBRANCH   7   8
ENDBRANCH   1   7
BRANCH   2  10
ATOM     10  O   UNL     1      23.978   6.475  40.094  1.00  0.00    -0.385 OA
ATOM     11  H   UNL     1      23.121   6.928  39.882  1.00  0.00     0.211 HD
ENDBRANCH   2  10
BRANCH   3  12
ATOM     12  O   UNL     1      23.103   7.218  37.504  1.00  0.00    -0.387 OA
ATOM     13  H   UNL     1      23.934   7.649  37.172  1.00  0.00     0.211 HD
ENDBRANCH   3  12
BRANCH   5  14
ATOM     14  C   UNL     1      22.811   2.688  37.310  1.00  0.00     0.191 C 
BRANCH  14  15
ATOM     15  O   UNL     1      23.269   1.456  37.794  1.00  0.00    -0.394 OA
ATOM     16  H   UNL     1      24.221   1.594  38.044  1.00  0.00     0.210 HD
ENDBRANCH  14  15
ENDBRANCH   5  14
BRANCH   4  17
ATOM     17  O   UNL     1      21.312   5.659  39.040  1.00  0.00    -0.387 OA
ATOM     18  H   UNL     1      21.124   4.967  39.727  1.00  0.00     0.211 HD
ENDBRANCH   4  17
TORSDOF 7
ENDMDL
MODEL 4
REMARK VINA RESULT:    -5.010     14.570     16.201
REMARK INTER + INTRA:          -6.695
REMARK INTER:                  -6.303
REMARK INTRA:                  -0.392
REMARK UNBOUND:                -0.221
REMARK SMILES CCO[C@@H]1O[C@H](CO)[C@@H](O)[C@@H](O)[C@H]1O
REMARK SMILES IDX 4 1 13 2 11 3 9 4 6 5 5 6 3 7 2 8 1 9 14 10 12 12 7 14 8 15
REMARK SMILES IDX 10 17
REMARK H PARENT 14 11 12 13 8 16 10 18
REMARK Flexibility Score: inf
ROOT
ATOM      1  C   UNL     1      24.251   5.644  38.786  1.00  0.00     0.281 C 
ATOM      2  C   UNL     1      25.209   4.641  38.099  1.00  0.00     0.202 C 
ATOM      3  C   UNL     1      24.434   3.731  37.127  1.00  0.00     0.179 C 
ATOM      4  C   UNL     1      23.545   4.547  36.169  1.00  0.00     0.177 C 
ATOM      5  C   UNL     1      22.705   5.586  36.950  1.00  0.00     0.178 C 
ATOM      6  O   UNL     1      23.479   6.382  37.846  1.00  0.00    -0.341 OA
ENDROOT
BRANCH   1   7
ATOM      7  O   UNL     1      23.400   4.978  39.707  1.00  0.00    -0.350 OA
BRANCH   7   8
ATOM      8  C   UNL     1      24.126   4.487  40.815  1.00  0.00     0.160 C 
ATOM      9  C   UNL     1      23.712   5.256  42.060  1.00  0.00     0.035 C 
ENDBRANCH   7   8
ENDBRANCH   1   7
BRANCH   2  10
ATOM     10  O   UNL     1      26.278   5.301  37.464  1.00  0.00    -0.385 OA
ATOM     11  H   UNL     1      26.739   4.655  36.869  1.00  0.00     0.211 HD
ENDBRANCH   2  10
BRANCH   3  12
ATOM     12  O   UNL     1      25.289   2.855  36.431  1.00  0.00    -0.387 OA
ATOM     13  H   UNL     1      25.161   1.940  36.792  1.00  0.00     0.211 HD
ENDBRANCH   3  12
BRANCH   5  14
ATOM     14  C   UNL     1      21.448   4.980  37.605  1.00  0.00     0.191 C 
BRANCH  14  15
ATOM     15  O   UNL     1      20.876   5.906  38.486  1.00  0.00    -0.394 OA
ATOM     16  H   UNL     1      21.611   6.515  38.762  1.00  0.00     0.210 HD
ENDBRANCH  14  15
ENDBRANCH   5  14
BRANCH   4  17
ATOM     17  O   UNL     1      24.327   5.219  35.212  1.00  0.00    -0.387 OA
ATOM     18  H   UNL     1      24.955   5.807  35.707  1.00  0.00     0.211 HD
ENDBRANCH   4  17
TORSDOF 7
ENDMDL
MODEL 5
REMARK VINA RESULT:    -4.987     14.387     16.306
REMARK INTER + INTRA:          -6.666
REMARK INTER:                  -6.468
REMARK INTRA:                  -0.197
REMARK UNBOUND:                -0.221
REMARK SMILES CCO[C@@H]1O[C@H](CO)[C@@H](O)[C@@H](O)[C@H]1O
REMARK SMILES IDX 4 1 13 2 11 3 9 4 6 5 5 6 3 7 2 8 1 9 14 10 12 12 7 14 8 15
REMARK SMILES IDX 10 17
REMARK H PARENT 14 11 12 13 8 16 10 18
REMARK Flexibility Score: inf
ROOT
ATOM      1  C   UNL     1      21.990   4.468  39.233  1.00  0.00     0.281 C 
ATOM      2  C   UNL     1      22.047   4.190  40.754  1.00  0.00     0.202 C 
ATOM      3  C   UNL     1      23.508   4.128  41.239  1.00  0.00     0.179 C 
ATOM      4  C   UNL     1      24.318   5.350  40.766  1.00  0.00     0.177 C 
ATOM      5  C   UNL     1      24.109   5.595  39.252  1.00  0.00     0.178 C 
ATOM      6  O   UNL     1      22.736   5.623  38.866  1.00  0.00    -0.341 OA
ENDROOT
BRANCH   1   7
ATOM      7  O   UNL     1      22.438   3.339  38.498  1.00  0.00    -0.350 OA
BRANCH   7   8
ATOM      8  C   UNL     1      21.646   2.201  38.769  1.00  0.00     0.160 C 
ATOM      9  C   UNL     1      22.556   1.002  38.983  1.00  0.00     0.035 C 
ENDBRANCH   7   8
ENDBRANCH   1   7
BRANCH   2  10
ATOM     10  O   UNL     1      21.292   5.133  41.479  1.00  0.00    -0.385 OA
ATOM     11  H   UNL     1      21.545   5.071  42.436  1.00  0.00     0.211 HD
ENDBRANCH   2  10
BRANCH   3  12
ATOM     12  O   UNL     1      23.593   3.950  42.633  1.00  0.00    -0.387 OA
ATOM     13  H   UNL     1      24.552   3.898  42.884  1.00  0.00     0.211 HD
ENDBRANCH   3  12
BRANCH   5  14
ATOM     14  C   UNL     1      24.972   4.676  38.364  1.00  0.00     0.191 C 
BRANCH  14  15
ATOM     15  O   UNL     1      26.038   5.404  37.820  1.00  0.00    -0.394 OA
ATOM     16  H   UNL     1      26.769   4.750  37.664  1.00  0.00     0.210 HD
ENDBRANCH  14  15
ENDBRANCH   5  14
BRANCH   4  17
ATOM     17  O   UNL     1      23.937   6.506  41.471  1.00  0.00    -0.387 OA
ATOM     18  H   UNL     1      24.083   6.323  42.436  1.00  0.00     0.211 HD
ENDBRANCH   4  17
TORSDOF 7
ENDMDL
MODEL 6
REMARK VINA RESULT:    -4.899     15.422     17.328
REMARK INTER + INTRA:          -6.553
REMARK INTER:                  -6.301
REMARK INTRA:                  -0.251
REMARK UNBOUND:                -0.221
REMARK SMILES CCO[C@@H]1O[C@H](CO)[C@@H](O)[C@@H](O)[C@H]1O
REMARK SMILES IDX 4 1 13 2 11 3 9 4 6 5 5 6 3 7 2 8 1 9 14 10 12 12 7 14 8 15
REMARK SMILES IDX 10 17
REMARK H PARENT 14 11 12 13 8 16 10 18
REMARK Flexibility Score: inf
ROOT
ATOM      1  C   UNL     1      22.706   3.847  36.840  1.00  0.00     0.281 C 
ATOM      2  C   UNL     1      24.169   3.846  37.346  1.00  0.00     0.202 C 
ATOM      3  C   UNL     1      24.701   5.286  37.469  1.00  0.00     0.179 C 
ATOM      4  C   UNL     1      23.734   6.184  38.265  1.00  0.00     0.177 C 
ATOM      5  C   UNL     1      22.286   6.032  37.741  1.00  0.00     0.178 C 
ATOM      6  O   UNL     1      21.862   4.674  37.632  1.00  0.00    -0.341 OA
ENDROOT
BRANCH   1   7
ATOM      7  O   UNL     1      22.645   4.242  35.477  1.00  0.00    -0.350 OA
BRANCH   7   8
ATOM      8  C   UNL     1      21.724   3.454  34.753  1.00  0.00     0.160 C 
ATOM      9  C   UNL     1      20.715   4.366  34.076  1.00  0.00     0.035 C 
ENDBRANCH   7   8
ENDBRANCH   1   7
BRANCH   2  10
ATOM     10  O   UNL     1      24.295   3.133  38.554  1.00  0.00    -0.385 OA
ATOM     11  H   UNL     1      24.087   2.178  38.379  1.00  0.00     0.211 HD
ENDBRANCH   2  10
BRANCH   3  12
ATOM     12  O   UNL     1      26.005   5.322  37.998  1.00  0.00    -0.387 OA
ATOM     13  H   UNL     1      25.944   5.513  38.970  1.00  0.00     0.211 HD
ENDBRANCH   3  12
BRANCH   5  14
ATOM     14  C   UNL     1      22.011   6.859  36.468  1.00  0.00     0.191 C 
BRANCH  14  15
ATOM     15  O   UNL     1      22.389   8.192  36.676  1.00  0.00    -0.394 OA
ATOM     16  H   UNL     1      23.101   8.174  37.368  1.00  0.00     0.210 HD
ENDBRANCH  14  15
ENDBRANCH   5  14
BRANCH   4  17
ATOM     17  O   UNL     1      23.759   5.859  39.633  1.00  0.00    -0.387 OA
ATOM     18  H   UNL     1      22.998   5.244  39.803  1.00  0.00     0.211 HD
ENDBRANCH   4  17
TORSDOF 7
ENDMDL
MODEL 7
REMARK VINA RESULT:    -4.876     14.717     16.786
REMARK INTER + INTRA:          -6.522
REMARK INTER:                  -6.092
REMARK INTRA:                  -0.430
REMARK UNBOUND:                -0.221
REMARK SMILES CCO[C@@H]1O[C@H](CO)[C@@H](O)[C@@H](O)[C@H]1O
REMARK SMILES IDX 4 1 13 2 11 3 9 4 6 5 5 6 3 7 2 8 1 9 14 10 12 12 7 14 8 15
REMARK SMILES IDX 10 17
REMARK H PARENT 14 11 12 13 8 16 10 18
REMARK Flexibility Score: inf
ROOT
ATOM      1  C   UNL     1      22.726   5.563  37.655  1.00  0.00     0.281 C 
ATOM      2  C   UNL     1      21.724   4.747  38.506  1.00  0.00     0.202 C 
ATOM      3  C   UNL     1      22.470   3.760  39.423  1.00  0.00     0.179 C 
ATOM      4  C   UNL     1      23.590   4.457  40.219  1.00  0.00     0.177 C 
ATOM      5  C   UNL     1      24.470   5.323  39.287  1.00  0.00     0.178 C 
ATOM      6  O   UNL     1      23.717   6.201  38.451  1.00  0.00    -0.341 OA
ENDROOT
BRANCH   1   7
ATOM      7  O   UNL     1      23.338   4.741  36.672  1.00  0.00    -0.350 OA
BRANCH   7   8
ATOM      8  C   UNL     1      22.619   4.769  35.457  1.00  0.00     0.160 C 
ATOM      9  C   UNL     1      22.323   6.214  35.089  1.00  0.00     0.035 C 
ENDBRANCH   7   8
ENDBRANCH   1   7
BRANCH   2  10
ATOM     10  O   UNL     1      20.859   5.589  39.233  1.00  0.00    -0.385 OA
ATOM     11  H   UNL     1      21.408   6.249  39.731  1.00  0.00     0.211 HD
ENDBRANCH   2  10
BRANCH   3  12
ATOM     12  O   UNL     1      21.590   3.054  40.265  1.00  0.00    -0.387 OA
ATOM     13  H   UNL     1      22.119   2.638  40.994  1.00  0.00     0.211 HD
ENDBRANCH   3  12
BRANCH   5  14
ATOM     14  C   UNL     1      25.524   4.505  38.515  1.00  0.00     0.191 C 
BRANCH  14  15
ATOM     15  O   UNL     1      26.220   5.338  37.630  1.00  0.00    -0.394 OA
ATOM     16  H   UNL     1      25.742   6.209  37.636  1.00  0.00     0.210 HD
ENDBRANCH  14  15
ENDBRANCH   5  14
BRANCH   4  17
ATOM     17  O   UNL     1      23.051   5.276  41.228  1.00  0.00    -0.387 OA
ATOM     18  H   UNL     1      22.619   4.678  41.893  1.00  0.00     0.211 HD
ENDBRANCH   4  17
TORSDOF 7
ENDMDL
MODEL 8
REMARK VINA RESULT:    -4.834      4.965      7.186
REMARK INTER + INTRA:          -6.468
REMARK INTER:                  -6.195
REMARK INTRA:                  -0.273
REMARK UNBOUND:                -0.221
REMARK SMILES CCO[C@@H]1O[C@H](CO)[C@@H](O)[C@@H](O)[C@H]1O
REMARK SMILES IDX 4 1 13 2 11 3 9 4 6 5 5 6 3 7 2 8 1 9 14 10 12 12 7 14 8 15
REMARK SMILES IDX 10 17
REMARK H PARENT 14 11 12 13 8 16 10 18
REMARK Flexibility Score: inf
ROOT
ATOM      1  C   UNL     1      35.048   2.802  45.029  1.00  0.00     0.281 C 
ATOM      2  C   UNL     1      36.536   2.377  45.046  1.00  0.00     0.202 C 
ATOM      3  C   UNL     1      37.335   3.159  43.986  1.00  0.00     0.179 C 
ATOM      4  C   UNL     1      37.087   4.676  44.090  1.00  0.00     0.177 C 
ATOM      5  C   UNL     1      35.571   4.981  44.167  1.00  0.00     0.178 C 
ATOM      6  O   UNL     1      34.887   4.210  45.154  1.00  0.00    -0.341 OA
ENDROOT
BRANCH   1   7
ATOM      7  O   UNL     1      34.405   2.336  43.852  1.00  0.00    -0.350 OA
BRANCH   7   8
ATOM      8  C   UNL     1      33.177   1.705  44.151  1.00  0.00     0.160 C 
ATOM      9  C   UNL     1      32.035   2.595  43.687  1.00  0.00     0.035 C 
ENDBRANCH   7   8
ENDBRANCH   1   7
BRANCH   2  10
ATOM     10  O   UNL     1      37.095   2.511  46.331  1.00  0.00    -0.385 OA
ATOM     11  H   UNL     1      37.730   1.763  46.478  1.00  0.00     0.211 HD
ENDBRANCH   2  10
BRANCH   3  12
ATOM     12  O   UNL     1      38.707   2.849  44.027  1.00  0.00    -0.387 OA
ATOM     13  H   UNL     1      38.904   2.412  44.896  1.00  0.00     0.211 HD
ENDBRANCH   3  12
BRANCH   5  14
ATOM     14  C   UNL     1      34.878   4.959  42.790  1.00  0.00     0.191 C 
BRANCH  14  15
ATOM     15  O   UNL     1      35.680   5.607  41.842  1.00  0.00    -0.394 OA
ATOM     16  H   UNL     1      35.471   5.184  40.968  1.00  0.00     0.210 HD
ENDBRANCH  14  15
ENDBRANCH   5  14
BRANCH   4  17
ATOM     17  O   UNL     1      37.716   5.209  45.229  1.00  0.00    -0.387 OA
ATOM     18  H   UNL     1      37.354   4.727  46.018  1.00  0.00     0.211 HD
ENDBRANCH   4  17
TORSDOF 7
ENDMDL
MODEL 9
REMARK VINA RESULT:    -4.744     15.104     16.725
REMARK INTER + INTRA:          -6.352
REMARK INTER:                  -6.176
REMARK INTRA:                  -0.176
REMARK UNBOUND:                -0.221
REMARK SMILES CCO[C@@H]1O[C@H](CO)[C@@H](O)[C@@H](O)[C@H]1O
REMARK SMILES IDX 4 1 13 2 11 3 9 4 6 5 5 6 3 7 2 8 1 9 14 10 12 12 7 14 8 15
REMARK SMILES IDX 10 17
REMARK H PARENT 14 11 12 13 8 16 10 18
REMARK Flexibility Score: inf
ROOT
ATOM      1  C   UNL     1      22.463   3.407  38.472  1.00  0.00     0.281 C 
ATOM      2  C   UNL     1      22.593   4.488  39.571  1.00  0.00     0.202 C 
ATOM      3  C   UNL     1      23.867   5.327  39.357  1.00  0.00     0.179 C 
ATOM      4  C   UNL     1      23.970   5.849  37.911  1.00  0.00     0.177 C 
ATOM      5  C   UNL     1      23.725   4.706  36.897  1.00  0.00     0.178 C 
ATOM      6  O   UNL     1      22.540   3.956  37.162  1.00  0.00    -0.341 OA
ENDROOT
BRANCH   1   7
ATOM      7  O   UNL     1      23.446   2.396  38.641  1.00  0.00    -0.350 OA
BRANCH   7   8
ATOM      8  C   UNL     1      22.890   1.225  39.200  1.00  0.00     0.160 C 
ATOM      9  C   UNL     1      22.481   0.284  38.079  1.00  0.00     0.035 C 
ENDBRANCH   7   8
ENDBRANCH   1   7
BRANCH   2  10
ATOM     10  O   UNL     1      21.439   5.292  39.643  1.00  0.00    -0.385 OA
ATOM     11  H   UNL     1      21.471   5.815  40.485  1.00  0.00     0.211 HD
ENDBRANCH   2  10
BRANCH   3  12
ATOM     12  O   UNL     1      23.976   6.368  40.299  1.00  0.00    -0.387 OA
ATOM     13  H   UNL     1      24.923   6.431  40.588  1.00  0.00     0.211 HD
ENDBRANCH   3  12
BRANCH   5  14
ATOM     14  C   UNL     1      24.966   3.821  36.669  1.00  0.00     0.191 C 
BRANCH  14  15
ATOM     15  O   UNL     1      25.643   4.238  35.515  1.00  0.00    -0.394 OA
ATOM     16  H   UNL     1      24.943   4.428  34.837  1.00  0.00     0.210 HD
ENDBRANCH  14  15
ENDBRANCH   5  14
BRANCH   4  17
ATOM     17  O   UNL     1      23.032   6.871  37.680  1.00  0.00    -0.387 OA
ATOM     18  H   UNL     1      22.318   6.776  38.363  1.00  0.00     0.211 HD
ENDBRANCH   4  17
TORSDOF 7
ENDMDL
