MODEL 1
REMARK VINA RESULT:    -3.478      0.000      0.000
REMARK INTER + INTRA:          -4.288
REMARK INTER:                  -4.189
REMARK INTRA:                  -0.099
REMARK UNBOUND:                -0.099
REMARK SMILES NC(=O)C[C@@H]([NH3+])C(=O)[O-]
REMARK SMILES IDX 4 1 5 2 6 3 7 7 8 8 9 9 2 10 3 11 1 12
REMARK H PARENT 6 4 6 5 6 6 1 13 1 14
REMARK Flexibility Score: inf
ROOT
ATOM      1  C   UNL     1     150.933 150.105 137.077  1.00  0.00     0.171 C 
ENDROOT
BRANCH   1   2
ATOM      2  C   UNL     1     151.975 149.328 136.248  1.00  0.00     0.237 C 
BRANCH   2   3
ATOM      3  N   UNL     1     153.259 149.229 136.956  1.00  0.00    -0.350 N 
ATOM      4  H   UNL     1     154.040 149.151 136.264  1.00  0.00     0.345 HD
ATOM      5  H   UNL     1     153.273 148.392 137.584  1.00  0.00     0.345 HD
ATOM      6  H   UNL     1     153.421 150.089 137.526  1.00  0.00     0.345 HD
ENDBRANCH   2   3
BRANCH   2   7
ATOM      7  C   UNL     1     151.449 147.951 135.937  1.00  0.00     0.100 C 
ATOM      8  O   UNL     1     151.185 147.149 136.872  1.00  0.00    -0.544 OA
ATOM      9  O   UNL     1     151.267 147.551 134.618  1.00  0.00    -0.544 OA
ENDBRANCH   2   7
ENDBRANCH   1   2
BRANCH   1  10
ATOM     10  C   UNL     1     150.360 151.259 136.308  1.00  0.00     0.223 C 
ATOM     11  O   UNL     1     150.154 151.145 135.070  1.00  0.00    -0.275 OA
ATOM     12  N   UNL     1     150.079 152.498 136.960  1.00  0.00    -0.369 N 
ATOM     13  H   UNL     1     149.690 153.301 136.418  1.00  0.00     0.159 HD
ATOM     14  H   UNL     1     150.265 152.618 137.980  1.00  0.00     0.159 HD
ENDBRANCH   1  10
TORSDOF 4
ENDMDL
MODEL 2
REMARK VINA RESULT:    -3.433      1.939      2.028
REMARK INTER + INTRA:          -4.234
REMARK INTER:                  -3.905
REMARK INTRA:                  -0.329
REMARK UNBOUND:                -0.099
REMARK SMILES NC(=O)C[C@@H]([NH3+])C(=O)[O-]
REMARK SMILES IDX 4 1 5 2 6 3 7 7 8 8 9 9 2 10 3 11 1 12
REMARK H PARENT 6 4 6 5 6 6 1 13 1 14
REMARK Flexibility Score: inf
ROOT
ATOM      1  C   UNL     1     150.554 149.193 136.932  1.00  0.00     0.171 C 
ENDROOT
BRANCH   1   2
ATOM      2  C   UNL     1     151.597 148.192 136.397  1.00  0.00     0.237 C 
BRANCH   2   3
ATOM      3  N   UNL     1     151.261 147.741 135.039  1.00  0.00    -0.350 N 
ATOM      4  H   UNL     1     152.109 147.794 134.428  1.00  0.00     0.345 HD
ATOM      5  H   UNL     1     150.505 148.336 134.627  1.00  0.00     0.345 HD
ATOM      6  H   UNL     1     150.943 146.746 135.060  1.00  0.00     0.345 HD
ENDBRANCH   2   3
BRANCH   2   7
ATOM      7  C   UNL     1     152.961 148.829 136.406  1.00  0.00     0.100 C 
ATOM      8  O   UNL     1     153.394 149.382 137.452  1.00  0.00    -0.544 OA
ATOM      9  O   UNL     1     153.745 148.826 135.258  1.00  0.00    -0.544 OA
ENDBRANCH   2   7
ENDBRANCH   1   2
BRANCH   1  10
ATOM     10  C   UNL     1     150.417 150.386 136.033  1.00  0.00     0.223 C 
ATOM     11  O   UNL     1     150.041 150.230 134.840  1.00  0.00    -0.275 OA
ATOM     12  N   UNL     1     150.741 151.694 136.506  1.00  0.00    -0.369 N 
ATOM     13  H   UNL     1     150.653 152.519 135.873  1.00  0.00     0.159 HD
ATOM     14  H   UNL     1     151.075 151.839 137.484  1.00  0.00     0.159 HD
ENDBRANCH   1  10
TORSDOF 4
ENDMDL
MODEL 3
REMARK VINA RESULT:    -3.230      7.024      8.379
REMARK INTER + INTRA:          -3.990
REMARK INTER:                  -3.724
REMARK INTRA:                  -0.266
REMARK UNBOUND:                -0.099
REMARK SMILES NC(=O)C[C@@H]([NH3+])C(=O)[O-]
REMARK SMILES IDX 4 1 5 2 6 3 7 7 8 8 9 9 2 10 3 11 1 12
REMARK H PARENT 6 4 6 5 6 6 1 13 1 14
REMARK Flexibility Score: inf
ROOT
ATOM      1  C   UNL     1     148.908 151.337 130.175  1.00  0.00     0.171 C 
ENDROOT
BRANCH   1   2
ATOM      2  C   UNL     1     148.390 152.257 129.051  1.00  0.00     0.237 C 
BRANCH   2   3
ATOM      3  N   UNL     1     147.167 152.963 129.456  1.00  0.00    -0.350 N 
ATOM      4  H   UNL     1     147.402 153.709 130.152  1.00  0.00     0.345 HD
ATOM      5  H   UNL     1     146.480 152.300 129.884  1.00  0.00     0.345 HD
ATOM      6  H   UNL     1     146.729 153.425 128.627  1.00  0.00     0.345 HD
ENDBRANCH   2   3
BRANCH   2   7
ATOM      7  C   UNL     1     149.459 153.249 128.677  1.00  0.00     0.100 C 
ATOM      8  O   UNL     1     150.384 152.916 127.889  1.00  0.00    -0.544 OA
ATOM      9  O   UNL     1     149.443 154.532 129.211  1.00  0.00    -0.544 OA
ENDBRANCH   2   7
ENDBRANCH   1   2
BRANCH   1  10
ATOM     10  C   UNL     1     147.887 150.309 130.565  1.00  0.00     0.223 C 
ATOM     11  O   UNL     1     147.108 149.839 129.693  1.00  0.00    -0.275 OA
ATOM     12  N   UNL     1     147.768 149.882 131.923  1.00  0.00    -0.369 N 
ATOM     13  H   UNL     1     147.050 149.174 132.191  1.00  0.00     0.159 HD
ATOM     14  H   UNL     1     148.390 150.278 132.662  1.00  0.00     0.159 HD
ENDBRANCH   1  10
TORSDOF 4
ENDMDL
MODEL 4
REMARK VINA RESULT:    -3.213      8.683      9.273
REMARK INTER + INTRA:          -3.969
REMARK INTER:                  -3.697
REMARK INTRA:                  -0.272
REMARK UNBOUND:                -0.099
REMARK SMILES NC(=O)C[C@@H]([NH3+])C(=O)[O-]
REMARK SMILES IDX 4 1 5 2 6 3 7 7 8 8 9 9 2 10 3 11 1 12
REMARK H PARENT 6 4 6 5 6 6 1 13 1 14
REMARK Flexibility Score: inf
ROOT
ATOM      1  C   UNL     1     148.414 154.859 129.183  1.00  0.00     0.171 C 
ENDROOT
BRANCH   1   2
ATOM      2  C   UNL     1     148.032 153.365 129.164  1.00  0.00     0.237 C 
BRANCH   2   3
ATOM      3  N   UNL     1     146.805 153.135 128.389  1.00  0.00    -0.350 N 
ATOM      4  H   UNL     1     146.287 152.314 128.780  1.00  0.00     0.345 HD
ATOM      5  H   UNL     1     147.030 152.950 127.384  1.00  0.00     0.345 HD
ATOM      6  H   UNL     1     146.178 153.969 128.453  1.00  0.00     0.345 HD
ENDBRANCH   2   3
BRANCH   2   7
ATOM      7  C   UNL     1     149.166 152.560 128.587  1.00  0.00     0.100 C 
ATOM      8  O   UNL     1     149.110 151.302 128.581  1.00  0.00    -0.544 OA
ATOM      9  O   UNL     1     150.288 153.199 128.072  1.00  0.00    -0.544 OA
ENDBRANCH   2   7
ENDBRANCH   1   2
BRANCH   1  10
ATOM     10  C   UNL     1     147.215 155.736 129.387  1.00  0.00     0.223 C 
ATOM     11  O   UNL     1     146.695 156.325 128.402  1.00  0.00    -0.275 OA
ATOM     12  N   UNL     1     146.676 155.937 130.695  1.00  0.00    -0.369 N 
ATOM     13  H   UNL     1     145.848 156.557 130.834  1.00  0.00     0.159 HD
ATOM     14  H   UNL     1     147.108 155.475 131.526  1.00  0.00     0.159 HD
ENDBRANCH   1  10
TORSDOF 4
ENDMDL
MODEL 5
REMARK VINA RESULT:    -3.210      7.393      8.504
REMARK INTER + INTRA:          -3.965
REMARK INTER:                  -3.694
REMARK INTRA:                  -0.271
REMARK UNBOUND:                -0.099
REMARK SMILES NC(=O)C[C@@H]([NH3+])C(=O)[O-]
REMARK SMILES IDX 4 1 5 2 6 3 7 7 8 8 9 9 2 10 3 11 1 12
REMARK H PARENT 6 4 6 5 6 6 1 13 1 14
REMARK Flexibility Score: inf
ROOT
ATOM      1  C   UNL     1     148.046 151.144 130.272  1.00  0.00     0.171 C 
ENDROOT
BRANCH   1   2
ATOM      2  C   UNL     1     147.760 150.789 128.800  1.00  0.00     0.237 C 
BRANCH   2   3
ATOM      3  N   UNL     1     146.604 149.890 128.678  1.00  0.00    -0.350 N 
ATOM      4  H   UNL     1     145.792 150.410 128.272  1.00  0.00     0.345 HD
ATOM      5  H   UNL     1     146.333 149.507 129.613  1.00  0.00     0.345 HD
ATOM      6  H   UNL     1     146.832 149.098 128.035  1.00  0.00     0.345 HD
ENDBRANCH   2   3
BRANCH   2   7
ATOM      7  C   UNL     1     147.518 152.051 128.013  1.00  0.00     0.100 C 
ATOM      8  O   UNL     1     148.285 153.040 128.152  1.00  0.00    -0.544 OA
ATOM      9  O   UNL     1     146.438 152.138 127.143  1.00  0.00    -0.544 OA
ENDBRANCH   2   7
ENDBRANCH   1   2
BRANCH   1  10
ATOM     10  C   UNL     1     148.306 149.919 131.098  1.00  0.00     0.223 C 
ATOM     11  O   UNL     1     148.899 148.933 130.585  1.00  0.00    -0.275 OA
ATOM     12  N   UNL     1     147.857 149.847 132.452  1.00  0.00    -0.369 N 
ATOM     13  H   UNL     1     148.032 148.988 133.019  1.00  0.00     0.159 HD
ATOM     14  H   UNL     1     147.345 150.645 132.887  1.00  0.00     0.159 HD
ENDBRANCH   1  10
TORSDOF 4
ENDMDL
MODEL 6
REMARK VINA RESULT:    -3.186      2.471      3.862
REMARK INTER + INTRA:          -3.936
REMARK INTER:                  -3.778
REMARK INTRA:                  -0.158
REMARK UNBOUND:                -0.099
REMARK SMILES NC(=O)C[C@@H]([NH3+])C(=O)[O-]
REMARK SMILES IDX 4 1 5 2 6 3 7 7 8 8 9 9 2 10 3 11 1 12
REMARK H PARENT 6 4 6 5 6 6 1 13 1 14
REMARK Flexibility Score: inf
ROOT
ATOM      1  C   UNL     1     152.898 149.524 137.125  1.00  0.00     0.171 C 
ENDROOT
BRANCH   1   2
ATOM      2  C   UNL     1     151.637 149.161 136.316  1.00  0.00     0.237 C 
BRANCH   2   3
ATOM      3  N   UNL     1     151.100 147.853 136.717  1.00  0.00    -0.350 N 
ATOM      4  H   UNL     1     150.191 147.982 137.220  1.00  0.00     0.345 HD
ATOM      5  H   UNL     1     151.771 147.353 137.345  1.00  0.00     0.345 HD
ATOM      6  H   UNL     1     150.917 147.266 135.872  1.00  0.00     0.345 HD
ENDBRANCH   2   3
BRANCH   2   7
ATOM      7  C   UNL     1     150.591 150.228 136.504  1.00  0.00     0.100 C 
ATOM      8  O   UNL     1     150.229 150.562 137.663  1.00  0.00    -0.544 OA
ATOM      9  O   UNL     1     150.006 150.838 135.401  1.00  0.00    -0.544 OA
ENDBRANCH   2   7
ENDBRANCH   1   2
BRANCH   1  10
ATOM     10  C   UNL     1     154.101 148.765 136.649  1.00  0.00     0.223 C 
ATOM     11  O   UNL     1     154.441 147.702 137.233  1.00  0.00    -0.275 OA
ATOM     12  N   UNL     1     154.884 149.254 135.559  1.00  0.00    -0.369 N 
ATOM     13  H   UNL     1     155.726 148.727 135.238  1.00  0.00     0.159 HD
ATOM     14  H   UNL     1     154.631 150.145 135.078  1.00  0.00     0.159 HD
ENDBRANCH   1  10
TORSDOF 4
ENDMDL
MODEL 7
REMARK VINA RESULT:    -3.164      8.840      9.652
REMARK INTER + INTRA:          -3.910
REMARK INTER:                  -3.646
REMARK INTRA:                  -0.264
REMARK UNBOUND:                -0.099
REMARK SMILES NC(=O)C[C@@H]([NH3+])C(=O)[O-]
REMARK SMILES IDX 4 1 5 2 6 3 7 7 8 8 9 9 2 10 3 11 1 12
REMARK H PARENT 6 4 6 5 6 6 1 13 1 14
REMARK Flexibility Score: inf
ROOT
ATOM      1  C   UNL     1     149.510 153.554 128.803  1.00  0.00     0.171 C 
ENDROOT
BRANCH   1   2
ATOM      2  C   UNL     1     147.971 153.460 128.835  1.00  0.00     0.237 C 
BRANCH   2   3
ATOM      3  N   UNL     1     147.521 152.273 129.576  1.00  0.00    -0.350 N 
ATOM      4  H   UNL     1     146.481 152.182 129.502  1.00  0.00     0.345 HD
ATOM      5  H   UNL     1     147.788 152.343 130.585  1.00  0.00     0.345 HD
ATOM      6  H   UNL     1     147.948 151.412 129.167  1.00  0.00     0.345 HD
ENDBRANCH   2   3
BRANCH   2   7
ATOM      7  C   UNL     1     147.402 154.706 129.460  1.00  0.00     0.100 C 
ATOM      8  O   UNL     1     146.398 154.632 130.216  1.00  0.00    -0.544 OA
ATOM      9  O   UNL     1     147.970 155.947 129.194  1.00  0.00    -0.544 OA
ENDBRANCH   2   7
ENDBRANCH   1   2
BRANCH   1  10
ATOM     10  C   UNL     1     150.097 152.673 127.739  1.00  0.00     0.223 C 
ATOM     11  O   UNL     1     149.481 151.637 127.374  1.00  0.00    -0.275 OA
ATOM     12  N   UNL     1     151.367 152.981 127.161  1.00  0.00    -0.369 N 
ATOM     13  H   UNL     1     151.776 152.360 126.429  1.00  0.00     0.159 HD
ATOM     14  H   UNL     1     151.902 153.823 127.468  1.00  0.00     0.159 HD
ENDBRANCH   1  10
TORSDOF 4
ENDMDL
MODEL 8
REMARK VINA RESULT:    -3.017      7.626      8.504
REMARK INTER + INTRA:          -3.733
REMARK INTER:                  -3.473
REMARK INTRA:                  -0.260
REMARK UNBOUND:                -0.099
REMARK SMILES NC(=O)C[C@@H]([NH3+])C(=O)[O-]
REMARK SMILES IDX 4 1 5 2 6 3 7 7 8 8 9 9 2 10 3 11 1 12
REMARK H PARENT 6 4 6 5 6 6 1 13 1 14
REMARK Flexibility Score: inf
ROOT
ATOM      1  C   UNL     1     149.224 151.817 128.184  1.00  0.00     0.171 C 
ENDROOT
BRANCH   1   2
ATOM      2  C   UNL     1     148.336 151.891 129.442  1.00  0.00     0.237 C 
BRANCH   2   3
ATOM      3  N   UNL     1     147.242 152.858 129.272  1.00  0.00    -0.350 N 
ATOM      4  H   UNL     1     146.321 152.369 129.350  1.00  0.00     0.345 HD
ATOM      5  H   UNL     1     147.304 153.327 128.339  1.00  0.00     0.345 HD
ATOM      6  H   UNL     1     147.284 153.582 130.025  1.00  0.00     0.345 HD
ENDBRANCH   2   3
BRANCH   2   7
ATOM      7  C   UNL     1     147.776 150.527 129.746  1.00  0.00     0.100 C 
ATOM      8  O   UNL     1     147.369 149.787 128.812  1.00  0.00    -0.544 OA
ATOM      9  O   UNL     1     147.687 150.082 131.061  1.00  0.00    -0.544 OA
ENDBRANCH   2   7
ENDBRANCH   1   2
BRANCH   1  10
ATOM     10  C   UNL     1     150.168 152.980 128.103  1.00  0.00     0.223 C 
ATOM     11  O   UNL     1     149.966 154.001 128.812  1.00  0.00    -0.275 OA
ATOM     12  N   UNL     1     151.277 152.953 127.202  1.00  0.00    -0.369 N 
ATOM     13  H   UNL     1     151.926 153.769 127.142  1.00  0.00     0.159 HD
ATOM     14  H   UNL     1     151.447 152.125 126.591  1.00  0.00     0.159 HD
ENDBRANCH   1  10
TORSDOF 4
ENDMDL
MODEL 9
REMARK VINA RESULT:    -2.987     12.349     12.816
REMARK INTER + INTRA:          -3.697
REMARK INTER:                  -3.433
REMARK INTRA:                  -0.264
REMARK UNBOUND:                -0.099
REMARK SMILES NC(=O)C[C@@H]([NH3+])C(=O)[O-]
REMARK SMILES IDX 4 1 5 2 6 3 7 7 8 8 9 9 2 10 3 11 1 12
REMARK H PARENT 6 4 6 5 6 6 1 13 1 14
REMARK Flexibility Score: inf
ROOT
ATOM      1  C   UNL     1     161.663 150.855 128.823  1.00  0.00     0.171 C 
ENDROOT
BRANCH   1   2
ATOM      2  C   UNL     1     161.283 149.420 128.409  1.00  0.00     0.237 C 
BRANCH   2   3
ATOM      3  N   UNL     1     161.947 149.027 127.158  1.00  0.00    -0.350 N 
ATOM      4  H   UNL     1     162.047 149.861 126.533  1.00  0.00     0.345 HD
ATOM      5  H   UNL     1     161.396 148.290 126.661  1.00  0.00     0.345 HD
ATOM      6  H   UNL     1     162.906 148.662 127.361  1.00  0.00     0.345 HD
ENDBRANCH   2   3
BRANCH   2   7
ATOM      7  C   UNL     1     161.651 148.462 129.511  1.00  0.00     0.100 C 
ATOM      8  O   UNL     1     162.343 147.441 129.258  1.00  0.00    -0.544 OA
ATOM      9  O   UNL     1     161.214 148.689 130.812  1.00  0.00    -0.544 OA
ENDBRANCH   2   7
ENDBRANCH   1   2
BRANCH   1  10
ATOM     10  C   UNL     1     160.857 151.879 128.078  1.00  0.00     0.223 C 
ATOM     11  O   UNL     1     160.209 151.540 127.053  1.00  0.00    -0.275 OA
ATOM     12  N   UNL     1     160.846 153.243 128.503  1.00  0.00    -0.369 N 
ATOM     13  H   UNL     1     160.292 153.953 127.976  1.00  0.00     0.159 HD
ATOM     14  H   UNL     1     161.396 153.547 129.336  1.00  0.00     0.159 HD
ENDBRANCH   1  10
TORSDOF 4
ENDMDL
