MODEL 1
REMARK VINA RESULT:    -4.521      0.000      0.000
REMARK INTER + INTRA:          -8.089
REMARK INTER:                  -6.107
REMARK INTRA:                  -1.982
REMARK UNBOUND:                -1.982
REMARK SMILES C=CC(C)=CCC=C(C)CCC=C(C)C
REMARK SMILES IDX 8 1 7 2 9 3 10 4 11 5 12 6 14 7 13 8 15 9 6 10 5 11 3 12
REMARK SMILES IDX 4 13 2 14 1 15
REMARK H PARENT
REMARK Flexibility Score: inf
ROOT
ATOM      1  C   UNL     1      31.396  11.020  34.620  1.00  0.00    -0.077 C 
ATOM      2  C   UNL     1      31.899  10.415  35.721  1.00  0.00    -0.024 C 
ATOM      3  C   UNL     1      29.908  11.166  34.405  1.00  0.00     0.039 C 
ENDROOT
BRANCH   1   4
ATOM      4  C   UNL     1      32.351  11.558  33.577  1.00  0.00     0.034 C 
BRANCH   4   5
ATOM      5  C   UNL     1      33.067  10.414  32.850  1.00  0.00     0.032 C 
BRANCH   5   6
ATOM      6  C   UNL     1      32.126   9.707  31.908  1.00  0.00    -0.028 C 
ATOM      7  C   UNL     1      30.715   7.877  31.069  1.00  0.00     0.039 C 
ATOM      8  C   UNL     1      31.686   8.440  32.075  1.00  0.00    -0.080 C 
ATOM      9  C   UNL     1      32.153   7.577  33.223  1.00  0.00     0.039 C 
ENDBRANCH   5   6
ENDBRANCH   4   5
ENDBRANCH   1   4
BRANCH   2  10
ATOM     10  C   UNL     1      31.054   9.827  36.823  1.00  0.00     0.055 C 
BRANCH  10  11
ATOM     11  C   UNL     1      31.235   8.333  36.915  1.00  0.00    -0.020 C 
ATOM     12  C   UNL     1      30.321   7.440  36.484  1.00  0.00    -0.055 C 
ATOM     13  C   UNL     1      30.633   5.968  36.608  1.00  0.00     0.044 C 
BRANCH  12  14
ATOM     14  C   UNL     1      29.035   7.879  35.872  1.00  0.00    -0.005 C 
ATOM     15  C   UNL     1      28.712   7.647  34.598  1.00  0.00     0.009 C 
ENDBRANCH  12  14
ENDBRANCH  10  11
ENDBRANCH   2  10
TORSDOF 6
ENDMDL
MODEL 2
REMARK VINA RESULT:    -4.294      2.525      5.676
REMARK INTER + INTRA:          -7.781
REMARK INTER:                  -6.122
REMARK INTRA:                  -1.660
REMARK UNBOUND:                -1.982
REMARK SMILES C=CC(C)=CCC=C(C)CCC=C(C)C
REMARK SMILES IDX 8 1 7 2 9 3 10 4 11 5 12 6 14 7 13 8 15 9 6 10 5 11 3 12
REMARK SMILES IDX 4 13 2 14 1 15
REMARK H PARENT
REMARK Flexibility Score: inf
ROOT
ATOM      1  C   UNL     1      32.066  11.706  30.369  1.00  0.00    -0.077 C 
ATOM      2  C   UNL     1      32.511  11.184  29.202  1.00  0.00    -0.024 C 
ATOM      3  C   UNL     1      30.593  11.923  30.630  1.00  0.00     0.039 C 
ENDROOT
BRANCH   1   4
ATOM      4  C   UNL     1      33.070  12.084  31.435  1.00  0.00     0.034 C 
BRANCH   4   5
ATOM      5  C   UNL     1      32.701  11.449  32.782  1.00  0.00     0.032 C 
BRANCH   5   6
ATOM      6  C   UNL     1      32.868   9.952  32.731  1.00  0.00    -0.028 C 
ATOM      7  C   UNL     1      32.225   7.593  32.988  1.00  0.00     0.039 C 
ATOM      8  C   UNL     1      31.931   9.064  33.134  1.00  0.00    -0.080 C 
ATOM      9  C   UNL     1      30.618   9.506  33.737  1.00  0.00     0.039 C 
ENDBRANCH   5   6
ENDBRANCH   4   5
ENDBRANCH   1   4
BRANCH   2  10
ATOM     10  C   UNL     1      31.614  10.781  28.059  1.00  0.00     0.055 C 
BRANCH  10  11
ATOM     11  C   UNL     1      31.788   9.323  27.713  1.00  0.00    -0.020 C 
ATOM     12  C   UNL     1      30.961   8.348  28.139  1.00  0.00    -0.055 C 
ATOM     13  C   UNL     1      31.229   6.928  27.701  1.00  0.00     0.044 C 
BRANCH  12  14
ATOM     14  C   UNL     1      29.787   8.650  29.007  1.00  0.00    -0.005 C 
ATOM     15  C   UNL     1      29.720   8.307  30.295  1.00  0.00     0.009 C 
ENDBRANCH  12  14
ENDBRANCH  10  11
ENDBRANCH   2  10
TORSDOF 6
ENDMDL
MODEL 3
REMARK VINA RESULT:    -4.229      1.070      3.627
REMARK INTER + INTRA:          -7.694
REMARK INTER:                  -6.152
REMARK INTRA:                  -1.542
REMARK UNBOUND:                -1.982
REMARK SMILES C=CC(C)=CCC=C(C)CCC=C(C)C
REMARK SMILES IDX 8 1 7 2 9 3 10 4 11 5 12 6 14 7 13 8 15 9 6 10 5 11 3 12
REMARK SMILES IDX 4 13 2 14 1 15
REMARK H PARENT
REMARK Flexibility Score: inf
ROOT
ATOM      1  C   UNL     1      32.087   9.654  31.837  1.00  0.00    -0.077 C 
ATOM      2  C   UNL     1      32.283   8.582  32.640  1.00  0.00    -0.024 C 
ATOM      3  C   UNL     1      31.076   9.629  30.714  1.00  0.00     0.039 C 
ENDROOT
BRANCH   1   4
ATOM      4  C   UNL     1      32.904  10.905  32.069  1.00  0.00     0.034 C 
BRANCH   4   5
ATOM      5  C   UNL     1      32.215  11.827  33.083  1.00  0.00     0.032 C 
BRANCH   5   6
ATOM      6  C   UNL     1      32.390  11.306  34.486  1.00  0.00    -0.028 C 
ATOM      7  C   UNL     1      31.720  10.301  36.627  1.00  0.00     0.039 C 
ATOM      8  C   UNL     1      31.387  10.824  35.254  1.00  0.00    -0.080 C 
ATOM      9  C   UNL     1      29.952  10.816  34.781  1.00  0.00     0.039 C 
ENDBRANCH   5   6
ENDBRANCH   4   5
ENDBRANCH   1   4
BRANCH   2  10
ATOM     10  C   UNL     1      31.543   7.275  32.502  1.00  0.00     0.055 C 
BRANCH  10  11
ATOM     11  C   UNL     1      30.213   7.321  33.211  1.00  0.00    -0.020 C 
ATOM     12  C   UNL     1      30.061   7.106  34.533  1.00  0.00    -0.055 C 
ATOM     13  C   UNL     1      28.678   7.206  35.129  1.00  0.00     0.044 C 
BRANCH  12  14
ATOM     14  C   UNL     1      31.229   6.798  35.408  1.00  0.00    -0.005 C 
ATOM     15  C   UNL     1      31.124   6.583  36.721  1.00  0.00     0.009 C 
ENDBRANCH  12  14
ENDBRANCH  10  11
ENDBRANCH   2  10
TORSDOF 6
ENDMDL
MODEL 4
REMARK VINA RESULT:    -4.211      1.682      5.508
REMARK INTER + INTRA:          -7.669
REMARK INTER:                  -6.479
REMARK INTRA:                  -1.190
REMARK UNBOUND:                -1.982
REMARK SMILES C=CC(C)=CCC=C(C)CCC=C(C)C
REMARK SMILES IDX 8 1 7 2 9 3 10 4 11 5 12 6 14 7 13 8 15 9 6 10 5 11 3 12
REMARK SMILES IDX 4 13 2 14 1 15
REMARK H PARENT
REMARK Flexibility Score: inf
ROOT
ATOM      1  C   UNL     1      31.825  10.409  34.438  1.00  0.00    -0.077 C 
ATOM      2  C   UNL     1      31.479   9.398  33.607  1.00  0.00    -0.024 C 
ATOM      3  C   UNL     1      32.973  11.339  34.120  1.00  0.00     0.039 C 
ENDROOT
BRANCH   1   4
ATOM      4  C   UNL     1      31.042  10.610  35.716  1.00  0.00     0.034 C 
BRANCH   4   5
ATOM      5  C   UNL     1      31.634   9.773  36.856  1.00  0.00     0.032 C 
BRANCH   5   6
ATOM      6  C   UNL     1      30.614   8.803  37.394  1.00  0.00    -0.028 C 
ATOM      7  C   UNL     1      29.544   6.622  37.771  1.00  0.00     0.039 C 
ATOM      8  C   UNL     1      30.607   7.477  37.131  1.00  0.00    -0.080 C 
ATOM      9  C   UNL     1      31.617   6.841  36.205  1.00  0.00     0.039 C 
ENDBRANCH   5   6
ENDBRANCH   4   5
ENDBRANCH   1   4
BRANCH   2  10
ATOM     10  C   UNL     1      32.188   9.087  32.313  1.00  0.00     0.055 C 
BRANCH  10  11
ATOM     11  C   UNL     1      31.329   9.426  31.122  1.00  0.00    -0.020 C 
ATOM     12  C   UNL     1      31.597  10.434  30.267  1.00  0.00    -0.055 C 
ATOM     13  C   UNL     1      30.671  10.655  29.095  1.00  0.00     0.044 C 
BRANCH  12  14
ATOM     14  C   UNL     1      32.792  11.306  30.447  1.00  0.00    -0.005 C 
ATOM     15  C   UNL     1      32.715  12.599  30.768  1.00  0.00     0.009 C 
ENDBRANCH  12  14
ENDBRANCH  10  11
ENDBRANCH   2  10
TORSDOF 6
ENDMDL
MODEL 5
REMARK VINA RESULT:    -4.154      2.380      3.567
REMARK INTER + INTRA:          -7.593
REMARK INTER:                  -6.593
REMARK INTRA:                  -1.000
REMARK UNBOUND:                -1.982
REMARK SMILES C=CC(C)=CCC=C(C)CCC=C(C)C
REMARK SMILES IDX 8 1 7 2 9 3 10 4 11 5 12 6 14 7 13 8 15 9 6 10 5 11 3 12
REMARK SMILES IDX 4 13 2 14 1 15
REMARK H PARENT
REMARK Flexibility Score: inf
ROOT
ATOM      1  C   UNL     1      32.539  10.935  32.566  1.00  0.00    -0.077 C 
ATOM      2  C   UNL     1      32.401   9.663  32.126  1.00  0.00    -0.024 C 
ATOM      3  C   UNL     1      32.869  11.244  34.008  1.00  0.00     0.039 C 
ENDROOT
BRANCH   1   4
ATOM      4  C   UNL     1      32.355  12.075  31.588  1.00  0.00     0.034 C 
BRANCH   4   5
ATOM      5  C   UNL     1      32.789  11.659  30.177  1.00  0.00     0.032 C 
BRANCH   5   6
ATOM      6  C   UNL     1      31.690  11.924  29.180  1.00  0.00    -0.028 C 
ATOM      7  C   UNL     1      29.914  11.378  27.571  1.00  0.00     0.039 C 
ATOM      8  C   UNL     1      31.015  10.962  28.512  1.00  0.00    -0.080 C 
ATOM      9  C   UNL     1      31.348   9.497  28.668  1.00  0.00     0.039 C 
ENDBRANCH   5   6
ENDBRANCH   4   5
ENDBRANCH   1   4
BRANCH   2  10
ATOM     10  C   UNL     1      32.546   8.444  33.003  1.00  0.00     0.055 C 
BRANCH  10  11
ATOM     11  C   UNL     1      31.338   7.549  32.902  1.00  0.00    -0.020 C 
ATOM     12  C   UNL     1      30.602   7.161  33.963  1.00  0.00    -0.055 C 
ATOM     13  C   UNL     1      29.397   6.282  33.726  1.00  0.00     0.044 C 
BRANCH  12  14
ATOM     14  C   UNL     1      30.942   7.601  35.346  1.00  0.00    -0.005 C 
ATOM     15  C   UNL     1      31.575   6.824  36.227  1.00  0.00     0.009 C 
ENDBRANCH  12  14
ENDBRANCH  10  11
ENDBRANCH   2  10
TORSDOF 6
ENDMDL
MODEL 6
REMARK VINA RESULT:    -4.134      1.254      3.280
REMARK INTER + INTRA:          -7.566
REMARK INTER:                  -5.714
REMARK INTRA:                  -1.852
REMARK UNBOUND:                -1.982
REMARK SMILES C=CC(C)=CCC=C(C)CCC=C(C)C
REMARK SMILES IDX 8 1 7 2 9 3 10 4 11 5 12 6 14 7 13 8 15 9 6 10 5 11 3 12
REMARK SMILES IDX 4 13 2 14 1 15
REMARK H PARENT
REMARK Flexibility Score: inf
ROOT
ATOM      1  C   UNL     1      30.854   7.438  33.890  1.00  0.00    -0.077 C 
ATOM      2  C   UNL     1      31.551   7.658  35.029  1.00  0.00    -0.024 C 
ATOM      3  C   UNL     1      29.372   7.141  33.912  1.00  0.00     0.039 C 
ENDROOT
BRANCH   1   4
ATOM      4  C   UNL     1      31.578   7.489  32.564  1.00  0.00     0.034 C 
BRANCH   4   5
ATOM      5  C   UNL     1      32.649   8.588  32.569  1.00  0.00     0.032 C 
BRANCH   5   6
ATOM      6  C   UNL     1      32.079   9.892  32.075  1.00  0.00    -0.028 C 
ATOM      7  C   UNL     1      31.612  12.306  32.085  1.00  0.00     0.039 C 
ATOM      8  C   UNL     1      32.203  11.074  32.720  1.00  0.00    -0.080 C 
ATOM      9  C   UNL     1      32.898  11.185  34.057  1.00  0.00     0.039 C 
ENDBRANCH   5   6
ENDBRANCH   4   5
ENDBRANCH   1   4
BRANCH   2  10
ATOM     10  C   UNL     1      30.947   7.621  36.411  1.00  0.00     0.055 C 
BRANCH  10  11
ATOM     11  C   UNL     1      31.261   8.880  37.180  1.00  0.00    -0.020 C 
ATOM     12  C   UNL     1      30.537  10.013  37.088  1.00  0.00    -0.055 C 
ATOM     13  C   UNL     1      30.939  11.199  37.931  1.00  0.00     0.044 C 
BRANCH  12  14
ATOM     14  C   UNL     1      29.347  10.104  36.194  1.00  0.00    -0.005 C 
ATOM     15  C   UNL     1      29.323  10.832  35.076  1.00  0.00     0.009 C 
ENDBRANCH  12  14
ENDBRANCH  10  11
ENDBRANCH   2  10
TORSDOF 6
ENDMDL
MODEL 7
REMARK VINA RESULT:    -4.109      2.507      4.131
REMARK INTER + INTRA:          -7.531
REMARK INTER:                  -5.988
REMARK INTRA:                  -1.543
REMARK UNBOUND:                -1.982
REMARK SMILES C=CC(C)=CCC=C(C)CCC=C(C)C
REMARK SMILES IDX 8 1 7 2 9 3 10 4 11 5 12 6 14 7 13 8 15 9 6 10 5 11 3 12
REMARK SMILES IDX 4 13 2 14 1 15
REMARK H PARENT
REMARK Flexibility Score: inf
ROOT
ATOM      1  C   UNL     1      31.735  11.912  30.531  1.00  0.00    -0.077 C 
ATOM      2  C   UNL     1      32.840  11.278  30.987  1.00  0.00    -0.024 C 
ATOM      3  C   UNL     1      30.605  12.301  31.456  1.00  0.00     0.039 C 
ENDROOT
BRANCH   1   4
ATOM      4  C   UNL     1      31.629  12.236  29.058  1.00  0.00     0.034 C 
BRANCH   4   5
ATOM      5  C   UNL     1      30.568  11.359  28.381  1.00  0.00     0.032 C 
BRANCH   5   6
ATOM      6  C   UNL     1      31.177  10.078  27.872  1.00  0.00    -0.028 C 
ATOM      7  C   UNL     1      31.672   7.671  27.822  1.00  0.00     0.039 C 
ATOM      8  C   UNL     1      31.035   8.874  28.468  1.00  0.00    -0.080 C 
ATOM      9  C   UNL     1      30.277   8.709  29.765  1.00  0.00     0.039 C 
ENDBRANCH   5   6
ENDBRANCH   4   5
ENDBRANCH   1   4
BRANCH   2  10
ATOM     10  C   UNL     1      33.058  10.889  32.428  1.00  0.00     0.055 C 
BRANCH  10  11
ATOM     11  C   UNL     1      32.765   9.427  32.652  1.00  0.00    -0.020 C 
ATOM     12  C   UNL     1      31.846   8.972  33.527  1.00  0.00    -0.055 C 
ATOM     13  C   UNL     1      31.628   7.483  33.640  1.00  0.00     0.044 C 
BRANCH  12  14
ATOM     14  C   UNL     1      31.034   9.908  34.356  1.00  0.00    -0.005 C 
ATOM     15  C   UNL     1      31.293  10.163  35.640  1.00  0.00     0.009 C 
ENDBRANCH  12  14
ENDBRANCH  10  11
ENDBRANCH   2  10
TORSDOF 6
ENDMDL
MODEL 8
REMARK VINA RESULT:    -4.088      1.272      5.215
REMARK INTER + INTRA:          -7.503
REMARK INTER:                  -5.724
REMARK INTRA:                  -1.779
REMARK UNBOUND:                -1.982
REMARK SMILES C=CC(C)=CCC=C(C)CCC=C(C)C
REMARK SMILES IDX 8 1 7 2 9 3 10 4 11 5 12 6 14 7 13 8 15 9 6 10 5 11 3 12
REMARK SMILES IDX 4 13 2 14 1 15
REMARK H PARENT
REMARK Flexibility Score: inf
ROOT
ATOM      1  C   UNL     1      30.501   6.842  34.362  1.00  0.00    -0.077 C 
ATOM      2  C   UNL     1      31.675   7.414  34.008  1.00  0.00    -0.024 C 
ATOM      3  C   UNL     1      29.369   6.678  33.376  1.00  0.00     0.039 C 
ENDROOT
BRANCH   1   4
ATOM      4  C   UNL     1      30.320   6.357  35.784  1.00  0.00     0.034 C 
BRANCH   4   5
ATOM      5  C   UNL     1      31.212   7.149  36.748  1.00  0.00     0.032 C 
BRANCH   5   6
ATOM      6  C   UNL     1      30.409   8.188  37.488  1.00  0.00    -0.028 C 
ATOM      7  C   UNL     1      29.764  10.438  38.238  1.00  0.00     0.039 C 
ATOM      8  C   UNL     1      30.679   9.512  37.479  1.00  0.00    -0.080 C 
ATOM      9  C   UNL     1      31.874  10.079  36.749  1.00  0.00     0.039 C 
ENDBRANCH   5   6
ENDBRANCH   4   5
ENDBRANCH   1   4
BRANCH   2  10
ATOM     10  C   UNL     1      31.973   7.947  32.629  1.00  0.00     0.055 C 
BRANCH  10  11
ATOM     11  C   UNL     1      32.534   9.346  32.691  1.00  0.00    -0.020 C 
ATOM     12  C   UNL     1      31.773  10.455  32.781  1.00  0.00    -0.055 C 
ATOM     13  C   UNL     1      32.457  11.798  32.863  1.00  0.00     0.044 C 
BRANCH  12  14
ATOM     14  C   UNL     1      30.284  10.373  32.823  1.00  0.00    -0.005 C 
ATOM     15  C   UNL     1      29.574  10.526  33.942  1.00  0.00     0.009 C 
ENDBRANCH  12  14
ENDBRANCH  10  11
ENDBRANCH   2  10
TORSDOF 6
ENDMDL
