MODEL 1
REMARK VINA RESULT:    -3.905      0.000      0.000
REMARK INTER + INTRA:          -5.921
REMARK INTER:                  -5.275
REMARK INTRA:                  -0.646
REMARK UNBOUND:                -0.646
REMARK SMILES CCCCCCCC(=O)[O-]
REMARK SMILES IDX 5 1 6 2 7 3 8 4 9 5 10 6 4 7 3 8 2 9 1 10
REMARK H PARENT
REMARK Flexibility Score: inf
ROOT
ATOM      1  C   UNL     1     -38.118  21.119 -28.680  1.00  0.00     0.000 C 
ENDROOT
BRANCH   1   2
ATOM      2  C   UNL     1     -38.255  20.246 -29.944  1.00  0.00     0.006 C 
BRANCH   2   3
ATOM      3  C   UNL     1     -39.327  19.149 -29.850  1.00  0.00     0.053 C 
BRANCH   3   4
ATOM      4  C   UNL     1     -40.427  19.354 -30.845  1.00  0.00     0.041 C 
ATOM      5  O   UNL     1     -40.545  20.456 -31.443  1.00  0.00    -0.550 OA
ATOM      6  O   UNL     1     -41.303  18.316 -31.136  1.00  0.00    -0.550 OA
ENDBRANCH   3   4
ENDBRANCH   2   3
ENDBRANCH   1   2
BRANCH   1   7
ATOM      7  C   UNL     1     -39.451  21.502 -28.009  1.00  0.00     0.000 C 
BRANCH   7   8
ATOM      8  C   UNL     1     -40.156  22.677 -28.708  1.00  0.00    -0.000 C 
BRANCH   8   9
ATOM      9  C   UNL     1     -41.686  22.531 -28.702  1.00  0.00    -0.003 C 
ATOM     10  C   UNL     1     -42.148  21.193 -28.124  1.00  0.00     0.004 C 
ENDBRANCH   8   9
ENDBRANCH   7   8
ENDBRANCH   1   7
TORSDOF 6
ENDMDL
MODEL 2
REMARK VINA RESULT:    -3.829      2.071      3.662
REMARK INTER + INTRA:          -5.818
REMARK INTER:                  -5.332
REMARK INTRA:                  -0.486
REMARK UNBOUND:                -0.646
REMARK SMILES CCCCCCCC(=O)[O-]
REMARK SMILES IDX 5 1 6 2 7 3 8 4 9 5 10 6 4 7 3 8 2 9 1 10
REMARK H PARENT
REMARK Flexibility Score: inf
ROOT
ATOM      1  C   UNL     1     -38.525  21.889 -29.432  1.00  0.00     0.000 C 
ENDROOT
BRANCH   1   2
ATOM      2  C   UNL     1     -39.740  22.692 -28.926  1.00  0.00     0.006 C 
BRANCH   2   3
ATOM      3  C   UNL     1     -41.102  22.041 -29.214  1.00  0.00     0.053 C 
BRANCH   3   4
ATOM      4  C   UNL     1     -41.563  21.184 -28.077  1.00  0.00     0.041 C 
ATOM      5  O   UNL     1     -40.729  20.542 -27.386  1.00  0.00    -0.550 OA
ATOM      6  O   UNL     1     -42.915  21.119 -27.760  1.00  0.00    -0.550 OA
ENDBRANCH   3   4
ENDBRANCH   2   3
ENDBRANCH   1   2
BRANCH   1   7
ATOM      7  C   UNL     1     -38.863  20.749 -30.411  1.00  0.00     0.000 C 
BRANCH   7   8
ATOM      8  C   UNL     1     -38.478  19.362 -29.868  1.00  0.00    -0.000 C 
BRANCH   8   9
ATOM      9  C   UNL     1     -39.587  18.319 -30.082  1.00  0.00    -0.003 C 
ATOM     10  C   UNL     1     -40.757  18.862 -30.902  1.00  0.00     0.004 C 
ENDBRANCH   8   9
ENDBRANCH   7   8
ENDBRANCH   1   7
TORSDOF 6
ENDMDL
MODEL 3
REMARK VINA RESULT:    -3.782      2.179      4.277
REMARK INTER + INTRA:          -5.755
REMARK INTER:                  -5.297
REMARK INTRA:                  -0.458
REMARK UNBOUND:                -0.646
REMARK SMILES CCCCCCCC(=O)[O-]
REMARK SMILES IDX 5 1 6 2 7 3 8 4 9 5 10 6 4 7 3 8 2 9 1 10
REMARK H PARENT
REMARK Flexibility Score: inf
ROOT
ATOM      1  C   UNL     1     -40.142  19.113 -30.460  1.00  0.00     0.000 C 
ENDROOT
BRANCH   1   2
ATOM      2  C   UNL     1     -40.367  20.623 -30.245  1.00  0.00     0.006 C 
BRANCH   2   3
ATOM      3  C   UNL     1     -40.520  21.044 -28.775  1.00  0.00     0.053 C 
BRANCH   3   4
ATOM      4  C   UNL     1     -41.845  21.690 -28.512  1.00  0.00     0.041 C 
ATOM      5  O   UNL     1     -42.719  21.091 -27.834  1.00  0.00    -0.550 OA
ATOM      6  O   UNL     1     -42.101  22.968 -28.992  1.00  0.00    -0.550 OA
ENDBRANCH   3   4
ENDBRANCH   2   3
ENDBRANCH   1   2
BRANCH   1   7
ATOM      7  C   UNL     1     -39.076  18.480 -29.547  1.00  0.00     0.000 C 
BRANCH   7   8
ATOM      8  C   UNL     1     -37.716  18.310 -30.245  1.00  0.00    -0.000 C 
BRANCH   8   9
ATOM      9  C   UNL     1     -36.782  19.508 -30.011  1.00  0.00    -0.003 C 
ATOM     10  C   UNL     1     -36.910  20.089 -28.602  1.00  0.00     0.004 C 
ENDBRANCH   8   9
ENDBRANCH   7   8
ENDBRANCH   1   7
TORSDOF 6
ENDMDL
MODEL 4
REMARK VINA RESULT:    -3.729      2.090      2.580
REMARK INTER + INTRA:          -5.683
REMARK INTER:                  -5.172
REMARK INTRA:                  -0.510
REMARK UNBOUND:                -0.646
REMARK SMILES CCCCCCCC(=O)[O-]
REMARK SMILES IDX 5 1 6 2 7 3 8 4 9 5 10 6 4 7 3 8 2 9 1 10
REMARK H PARENT
REMARK Flexibility Score: inf
ROOT
ATOM      1  C   UNL     1     -39.677  21.049 -31.040  1.00  0.00     0.000 C 
ENDROOT
BRANCH   1   2
ATOM      2  C   UNL     1     -40.418  19.731 -30.738  1.00  0.00     0.006 C 
BRANCH   2   3
ATOM      3  C   UNL     1     -39.556  18.653 -30.064  1.00  0.00     0.053 C 
BRANCH   3   4
ATOM      4  C   UNL     1     -38.660  19.229 -29.011  1.00  0.00     0.041 C 
ATOM      5  O   UNL     1     -39.132  19.577 -27.897  1.00  0.00    -0.550 OA
ATOM      6  O   UNL     1     -37.297  19.354 -29.251  1.00  0.00    -0.550 OA
ENDBRANCH   3   4
ENDBRANCH   2   3
ENDBRANCH   1   2
BRANCH   1   7
ATOM      7  C   UNL     1     -40.496  22.327 -30.786  1.00  0.00     0.000 C 
BRANCH   7   8
ATOM      8  C   UNL     1     -40.571  22.703 -29.296  1.00  0.00    -0.000 C 
BRANCH   8   9
ATOM      9  C   UNL     1     -41.997  22.593 -28.733  1.00  0.00    -0.003 C 
ATOM     10  C   UNL     1     -42.255  21.257 -28.037  1.00  0.00     0.004 C 
ENDBRANCH   8   9
ENDBRANCH   7   8
ENDBRANCH   1   7
TORSDOF 6
ENDMDL
MODEL 5
REMARK VINA RESULT:    -3.725      1.811      3.709
REMARK INTER + INTRA:          -5.677
REMARK INTER:                  -5.183
REMARK INTRA:                  -0.494
REMARK UNBOUND:                -0.646
REMARK SMILES CCCCCCCC(=O)[O-]
REMARK SMILES IDX 5 1 6 2 7 3 8 4 9 5 10 6 4 7 3 8 2 9 1 10
REMARK H PARENT
REMARK Flexibility Score: inf
ROOT
ATOM      1  C   UNL     1     -38.965  21.143 -28.086  1.00  0.00     0.000 C 
ENDROOT
BRANCH   1   2
ATOM      2  C   UNL     1     -40.413  20.869 -27.630  1.00  0.00     0.006 C 
BRANCH   2   3
ATOM      3  C   UNL     1     -41.494  21.378 -28.596  1.00  0.00     0.053 C 
BRANCH   3   4
ATOM      4  C   UNL     1     -41.094  22.660 -29.257  1.00  0.00     0.041 C 
ATOM      5  O   UNL     1     -40.803  22.679 -30.482  1.00  0.00    -0.550 OA
ATOM      6  O   UNL     1     -41.073  23.842 -28.527  1.00  0.00    -0.550 OA
ENDBRANCH   3   4
ENDBRANCH   2   3
ENDBRANCH   1   2
BRANCH   1   7
ATOM      7  C   UNL     1     -38.218  19.918 -28.645  1.00  0.00     0.000 C 
BRANCH   7   8
ATOM      8  C   UNL     1     -38.629  19.576 -30.088  1.00  0.00    -0.000 C 
BRANCH   8   9
ATOM      9  C   UNL     1     -39.624  18.407 -30.154  1.00  0.00    -0.003 C 
ATOM     10  C   UNL     1     -40.858  18.730 -30.995  1.00  0.00     0.004 C 
ENDBRANCH   8   9
ENDBRANCH   7   8
ENDBRANCH   1   7
TORSDOF 6
ENDMDL
MODEL 6
REMARK VINA RESULT:    -3.718      2.591      4.568
REMARK INTER + INTRA:          -5.668
REMARK INTER:                  -5.280
REMARK INTRA:                  -0.388
REMARK UNBOUND:                -0.646
REMARK SMILES CCCCCCCC(=O)[O-]
REMARK SMILES IDX 5 1 6 2 7 3 8 4 9 5 10 6 4 7 3 8 2 9 1 10
REMARK H PARENT
REMARK Flexibility Score: inf
ROOT
ATOM      1  C   UNL     1     -41.403  21.440 -28.521  1.00  0.00     0.000 C 
ENDROOT
BRANCH   1   2
ATOM      2  C   UNL     1     -41.378  22.759 -29.318  1.00  0.00     0.006 C 
BRANCH   2   3
ATOM      3  C   UNL     1     -40.930  23.986 -28.509  1.00  0.00     0.053 C 
BRANCH   3   4
ATOM      4  C   UNL     1     -39.511  24.363 -28.803  1.00  0.00     0.041 C 
ATOM      5  O   UNL     1     -38.988  24.056 -29.906  1.00  0.00    -0.550 OA
ATOM      6  O   UNL     1     -38.774  25.080 -27.868  1.00  0.00    -0.550 OA
ENDBRANCH   3   4
ENDBRANCH   2   3
ENDBRANCH   1   2
BRANCH   1   7
ATOM      7  C   UNL     1     -40.029  20.770 -28.333  1.00  0.00     0.000 C 
BRANCH   7   8
ATOM      8  C   UNL     1     -39.389  20.336 -29.663  1.00  0.00    -0.000 C 
BRANCH   8   9
ATOM      9  C   UNL     1     -39.686  18.868 -30.006  1.00  0.00    -0.003 C 
ATOM     10  C   UNL     1     -40.870  18.714 -30.962  1.00  0.00     0.004 C 
ENDBRANCH   8   9
ENDBRANCH   7   8
ENDBRANCH   1   7
TORSDOF 6
ENDMDL
MODEL 7
REMARK VINA RESULT:    -3.712      1.490      2.708
REMARK INTER + INTRA:          -5.660
REMARK INTER:                  -5.167
REMARK INTRA:                  -0.492
REMARK UNBOUND:                -0.646
REMARK SMILES CCCCCCCC(=O)[O-]
REMARK SMILES IDX 5 1 6 2 7 3 8 4 9 5 10 6 4 7 3 8 2 9 1 10
REMARK H PARENT
REMARK Flexibility Score: inf
ROOT
ATOM      1  C   UNL     1     -41.615  21.522 -28.407  1.00  0.00     0.000 C 
ENDROOT
BRANCH   1   2
ATOM      2  C   UNL     1     -40.368  20.626 -28.266  1.00  0.00     0.006 C 
BRANCH   2   3
ATOM      3  C   UNL     1     -39.630  20.346 -29.585  1.00  0.00     0.053 C 
BRANCH   3   4
ATOM      4  C   UNL     1     -39.879  18.954 -30.080  1.00  0.00     0.041 C 
ATOM      5  O   UNL     1     -39.201  17.992 -29.634  1.00  0.00    -0.550 OA
ATOM      6  O   UNL     1     -40.881  18.717 -31.012  1.00  0.00    -0.550 OA
ENDBRANCH   3   4
ENDBRANCH   2   3
ENDBRANCH   1   2
BRANCH   1   7
ATOM      7  C   UNL     1     -41.448  22.721 -29.360  1.00  0.00     0.000 C 
BRANCH   7   8
ATOM      8  C   UNL     1     -41.087  24.023 -28.624  1.00  0.00    -0.000 C 
BRANCH   8   9
ATOM      9  C   UNL     1     -39.573  24.285 -28.605  1.00  0.00    -0.003 C 
ATOM     10  C   UNL     1     -38.910  24.013 -29.955  1.00  0.00     0.004 C 
ENDBRANCH   8   9
ENDBRANCH   7   8
ENDBRANCH   1   7
TORSDOF 6
ENDMDL
MODEL 8
REMARK VINA RESULT:    -3.686      2.004      3.578
REMARK INTER + INTRA:          -5.624
REMARK INTER:                  -5.162
REMARK INTRA:                  -0.462
REMARK UNBOUND:                -0.646
REMARK SMILES CCCCCCCC(=O)[O-]
REMARK SMILES IDX 5 1 6 2 7 3 8 4 9 5 10 6 4 7 3 8 2 9 1 10
REMARK H PARENT
REMARK Flexibility Score: inf
ROOT
ATOM      1  C   UNL     1     -38.180  21.404 -29.023  1.00  0.00     0.000 C 
ENDROOT
BRANCH   1   2
ATOM      2  C   UNL     1     -39.441  22.118 -28.497  1.00  0.00     0.006 C 
BRANCH   2   3
ATOM      3  C   UNL     1     -40.543  21.177 -27.986  1.00  0.00     0.053 C 
BRANCH   3   4
ATOM      4  C   UNL     1     -41.912  21.694 -28.302  1.00  0.00     0.041 C 
ATOM      5  O   UNL     1     -42.053  22.720 -29.018  1.00  0.00    -0.550 OA
ATOM      6  O   UNL     1     -43.034  21.024 -27.829  1.00  0.00    -0.550 OA
ENDBRANCH   3   4
ENDBRANCH   2   3
ENDBRANCH   1   2
BRANCH   1   7
ATOM      7  C   UNL     1     -38.117  19.895 -28.723  1.00  0.00     0.000 C 
BRANCH   7   8
ATOM      8  C   UNL     1     -38.260  19.029 -29.987  1.00  0.00    -0.000 C 
BRANCH   8   9
ATOM      9  C   UNL     1     -39.571  18.227 -30.004  1.00  0.00    -0.003 C 
ATOM     10  C   UNL     1     -40.658  18.893 -30.848  1.00  0.00     0.004 C 
ENDBRANCH   8   9
ENDBRANCH   7   8
ENDBRANCH   1   7
TORSDOF 6
ENDMDL
MODEL 9
REMARK VINA RESULT:    -3.558      1.666      3.821
REMARK INTER + INTRA:          -5.452
REMARK INTER:                  -4.821
REMARK INTRA:                  -0.631
REMARK UNBOUND:                -0.646
REMARK SMILES CCCCCCCC(=O)[O-]
REMARK SMILES IDX 5 1 6 2 7 3 8 4 9 5 10 6 4 7 3 8 2 9 1 10
REMARK H PARENT
REMARK Flexibility Score: inf
ROOT
ATOM      1  C   UNL     1     -40.016  20.635 -27.609  1.00  0.00     0.000 C 
ENDROOT
BRANCH   1   2
ATOM      2  C   UNL     1     -40.961  20.845 -28.809  1.00  0.00     0.006 C 
BRANCH   2   3
ATOM      3  C   UNL     1     -40.893  22.246 -29.438  1.00  0.00     0.053 C 
BRANCH   3   4
ATOM      4  C   UNL     1     -40.044  22.264 -30.672  1.00  0.00     0.041 C 
ATOM      5  O   UNL     1     -40.099  21.313 -31.494  1.00  0.00    -0.550 OA
ATOM      6  O   UNL     1     -39.214  23.348 -30.928  1.00  0.00    -0.550 OA
ENDBRANCH   3   4
ENDBRANCH   2   3
ENDBRANCH   1   2
BRANCH   1   7
ATOM      7  C   UNL     1     -38.909  19.588 -27.832  1.00  0.00     0.000 C 
BRANCH   7   8
ATOM      8  C   UNL     1     -39.051  18.845 -29.171  1.00  0.00    -0.000 C 
BRANCH   8   9
ATOM      9  C   UNL     1     -37.772  18.917 -30.021  1.00  0.00    -0.003 C 
ATOM     10  C   UNL     1     -37.004  20.223 -29.821  1.00  0.00     0.004 C 
ENDBRANCH   8   9
ENDBRANCH   7   8
ENDBRANCH   1   7
TORSDOF 6
ENDMDL
