MODEL 1
REMARK VINA RESULT:    -4.429      0.000      0.000
REMARK INTER + INTRA:          -4.429
REMARK INTER:                  -4.429
REMARK INTRA:                   0.000
REMARK UNBOUND:                 0.000
REMARK SMILES CC1=CC(=O)[C@@H]2C[C@H]1C2(C)C
REMARK SMILES IDX 1 1 2 2 3 3 4 4 5 5 6 6 7 7 8 8 9 9 10 10 11 11
REMARK H PARENT
REMARK Flexibility Score: inf
ROOT
ATOM      1  C   UNL     1      10.582 -18.579  26.619  1.00  0.00     0.040 C 
ATOM      2  C   UNL     1       9.936 -17.486  25.829  1.00  0.00    -0.066 C 
ATOM      3  C   UNL     1      10.679 -16.570  25.147  1.00  0.00     0.047 C 
ATOM      4  C   UNL     1       9.915 -15.542  24.369  1.00  0.00     0.159 C 
ATOM      5  O   UNL     1      10.487 -14.668  23.668  1.00  0.00    -0.295 OA
ATOM      6  C   UNL     1       8.393 -15.633  24.484  1.00  0.00     0.067 C 
ATOM      7  C   UNL     1       8.140 -15.824  25.995  1.00  0.00     0.021 C 
ATOM      8  C   UNL     1       8.402 -17.329  25.761  1.00  0.00     0.022 C 
ATOM      9  C   UNL     1       7.969 -17.115  24.281  1.00  0.00    -0.019 C 
ATOM     10  C   UNL     1       6.438 -17.269  24.087  1.00  0.00     0.012 C 
ATOM     11  C   UNL     1       8.686 -17.944  23.178  1.00  0.00     0.012 C 
ENDROOT
TORSDOF 0
ENDMDL
MODEL 2
REMARK VINA RESULT:    -4.312      2.044      3.888
REMARK INTER + INTRA:          -4.312
REMARK INTER:                  -4.312
REMARK INTRA:                   0.000
REMARK UNBOUND:                 0.000
REMARK SMILES CC1=CC(=O)[C@@H]2C[C@H]1C2(C)C
REMARK SMILES IDX 1 1 2 2 3 3 4 4 5 5 6 6 7 7 8 8 9 9 10 10 11 11
REMARK H PARENT
REMARK Flexibility Score: inf
ROOT
ATOM      1  C   UNL     1       6.242 -14.615  21.101  1.00  0.00     0.040 C 
ATOM      2  C   UNL     1       7.116 -15.294  22.107  1.00  0.00    -0.066 C 
ATOM      3  C   UNL     1       7.509 -14.661  23.248  1.00  0.00     0.047 C 
ATOM      4  C   UNL     1       8.358 -15.459  24.191  1.00  0.00     0.159 C 
ATOM      5  O   UNL     1       8.750 -14.999  25.294  1.00  0.00    -0.295 OA
ATOM      6  C   UNL     1       8.712 -16.869  23.718  1.00  0.00     0.067 C 
ATOM      7  C   UNL     1       9.136 -16.679  22.246  1.00  0.00     0.021 C 
ATOM      8  C   UNL     1       7.632 -16.733  21.896  1.00  0.00     0.022 C 
ATOM      9  C   UNL     1       7.417 -17.556  23.199  1.00  0.00    -0.019 C 
ATOM     10  C   UNL     1       7.607 -19.079  22.974  1.00  0.00     0.012 C 
ATOM     11  C   UNL     1       6.097 -17.343  23.995  1.00  0.00     0.012 C 
ENDROOT
TORSDOF 0
ENDMDL
MODEL 3
REMARK VINA RESULT:    -4.304      2.808      4.297
REMARK INTER + INTRA:          -4.304
REMARK INTER:                  -4.304
REMARK INTRA:                   0.000
REMARK UNBOUND:                 0.000
REMARK SMILES CC1=CC(=O)[C@@H]2C[C@H]1C2(C)C
REMARK SMILES IDX 1 1 2 2 3 3 4 4 5 5 6 6 7 7 8 8 9 9 10 10 11 11
REMARK H PARENT
REMARK Flexibility Score: inf
ROOT
ATOM      1  C   UNL     1       6.716 -20.415  21.603  1.00  0.00     0.040 C 
ATOM      2  C   UNL     1       6.863 -19.609  22.855  1.00  0.00    -0.066 C 
ATOM      3  C   UNL     1       6.752 -20.184  24.085  1.00  0.00     0.047 C 
ATOM      4  C   UNL     1       6.950 -19.276  25.261  1.00  0.00     0.159 C 
ATOM      5  O   UNL     1       6.912 -19.695  26.446  1.00  0.00    -0.295 OA
ATOM      6  C   UNL     1       7.205 -17.808  24.919  1.00  0.00     0.067 C 
ATOM      7  C   UNL     1       6.145 -17.482  23.844  1.00  0.00     0.021 C 
ATOM      8  C   UNL     1       7.128 -18.089  22.816  1.00  0.00     0.022 C 
ATOM      9  C   UNL     1       8.282 -17.740  23.800  1.00  0.00    -0.019 C 
ATOM     10  C   UNL     1       8.823 -16.302  23.589  1.00  0.00     0.012 C 
ATOM     11  C   UNL     1       9.496 -18.709  23.883  1.00  0.00     0.012 C 
ENDROOT
TORSDOF 0
ENDMDL
MODEL 4
REMARK VINA RESULT:    -4.268      1.707      2.225
REMARK INTER + INTRA:          -4.268
REMARK INTER:                  -4.268
REMARK INTRA:                   0.000
REMARK UNBOUND:                 0.000
REMARK SMILES CC1=CC(=O)[C@@H]2C[C@H]1C2(C)C
REMARK SMILES IDX 1 1 2 2 3 3 4 4 5 5 6 6 7 7 8 8 9 9 10 10 11 11
REMARK H PARENT
REMARK Flexibility Score: inf
ROOT
ATOM      1  C   UNL     1      10.335 -17.370  26.211  1.00  0.00     0.040 C 
ATOM      2  C   UNL     1       9.030 -17.299  25.483  1.00  0.00    -0.066 C 
ATOM      3  C   UNL     1       8.638 -16.166  24.837  1.00  0.00     0.047 C 
ATOM      4  C   UNL     1       7.324 -16.231  24.120  1.00  0.00     0.159 C 
ATOM      5  O   UNL     1       6.873 -15.263  23.455  1.00  0.00    -0.295 OA
ATOM      6  C   UNL     1       6.573 -17.556  24.250  1.00  0.00     0.067 C 
ATOM      7  C   UNL     1       6.666 -17.896  25.754  1.00  0.00     0.021 C 
ATOM      8  C   UNL     1       8.056 -18.496  25.443  1.00  0.00     0.022 C 
ATOM      9  C   UNL     1       7.569 -18.719  23.981  1.00  0.00    -0.019 C 
ATOM     10  C   UNL     1       6.851 -20.081  23.800  1.00  0.00     0.012 C 
ATOM     11  C   UNL     1       8.602 -18.556  22.830  1.00  0.00     0.012 C 
ENDROOT
TORSDOF 0
ENDMDL
MODEL 5
REMARK VINA RESULT:    -4.250      1.774      2.611
REMARK INTER + INTRA:          -4.250
REMARK INTER:                  -4.250
REMARK INTRA:                   0.000
REMARK UNBOUND:                 0.000
REMARK SMILES CC1=CC(=O)[C@@H]2C[C@H]1C2(C)C
REMARK SMILES IDX 1 1 2 2 3 3 4 4 5 5 6 6 7 7 8 8 9 9 10 10 11 11
REMARK H PARENT
REMARK Flexibility Score: inf
ROOT
ATOM      1  C   UNL     1       6.757 -17.912  25.818  1.00  0.00     0.040 C 
ATOM      2  C   UNL     1       7.257 -17.011  24.734  1.00  0.00    -0.066 C 
ATOM      3  C   UNL     1       8.241 -16.099  24.968  1.00  0.00     0.047 C 
ATOM      4  C   UNL     1       8.676 -15.276  23.793  1.00  0.00     0.159 C 
ATOM      5  O   UNL     1       9.602 -14.429  23.874  1.00  0.00    -0.295 OA
ATOM      6  C   UNL     1       7.918 -15.541  22.493  1.00  0.00     0.067 C 
ATOM      7  C   UNL     1       6.435 -15.577  22.921  1.00  0.00     0.021 C 
ATOM      8  C   UNL     1       6.672 -17.055  23.306  1.00  0.00     0.022 C 
ATOM      9  C   UNL     1       7.835 -17.078  22.271  1.00  0.00    -0.019 C 
ATOM     10  C   UNL     1       7.349 -17.443  20.845  1.00  0.00     0.012 C 
ATOM     11  C   UNL     1       9.090 -17.939  22.594  1.00  0.00     0.012 C 
ENDROOT
TORSDOF 0
ENDMDL
MODEL 6
REMARK VINA RESULT:    -4.224      2.249      3.942
REMARK INTER + INTRA:          -4.224
REMARK INTER:                  -4.224
REMARK INTRA:                   0.000
REMARK UNBOUND:                 0.000
REMARK SMILES CC1=CC(=O)[C@@H]2C[C@H]1C2(C)C
REMARK SMILES IDX 1 1 2 2 3 3 4 4 5 5 6 6 7 7 8 8 9 9 10 10 11 11
REMARK H PARENT
REMARK Flexibility Score: inf
ROOT
ATOM      1  C   UNL     1       7.458 -17.967  20.744  1.00  0.00     0.040 C 
ATOM      2  C   UNL     1       7.499 -17.314  22.089  1.00  0.00    -0.066 C 
ATOM      3  C   UNL     1       6.907 -17.887  23.174  1.00  0.00     0.047 C 
ATOM      4  C   UNL     1       7.044 -17.150  24.472  1.00  0.00     0.159 C 
ATOM      5  O   UNL     1       6.575 -17.596  25.550  1.00  0.00    -0.295 OA
ATOM      6  C   UNL     1       7.795 -15.820  24.392  1.00  0.00     0.067 C 
ATOM      7  C   UNL     1       7.198 -15.123  23.151  1.00  0.00     0.021 C 
ATOM      8  C   UNL     1       8.195 -15.954  22.312  1.00  0.00     0.022 C 
ATOM      9  C   UNL     1       9.100 -16.037  23.575  1.00  0.00    -0.019 C 
ATOM     10  C   UNL     1      10.071 -14.833  23.685  1.00  0.00     0.012 C 
ATOM     11  C   UNL     1       9.913 -17.342  23.814  1.00  0.00     0.012 C 
ENDROOT
TORSDOF 0
ENDMDL
MODEL 7
REMARK VINA RESULT:    -4.212      2.095      3.755
REMARK INTER + INTRA:          -4.212
REMARK INTER:                  -4.212
REMARK INTRA:                   0.000
REMARK UNBOUND:                 0.000
REMARK SMILES CC1=CC(=O)[C@@H]2C[C@H]1C2(C)C
REMARK SMILES IDX 1 1 2 2 3 3 4 4 5 5 6 6 7 7 8 8 9 9 10 10 11 11
REMARK H PARENT
REMARK Flexibility Score: inf
ROOT
ATOM      1  C   UNL     1       6.760 -15.395  22.425  1.00  0.00     0.040 C 
ATOM      2  C   UNL     1       7.324 -16.056  23.642  1.00  0.00    -0.066 C 
ATOM      3  C   UNL     1       6.644 -17.040  24.295  1.00  0.00     0.047 C 
ATOM      4  C   UNL     1       7.329 -17.644  25.483  1.00  0.00     0.159 C 
ATOM      5  O   UNL     1       6.820 -18.586  26.144  1.00  0.00    -0.295 OA
ATOM      6  C   UNL     1       8.687 -17.038  25.834  1.00  0.00     0.067 C 
ATOM      7  C   UNL     1       8.453 -15.514  25.752  1.00  0.00     0.021 C 
ATOM      8  C   UNL     1       8.691 -15.646  24.231  1.00  0.00     0.022 C 
ATOM      9  C   UNL     1       9.529 -16.923  24.531  1.00  0.00    -0.019 C 
ATOM     10  C   UNL     1      11.018 -16.598  24.818  1.00  0.00     0.012 C 
ATOM     11  C   UNL     1       9.475 -18.096  23.511  1.00  0.00     0.012 C 
ENDROOT
TORSDOF 0
ENDMDL
MODEL 8
REMARK VINA RESULT:    -4.152      2.849      4.063
REMARK INTER + INTRA:          -4.152
REMARK INTER:                  -4.152
REMARK INTRA:                   0.000
REMARK UNBOUND:                 0.000
REMARK SMILES CC1=CC(=O)[C@@H]2C[C@H]1C2(C)C
REMARK SMILES IDX 1 1 2 2 3 3 4 4 5 5 6 6 7 7 8 8 9 9 10 10 11 11
REMARK H PARENT
REMARK Flexibility Score: inf
ROOT
ATOM      1  C   UNL     1       6.784 -20.244  26.424  1.00  0.00     0.040 C 
ATOM      2  C   UNL     1       7.137 -19.720  25.068  1.00  0.00    -0.066 C 
ATOM      3  C   UNL     1       6.658 -20.306  23.935  1.00  0.00     0.047 C 
ATOM      4  C   UNL     1       7.059 -19.670  22.639  1.00  0.00     0.159 C 
ATOM      5  O   UNL     1       6.650 -20.095  21.528  1.00  0.00    -0.295 OA
ATOM      6  C   UNL     1       7.996 -18.468  22.762  1.00  0.00     0.067 C 
ATOM      7  C   UNL     1       9.066 -18.927  23.777  1.00  0.00     0.021 C 
ATOM      8  C   UNL     1       8.072 -18.506  24.883  1.00  0.00     0.022 C 
ATOM      9  C   UNL     1       7.440 -17.517  23.860  1.00  0.00    -0.019 C 
ATOM     10  C   UNL     1       8.148 -16.138  23.859  1.00  0.00     0.012 C 
ATOM     11  C   UNL     1       5.905 -17.277  23.921  1.00  0.00     0.012 C 
ENDROOT
TORSDOF 0
ENDMDL
MODEL 9
REMARK VINA RESULT:    -4.100      4.725      6.322
REMARK INTER + INTRA:          -4.100
REMARK INTER:                  -4.100
REMARK INTRA:                   0.000
REMARK UNBOUND:                 0.000
REMARK SMILES CC1=CC(=O)[C@@H]2C[C@H]1C2(C)C
REMARK SMILES IDX 1 1 2 2 3 3 4 4 5 5 6 6 7 7 8 8 9 9 10 10 11 11
REMARK H PARENT
REMARK Flexibility Score: inf
ROOT
ATOM      1  C   UNL     1       6.260 -20.026  22.593  1.00  0.00     0.040 C 
ATOM      2  C   UNL     1       7.278 -20.204  21.512  1.00  0.00    -0.066 C 
ATOM      3  C   UNL     1       7.436 -19.276  20.528  1.00  0.00     0.047 C 
ATOM      4  C   UNL     1       8.510 -19.554  19.519  1.00  0.00     0.159 C 
ATOM      5  O   UNL     1       8.778 -18.754  18.587  1.00  0.00    -0.295 OA
ATOM      6  C   UNL     1       9.256 -20.875  19.707  1.00  0.00     0.067 C 
ATOM      7  C   UNL     1       8.138 -21.907  19.969  1.00  0.00     0.021 C 
ATOM      8  C   UNL     1       8.184 -21.452  21.445  1.00  0.00     0.022 C 
ATOM      9  C   UNL     1       9.657 -21.010  21.203  1.00  0.00    -0.019 C 
ATOM     10  C   UNL     1      10.666 -22.162  21.442  1.00  0.00     0.012 C 
ATOM     11  C   UNL     1      10.177 -19.746  21.946  1.00  0.00     0.012 C 
ENDROOT
TORSDOF 0
ENDMDL
