MODEL 1
REMARK VINA RESULT:    -3.911      0.000      0.000
REMARK INTER + INTRA:          -5.408
REMARK INTER:                  -5.283
REMARK INTRA:                  -0.125
REMARK UNBOUND:                -0.125
REMARK SMILES CCCCCCCC(=O)[O-]
REMARK SMILES IDX 5 1 6 2 7 3 8 4 9 5 10 6 4 7 3 8 2 9 1 10
REMARK H PARENT
REMARK Flexibility Score: inf
ROOT
ATOM      1  C   UNL     1     303.079 323.979 648.140  1.00  0.00     0.000 C 
ENDROOT
BRANCH   1   2
ATOM      2  C   UNL     1     303.997 322.780 648.428  1.00  0.00     0.006 C 
BRANCH   2   3
ATOM      3  C   UNL     1     304.889 323.000 649.656  1.00  0.00     0.053 C 
BRANCH   3   4
ATOM      4  C   UNL     1     305.230 321.691 650.295  1.00  0.00     0.041 C 
ATOM      5  O   UNL     1     305.964 321.657 651.318  1.00  0.00    -0.550 OA
ATOM      6  O   UNL     1     304.780 320.503 649.732  1.00  0.00    -0.550 OA
ENDBRANCH   3   4
ENDBRANCH   2   3
ENDBRANCH   1   2
BRANCH   1   7
ATOM      7  C   UNL     1     301.784 323.573 647.421  1.00  0.00     0.000 C 
BRANCH   7   8
ATOM      8  C   UNL     1     300.601 324.421 647.903  1.00  0.00    -0.000 C 
BRANCH   8   9
ATOM      9  C   UNL     1     299.277 323.887 647.343  1.00  0.00    -0.003 C 
ATOM     10  C   UNL     1     299.082 324.310 645.890  1.00  0.00     0.004 C 
ENDBRANCH   8   9
ENDBRANCH   7   8
ENDBRANCH   1   7
TORSDOF 6
ENDMDL
MODEL 2
REMARK VINA RESULT:    -3.748      1.609      2.657
REMARK INTER + INTRA:          -5.188
REMARK INTER:                  -4.853
REMARK INTRA:                  -0.335
REMARK UNBOUND:                -0.125
REMARK SMILES CCCCCCCC(=O)[O-]
REMARK SMILES IDX 5 1 6 2 7 3 8 4 9 5 10 6 4 7 3 8 2 9 1 10
REMARK H PARENT
REMARK Flexibility Score: inf
ROOT
ATOM      1  C   UNL     1     300.567 324.390 647.951  1.00  0.00     0.000 C 
ENDROOT
BRANCH   1   2
ATOM      2  C   UNL     1     301.828 323.854 647.253  1.00  0.00     0.006 C 
BRANCH   2   3
ATOM      3  C   UNL     1     303.123 324.352 647.906  1.00  0.00     0.053 C 
BRANCH   3   4
ATOM      4  C   UNL     1     303.934 323.199 648.405  1.00  0.00     0.041 C 
ATOM      5  O   UNL     1     304.499 323.260 649.529  1.00  0.00    -0.550 OA
ATOM      6  O   UNL     1     304.110 322.074 647.607  1.00  0.00    -0.550 OA
ENDBRANCH   3   4
ENDBRANCH   2   3
ENDBRANCH   1   2
BRANCH   1   7
ATOM      7  C   UNL     1     299.271 323.871 647.310  1.00  0.00     0.000 C 
BRANCH   7   8
ATOM      8  C   UNL     1     299.128 324.383 645.871  1.00  0.00    -0.000 C 
BRANCH   8   9
ATOM      9  C   UNL     1     298.875 325.894 645.847  1.00  0.00    -0.003 C 
ATOM     10  C   UNL     1     299.910 326.614 644.987  1.00  0.00     0.004 C 
ENDBRANCH   8   9
ENDBRANCH   7   8
ENDBRANCH   1   7
TORSDOF 6
ENDMDL
MODEL 3
REMARK VINA RESULT:    -3.714      4.598      6.668
REMARK INTER + INTRA:          -5.142
REMARK INTER:                  -4.721
REMARK INTRA:                  -0.421
REMARK UNBOUND:                -0.125
REMARK SMILES CCCCCCCC(=O)[O-]
REMARK SMILES IDX 5 1 6 2 7 3 8 4 9 5 10 6 4 7 3 8 2 9 1 10
REMARK H PARENT
REMARK Flexibility Score: inf
ROOT
ATOM      1  C   UNL     1     299.022 324.303 645.651  1.00  0.00     0.000 C 
ENDROOT
BRANCH   1   2
ATOM      2  C   UNL     1     298.907 325.673 644.963  1.00  0.00     0.006 C 
BRANCH   2   3
ATOM      3  C   UNL     1     299.097 326.843 645.937  1.00  0.00     0.053 C 
BRANCH   3   4
ATOM      4  C   UNL     1     300.289 327.658 645.550  1.00  0.00     0.041 C 
ATOM      5  O   UNL     1     301.441 327.149 645.575  1.00  0.00    -0.550 OA
ATOM      6  O   UNL     1     300.136 328.996 645.209  1.00  0.00    -0.550 OA
ENDBRANCH   3   4
ENDBRANCH   2   3
ENDBRANCH   1   2
BRANCH   1   7
ATOM      7  C   UNL     1     299.232 324.420 647.168  1.00  0.00     0.000 C 
BRANCH   7   8
ATOM      8  C   UNL     1     300.358 323.491 647.639  1.00  0.00    -0.000 C 
BRANCH   8   9
ATOM      9  C   UNL     1     301.730 324.045 647.241  1.00  0.00    -0.003 C 
ATOM     10  C   UNL     1     302.851 323.098 647.662  1.00  0.00     0.004 C 
ENDBRANCH   8   9
ENDBRANCH   7   8
ENDBRANCH   1   7
TORSDOF 6
ENDMDL
MODEL 4
REMARK VINA RESULT:    -3.691      2.609      4.036
REMARK INTER + INTRA:          -5.110
REMARK INTER:                  -4.644
REMARK INTRA:                  -0.466
REMARK UNBOUND:                -0.125
REMARK SMILES CCCCCCCC(=O)[O-]
REMARK SMILES IDX 5 1 6 2 7 3 8 4 9 5 10 6 4 7 3 8 2 9 1 10
REMARK H PARENT
REMARK Flexibility Score: inf
ROOT
ATOM      1  C   UNL     1     299.123 323.959 647.064  1.00  0.00     0.000 C 
ENDROOT
BRANCH   1   2
ATOM      2  C   UNL     1     300.381 324.387 647.836  1.00  0.00     0.006 C 
BRANCH   2   3
ATOM      3  C   UNL     1     301.636 323.626 647.390  1.00  0.00     0.053 C 
BRANCH   3   4
ATOM      4  C   UNL     1     302.866 324.290 647.922  1.00  0.00     0.041 C 
ATOM      5  O   UNL     1     303.518 323.758 648.859  1.00  0.00    -0.550 OA
ATOM      6  O   UNL     1     303.266 325.522 647.419  1.00  0.00    -0.550 OA
ENDBRANCH   3   4
ENDBRANCH   2   3
ENDBRANCH   1   2
BRANCH   1   7
ATOM      7  C   UNL     1     298.913 324.771 645.778  1.00  0.00     0.000 C 
BRANCH   7   8
ATOM      8  C   UNL     1     298.875 326.275 646.079  1.00  0.00    -0.000 C 
BRANCH   8   9
ATOM      9  C   UNL     1     299.694 327.063 645.051  1.00  0.00    -0.003 C 
ATOM     10  C   UNL     1     300.973 326.319 644.676  1.00  0.00     0.004 C 
ENDBRANCH   8   9
ENDBRANCH   7   8
ENDBRANCH   1   7
TORSDOF 6
ENDMDL
MODEL 5
REMARK VINA RESULT:    -3.682      3.020      4.746
REMARK INTER + INTRA:          -5.098
REMARK INTER:                  -4.452
REMARK INTRA:                  -0.646
REMARK UNBOUND:                -0.125
REMARK SMILES CCCCCCCC(=O)[O-]
REMARK SMILES IDX 5 1 6 2 7 3 8 4 9 5 10 6 4 7 3 8 2 9 1 10
REMARK H PARENT
REMARK Flexibility Score: inf
ROOT
ATOM      1  C   UNL     1     298.878 324.408 645.780  1.00  0.00     0.000 C 
ENDROOT
BRANCH   1   2
ATOM      2  C   UNL     1     299.487 324.636 647.172  1.00  0.00     0.006 C 
BRANCH   2   3
ATOM      3  C   UNL     1     300.655 323.686 647.470  1.00  0.00     0.053 C 
BRANCH   3   4
ATOM      4  C   UNL     1     301.912 324.461 647.706  1.00  0.00     0.041 C 
ATOM      5  O   UNL     1     302.103 325.554 647.111  1.00  0.00    -0.550 OA
ATOM      6  O   UNL     1     302.897 323.952 648.543  1.00  0.00    -0.550 OA
ENDBRANCH   3   4
ENDBRANCH   2   3
ENDBRANCH   1   2
BRANCH   1   7
ATOM      7  C   UNL     1     298.985 325.646 644.877  1.00  0.00     0.000 C 
BRANCH   7   8
ATOM      8  C   UNL     1     300.283 325.620 644.061  1.00  0.00    -0.000 C 
BRANCH   8   9
ATOM      9  C   UNL     1     300.692 324.182 643.724  1.00  0.00    -0.003 C 
ATOM     10  C   UNL     1     302.170 323.944 644.020  1.00  0.00     0.004 C 
ENDBRANCH   8   9
ENDBRANCH   7   8
ENDBRANCH   1   7
TORSDOF 6
ENDMDL
MODEL 6
REMARK VINA RESULT:    -3.635      1.058      1.509
REMARK INTER + INTRA:          -5.035
REMARK INTER:                  -4.775
REMARK INTRA:                  -0.259
REMARK UNBOUND:                -0.125
REMARK SMILES CCCCCCCC(=O)[O-]
REMARK SMILES IDX 5 1 6 2 7 3 8 4 9 5 10 6 4 7 3 8 2 9 1 10
REMARK H PARENT
REMARK Flexibility Score: inf
ROOT
ATOM      1  C   UNL     1     302.950 323.759 646.447  1.00  0.00     0.000 C 
ENDROOT
BRANCH   1   2
ATOM      2  C   UNL     1     303.350 323.282 647.852  1.00  0.00     0.006 C 
BRANCH   2   3
ATOM      3  C   UNL     1     304.287 322.068 647.820  1.00  0.00     0.053 C 
BRANCH   3   4
ATOM      4  C   UNL     1     304.733 321.715 649.203  1.00  0.00     0.041 C 
ATOM      5  O   UNL     1     304.933 320.512 649.518  1.00  0.00    -0.550 OA
ATOM      6  O   UNL     1     304.881 322.710 650.162  1.00  0.00    -0.550 OA
ENDBRANCH   3   4
ENDBRANCH   2   3
ENDBRANCH   1   2
BRANCH   1   7
ATOM      7  C   UNL     1     301.557 324.406 646.417  1.00  0.00     0.000 C 
BRANCH   7   8
ATOM      8  C   UNL     1     300.711 323.941 647.609  1.00  0.00    -0.000 C 
BRANCH   8   9
ATOM      9  C   UNL     1     299.221 323.915 647.249  1.00  0.00    -0.003 C 
ATOM     10  C   UNL     1     298.992 324.373 645.812  1.00  0.00     0.004 C 
ENDBRANCH   8   9
ENDBRANCH   7   8
ENDBRANCH   1   7
TORSDOF 6
ENDMDL
MODEL 7
REMARK VINA RESULT:    -3.523      3.609      4.263
REMARK INTER + INTRA:          -4.883
REMARK INTER:                  -4.332
REMARK INTRA:                  -0.551
REMARK UNBOUND:                -0.125
REMARK SMILES CCCCCCCC(=O)[O-]
REMARK SMILES IDX 5 1 6 2 7 3 8 4 9 5 10 6 4 7 3 8 2 9 1 10
REMARK H PARENT
REMARK Flexibility Score: inf
ROOT
ATOM      1  C   UNL     1     300.576 324.416 647.888  1.00  0.00     0.000 C 
ENDROOT
BRANCH   1   2
ATOM      2  C   UNL     1     301.794 323.556 647.513  1.00  0.00     0.006 C 
BRANCH   2   3
ATOM      3  C   UNL     1     303.110 324.342 647.558  1.00  0.00     0.053 C 
BRANCH   3   4
ATOM      4  C   UNL     1     303.120 325.406 646.507  1.00  0.00     0.041 C 
ATOM      5  O   UNL     1     303.334 326.606 646.823  1.00  0.00    -0.550 OA
ATOM      6  O   UNL     1     302.843 325.081 645.185  1.00  0.00    -0.550 OA
ENDBRANCH   3   4
ENDBRANCH   2   3
ENDBRANCH   1   2
BRANCH   1   7
ATOM      7  C   UNL     1     299.320 324.044 647.087  1.00  0.00     0.000 C 
BRANCH   7   8
ATOM      8  C   UNL     1     299.285 324.787 645.745  1.00  0.00    -0.000 C 
BRANCH   8   9
ATOM      9  C   UNL     1     298.875 326.251 645.938  1.00  0.00    -0.003 C 
ATOM     10  C   UNL     1     299.986 327.199 645.492  1.00  0.00     0.004 C 
ENDBRANCH   8   9
ENDBRANCH   7   8
ENDBRANCH   1   7
TORSDOF 6
ENDMDL
MODEL 8
REMARK VINA RESULT:    -3.486      4.757      6.568
REMARK INTER + INTRA:          -4.833
REMARK INTER:                  -4.349
REMARK INTRA:                  -0.484
REMARK UNBOUND:                -0.125
REMARK SMILES CCCCCCCC(=O)[O-]
REMARK SMILES IDX 5 1 6 2 7 3 8 4 9 5 10 6 4 7 3 8 2 9 1 10
REMARK H PARENT
REMARK Flexibility Score: inf
ROOT
ATOM      1  C   UNL     1     299.684 323.766 647.504  1.00  0.00     0.000 C 
ENDROOT
BRANCH   1   2
ATOM      2  C   UNL     1     298.876 324.307 646.313  1.00  0.00     0.006 C 
BRANCH   2   3
ATOM      3  C   UNL     1     299.731 324.496 645.054  1.00  0.00     0.053 C 
BRANCH   3   4
ATOM      4  C   UNL     1     299.594 325.891 644.533  1.00  0.00     0.041 C 
ATOM      5  O   UNL     1     299.561 326.104 643.292  1.00  0.00    -0.550 OA
ATOM      6  O   UNL     1     299.553 326.963 645.416  1.00  0.00    -0.550 OA
ENDBRANCH   3   4
ENDBRANCH   2   3
ENDBRANCH   1   2
BRANCH   1   7
ATOM      7  C   UNL     1     300.970 324.567 647.758  1.00  0.00     0.000 C 
BRANCH   7   8
ATOM      8  C   UNL     1     302.198 323.649 647.753  1.00  0.00    -0.000 C 
BRANCH   8   9
ATOM      9  C   UNL     1     303.462 324.422 647.361  1.00  0.00    -0.003 C 
ATOM     10  C   UNL     1     303.162 325.460 646.284  1.00  0.00     0.004 C 
ENDBRANCH   8   9
ENDBRANCH   7   8
ENDBRANCH   1   7
TORSDOF 6
ENDMDL
