MODEL 1
REMARK VINA RESULT:    -4.577      0.000      0.000
REMARK INTER + INTRA:          -5.032
REMARK INTER:                  -4.978
REMARK INTRA:                  -0.054
REMARK UNBOUND:                -0.054
REMARK SMILES COc1cc2ccc(=O)oc2cc1O
REMARK SMILES IDX 3 1 13 2 12 3 11 4 5 5 4 6 6 7 7 8 8 9 9 10 10 11 2 12 1 13
REMARK SMILES IDX 14 14
REMARK H PARENT 14 15
REMARK Flexibility Score: inf
ROOT
ATOM      1  C   UNL     1      11.873  40.578  13.537  1.00  0.00     0.161 A 
ATOM      2  C   UNL     1      12.595  41.085  14.636  1.00  0.00     0.161 A 
ATOM      3  C   UNL     1      11.954  41.305  15.860  1.00  0.00     0.098 A 
ATOM      4  C   UNL     1      10.594  41.025  16.007  1.00  0.00     0.142 A 
ATOM      5  C   UNL     1       9.861  40.518  14.913  1.00  0.00     0.022 A 
ATOM      6  C   UNL     1      10.500  40.295  13.685  1.00  0.00     0.062 A 
ATOM      7  C   UNL     1       8.501  40.247  15.091  1.00  0.00     0.019 A 
ATOM      8  C   UNL     1       7.912  40.485  16.332  1.00  0.00     0.094 A 
ATOM      9  C   UNL     1       8.700  40.989  17.371  1.00  0.00     0.336 A 
ATOM     10  O   UNL     1       8.188  41.212  18.499  1.00  0.00    -0.246 OA
ATOM     11  O   UNL     1       9.993  41.238  17.175  1.00  0.00    -0.423 OA
ENDROOT
BRANCH   1  12
ATOM     12  O   UNL     1      12.547  40.369  12.324  1.00  0.00    -0.493 OA
ATOM     13  C   UNL     1      12.569  39.134  11.614  1.00  0.00     0.278 C 
ENDBRANCH   1  12
BRANCH   2  14
ATOM     14  O   UNL     1      13.955  41.377  14.528  1.00  0.00    -0.504 OA
ATOM     15  H   UNL     1      14.621  41.123  15.248  1.00  0.00     0.293 HD
ENDBRANCH   2  14
TORSDOF 2
ENDMDL
MODEL 2
REMARK VINA RESULT:    -4.428      1.143      4.911
REMARK INTER + INTRA:          -4.871
REMARK INTER:                  -4.806
REMARK INTRA:                  -0.065
REMARK UNBOUND:                -0.054
REMARK SMILES COc1cc2ccc(=O)oc2cc1O
REMARK SMILES IDX 3 1 13 2 12 3 11 4 5 5 4 6 6 7 7 8 8 9 9 10 10 11 2 12 1 13
REMARK SMILES IDX 14 14
REMARK H PARENT 14 15
REMARK Flexibility Score: inf
ROOT
ATOM      1  C   UNL     1       8.087  40.542  16.464  1.00  0.00     0.161 A 
ATOM      2  C   UNL     1       8.959  41.044  17.450  1.00  0.00     0.161 A 
ATOM      3  C   UNL     1      10.302  41.294  17.144  1.00  0.00     0.098 A 
ATOM      4  C   UNL     1      10.791  41.049  15.858  1.00  0.00     0.142 A 
ATOM      5  C   UNL     1       9.925  40.546  14.864  1.00  0.00     0.022 A 
ATOM      6  C   UNL     1       8.580  40.295  15.167  1.00  0.00     0.062 A 
ATOM      7  C   UNL     1      10.445  40.312  13.586  1.00  0.00     0.019 A 
ATOM      8  C   UNL     1      11.790  40.578  13.334  1.00  0.00     0.094 A 
ATOM      9  C   UNL     1      12.588  41.075  14.369  1.00  0.00     0.336 A 
ATOM     10  O   UNL     1      13.805  41.322  14.162  1.00  0.00    -0.246 OA
ATOM     11  O   UNL     1      12.069  41.290  15.575  1.00  0.00    -0.423 OA
ENDROOT
BRANCH   1  12
ATOM     12  O   UNL     1       6.747  40.303  16.806  1.00  0.00    -0.493 OA
ATOM     13  C   UNL     1       6.207  39.020  17.109  1.00  0.00     0.278 C 
ENDBRANCH   1  12
BRANCH   2  14
ATOM     14  O   UNL     1       8.508  41.301  18.745  1.00  0.00    -0.504 OA
ATOM     15  H   UNL     1       9.012  40.986  19.565  1.00  0.00     0.293 HD
ENDBRANCH   2  14
TORSDOF 2
ENDMDL
MODEL 3
REMARK VINA RESULT:    -4.015     14.314     15.084
REMARK INTER + INTRA:          -4.421
REMARK INTER:                  -4.356
REMARK INTRA:                  -0.065
REMARK UNBOUND:                -0.054
REMARK SMILES COc1cc2ccc(=O)oc2cc1O
REMARK SMILES IDX 3 1 13 2 12 3 11 4 5 5 4 6 6 7 7 8 8 9 9 10 10 11 2 12 1 13
REMARK SMILES IDX 14 14
REMARK H PARENT 14 15
REMARK Flexibility Score: inf
ROOT
ATOM      1  C   UNL     1       9.836  34.151   0.760  1.00  0.00     0.161 A 
ATOM      2  C   UNL     1      10.806  35.163   0.897  1.00  0.00     0.161 A 
ATOM      3  C   UNL     1      10.417  36.489   1.117  1.00  0.00     0.098 A 
ATOM      4  C   UNL     1       9.064  36.823   1.202  1.00  0.00     0.142 A 
ATOM      5  C   UNL     1       8.084  35.818   1.066  1.00  0.00     0.022 A 
ATOM      6  C   UNL     1       8.470  34.488   0.846  1.00  0.00     0.062 A 
ATOM      7  C   UNL     1       6.737  36.184   1.156  1.00  0.00     0.019 A 
ATOM      8  C   UNL     1       6.404  37.520   1.376  1.00  0.00     0.094 A 
ATOM      9  C   UNL     1       7.429  38.462   1.501  1.00  0.00     0.336 A 
ATOM     10  O   UNL     1       7.150  39.674   1.700  1.00  0.00    -0.246 OA
ATOM     11  O   UNL     1       8.703  38.087   1.411  1.00  0.00    -0.423 OA
ENDROOT
BRANCH   1  12
ATOM     12  O   UNL     1      10.262  32.832   0.540  1.00  0.00    -0.493 OA
ATOM     13  C   UNL     1      10.376  31.839   1.556  1.00  0.00     0.278 C 
ENDBRANCH   1  12
BRANCH   2  14
ATOM     14  O   UNL     1      12.168  34.868   0.818  1.00  0.00    -0.504 OA
ATOM     15  H   UNL     1      12.857  35.563   0.555  1.00  0.00     0.293 HD
ENDBRANCH   2  14
TORSDOF 2
ENDMDL
MODEL 4
REMARK VINA RESULT:    -4.010      1.653      2.840
REMARK INTER + INTRA:          -4.416
REMARK INTER:                  -4.371
REMARK INTRA:                  -0.045
REMARK UNBOUND:                -0.054
REMARK SMILES COc1cc2ccc(=O)oc2cc1O
REMARK SMILES IDX 3 1 13 2 12 3 11 4 5 5 4 6 6 7 7 8 8 9 9 10 10 11 2 12 1 13
REMARK SMILES IDX 14 14
REMARK H PARENT 14 15
REMARK Flexibility Score: inf
ROOT
ATOM      1  C   UNL     1      11.905  41.087  15.433  1.00  0.00     0.161 A 
ATOM      2  C   UNL     1      11.306  40.568  14.268  1.00  0.00     0.161 A 
ATOM      3  C   UNL     1       9.946  40.236  14.262  1.00  0.00     0.098 A 
ATOM      4  C   UNL     1       9.170  40.416  15.409  1.00  0.00     0.142 A 
ATOM      5  C   UNL     1       9.760  40.935  16.580  1.00  0.00     0.022 A 
ATOM      6  C   UNL     1      11.121  41.269  16.590  1.00  0.00     0.062 A 
ATOM      7  C   UNL     1       8.956  41.104  17.712  1.00  0.00     0.019 A 
ATOM      8  C   UNL     1       7.607  40.757  17.653  1.00  0.00     0.094 A 
ATOM      9  C   UNL     1       7.091  40.248  16.457  1.00  0.00     0.336 A 
ATOM     10  O   UNL     1       5.875  39.929  16.382  1.00  0.00    -0.246 OA
ATOM     11  O   UNL     1       7.877  40.098  15.394  1.00  0.00    -0.423 OA
ENDROOT
BRANCH   1  12
ATOM     12  O   UNL     1      13.271  41.409  15.403  1.00  0.00    -0.493 OA
ATOM     13  C   UNL     1      14.125  41.415  16.544  1.00  0.00     0.278 C 
ENDBRANCH   1  12
BRANCH   2  14
ATOM     14  O   UNL     1      12.049  40.373  13.103  1.00  0.00    -0.504 OA
ATOM     15  H   UNL     1      13.028  40.623  13.039  1.00  0.00     0.293 HD
ENDBRANCH   2  14
TORSDOF 2
ENDMDL
MODEL 5
REMARK VINA RESULT:    -3.995      1.268      5.473
REMARK INTER + INTRA:          -4.400
REMARK INTER:                  -4.335
REMARK INTRA:                  -0.065
REMARK UNBOUND:                -0.054
REMARK SMILES COc1cc2ccc(=O)oc2cc1O
REMARK SMILES IDX 3 1 13 2 12 3 11 4 5 5 4 6 6 7 7 8 8 9 9 10 10 11 2 12 1 13
REMARK SMILES IDX 14 14
REMARK H PARENT 14 15
REMARK Flexibility Score: inf
ROOT
ATOM      1  C   UNL     1       8.669  40.812  17.190  1.00  0.00     0.161 A 
ATOM      2  C   UNL     1       8.014  40.453  15.995  1.00  0.00     0.161 A 
ATOM      3  C   UNL     1       8.733  40.350  14.799  1.00  0.00     0.098 A 
ATOM      4  C   UNL     1      10.107  40.602  14.777  1.00  0.00     0.142 A 
ATOM      5  C   UNL     1      10.772  40.962  15.968  1.00  0.00     0.022 A 
ATOM      6  C   UNL     1      10.055  41.065  17.168  1.00  0.00     0.062 A 
ATOM      7  C   UNL     1      12.148  41.208  15.913  1.00  0.00     0.019 A 
ATOM      8  C   UNL     1      12.817  41.092  14.695  1.00  0.00     0.094 A 
ATOM      9  C   UNL     1      12.092  40.731  13.556  1.00  0.00     0.336 A 
ATOM     10  O   UNL     1      12.677  40.620  12.447  1.00  0.00    -0.246 OA
ATOM     11  O   UNL     1      10.783  40.502  13.635  1.00  0.00    -0.423 OA
ENDROOT
BRANCH   1  12
ATOM     12  O   UNL     1       7.916  40.905  18.371  1.00  0.00    -0.493 OA
ATOM     13  C   UNL     1       7.433  42.125  18.927  1.00  0.00     0.278 C 
ENDBRANCH   1  12
BRANCH   2  14
ATOM     14  O   UNL     1       6.642  40.194  15.977  1.00  0.00    -0.504 OA
ATOM     15  H   UNL     1       6.267  39.288  15.723  1.00  0.00     0.293 HD
ENDBRANCH   2  14
TORSDOF 2
ENDMDL
MODEL 6
REMARK VINA RESULT:    -3.938     13.907     15.350
REMARK INTER + INTRA:          -4.338
REMARK INTER:                  -4.295
REMARK INTRA:                  -0.043
REMARK UNBOUND:                -0.054
REMARK SMILES COc1cc2ccc(=O)oc2cc1O
REMARK SMILES IDX 3 1 13 2 12 3 11 4 5 5 4 6 6 7 7 8 8 9 9 10 10 11 2 12 1 13
REMARK SMILES IDX 14 14
REMARK H PARENT 14 15
REMARK Flexibility Score: inf
ROOT
ATOM      1  C   UNL     1       7.177  40.782   1.291  1.00  0.00     0.161 A 
ATOM      2  C   UNL     1       8.274  40.800   0.407  1.00  0.00     0.161 A 
ATOM      3  C   UNL     1       8.796  39.604  -0.097  1.00  0.00     0.098 A 
ATOM      4  C   UNL     1       8.235  38.378   0.271  1.00  0.00     0.142 A 
ATOM      5  C   UNL     1       7.136  38.348   1.156  1.00  0.00     0.022 A 
ATOM      6  C   UNL     1       6.611  39.545   1.661  1.00  0.00     0.062 A 
ATOM      7  C   UNL     1       6.596  37.106   1.504  1.00  0.00     0.019 A 
ATOM      8  C   UNL     1       7.154  35.943   0.974  1.00  0.00     0.094 A 
ATOM      9  C   UNL     1       8.243  36.051   0.103  1.00  0.00     0.336 A 
ATOM     10  O   UNL     1       8.761  35.013  -0.387  1.00  0.00    -0.246 OA
ATOM     11  O   UNL     1       8.737  37.245  -0.213  1.00  0.00    -0.423 OA
ENDROOT
BRANCH   1  12
ATOM     12  O   UNL     1       6.680  42.001   1.777  1.00  0.00    -0.493 OA
ATOM     13  C   UNL     1       5.587  42.125   2.683  1.00  0.00     0.278 C 
ENDBRANCH   1  12
BRANCH   2  14
ATOM     14  O   UNL     1       8.862  42.005   0.017  1.00  0.00    -0.504 OA
ATOM     15  H   UNL     1       9.782  42.285   0.335  1.00  0.00     0.293 HD
ENDBRANCH   2  14
TORSDOF 2
ENDMDL
MODEL 7
REMARK VINA RESULT:    -3.848     18.199     19.771
REMARK INTER + INTRA:          -4.240
REMARK INTER:                  -4.197
REMARK INTRA:                  -0.043
REMARK UNBOUND:                -0.054
REMARK SMILES COc1cc2ccc(=O)oc2cc1O
REMARK SMILES IDX 3 1 13 2 12 3 11 4 5 5 4 6 6 7 7 8 8 9 9 10 10 11 2 12 1 13
REMARK SMILES IDX 14 14
REMARK H PARENT 14 15
REMARK Flexibility Score: inf
ROOT
ATOM      1  C   UNL     1       8.393  26.571   3.448  1.00  0.00     0.161 A 
ATOM      2  C   UNL     1       8.294  25.585   4.450  1.00  0.00     0.161 A 
ATOM      3  C   UNL     1       9.338  24.676   4.652  1.00  0.00     0.098 A 
ATOM      4  C   UNL     1      10.489  24.735   3.863  1.00  0.00     0.142 A 
ATOM      5  C   UNL     1      10.599  25.718   2.857  1.00  0.00     0.022 A 
ATOM      6  C   UNL     1       9.555  26.631   2.653  1.00  0.00     0.062 A 
ATOM      7  C   UNL     1      11.764  25.752   2.084  1.00  0.00     0.019 A 
ATOM      8  C   UNL     1      12.774  24.822   2.327  1.00  0.00     0.094 A 
ATOM      9  C   UNL     1      12.595  23.877   3.341  1.00  0.00     0.336 A 
ATOM     10  O   UNL     1      13.496  23.028   3.576  1.00  0.00    -0.246 OA
ATOM     11  O   UNL     1      11.477  23.866   4.062  1.00  0.00    -0.423 OA
ENDROOT
BRANCH   1  12
ATOM     12  O   UNL     1       7.327  27.466   3.274  1.00  0.00    -0.493 OA
ATOM     13  C   UNL     1       7.314  28.534   2.330  1.00  0.00     0.278 C 
ENDBRANCH   1  12
BRANCH   2  14
ATOM     14  O   UNL     1       7.159  25.494   5.258  1.00  0.00    -0.504 OA
ATOM     15  H   UNL     1       6.580  24.663   5.284  1.00  0.00     0.293 HD
ENDBRANCH   2  14
TORSDOF 2
ENDMDL
MODEL 8
REMARK VINA RESULT:    -3.727     16.426     18.255
REMARK INTER + INTRA:          -4.108
REMARK INTER:                  -4.046
REMARK INTRA:                  -0.062
REMARK UNBOUND:                -0.054
REMARK SMILES COc1cc2ccc(=O)oc2cc1O
REMARK SMILES IDX 3 1 13 2 12 3 11 4 5 5 4 6 6 7 7 8 8 9 9 10 10 11 2 12 1 13
REMARK SMILES IDX 14 14
REMARK H PARENT 14 15
REMARK Flexibility Score: inf
ROOT
ATOM      1  C   UNL     1       8.600  30.565   2.123  1.00  0.00     0.161 A 
ATOM      2  C   UNL     1       8.174  29.394   2.779  1.00  0.00     0.161 A 
ATOM      3  C   UNL     1       6.987  28.760   2.394  1.00  0.00     0.098 A 
ATOM      4  C   UNL     1       6.212  29.283   1.355  1.00  0.00     0.142 A 
ATOM      5  C   UNL     1       6.630  30.456   0.692  1.00  0.00     0.022 A 
ATOM      6  C   UNL     1       7.818  31.092   1.074  1.00  0.00     0.062 A 
ATOM      7  C   UNL     1       5.833  30.953  -0.344  1.00  0.00     0.019 A 
ATOM      8  C   UNL     1       4.659  30.284  -0.688  1.00  0.00     0.094 A 
ATOM      9  C   UNL     1       4.309  29.127   0.014  1.00  0.00     0.336 A 
ATOM     10  O   UNL     1       3.253  28.507  -0.281  1.00  0.00    -0.246 OA
ATOM     11  O   UNL     1       5.085  28.674   0.995  1.00  0.00    -0.423 OA
ENDROOT
BRANCH   1  12
ATOM     12  O   UNL     1       9.795  31.174   2.535  1.00  0.00    -0.493 OA
ATOM     13  C   UNL     1      11.068  30.939   1.941  1.00  0.00     0.278 C 
ENDBRANCH   1  12
BRANCH   2  14
ATOM     14  O   UNL     1       8.920  28.842   3.821  1.00  0.00    -0.504 OA
ATOM     15  H   UNL     1       9.450  29.413   4.468  1.00  0.00     0.293 HD
ENDBRANCH   2  14
TORSDOF 2
ENDMDL
MODEL 9
REMARK VINA RESULT:    -3.706     15.735     16.887
REMARK INTER + INTRA:          -4.086
REMARK INTER:                  -4.022
REMARK INTRA:                  -0.063
REMARK UNBOUND:                -0.054
REMARK SMILES COc1cc2ccc(=O)oc2cc1O
REMARK SMILES IDX 3 1 13 2 12 3 11 4 5 5 4 6 6 7 7 8 8 9 9 10 10 11 2 12 1 13
REMARK SMILES IDX 14 14
REMARK H PARENT 14 15
REMARK Flexibility Score: inf
ROOT
ATOM      1  C   UNL     1       9.096  32.626   0.909  1.00  0.00     0.161 A 
ATOM      2  C   UNL     1      10.255  32.141   1.547  1.00  0.00     0.161 A 
ATOM      3  C   UNL     1      10.235  30.906   2.204  1.00  0.00     0.098 A 
ATOM      4  C   UNL     1       9.067  30.140   2.235  1.00  0.00     0.142 A 
ATOM      5  C   UNL     1       7.901  30.616   1.599  1.00  0.00     0.022 A 
ATOM      6  C   UNL     1       7.917  31.853   0.939  1.00  0.00     0.062 A 
ATOM      7  C   UNL     1       6.747  29.827   1.647  1.00  0.00     0.019 A 
ATOM      8  C   UNL     1       6.781  28.604   2.316  1.00  0.00     0.094 A 
ATOM      9  C   UNL     1       7.974  28.197   2.922  1.00  0.00     0.336 A 
ATOM     10  O   UNL     1       8.026  27.096   3.531  1.00  0.00    -0.246 OA
ATOM     11  O   UNL     1       9.057  28.967   2.862  1.00  0.00    -0.423 OA
ENDROOT
BRANCH   1  12
ATOM     12  O   UNL     1       9.152  33.869   0.260  1.00  0.00    -0.493 OA
ATOM     13  C   UNL     1       8.752  35.105   0.844  1.00  0.00     0.278 C 
ENDBRANCH   1  12
BRANCH   2  14
ATOM     14  O   UNL     1      11.441  32.877   1.539  1.00  0.00    -0.504 OA
ATOM     15  H   UNL     1      12.343  32.449   1.707  1.00  0.00     0.293 HD
ENDBRANCH   2  14
TORSDOF 2
ENDMDL
