MODEL 1
REMARK VINA RESULT:    -4.907      0.000      0.000
REMARK INTER + INTRA:          -5.051
REMARK INTER:                  -5.051
REMARK INTRA:                   0.000
REMARK UNBOUND:                 0.000
REMARK SMILES Nc1ncnc2nc[nH]c12
REMARK SMILES IDX 8 1 7 2 6 3 5 4 4 5 3 6 2 7 10 8 9 9 1 11
REMARK H PARENT 9 10 1 12 1 13
REMARK Flexibility Score: inf
ROOT
ATOM      1  C   UNL     1      21.090  50.158  -3.464  1.00  0.00     0.199 A 
ATOM      2  N   UNL     1      22.016  50.529  -2.537  1.00  0.00    -0.217 NA
ATOM      3  C   UNL     1      22.100  49.433  -1.765  1.00  0.00     0.182 A 
ATOM      4  N   UNL     1      22.893  49.269  -0.679  1.00  0.00    -0.215 NA
ATOM      5  C   UNL     1      22.840  48.074  -0.016  1.00  0.00     0.226 A 
ATOM      6  N   UNL     1      22.004  47.076  -0.446  1.00  0.00    -0.217 NA
ATOM      7  C   UNL     1      21.204  47.239  -1.542  1.00  0.00     0.152 A 
ATOM      8  C   UNL     1      21.270  48.461  -2.206  1.00  0.00     0.127 A 
ATOM      9  N   UNL     1      20.615  48.900  -3.288  1.00  0.00    -0.340 N 
ATOM     10  H   UNL     1      19.905  48.401  -3.868  1.00  0.00     0.168 HD
ENDROOT
BRANCH   7  11
ATOM     11  N   UNL     1      20.342  46.185  -1.972  1.00  0.00    -0.382 N 
ATOM     12  H   UNL     1      20.510  45.195  -1.688  1.00  0.00     0.158 HD
ATOM     13  H   UNL     1      19.523  46.397  -2.585  1.00  0.00     0.158 HD
ENDBRANCH   7  11
TORSDOF 1
ENDMDL
MODEL 2
REMARK VINA RESULT:    -4.481      1.276      2.981
REMARK INTER + INTRA:          -4.612
REMARK INTER:                  -4.612
REMARK INTRA:                   0.000
REMARK UNBOUND:                 0.000
REMARK SMILES Nc1ncnc2nc[nH]c12
REMARK SMILES IDX 8 1 7 2 6 3 5 4 4 5 3 6 2 7 10 8 9 9 1 11
REMARK H PARENT 9 10 1 12 1 13
REMARK Flexibility Score: inf
ROOT
ATOM      1  C   UNL     1      23.679  50.304   0.099  1.00  0.00     0.199 A 
ATOM      2  N   UNL     1      23.771  48.963   0.313  1.00  0.00    -0.217 NA
ATOM      3  C   UNL     1      22.767  48.485  -0.441  1.00  0.00     0.182 A 
ATOM      4  N   UNL     1      22.414  47.185  -0.587  1.00  0.00    -0.215 NA
ATOM      5  C   UNL     1      21.358  46.891  -1.404  1.00  0.00     0.226 A 
ATOM      6  N   UNL     1      20.680  47.892  -2.053  1.00  0.00    -0.217 NA
ATOM      7  C   UNL     1      21.034  49.204  -1.906  1.00  0.00     0.152 A 
ATOM      8  C   UNL     1      22.112  49.487  -1.072  1.00  0.00     0.127 A 
ATOM      9  N   UNL     1      22.676  50.655  -0.744  1.00  0.00    -0.340 N 
ATOM     10  H   UNL     1      22.414  51.617  -1.055  1.00  0.00     0.168 HD
ENDROOT
BRANCH   7  11
ATOM     11  N   UNL     1      20.314  50.229  -2.593  1.00  0.00    -0.382 N 
ATOM     12  H   UNL     1      20.593  50.543  -3.547  1.00  0.00     0.158 HD
ATOM     13  H   UNL     1      19.489  50.681  -2.138  1.00  0.00     0.158 HD
ENDBRANCH   7  11
TORSDOF 1
ENDMDL
MODEL 3
REMARK VINA RESULT:    -4.467      1.294      1.679
REMARK INTER + INTRA:          -4.597
REMARK INTER:                  -4.597
REMARK INTRA:                   0.000
REMARK UNBOUND:                 0.000
REMARK SMILES Nc1ncnc2nc[nH]c12
REMARK SMILES IDX 8 1 7 2 6 3 5 4 4 5 3 6 2 7 10 8 9 9 1 11
REMARK H PARENT 9 10 1 12 1 13
REMARK Flexibility Score: inf
ROOT
ATOM      1  C   UNL     1      20.637  50.725  -4.727  1.00  0.00     0.199 A 
ATOM      2  N   UNL     1      21.593  51.451  -4.085  1.00  0.00    -0.217 NA
ATOM      3  C   UNL     1      21.917  50.650  -3.057  1.00  0.00     0.182 A 
ATOM      4  N   UNL     1      22.836  50.902  -2.094  1.00  0.00    -0.215 NA
ATOM      5  C   UNL     1      23.027  49.959  -1.122  1.00  0.00     0.226 A 
ATOM      6  N   UNL     1      22.303  48.794  -1.130  1.00  0.00    -0.217 NA
ATOM      7  C   UNL     1      21.376  48.538  -2.100  1.00  0.00     0.152 A 
ATOM      8  C   UNL     1      21.193  49.507  -3.083  1.00  0.00     0.127 A 
ATOM      9  N   UNL     1      20.370  49.532  -4.139  1.00  0.00    -0.340 N 
ATOM     10  H   UNL     1      19.682  48.811  -4.447  1.00  0.00     0.168 HD
ENDROOT
BRANCH   7  11
ATOM     11  N   UNL     1      20.634  47.317  -2.089  1.00  0.00    -0.382 N 
ATOM     12  H   UNL     1      19.672  47.269  -1.688  1.00  0.00     0.158 HD
ATOM     13  H   UNL     1      21.054  46.447  -2.487  1.00  0.00     0.158 HD
ENDBRANCH   7  11
TORSDOF 1
ENDMDL
MODEL 4
REMARK VINA RESULT:    -4.417      1.720      3.645
REMARK INTER + INTRA:          -4.546
REMARK INTER:                  -4.546
REMARK INTRA:                   0.000
REMARK UNBOUND:                 0.000
REMARK SMILES Nc1ncnc2nc[nH]c12
REMARK SMILES IDX 8 1 7 2 6 3 5 4 4 5 3 6 2 7 10 8 9 9 1 11
REMARK H PARENT 9 10 1 12 1 13
REMARK Flexibility Score: inf
ROOT
ATOM      1  C   UNL     1      21.404  48.760  -0.894  1.00  0.00     0.199 A 
ATOM      2  N   UNL     1      22.657  49.291  -0.886  1.00  0.00    -0.217 NA
ATOM      3  C   UNL     1      22.602  50.166  -1.903  1.00  0.00     0.182 A 
ATOM      4  N   UNL     1      23.603  50.973  -2.330  1.00  0.00    -0.215 NA
ATOM      5  C   UNL     1      23.356  51.803  -3.388  1.00  0.00     0.226 A 
ATOM      6  N   UNL     1      22.126  51.811  -3.995  1.00  0.00    -0.217 NA
ATOM      7  C   UNL     1      21.115  50.997  -3.566  1.00  0.00     0.152 A 
ATOM      8  C   UNL     1      21.382  50.159  -2.487  1.00  0.00     0.127 A 
ATOM      9  N   UNL     1      20.601  49.270  -1.861  1.00  0.00    -0.340 N 
ATOM     10  H   UNL     1      19.607  49.019  -2.060  1.00  0.00     0.168 HD
ENDROOT
BRANCH   7  11
ATOM     11  N   UNL     1      19.841  51.022  -4.213  1.00  0.00    -0.382 N 
ATOM     12  H   UNL     1      19.178  51.816  -4.077  1.00  0.00     0.158 HD
ATOM     13  H   UNL     1      19.557  50.234  -4.837  1.00  0.00     0.158 HD
ENDBRANCH   7  11
TORSDOF 1
ENDMDL
MODEL 5
REMARK VINA RESULT:    -4.412      0.841      2.982
REMARK INTER + INTRA:          -4.541
REMARK INTER:                  -4.541
REMARK INTRA:                   0.000
REMARK UNBOUND:                 0.000
REMARK SMILES Nc1ncnc2nc[nH]c12
REMARK SMILES IDX 8 1 7 2 6 3 5 4 4 5 3 6 2 7 10 8 9 9 1 11
REMARK H PARENT 9 10 1 12 1 13
REMARK Flexibility Score: inf
ROOT
ATOM      1  C   UNL     1      21.003  46.094  -0.868  1.00  0.00     0.199 A 
ATOM      2  N   UNL     1      21.945  46.699  -0.094  1.00  0.00    -0.217 NA
ATOM      3  C   UNL     1      22.107  47.880  -0.713  1.00  0.00     0.182 A 
ATOM      4  N   UNL     1      22.946  48.878  -0.343  1.00  0.00    -0.215 NA
ATOM      5  C   UNL     1      22.971  50.014  -1.104  1.00  0.00     0.226 A 
ATOM      6  N   UNL     1      22.167  50.131  -2.209  1.00  0.00    -0.217 NA
ATOM      7  C   UNL     1      21.321  49.125  -2.583  1.00  0.00     0.152 A 
ATOM      8  C   UNL     1      21.305  47.975  -1.798  1.00  0.00     0.127 A 
ATOM      9  N   UNL     1      20.592  46.849  -1.918  1.00  0.00    -0.340 N 
ATOM     10  H   UNL     1      19.885  46.599  -2.643  1.00  0.00     0.168 HD
ENDROOT
BRANCH   7  11
ATOM     11  N   UNL     1      20.492  49.269  -3.738  1.00  0.00    -0.382 N 
ATOM     12  H   UNL     1      20.841  49.737  -4.603  1.00  0.00     0.158 HD
ATOM     13  H   UNL     1      19.513  48.903  -3.727  1.00  0.00     0.158 HD
ENDBRANCH   7  11
TORSDOF 1
ENDMDL
MODEL 6
REMARK VINA RESULT:    -4.002      2.161      3.123
REMARK INTER + INTRA:          -4.119
REMARK INTER:                  -4.119
REMARK INTRA:                   0.000
REMARK UNBOUND:                 0.000
REMARK SMILES Nc1ncnc2nc[nH]c12
REMARK SMILES IDX 8 1 7 2 6 3 5 4 4 5 3 6 2 7 10 8 9 9 1 11
REMARK H PARENT 9 10 1 12 1 13
REMARK Flexibility Score: inf
ROOT
ATOM      1  C   UNL     1      20.630  47.017  -1.664  1.00  0.00     0.199 A 
ATOM      2  N   UNL     1      21.517  47.922  -1.169  1.00  0.00    -0.217 NA
ATOM      3  C   UNL     1      22.293  47.158  -0.382  1.00  0.00     0.182 A 
ATOM      4  N   UNL     1      23.349  47.573   0.359  1.00  0.00    -0.215 NA
ATOM      5  C   UNL     1      24.021  46.642   1.102  1.00  0.00     0.226 A 
ATOM      6  N   UNL     1      23.629  45.328   1.092  1.00  0.00    -0.217 NA
ATOM      7  C   UNL     1      22.564  44.908   0.346  1.00  0.00     0.152 A 
ATOM      8  C   UNL     1      21.890  45.867  -0.406  1.00  0.00     0.127 A 
ATOM      9  N   UNL     1      20.832  45.752  -1.217  1.00  0.00    -0.340 N 
ATOM     10  H   UNL     1      20.282  44.897  -1.456  1.00  0.00     0.168 HD
ENDROOT
BRANCH   7  11
ATOM     11  N   UNL     1      22.173  43.534   0.350  1.00  0.00    -0.382 N 
ATOM     12  H   UNL     1      21.175  43.252   0.244  1.00  0.00     0.158 HD
ATOM     13  H   UNL     1      22.895  42.786   0.462  1.00  0.00     0.158 HD
ENDBRANCH   7  11
TORSDOF 1
ENDMDL
MODEL 7
REMARK VINA RESULT:    -3.893      3.326      3.861
REMARK INTER + INTRA:          -4.006
REMARK INTER:                  -4.006
REMARK INTRA:                   0.000
REMARK UNBOUND:                 0.000
REMARK SMILES Nc1ncnc2nc[nH]c12
REMARK SMILES IDX 8 1 7 2 6 3 5 4 4 5 3 6 2 7 10 8 9 9 1 11
REMARK H PARENT 9 10 1 12 1 13
REMARK Flexibility Score: inf
ROOT
ATOM      1  C   UNL     1      24.713  47.659   0.771  1.00  0.00     0.199 A 
ATOM      2  N   UNL     1      23.716  48.516   1.123  1.00  0.00    -0.217 NA
ATOM      3  C   UNL     1      22.616  47.772   0.923  1.00  0.00     0.182 A 
ATOM      4  N   UNL     1      21.333  48.155   1.125  1.00  0.00    -0.215 NA
ATOM      5  C   UNL     1      20.340  47.251   0.864  1.00  0.00     0.226 A 
ATOM      6  N   UNL     1      20.646  45.994   0.410  1.00  0.00    -0.217 NA
ATOM      7  C   UNL     1      21.940  45.605   0.205  1.00  0.00     0.152 A 
ATOM      8  C   UNL     1      22.939  46.536   0.476  1.00  0.00     0.127 A 
ATOM      9  N   UNL     1      24.270  46.440   0.371  1.00  0.00    -0.340 N 
ATOM     10  H   UNL     1      24.843  45.627   0.058  1.00  0.00     0.168 HD
ENDROOT
BRANCH   7  11
ATOM     11  N   UNL     1      22.234  44.290  -0.267  1.00  0.00    -0.382 N 
ATOM     12  H   UNL     1      21.599  43.795  -0.931  1.00  0.00     0.158 HD
ATOM     13  H   UNL     1      23.102  43.802   0.052  1.00  0.00     0.158 HD
ENDBRANCH   7  11
TORSDOF 1
ENDMDL
MODEL 8
REMARK VINA RESULT:    -3.819      1.544      3.071
REMARK INTER + INTRA:          -3.930
REMARK INTER:                  -3.930
REMARK INTRA:                   0.000
REMARK UNBOUND:                 0.000
REMARK SMILES Nc1ncnc2nc[nH]c12
REMARK SMILES IDX 8 1 7 2 6 3 5 4 4 5 3 6 2 7 10 8 9 9 1 11
REMARK H PARENT 9 10 1 12 1 13
REMARK Flexibility Score: inf
ROOT
ATOM      1  C   UNL     1      21.833  51.690  -4.088  1.00  0.00     0.199 A 
ATOM      2  N   UNL     1      21.033  50.592  -4.007  1.00  0.00    -0.217 NA
ATOM      3  C   UNL     1      21.469  50.004  -2.881  1.00  0.00     0.182 A 
ATOM      4  N   UNL     1      21.000  48.856  -2.335  1.00  0.00    -0.215 NA
ATOM      5  C   UNL     1      21.574  48.411  -1.177  1.00  0.00     0.226 A 
ATOM      6  N   UNL     1      22.596  49.114  -0.591  1.00  0.00    -0.217 NA
ATOM      7  C   UNL     1      23.070  50.272  -1.140  1.00  0.00     0.152 A 
ATOM      8  C   UNL     1      22.475  50.713  -2.319  1.00  0.00     0.127 A 
ATOM      9  N   UNL     1      22.725  51.792  -3.071  1.00  0.00    -0.340 N 
ATOM     10  H   UNL     1      23.435  52.542  -2.920  1.00  0.00     0.168 HD
ENDROOT
BRANCH   7  11
ATOM     11  N   UNL     1      24.135  50.989  -0.512  1.00  0.00    -0.382 N 
ATOM     12  H   UNL     1      24.444  50.762   0.458  1.00  0.00     0.158 HD
ATOM     13  H   UNL     1      24.621  51.758  -1.026  1.00  0.00     0.158 HD
ENDBRANCH   7  11
TORSDOF 1
ENDMDL
