MODEL 1
REMARK VINA RESULT:    -4.036      0.000      0.000
REMARK INTER + INTRA:          -4.272
REMARK INTER:                  -4.272
REMARK INTRA:                   0.000
REMARK UNBOUND:                 0.000
REMARK SMILES Cc1cc(O)c(C)c(C)c1O
REMARK SMILES IDX 1 1 2 2 3 3 4 4 6 5 8 6 10 7 9 8 7 9 11 10 5 12
REMARK H PARENT 11 11 5 13
REMARK Flexibility Score: inf
ROOT
ATOM      1  C   UNL     1     128.307 141.219 106.137  1.00  0.00     0.048 C 
ATOM      2  C   UNL     1     127.902 142.560 106.686  1.00  0.00    -0.005 A 
ATOM      3  C   UNL     1     127.749 142.732 108.064  1.00  0.00     0.053 A 
ATOM      4  C   UNL     1     127.410 143.973 108.599  1.00  0.00     0.119 A 
ATOM      5  C   UNL     1     127.230 145.089 107.746  1.00  0.00    -0.003 A 
ATOM      6  C   UNL     1     127.260 144.894 106.336  1.00  0.00    -0.002 A 
ATOM      7  C   UNL     1     127.669 143.638 105.818  1.00  0.00     0.121 A 
ATOM      8  C   UNL     1     126.876 146.007 105.386  1.00  0.00     0.049 C 
ATOM      9  C   UNL     1     126.993 146.459 108.342  1.00  0.00     0.049 C 
ENDROOT
BRANCH   7  10
ATOM     10  O   UNL     1     127.863 143.436 104.446  1.00  0.00    -0.507 OA
ATOM     11  H   UNL     1     127.325 142.783 103.892  1.00  0.00     0.293 HD
ENDBRANCH   7  10
BRANCH   4  12
ATOM     12  O   UNL     1     127.248 144.058 109.985  1.00  0.00    -0.508 OA
ATOM     13  H   UNL     1     127.762 143.488 110.645  1.00  0.00     0.293 HD
ENDBRANCH   4  12
TORSDOF 2
ENDMDL
MODEL 2
REMARK VINA RESULT:    -3.989      1.872      3.877
REMARK INTER + INTRA:          -4.222
REMARK INTER:                  -4.222
REMARK INTRA:                   0.000
REMARK UNBOUND:                 0.000
REMARK SMILES Cc1cc(O)c(C)c(C)c1O
REMARK SMILES IDX 1 1 2 2 3 3 4 4 6 5 8 6 10 7 9 8 7 9 11 10 5 12
REMARK H PARENT 11 11 5 13
REMARK Flexibility Score: inf
ROOT
ATOM      1  C   UNL     1     127.931 143.591 111.223  1.00  0.00     0.048 C 
ATOM      2  C   UNL     1     127.751 143.544 109.730  1.00  0.00    -0.005 A 
ATOM      3  C   UNL     1     127.595 144.731 109.009  1.00  0.00     0.053 A 
ATOM      4  C   UNL     1     127.462 144.716 107.622  1.00  0.00     0.119 A 
ATOM      5  C   UNL     1     127.502 143.488 106.919  1.00  0.00    -0.003 A 
ATOM      6  C   UNL     1     127.534 142.269 107.655  1.00  0.00    -0.002 A 
ATOM      7  C   UNL     1     127.732 142.312 109.059  1.00  0.00     0.121 A 
ATOM      8  C   UNL     1     127.375 140.934 106.961  1.00  0.00     0.049 C 
ATOM      9  C   UNL     1     127.490 143.489 105.406  1.00  0.00     0.049 C 
ENDROOT
BRANCH   7  10
ATOM     10  O   UNL     1     127.924 141.147 109.811  1.00  0.00    -0.507 OA
ATOM     11  H   UNL     1     127.226 140.422 109.912  1.00  0.00     0.293 HD
ENDBRANCH   7  10
BRANCH   4  12
ATOM     12  O   UNL     1     127.282 145.942 106.977  1.00  0.00    -0.508 OA
ATOM     13  H   UNL     1     126.508 146.141 106.355  1.00  0.00     0.293 HD
ENDBRANCH   4  12
TORSDOF 2
ENDMDL
MODEL 3
REMARK VINA RESULT:    -3.807      1.794      2.821
REMARK INTER + INTRA:          -4.030
REMARK INTER:                  -4.030
REMARK INTRA:                   0.000
REMARK UNBOUND:                 0.000
REMARK SMILES Cc1cc(O)c(C)c(C)c1O
REMARK SMILES IDX 1 1 2 2 3 3 4 4 6 5 8 6 10 7 9 8 7 9 11 10 5 12
REMARK H PARENT 11 11 5 13
REMARK Flexibility Score: inf
ROOT
ATOM      1  C   UNL     1     127.639 143.757 104.761  1.00  0.00     0.048 C 
ATOM      2  C   UNL     1     127.610 143.557 106.252  1.00  0.00    -0.005 A 
ATOM      3  C   UNL     1     127.664 142.265 106.783  1.00  0.00     0.053 A 
ATOM      4  C   UNL     1     127.674 142.056 108.162  1.00  0.00     0.119 A 
ATOM      5  C   UNL     1     127.648 143.161 109.047  1.00  0.00    -0.003 A 
ATOM      6  C   UNL     1     127.466 144.469 108.517  1.00  0.00    -0.002 A 
ATOM      7  C   UNL     1     127.522 144.662 107.112  1.00  0.00     0.121 A 
ATOM      8  C   UNL     1     127.230 145.654 109.427  1.00  0.00     0.049 C 
ATOM      9  C   UNL     1     127.793 142.932 110.535  1.00  0.00     0.049 C 
ENDROOT
BRANCH   7  10
ATOM     10  O   UNL     1     127.502 145.942 106.544  1.00  0.00    -0.507 OA
ATOM     11  H   UNL     1     128.236 146.625 106.671  1.00  0.00     0.293 HD
ENDBRANCH   7  10
BRANCH   4  12
ATOM     12  O   UNL     1     127.701 140.734 108.614  1.00  0.00    -0.508 OA
ATOM     13  H   UNL     1     127.898 140.473 109.572  1.00  0.00     0.293 HD
ENDBRANCH   4  12
TORSDOF 2
ENDMDL
MODEL 4
REMARK VINA RESULT:    -3.799      1.433      3.246
REMARK INTER + INTRA:          -4.021
REMARK INTER:                  -4.021
REMARK INTRA:                   0.000
REMARK UNBOUND:                 0.000
REMARK SMILES Cc1cc(O)c(C)c(C)c1O
REMARK SMILES IDX 1 1 2 2 3 3 4 4 6 5 8 6 10 7 9 8 7 9 11 10 5 12
REMARK H PARENT 11 11 5 13
REMARK Flexibility Score: inf
ROOT
ATOM      1  C   UNL     1     127.592 146.372 108.746  1.00  0.00     0.048 C 
ATOM      2  C   UNL     1     127.609 144.996 108.137  1.00  0.00    -0.005 A 
ATOM      3  C   UNL     1     127.611 143.869 108.962  1.00  0.00     0.053 A 
ATOM      4  C   UNL     1     127.591 142.584 108.423  1.00  0.00     0.119 A 
ATOM      5  C   UNL     1     127.551 142.405 107.018  1.00  0.00    -0.003 A 
ATOM      6  C   UNL     1     127.676 143.543 106.171  1.00  0.00    -0.002 A 
ATOM      7  C   UNL     1     127.631 144.841 106.742  1.00  0.00     0.121 A 
ATOM      8  C   UNL     1     127.840 143.387 104.676  1.00  0.00     0.049 C 
ATOM      9  C   UNL     1     127.395 141.014 106.444  1.00  0.00     0.049 C 
ENDROOT
BRANCH   7  10
ATOM     10  O   UNL     1     127.596 145.993 105.948  1.00  0.00    -0.507 OA
ATOM     11  H   UNL     1     127.776 146.924 106.299  1.00  0.00     0.293 HD
ENDBRANCH   7  10
BRANCH   4  12
ATOM     12  O   UNL     1     127.623 141.508 109.313  1.00  0.00    -0.508 OA
ATOM     13  H   UNL     1     127.902 140.571 109.052  1.00  0.00     0.293 HD
ENDBRANCH   4  12
TORSDOF 2
ENDMDL
MODEL 5
REMARK VINA RESULT:    -3.746     14.904     15.438
REMARK INTER + INTRA:          -3.964
REMARK INTER:                  -3.964
REMARK INTRA:                   0.000
REMARK UNBOUND:                 0.000
REMARK SMILES Cc1cc(O)c(C)c(C)c1O
REMARK SMILES IDX 1 1 2 2 3 3 4 4 6 5 8 6 10 7 9 8 7 9 11 10 5 12
REMARK H PARENT 11 11 5 13
REMARK Flexibility Score: inf
ROOT
ATOM      1  C   UNL     1     143.194 140.916 104.772  1.00  0.00     0.048 C 
ATOM      2  C   UNL     1     143.078 142.344 105.232  1.00  0.00    -0.005 A 
ATOM      3  C   UNL     1     144.193 143.000 105.759  1.00  0.00     0.053 A 
ATOM      4  C   UNL     1     144.120 144.333 106.159  1.00  0.00     0.119 A 
ATOM      5  C   UNL     1     142.907 145.050 106.018  1.00  0.00    -0.003 A 
ATOM      6  C   UNL     1     141.737 144.356 105.601  1.00  0.00    -0.002 A 
ATOM      7  C   UNL     1     141.850 143.019 105.140  1.00  0.00     0.121 A 
ATOM      8  C   UNL     1     140.381 145.026 105.627  1.00  0.00     0.049 C 
ATOM      9  C   UNL     1     142.871 146.530 106.329  1.00  0.00     0.049 C 
ENDROOT
BRANCH   7  10
ATOM     10  O   UNL     1     140.764 142.340 104.577  1.00  0.00    -0.507 OA
ATOM     11  H   UNL     1     140.738 142.016 103.619  1.00  0.00     0.293 HD
ENDBRANCH   7  10
BRANCH   4  12
ATOM     12  O   UNL     1     145.271 144.909 106.703  1.00  0.00    -0.508 OA
ATOM     13  H   UNL     1     145.459 145.903 106.695  1.00  0.00     0.293 HD
ENDBRANCH   4  12
TORSDOF 2
ENDMDL
MODEL 6
REMARK VINA RESULT:    -3.692     16.280     16.726
REMARK INTER + INTRA:          -3.908
REMARK INTER:                  -3.908
REMARK INTRA:                   0.000
REMARK UNBOUND:                 0.000
REMARK SMILES Cc1cc(O)c(C)c(C)c1O
REMARK SMILES IDX 1 1 2 2 3 3 4 4 6 5 8 6 10 7 9 8 7 9 11 10 5 12
REMARK H PARENT 11 11 5 13
REMARK Flexibility Score: inf
ROOT
ATOM      1  C   UNL     1     143.109 145.804 111.132  1.00  0.00     0.048 C 
ATOM      2  C   UNL     1     143.527 145.342 109.762  1.00  0.00    -0.005 A 
ATOM      3  C   UNL     1     144.431 144.284 109.629  1.00  0.00     0.053 A 
ATOM      4  C   UNL     1     144.806 143.814 108.372  1.00  0.00     0.119 A 
ATOM      5  C   UNL     1     144.256 144.397 107.204  1.00  0.00    -0.003 A 
ATOM      6  C   UNL     1     143.434 145.553 107.328  1.00  0.00    -0.002 A 
ATOM      7  C   UNL     1     143.017 145.973 108.617  1.00  0.00     0.121 A 
ATOM      8  C   UNL     1     142.990 146.328 106.107  1.00  0.00     0.049 C 
ATOM      9  C   UNL     1     144.564 143.796 105.850  1.00  0.00     0.049 C 
ENDROOT
BRANCH   7  10
ATOM     10  O   UNL     1     142.090 147.007 108.789  1.00  0.00    -0.507 OA
ATOM     11  H   UNL     1     141.477 147.085 109.590  1.00  0.00     0.293 HD
ENDBRANCH   7  10
BRANCH   4  12
ATOM     12  O   UNL     1     145.735 142.773 108.322  1.00  0.00    -0.508 OA
ATOM     13  H   UNL     1     146.726 142.896 108.488  1.00  0.00     0.293 HD
ENDBRANCH   4  12
TORSDOF 2
ENDMDL
MODEL 7
REMARK VINA RESULT:    -3.667     14.797     15.358
REMARK INTER + INTRA:          -3.881
REMARK INTER:                  -3.881
REMARK INTRA:                   0.000
REMARK UNBOUND:                 0.000
REMARK SMILES Cc1cc(O)c(C)c(C)c1O
REMARK SMILES IDX 1 1 2 2 3 3 4 4 6 5 8 6 10 7 9 8 7 9 11 10 5 12
REMARK H PARENT 11 11 5 13
REMARK Flexibility Score: inf
ROOT
ATOM      1  C   UNL     1     144.864 142.138 105.932  1.00  0.00     0.048 C 
ATOM      2  C   UNL     1     143.682 143.063 105.831  1.00  0.00    -0.005 A 
ATOM      3  C   UNL     1     142.443 142.569 105.412  1.00  0.00     0.053 A 
ATOM      4  C   UNL     1     141.325 143.399 105.344  1.00  0.00     0.119 A 
ATOM      5  C   UNL     1     141.429 144.761 105.719  1.00  0.00    -0.003 A 
ATOM      6  C   UNL     1     142.711 145.299 106.025  1.00  0.00    -0.002 A 
ATOM      7  C   UNL     1     143.820 144.423 106.148  1.00  0.00     0.121 A 
ATOM      8  C   UNL     1     142.903 146.785 106.234  1.00  0.00     0.049 C 
ATOM      9  C   UNL     1     140.185 145.621 105.770  1.00  0.00     0.049 C 
ENDROOT
BRANCH   7  10
ATOM     10  O   UNL     1     145.068 144.874 106.594  1.00  0.00    -0.507 OA
ATOM     11  H   UNL     1     145.198 145.440 107.422  1.00  0.00     0.293 HD
ENDBRANCH   7  10
BRANCH   4  12
ATOM     12  O   UNL     1     140.130 142.837 104.889  1.00  0.00    -0.508 OA
ATOM     13  H   UNL     1     140.075 141.949 104.407  1.00  0.00     0.293 HD
ENDBRANCH   4  12
TORSDOF 2
ENDMDL
MODEL 8
REMARK VINA RESULT:    -3.651      2.372      3.334
REMARK INTER + INTRA:          -3.864
REMARK INTER:                  -3.864
REMARK INTRA:                   0.000
REMARK UNBOUND:                 0.000
REMARK SMILES Cc1cc(O)c(C)c(C)c1O
REMARK SMILES IDX 1 1 2 2 3 3 4 4 6 5 8 6 10 7 9 8 7 9 11 10 5 12
REMARK H PARENT 11 11 5 13
REMARK Flexibility Score: inf
ROOT
ATOM      1  C   UNL     1     127.237 145.712 105.477  1.00  0.00     0.048 C 
ATOM      2  C   UNL     1     127.902 145.531 106.814  1.00  0.00    -0.005 A 
ATOM      3  C   UNL     1     127.126 145.305 107.954  1.00  0.00     0.053 A 
ATOM      4  C   UNL     1     127.720 145.098 109.198  1.00  0.00     0.119 A 
ATOM      5  C   UNL     1     129.131 145.097 109.318  1.00  0.00    -0.003 A 
ATOM      6  C   UNL     1     129.923 145.450 108.189  1.00  0.00    -0.002 A 
ATOM      7  C   UNL     1     129.300 145.594 106.923  1.00  0.00     0.121 A 
ATOM      8  C   UNL     1     131.416 145.659 108.318  1.00  0.00     0.049 C 
ATOM      9  C   UNL     1     129.769 144.741 110.643  1.00  0.00     0.049 C 
ENDROOT
BRANCH   7  10
ATOM     10  O   UNL     1     130.045 145.790 105.754  1.00  0.00    -0.507 OA
ATOM     11  H   UNL     1     130.771 145.161 105.438  1.00  0.00     0.293 HD
ENDBRANCH   7  10
BRANCH   4  12
ATOM     12  O   UNL     1     126.875 144.907 110.294  1.00  0.00    -0.508 OA
ATOM     13  H   UNL     1     127.086 145.233 111.229  1.00  0.00     0.293 HD
ENDBRANCH   4  12
TORSDOF 2
ENDMDL
