MODEL 1
REMARK VINA RESULT:    -3.971      0.000      0.000
REMARK INTER + INTRA:          -6.641
REMARK INTER:                  -6.060
REMARK INTRA:                  -0.580
REMARK UNBOUND:                -0.580
REMARK SMILES CCCCCCCCCCC(=O)[O-]
REMARK SMILES IDX 7 1 8 2 9 3 10 4 11 5 12 6 13 7 6 8 5 9 4 10 3 11 2 12 1 13
REMARK H PARENT
REMARK Flexibility Score: inf
ROOT
ATOM      1  C   UNL     1     -29.907 -20.755 -33.890  1.00  0.00     0.000 C 
ENDROOT
BRANCH   1   2
ATOM      2  C   UNL     1     -29.248 -19.782 -32.895  1.00  0.00     0.000 C 
BRANCH   2   3
ATOM      3  C   UNL     1     -30.225 -18.875 -32.119  1.00  0.00     0.006 C 
BRANCH   3   4
ATOM      4  C   UNL     1     -30.053 -18.908 -30.593  1.00  0.00     0.053 C 
BRANCH   4   5
ATOM      5  C   UNL     1     -31.066 -19.792 -29.932  1.00  0.00     0.041 C 
ATOM      6  O   UNL     1     -30.866 -21.032 -29.850  1.00  0.00    -0.550 OA
ATOM      7  O   UNL     1     -32.215 -19.241 -29.378  1.00  0.00    -0.550 OA
ENDBRANCH   4   5
ENDBRANCH   3   4
ENDBRANCH   2   3
ENDBRANCH   1   2
BRANCH   1   8
ATOM      8  C   UNL     1     -31.348 -21.126 -33.499  1.00  0.00     0.000 C 
BRANCH   8   9
ATOM      9  C   UNL     1     -31.925 -22.247 -34.377  1.00  0.00    -0.000 C 
BRANCH   9  10
ATOM     10  C   UNL     1     -32.921 -21.722 -35.425  1.00  0.00    -0.000 C 
BRANCH  10  11
ATOM     11  C   UNL     1     -32.576 -22.182 -36.851  1.00  0.00    -0.000 C 
BRANCH  11  12
ATOM     12  C   UNL     1     -31.650 -23.407 -36.872  1.00  0.00    -0.003 C 
ATOM     13  C   UNL     1     -31.820 -24.202 -38.163  1.00  0.00     0.004 C 
ENDBRANCH  11  12
ENDBRANCH  10  11
ENDBRANCH   9  10
ENDBRANCH   8   9
ENDBRANCH   1   8
TORSDOF 9
ENDMDL
MODEL 2
REMARK VINA RESULT:    -3.771      0.801      1.458
REMARK INTER + INTRA:          -6.336
REMARK INTER:                  -5.933
REMARK INTRA:                  -0.402
REMARK UNBOUND:                -0.580
REMARK SMILES CCCCCCCCCCC(=O)[O-]
REMARK SMILES IDX 7 1 8 2 9 3 10 4 11 5 12 6 13 7 6 8 5 9 4 10 3 11 2 12 1 13
REMARK H PARENT
REMARK Flexibility Score: inf
ROOT
ATOM      1  C   UNL     1     -31.113 -21.132 -33.458  1.00  0.00     0.000 C 
ENDROOT
BRANCH   1   2
ATOM      2  C   UNL     1     -29.751 -20.441 -33.263  1.00  0.00     0.000 C 
BRANCH   2   3
ATOM      3  C   UNL     1     -29.665 -19.489 -32.051  1.00  0.00     0.006 C 
BRANCH   3   4
ATOM      4  C   UNL     1     -31.024 -19.014 -31.515  1.00  0.00     0.053 C 
BRANCH   4   5
ATOM      5  C   UNL     1     -31.307 -19.554 -30.146  1.00  0.00     0.041 C 
ATOM      6  O   UNL     1     -32.020 -18.898 -29.342  1.00  0.00    -0.550 OA
ATOM      7  O   UNL     1     -30.813 -20.797 -29.772  1.00  0.00    -0.550 OA
ENDBRANCH   4   5
ENDBRANCH   3   4
ENDBRANCH   2   3
ENDBRANCH   1   2
BRANCH   1   8
ATOM      8  C   UNL     1     -31.366 -21.557 -34.915  1.00  0.00     0.000 C 
BRANCH   8   9
ATOM      9  C   UNL     1     -32.593 -22.471 -35.056  1.00  0.00    -0.000 C 
BRANCH   9  10
ATOM     10  C   UNL     1     -32.539 -23.338 -36.326  1.00  0.00    -0.000 C 
BRANCH  10  11
ATOM     11  C   UNL     1     -32.335 -22.506 -37.602  1.00  0.00    -0.000 C 
BRANCH  11  12
ATOM     12  C   UNL     1     -31.888 -23.356 -38.800  1.00  0.00    -0.003 C 
ATOM     13  C   UNL     1     -31.848 -24.837 -38.439  1.00  0.00     0.004 C 
ENDBRANCH  11  12
ENDBRANCH  10  11
ENDBRANCH   9  10
ENDBRANCH   8   9
ENDBRANCH   1   8
TORSDOF 9
ENDMDL
MODEL 3
REMARK VINA RESULT:    -3.744      3.750      6.841
REMARK INTER + INTRA:          -6.294
REMARK INTER:                  -5.681
REMARK INTRA:                  -0.613
REMARK UNBOUND:                -0.580
REMARK SMILES CCCCCCCCCCC(=O)[O-]
REMARK SMILES IDX 7 1 8 2 9 3 10 4 11 5 12 6 13 7 6 8 5 9 4 10 3 11 2 12 1 13
REMARK H PARENT
REMARK Flexibility Score: inf
ROOT
ATOM      1  C   UNL     1     -31.252 -21.154 -33.390  1.00  0.00     0.000 C 
ENDROOT
BRANCH   1   2
ATOM      2  C   UNL     1     -32.179 -21.586 -34.541  1.00  0.00     0.000 C 
BRANCH   2   3
ATOM      3  C   UNL     1     -31.464 -22.183 -35.770  1.00  0.00     0.006 C 
BRANCH   3   4
ATOM      4  C   UNL     1     -32.102 -23.468 -36.320  1.00  0.00     0.053 C 
BRANCH   4   5
ATOM      5  C   UNL     1     -31.853 -23.635 -37.788  1.00  0.00     0.041 C 
ATOM      6  O   UNL     1     -31.593 -24.773 -38.260  1.00  0.00    -0.550 OA
ATOM      7  O   UNL     1     -31.940 -22.541 -38.638  1.00  0.00    -0.550 OA
ENDBRANCH   4   5
ENDBRANCH   3   4
ENDBRANCH   2   3
ENDBRANCH   1   2
BRANCH   1   8
ATOM      8  C   UNL     1     -29.846 -20.756 -33.871  1.00  0.00     0.000 C 
BRANCH   8   9
ATOM      9  C   UNL     1     -29.180 -19.722 -32.950  1.00  0.00    -0.000 C 
BRANCH   9  10
ATOM     10  C   UNL     1     -30.204 -18.883 -32.167  1.00  0.00    -0.000 C 
BRANCH  10  11
ATOM     11  C   UNL     1     -30.026 -19.001 -30.645  1.00  0.00    -0.000 C 
BRANCH  11  12
ATOM     12  C   UNL     1     -31.355 -19.227 -29.907  1.00  0.00    -0.003 C 
ATOM     13  C   UNL     1     -32.543 -18.875 -30.796  1.00  0.00     0.004 C 
ENDBRANCH  11  12
ENDBRANCH  10  11
ENDBRANCH   9  10
ENDBRANCH   8   9
ENDBRANCH   1   8
TORSDOF 9
ENDMDL
MODEL 4
REMARK VINA RESULT:    -3.485      2.063      2.896
REMARK INTER + INTRA:          -5.899
REMARK INTER:                  -5.931
REMARK INTRA:                   0.033
REMARK UNBOUND:                -0.580
REMARK SMILES CCCCCCCCCCC(=O)[O-]
REMARK SMILES IDX 7 1 8 2 9 3 10 4 11 5 12 6 13 7 6 8 5 9 4 10 3 11 2 12 1 13
REMARK H PARENT
REMARK Flexibility Score: inf
ROOT
ATOM      1  C   UNL     1     -31.904 -22.213 -34.219  1.00  0.00     0.000 C 
ENDROOT
BRANCH   1   2
ATOM      2  C   UNL     1     -31.397 -20.897 -33.602  1.00  0.00     0.000 C 
BRANCH   2   3
ATOM      3  C   UNL     1     -30.757 -21.032 -32.204  1.00  0.00     0.006 C 
BRANCH   3   4
ATOM      4  C   UNL     1     -30.158 -19.731 -31.647  1.00  0.00     0.053 C 
BRANCH   4   5
ATOM      5  C   UNL     1     -28.957 -19.288 -32.425  1.00  0.00     0.041 C 
ATOM      6  O   UNL     1     -28.998 -19.247 -33.682  1.00  0.00    -0.550 OA
ATOM      7  O   UNL     1     -27.805 -18.888 -31.760  1.00  0.00    -0.550 OA
ENDBRANCH   4   5
ENDBRANCH   3   4
ENDBRANCH   2   3
ENDBRANCH   1   2
BRANCH   1   8
ATOM      8  C   UNL     1     -32.552 -22.016 -35.600  1.00  0.00     0.000 C 
BRANCH   8   9
ATOM      9  C   UNL     1     -31.551 -22.201 -36.752  1.00  0.00    -0.000 C 
BRANCH   9  10
ATOM     10  C   UNL     1     -32.199 -22.003 -38.133  1.00  0.00    -0.000 C 
BRANCH  10  11
ATOM     11  C   UNL     1     -32.116 -23.263 -39.011  1.00  0.00    -0.000 C 
BRANCH  11  12
ATOM     12  C   UNL     1     -31.471 -24.452 -38.284  1.00  0.00    -0.003 C 
ATOM     13  C   UNL     1     -32.260 -25.735 -38.522  1.00  0.00     0.004 C 
ENDBRANCH  11  12
ENDBRANCH  10  11
ENDBRANCH   9  10
ENDBRANCH   8   9
ENDBRANCH   1   8
TORSDOF 9
ENDMDL
MODEL 5
REMARK VINA RESULT:    -3.296      1.174      1.574
REMARK INTER + INTRA:          -5.610
REMARK INTER:                  -5.120
REMARK INTRA:                  -0.490
REMARK UNBOUND:                -0.580
REMARK SMILES CCCCCCCCCCC(=O)[O-]
REMARK SMILES IDX 7 1 8 2 9 3 10 4 11 5 12 6 13 7 6 8 5 9 4 10 3 11 2 12 1 13
REMARK H PARENT
REMARK Flexibility Score: inf
ROOT
ATOM      1  C   UNL     1     -29.324 -20.481 -32.850  1.00  0.00     0.000 C 
ENDROOT
BRANCH   1   2
ATOM      2  C   UNL     1     -29.504 -19.130 -32.133  1.00  0.00     0.000 C 
BRANCH   2   3
ATOM      3  C   UNL     1     -29.816 -19.223 -30.625  1.00  0.00     0.006 C 
BRANCH   3   4
ATOM      4  C   UNL     1     -31.051 -20.069 -30.279  1.00  0.00     0.053 C 
BRANCH   4   5
ATOM      5  C   UNL     1     -30.677 -21.422 -29.756  1.00  0.00     0.041 C 
ATOM      6  O   UNL     1     -30.200 -21.542 -28.597  1.00  0.00    -0.550 OA
ATOM      7  O   UNL     1     -30.887 -22.552 -30.535  1.00  0.00    -0.550 OA
ENDBRANCH   4   5
ENDBRANCH   3   4
ENDBRANCH   2   3
ENDBRANCH   1   2
BRANCH   1   8
ATOM      8  C   UNL     1     -30.240 -20.634 -34.076  1.00  0.00     0.000 C 
BRANCH   8   9
ATOM      9  C   UNL     1     -31.386 -21.630 -33.835  1.00  0.00    -0.000 C 
BRANCH   9  10
ATOM     10  C   UNL     1     -32.448 -21.587 -34.946  1.00  0.00    -0.000 C 
BRANCH  10  11
ATOM     11  C   UNL     1     -32.609 -22.937 -35.663  1.00  0.00    -0.000 C 
BRANCH  11  12
ATOM     12  C   UNL     1     -31.486 -23.210 -36.675  1.00  0.00    -0.003 C 
ATOM     13  C   UNL     1     -31.945 -24.182 -37.757  1.00  0.00     0.004 C 
ENDBRANCH  11  12
ENDBRANCH  10  11
ENDBRANCH   9  10
ENDBRANCH   8   9
ENDBRANCH   1   8
TORSDOF 9
ENDMDL
MODEL 6
REMARK VINA RESULT:    -3.287      3.834      6.898
REMARK INTER + INTRA:          -5.596
REMARK INTER:                  -5.276
REMARK INTRA:                  -0.320
REMARK UNBOUND:                -0.580
REMARK SMILES CCCCCCCCCCC(=O)[O-]
REMARK SMILES IDX 7 1 8 2 9 3 10 4 11 5 12 6 13 7 6 8 5 9 4 10 3 11 2 12 1 13
REMARK H PARENT
REMARK Flexibility Score: inf
ROOT
ATOM      1  C   UNL     1     -31.727 -21.909 -33.669  1.00  0.00     0.000 C 
ENDROOT
BRANCH   1   2
ATOM      2  C   UNL     1     -32.165 -22.287 -35.096  1.00  0.00     0.000 C 
BRANCH   2   3
ATOM      3  C   UNL     1     -33.318 -21.440 -35.674  1.00  0.00     0.006 C 
BRANCH   3   4
ATOM      4  C   UNL     1     -33.857 -21.933 -37.026  1.00  0.00     0.053 C 
BRANCH   4   5
ATOM      5  C   UNL     1     -33.291 -21.153 -38.174  1.00  0.00     0.041 C 
ATOM      6  O   UNL     1     -33.728 -20.001 -38.432  1.00  0.00    -0.550 OA
ATOM      7  O   UNL     1     -32.258 -21.684 -38.935  1.00  0.00    -0.550 OA
ENDBRANCH   4   5
ENDBRANCH   3   4
ENDBRANCH   2   3
ENDBRANCH   1   2
BRANCH   1   8
ATOM      8  C   UNL     1     -30.978 -20.567 -33.608  1.00  0.00     0.000 C 
BRANCH   8   9
ATOM      9  C   UNL     1     -29.596 -20.695 -32.947  1.00  0.00    -0.000 C 
BRANCH   9  10
ATOM     10  C   UNL     1     -29.003 -19.331 -32.552  1.00  0.00    -0.000 C 
BRANCH  10  11
ATOM     11  C   UNL     1     -29.160 -19.029 -31.053  1.00  0.00    -0.000 C 
BRANCH  11  12
ATOM     12  C   UNL     1     -30.318 -19.806 -30.409  1.00  0.00    -0.003 C 
ATOM     13  C   UNL     1     -31.475 -18.877 -30.057  1.00  0.00     0.004 C 
ENDBRANCH  11  12
ENDBRANCH  10  11
ENDBRANCH   9  10
ENDBRANCH   8   9
ENDBRANCH   1   8
TORSDOF 9
ENDMDL
MODEL 7
REMARK VINA RESULT:    -3.211      2.333      4.064
REMARK INTER + INTRA:          -5.480
REMARK INTER:                  -5.226
REMARK INTRA:                  -0.254
REMARK UNBOUND:                -0.580
REMARK SMILES CCCCCCCCCCC(=O)[O-]
REMARK SMILES IDX 7 1 8 2 9 3 10 4 11 5 12 6 13 7 6 8 5 9 4 10 3 11 2 12 1 13
REMARK H PARENT
REMARK Flexibility Score: inf
ROOT
ATOM      1  C   UNL     1     -31.520 -22.598 -35.757  1.00  0.00     0.000 C 
ENDROOT
BRANCH   1   2
ATOM      2  C   UNL     1     -32.382 -21.962 -34.651  1.00  0.00     0.000 C 
BRANCH   2   3
ATOM      3  C   UNL     1     -31.673 -20.883 -33.805  1.00  0.00     0.006 C 
BRANCH   3   4
ATOM      4  C   UNL     1     -30.140 -20.893 -33.911  1.00  0.00     0.053 C 
BRANCH   4   5
ATOM      5  C   UNL     1     -29.500 -20.037 -32.861  1.00  0.00     0.041 C 
ATOM      6  O   UNL     1     -29.843 -20.151 -31.656  1.00  0.00    -0.550 OA
ATOM      7  O   UNL     1     -28.500 -19.138 -33.211  1.00  0.00    -0.550 OA
ENDBRANCH   4   5
ENDBRANCH   3   4
ENDBRANCH   2   3
ENDBRANCH   1   2
BRANCH   1   8
ATOM      8  C   UNL     1     -32.321 -23.537 -36.675  1.00  0.00     0.000 C 
BRANCH   8   9
ATOM      9  C   UNL     1     -31.440 -24.217 -37.735  1.00  0.00    -0.000 C 
BRANCH   9  10
ATOM     10  C   UNL     1     -32.259 -25.040 -38.743  1.00  0.00    -0.000 C 
BRANCH  10  11
ATOM     11  C   UNL     1     -32.222 -26.547 -38.446  1.00  0.00    -0.000 C 
BRANCH  11  12
ATOM     12  C   UNL     1     -33.622 -27.151 -38.263  1.00  0.00    -0.003 C 
ATOM     13  C   UNL     1     -33.760 -28.463 -39.029  1.00  0.00     0.004 C 
ENDBRANCH  11  12
ENDBRANCH  10  11
ENDBRANCH   9  10
ENDBRANCH   8   9
ENDBRANCH   1   8
TORSDOF 9
ENDMDL
MODEL 8
REMARK VINA RESULT:    -3.134      1.541      2.497
REMARK INTER + INTRA:          -5.364
REMARK INTER:                  -4.986
REMARK INTRA:                  -0.378
REMARK UNBOUND:                -0.580
REMARK SMILES CCCCCCCCCCC(=O)[O-]
REMARK SMILES IDX 7 1 8 2 9 3 10 4 11 5 12 6 13 7 6 8 5 9 4 10 3 11 2 12 1 13
REMARK H PARENT
REMARK Flexibility Score: inf
ROOT
ATOM      1  C   UNL     1     -31.441 -22.005 -34.485  1.00  0.00     0.000 C 
ENDROOT
BRANCH   1   2
ATOM      2  C   UNL     1     -31.629 -20.705 -33.682  1.00  0.00     0.000 C 
BRANCH   2   3
ATOM      3  C   UNL     1     -30.498 -20.381 -32.683  1.00  0.00     0.006 C 
BRANCH   3   4
ATOM      4  C   UNL     1     -30.747 -20.880 -31.252  1.00  0.00     0.053 C 
BRANCH   4   5
ATOM      5  C   UNL     1     -30.730 -19.760 -30.256  1.00  0.00     0.041 C 
ATOM      6  O   UNL     1     -29.705 -19.042 -30.130  1.00  0.00    -0.550 OA
ATOM      7  O   UNL     1     -31.859 -19.490 -29.494  1.00  0.00    -0.550 OA
ENDBRANCH   4   5
ENDBRANCH   3   4
ENDBRANCH   2   3
ENDBRANCH   1   2
BRANCH   1   8
ATOM      8  C   UNL     1     -32.546 -22.226 -35.533  1.00  0.00     0.000 C 
BRANCH   8   9
ATOM      9  C   UNL     1     -32.270 -23.443 -36.431  1.00  0.00    -0.000 C 
BRANCH   9  10
ATOM     10  C   UNL     1     -32.643 -23.187 -37.901  1.00  0.00    -0.000 C 
BRANCH  10  11
ATOM     11  C   UNL     1     -32.066 -21.868 -38.438  1.00  0.00    -0.000 C 
BRANCH  11  12
ATOM     12  C   UNL     1     -33.124 -20.990 -39.121  1.00  0.00    -0.003 C 
ATOM     13  C   UNL     1     -34.115 -20.432 -38.104  1.00  0.00     0.004 C 
ENDBRANCH  11  12
ENDBRANCH  10  11
ENDBRANCH   9  10
ENDBRANCH   8   9
ENDBRANCH   1   8
TORSDOF 9
ENDMDL
MODEL 9
REMARK VINA RESULT:    -1.223      3.587      6.623
REMARK INTER + INTRA:          -2.447
REMARK INTER:                  -1.884
REMARK INTRA:                  -0.563
REMARK UNBOUND:                -0.580
REMARK SMILES CCCCCCCCCCC(=O)[O-]
REMARK SMILES IDX 7 1 8 2 9 3 10 4 11 5 12 6 13 7 6 8 5 9 4 10 3 11 2 12 1 13
REMARK H PARENT
REMARK Flexibility Score: inf
ROOT
ATOM      1  C   UNL     1     -31.414 -21.393 -33.536  1.00  0.00     0.000 C 
ENDROOT
BRANCH   1   2
ATOM      2  C   UNL     1     -31.693 -22.165 -34.839  1.00  0.00     0.000 C 
BRANCH   2   3
ATOM      3  C   UNL     1     -33.028 -21.822 -35.532  1.00  0.00     0.006 C 
BRANCH   3   4
ATOM      4  C   UNL     1     -33.377 -22.720 -36.729  1.00  0.00     0.053 C 
BRANCH   4   5
ATOM      5  C   UNL     1     -32.209 -22.908 -37.648  1.00  0.00     0.041 C 
ATOM      6  O   UNL     1     -31.810 -21.954 -38.367  1.00  0.00    -0.550 OA
ATOM      7  O   UNL     1     -31.541 -24.125 -37.686  1.00  0.00    -0.550 OA
ENDBRANCH   4   5
ENDBRANCH   3   4
ENDBRANCH   2   3
ENDBRANCH   1   2
BRANCH   1   8
ATOM      8  C   UNL     1     -30.024 -20.734 -33.516  1.00  0.00     0.000 C 
BRANCH   8   9
ATOM      9  C   UNL     1     -30.039 -19.349 -32.851  1.00  0.00    -0.000 C 
BRANCH   9  10
ATOM     10  C   UNL     1     -31.462 -18.875 -32.508  1.00  0.00    -0.000 C 
BRANCH  10  11
ATOM     11  C   UNL     1     -31.760 -18.940 -31.001  1.00  0.00    -0.000 C 
BRANCH  11  12
ATOM     12  C   UNL     1     -30.599 -19.535 -30.191  1.00  0.00    -0.003 C 
ATOM     13  C   UNL     1     -30.890 -20.978 -29.792  1.00  0.00     0.004 C 
ENDBRANCH  11  12
ENDBRANCH  10  11
ENDBRANCH   9  10
ENDBRANCH   8   9
ENDBRANCH   1   8
TORSDOF 9
ENDMDL
