MODEL 1
REMARK VINA RESULT:    -4.873      0.000      0.000
REMARK INTER + INTRA:          -5.727
REMARK INTER:                  -5.586
REMARK INTRA:                  -0.142
REMARK UNBOUND:                -0.142
REMARK SMILES O=C([O-])C=Cc1ccc(O)cc1
REMARK SMILES IDX 6 1 7 2 12 3 8 4 11 5 9 6 5 7 4 8 2 9 1 10 3 11 10 12
REMARK H PARENT 10 13
REMARK Flexibility Score: inf
ROOT
ATOM      1  C   UNL     1      -8.844   4.107  -0.658  1.00  0.00    -0.025 A 
ATOM      2  C   UNL     1      -9.790   3.296  -0.008  1.00  0.00     0.012 A 
ATOM      3  C   UNL     1      -7.635   4.406   0.003  1.00  0.00     0.012 A 
ATOM      4  C   UNL     1      -9.525   2.773   1.261  1.00  0.00     0.047 A 
ATOM      5  C   UNL     1      -7.375   3.883   1.274  1.00  0.00     0.047 A 
ATOM      6  C   UNL     1      -8.320   3.063   1.904  1.00  0.00     0.115 A 
ENDROOT
BRANCH   1   7
ATOM      7  C   UNL     1      -9.175   4.646  -2.001  1.00  0.00     0.010 C 
ATOM      8  C   UNL     1      -9.626   3.893  -3.015  1.00  0.00     0.025 C 
BRANCH   8   9
ATOM      9  C   UNL     1      -9.955   4.464  -4.332  1.00  0.00     0.064 C 
ATOM     10  O   UNL     1      -9.086   5.068  -5.017  1.00  0.00    -0.545 OA
ATOM     11  O   UNL     1     -11.244   4.333  -4.829  1.00  0.00    -0.545 OA
ENDBRANCH   8   9
ENDBRANCH   1   7
BRANCH   6  12
ATOM     12  O   UNL     1      -8.070   2.534   3.170  1.00  0.00    -0.508 OA
ATOM     13  H   UNL     1      -7.991   1.535   3.319  1.00  0.00     0.293 HD
ENDBRANCH   6  12
TORSDOF 3
ENDMDL
MODEL 2
REMARK VINA RESULT:    -4.868      1.262      2.062
REMARK INTER + INTRA:          -5.721
REMARK INTER:                  -5.571
REMARK INTRA:                  -0.151
REMARK UNBOUND:                -0.142
REMARK SMILES O=C([O-])C=Cc1ccc(O)cc1
REMARK SMILES IDX 6 1 7 2 12 3 8 4 11 5 9 6 5 7 4 8 2 9 1 10 3 11 10 12
REMARK H PARENT 10 13
REMARK Flexibility Score: inf
ROOT
ATOM      1  C   UNL     1      -9.356   3.423  -0.574  1.00  0.00    -0.025 A 
ATOM      2  C   UNL     1      -8.276   4.296  -0.791  1.00  0.00     0.012 A 
ATOM      3  C   UNL     1      -9.468   2.776   0.673  1.00  0.00     0.012 A 
ATOM      4  C   UNL     1      -7.344   4.538   0.222  1.00  0.00     0.047 A 
ATOM      5  C   UNL     1      -8.532   3.021   1.684  1.00  0.00     0.047 A 
ATOM      6  C   UNL     1      -7.469   3.904   1.460  1.00  0.00     0.115 A 
ENDROOT
BRANCH   1   7
ATOM      7  C   UNL     1     -10.314   3.191  -1.684  1.00  0.00     0.010 C 
ATOM      8  C   UNL     1     -10.062   3.506  -2.964  1.00  0.00     0.025 C 
BRANCH   8   9
ATOM      9  C   UNL     1     -11.032   3.251  -4.042  1.00  0.00     0.064 C 
ATOM     10  O   UNL     1     -11.431   2.082  -4.297  1.00  0.00    -0.545 OA
ATOM     11  O   UNL     1     -11.518   4.315  -4.788  1.00  0.00    -0.545 OA
ENDBRANCH   8   9
ENDBRANCH   1   7
BRANCH   6  12
ATOM     12  O   UNL     1      -6.532   4.156   2.461  1.00  0.00    -0.508 OA
ATOM     13  H   UNL     1      -6.748   4.002   3.439  1.00  0.00     0.293 HD
ENDBRANCH   6  12
TORSDOF 3
ENDMDL
MODEL 3
REMARK VINA RESULT:    -4.473     18.559     20.183
REMARK INTER + INTRA:          -5.268
REMARK INTER:                  -5.134
REMARK INTRA:                  -0.134
REMARK UNBOUND:                -0.142
REMARK SMILES O=C([O-])C=Cc1ccc(O)cc1
REMARK SMILES IDX 6 1 7 2 12 3 8 4 11 5 9 6 5 7 4 8 2 9 1 10 3 11 10 12
REMARK H PARENT 10 13
REMARK Flexibility Score: inf
ROOT
ATOM      1  C   UNL     1       3.438  -4.096 -13.698  1.00  0.00    -0.025 A 
ATOM      2  C   UNL     1       3.229  -2.787 -13.229  1.00  0.00     0.012 A 
ATOM      3  C   UNL     1       2.472  -4.677 -14.545  1.00  0.00     0.012 A 
ATOM      4  C   UNL     1       2.097  -2.066 -13.616  1.00  0.00     0.047 A 
ATOM      5  C   UNL     1       1.339  -3.952 -14.929  1.00  0.00     0.047 A 
ATOM      6  C   UNL     1       1.151  -2.643 -14.467  1.00  0.00     0.115 A 
ENDROOT
BRANCH   1   7
ATOM      7  C   UNL     1       4.651  -4.825 -13.250  1.00  0.00     0.010 C 
ATOM      8  C   UNL     1       4.625  -5.858 -12.394  1.00  0.00     0.025 C 
BRANCH   8   9
ATOM      9  C   UNL     1       5.849  -6.565 -11.980  1.00  0.00     0.064 C 
ATOM     10  O   UNL     1       6.433  -6.280 -10.899  1.00  0.00    -0.545 OA
ATOM     11  O   UNL     1       6.369  -7.563 -12.792  1.00  0.00    -0.545 OA
ENDBRANCH   8   9
ENDBRANCH   1   7
BRANCH   6  12
ATOM     12  O   UNL     1       0.027  -1.911 -14.846  1.00  0.00    -0.508 OA
ATOM     13  H   UNL     1      -0.006  -0.903 -14.745  1.00  0.00     0.293 HD
ENDBRANCH   6  12
TORSDOF 3
ENDMDL
MODEL 4
REMARK VINA RESULT:    -4.374      8.957     11.043
REMARK INTER + INTRA:          -5.155
REMARK INTER:                  -5.020
REMARK INTRA:                  -0.135
REMARK UNBOUND:                -0.142
REMARK SMILES O=C([O-])C=Cc1ccc(O)cc1
REMARK SMILES IDX 6 1 7 2 12 3 8 4 11 5 9 6 5 7 4 8 2 9 1 10 3 11 10 12
REMARK H PARENT 10 13
REMARK Flexibility Score: inf
ROOT
ATOM      1  C   UNL     1      -8.918   4.417 -11.101  1.00  0.00    -0.025 A 
ATOM      2  C   UNL     1      -8.552   5.092  -9.924  1.00  0.00     0.012 A 
ATOM      3  C   UNL     1     -10.268   4.437 -11.505  1.00  0.00     0.012 A 
ATOM      4  C   UNL     1      -9.507   5.792  -9.180  1.00  0.00     0.047 A 
ATOM      5  C   UNL     1     -11.221   5.138 -10.758  1.00  0.00     0.047 A 
ATOM      6  C   UNL     1     -10.841   5.818  -9.595  1.00  0.00     0.115 A 
ENDROOT
BRANCH   1   7
ATOM      7  C   UNL     1      -7.870   3.680 -11.851  1.00  0.00     0.010 C 
ATOM      8  C   UNL     1      -7.065   4.249 -12.760  1.00  0.00     0.025 C 
BRANCH   8   9
ATOM      9  C   UNL     1      -6.028   3.489 -13.477  1.00  0.00     0.064 C 
ATOM     10  O   UNL     1      -5.213   2.752 -12.858  1.00  0.00    -0.545 OA
ATOM     11  O   UNL     1      -5.946   3.582 -14.860  1.00  0.00    -0.545 OA
ENDBRANCH   8   9
ENDBRANCH   1   7
BRANCH   6  12
ATOM     12  O   UNL     1     -11.781   6.521  -8.843  1.00  0.00    -0.508 OA
ATOM     13  H   UNL     1     -12.086   7.449  -9.111  1.00  0.00     0.293 HD
ENDBRANCH   6  12
TORSDOF 3
ENDMDL
MODEL 5
REMARK VINA RESULT:    -4.300     16.450     17.281
REMARK INTER + INTRA:          -5.071
REMARK INTER:                  -4.917
REMARK INTRA:                  -0.153
REMARK UNBOUND:                -0.142
REMARK SMILES O=C([O-])C=Cc1ccc(O)cc1
REMARK SMILES IDX 6 1 7 2 12 3 8 4 11 5 9 6 5 7 4 8 2 9 1 10 3 11 10 12
REMARK H PARENT 10 13
REMARK Flexibility Score: inf
ROOT
ATOM      1  C   UNL     1       3.348  -7.500   0.967  1.00  0.00    -0.025 A 
ATOM      2  C   UNL     1       2.320  -8.434   0.751  1.00  0.00     0.012 A 
ATOM      3  C   UNL     1       3.357  -6.765   2.170  1.00  0.00     0.012 A 
ATOM      4  C   UNL     1       1.339  -8.648   1.722  1.00  0.00     0.047 A 
ATOM      5  C   UNL     1       2.372  -6.982   3.139  1.00  0.00     0.047 A 
ATOM      6  C   UNL     1       1.362  -7.926   2.918  1.00  0.00     0.115 A 
ENDROOT
BRANCH   1   7
ATOM      7  C   UNL     1       4.362  -7.302  -0.098  1.00  0.00     0.010 C 
ATOM      8  C   UNL     1       4.386  -8.001  -1.243  1.00  0.00     0.025 C 
BRANCH   8   9
ATOM      9  C   UNL     1       5.402  -7.769  -2.284  1.00  0.00     0.064 C 
ATOM     10  O   UNL     1       5.889  -6.622  -2.475  1.00  0.00    -0.545 OA
ATOM     11  O   UNL     1       5.830  -8.831  -3.067  1.00  0.00    -0.545 OA
ENDBRANCH   8   9
ENDBRANCH   1   7
BRANCH   6  12
ATOM     12  O   UNL     1       0.376  -8.151   3.877  1.00  0.00    -0.508 OA
ATOM     13  H   UNL     1       0.586  -8.616   4.753  1.00  0.00     0.293 HD
ENDBRANCH   6  12
TORSDOF 3
ENDMDL
MODEL 6
REMARK VINA RESULT:    -4.277     16.455     17.309
REMARK INTER + INTRA:          -5.044
REMARK INTER:                  -4.903
REMARK INTRA:                  -0.141
REMARK UNBOUND:                -0.142
REMARK SMILES O=C([O-])C=Cc1ccc(O)cc1
REMARK SMILES IDX 6 1 7 2 12 3 8 4 11 5 9 6 5 7 4 8 2 9 1 10 3 11 10 12
REMARK H PARENT 10 13
REMARK Flexibility Score: inf
ROOT
ATOM      1  C   UNL     1       3.244  -7.536   0.907  1.00  0.00    -0.025 A 
ATOM      2  C   UNL     1       3.333  -6.796   2.098  1.00  0.00     0.012 A 
ATOM      3  C   UNL     1       2.207  -8.481   0.769  1.00  0.00     0.012 A 
ATOM      4  C   UNL     1       2.395  -6.976   3.119  1.00  0.00     0.047 A 
ATOM      5  C   UNL     1       1.271  -8.659   1.793  1.00  0.00     0.047 A 
ATOM      6  C   UNL     1       1.362  -7.904   2.970  1.00  0.00     0.115 A 
ENDROOT
BRANCH   1   7
ATOM      7  C   UNL     1       4.270  -7.316  -0.143  1.00  0.00     0.010 C 
ATOM      8  C   UNL     1       4.366  -8.058  -1.257  1.00  0.00     0.025 C 
BRANCH   8   9
ATOM      9  C   UNL     1       5.391  -7.804  -2.284  1.00  0.00     0.064 C 
ATOM     10  O   UNL     1       5.869  -6.650  -2.457  1.00  0.00    -0.545 OA
ATOM     11  O   UNL     1       5.841  -8.852  -3.073  1.00  0.00    -0.545 OA
ENDBRANCH   8   9
ENDBRANCH   1   7
BRANCH   6  12
ATOM     12  O   UNL     1       0.434  -8.073   3.996  1.00  0.00    -0.508 OA
ATOM     13  H   UNL     1      -0.351  -8.706   3.900  1.00  0.00     0.293 HD
ENDBRANCH   6  12
TORSDOF 3
ENDMDL
MODEL 7
REMARK VINA RESULT:    -4.275     19.951     20.750
REMARK INTER + INTRA:          -5.042
REMARK INTER:                  -4.890
REMARK INTRA:                  -0.152
REMARK UNBOUND:                -0.142
REMARK SMILES O=C([O-])C=Cc1ccc(O)cc1
REMARK SMILES IDX 6 1 7 2 12 3 8 4 11 5 9 6 5 7 4 8 2 9 1 10 3 11 10 12
REMARK H PARENT 10 13
REMARK Flexibility Score: inf
ROOT
ATOM      1  C   UNL     1       5.014  -6.223 -12.348  1.00  0.00    -0.025 A 
ATOM      2  C   UNL     1       4.827  -7.459 -12.990  1.00  0.00     0.012 A 
ATOM      3  C   UNL     1       5.924  -6.145 -11.274  1.00  0.00     0.012 A 
ATOM      4  C   UNL     1       5.550  -8.585 -12.588  1.00  0.00     0.047 A 
ATOM      5  C   UNL     1       6.644  -7.275 -10.873  1.00  0.00     0.047 A 
ATOM      6  C   UNL     1       6.460  -8.497 -11.532  1.00  0.00     0.115 A 
ENDROOT
BRANCH   1   7
ATOM      7  C   UNL     1       4.215  -5.058 -12.806  1.00  0.00     0.010 C 
ATOM      8  C   UNL     1       3.166  -5.154 -13.636  1.00  0.00     0.025 C 
BRANCH   8   9
ATOM      9  C   UNL     1       2.390  -3.977 -14.061  1.00  0.00     0.064 C 
ATOM     10  O   UNL     1       1.707  -3.994 -15.120  1.00  0.00    -0.545 OA
ATOM     11  O   UNL     1       2.408  -2.830 -13.280  1.00  0.00    -0.545 OA
ENDBRANCH   8   9
ENDBRANCH   1   7
BRANCH   6  12
ATOM     12  O   UNL     1       7.174  -9.629 -11.142  1.00  0.00    -0.508 OA
ATOM     13  H   UNL     1       7.087 -10.507 -11.640  1.00  0.00     0.293 HD
ENDBRANCH   6  12
TORSDOF 3
ENDMDL
MODEL 8
REMARK VINA RESULT:    -4.252      1.266      5.785
REMARK INTER + INTRA:          -5.015
REMARK INTER:                  -4.882
REMARK INTRA:                  -0.134
REMARK UNBOUND:                -0.142
REMARK SMILES O=C([O-])C=Cc1ccc(O)cc1
REMARK SMILES IDX 6 1 7 2 12 3 8 4 11 5 9 6 5 7 4 8 2 9 1 10 3 11 10 12
REMARK H PARENT 10 13
REMARK Flexibility Score: inf
ROOT
ATOM      1  C   UNL     1      -9.503   3.121  -0.994  1.00  0.00    -0.025 A 
ATOM      2  C   UNL     1     -10.390   2.220  -1.609  1.00  0.00     0.012 A 
ATOM      3  C   UNL     1      -9.036   4.227  -1.732  1.00  0.00     0.012 A 
ATOM      4  C   UNL     1     -10.822   2.433  -2.921  1.00  0.00     0.047 A 
ATOM      5  C   UNL     1      -9.470   4.436  -3.046  1.00  0.00     0.047 A 
ATOM      6  C   UNL     1     -10.365   3.540  -3.642  1.00  0.00     0.115 A 
ENDROOT
BRANCH   1   7
ATOM      7  C   UNL     1      -9.067   2.846   0.398  1.00  0.00     0.010 C 
ATOM      8  C   UNL     1      -8.997   3.783   1.355  1.00  0.00     0.025 C 
BRANCH   8   9
ATOM      9  C   UNL     1      -8.570   3.472   2.730  1.00  0.00     0.064 C 
ATOM     10  O   UNL     1      -9.132   2.562   3.397  1.00  0.00    -0.545 OA
ATOM     11  O   UNL     1      -7.529   4.191   3.300  1.00  0.00    -0.545 OA
ENDBRANCH   8   9
ENDBRANCH   1   7
BRANCH   6  12
ATOM     12  O   UNL     1     -10.805   3.739  -4.950  1.00  0.00    -0.508 OA
ATOM     13  H   UNL     1     -11.681   3.350  -5.278  1.00  0.00     0.293 HD
ENDBRANCH   6  12
TORSDOF 3
ENDMDL
MODEL 9
REMARK VINA RESULT:    -4.148     16.867     18.373
REMARK INTER + INTRA:          -4.896
REMARK INTER:                  -4.758
REMARK INTRA:                  -0.139
REMARK UNBOUND:                -0.142
REMARK SMILES O=C([O-])C=Cc1ccc(O)cc1
REMARK SMILES IDX 6 1 7 2 12 3 8 4 11 5 9 6 5 7 4 8 2 9 1 10 3 11 10 12
REMARK H PARENT 10 13
REMARK Flexibility Score: inf
ROOT
ATOM      1  C   UNL     1       5.078  -7.000  -0.752  1.00  0.00    -0.025 A 
ATOM      2  C   UNL     1       5.917  -5.877  -0.649  1.00  0.00     0.012 A 
ATOM      3  C   UNL     1       5.117  -7.772  -1.932  1.00  0.00     0.012 A 
ATOM      4  C   UNL     1       6.792  -5.546  -1.686  1.00  0.00     0.047 A 
ATOM      5  C   UNL     1       5.994  -7.436  -2.968  1.00  0.00     0.047 A 
ATOM      6  C   UNL     1       6.835  -6.323  -2.846  1.00  0.00     0.115 A 
ENDROOT
BRANCH   1   7
ATOM      7  C   UNL     1       4.159  -7.305   0.373  1.00  0.00     0.010 C 
ATOM      8  C   UNL     1       3.019  -7.998   0.236  1.00  0.00     0.025 C 
BRANCH   8   9
ATOM      9  C   UNL     1       2.135  -8.291   1.378  1.00  0.00     0.064 C 
ATOM     10  O   UNL     1       1.413  -9.324   1.394  1.00  0.00    -0.545 OA
ATOM     11  O   UNL     1       2.099  -7.417   2.454  1.00  0.00    -0.545 OA
ENDBRANCH   8   9
ENDBRANCH   1   7
BRANCH   6  12
ATOM     12  O   UNL     1       7.714  -5.981  -3.873  1.00  0.00    -0.508 OA
ATOM     13  H   UNL     1       8.711  -6.144  -3.792  1.00  0.00     0.293 HD
ENDBRANCH   6  12
TORSDOF 3
ENDMDL
