MODEL 1
REMARK VINA RESULT:    -4.747      0.000      0.000
REMARK INTER + INTRA:          -5.491
REMARK INTER:                  -5.441
REMARK INTRA:                  -0.050
REMARK UNBOUND:                -0.050
REMARK SMILES O=C([O-])c1cc(O)c(O)c(O)c1
REMARK SMILES IDX 4 1 5 2 12 3 6 4 10 5 8 6 2 7 1 8 3 9 7 10 11 12 9 14
REMARK H PARENT 7 11 11 13 9 15
REMARK Flexibility Score: inf
ROOT
ATOM      1  C   UNL     1      73.335  41.142  -3.266  1.00  0.00     0.005 A 
ATOM      2  C   UNL     1      74.124  40.520  -4.246  1.00  0.00     0.060 A 
ATOM      3  C   UNL     1      72.050  40.643  -3.010  1.00  0.00     0.060 A 
ATOM      4  C   UNL     1      73.646  39.418  -4.964  1.00  0.00     0.162 A 
ATOM      5  C   UNL     1      71.557  39.543  -3.717  1.00  0.00     0.162 A 
ATOM      6  C   UNL     1      72.347  38.920  -4.699  1.00  0.00     0.200 A 
ENDROOT
BRANCH   1   7
ATOM      7  C   UNL     1      73.849  42.307  -2.511  1.00  0.00     0.072 C 
ATOM      8  O   UNL     1      73.500  42.500  -1.315  1.00  0.00    -0.545 OA
ATOM      9  O   UNL     1      74.724  43.206  -3.110  1.00  0.00    -0.545 OA
ENDBRANCH   1   7
BRANCH   4  10
ATOM     10  O   UNL     1      74.490  38.853  -5.924  1.00  0.00    -0.504 OA
ATOM     11  H   UNL     1      75.357  38.382  -5.711  1.00  0.00     0.293 HD
ENDBRANCH   4  10
BRANCH   5  12
ATOM     12  O   UNL     1      70.272  39.082  -3.427  1.00  0.00    -0.504 OA
ATOM     13  H   UNL     1      69.469  39.325  -3.994  1.00  0.00     0.293 HD
ENDBRANCH   5  12
BRANCH   6  14
ATOM     14  O   UNL     1      71.815  37.823  -5.384  1.00  0.00    -0.502 OA
ATOM     15  H   UNL     1      72.283  37.344  -6.139  1.00  0.00     0.293 HD
ENDBRANCH   6  14
TORSDOF 4
ENDMDL
MODEL 2
REMARK VINA RESULT:    -4.705      0.177      2.449
REMARK INTER + INTRA:          -5.442
REMARK INTER:                  -5.391
REMARK INTRA:                  -0.051
REMARK UNBOUND:                -0.050
REMARK SMILES O=C([O-])c1cc(O)c(O)c(O)c1
REMARK SMILES IDX 4 1 5 2 12 3 6 4 10 5 8 6 2 7 1 8 3 9 7 10 11 12 9 14
REMARK H PARENT 7 11 11 13 9 15
REMARK Flexibility Score: inf
ROOT
ATOM      1  C   UNL     1      73.396  41.042  -3.362  1.00  0.00     0.005 A 
ATOM      2  C   UNL     1      72.110  40.573  -3.053  1.00  0.00     0.060 A 
ATOM      3  C   UNL     1      74.125  40.406  -4.379  1.00  0.00     0.060 A 
ATOM      4  C   UNL     1      71.551  39.489  -3.740  1.00  0.00     0.162 A 
ATOM      5  C   UNL     1      73.582  39.323  -5.075  1.00  0.00     0.162 A 
ATOM      6  C   UNL     1      72.294  38.853  -4.765  1.00  0.00     0.200 A 
ENDROOT
BRANCH   1   7
ATOM      7  C   UNL     1      73.979  42.189  -2.631  1.00  0.00     0.072 C 
ATOM      8  O   UNL     1      73.598  42.464  -1.462  1.00  0.00    -0.545 OA
ATOM      9  O   UNL     1      74.956  42.980  -3.224  1.00  0.00    -0.545 OA
ENDBRANCH   1   7
BRANCH   4  10
ATOM     10  O   UNL     1      70.266  39.081  -3.374  1.00  0.00    -0.504 OA
ATOM     11  H   UNL     1      69.705  38.432  -3.906  1.00  0.00     0.293 HD
ENDBRANCH   4  10
BRANCH   5  12
ATOM     12  O   UNL     1      74.345  38.724  -6.079  1.00  0.00    -0.504 OA
ATOM     13  H   UNL     1      75.172  39.163  -6.465  1.00  0.00     0.293 HD
ENDBRANCH   5  12
BRANCH   6  14
ATOM     14  O   UNL     1      71.790  37.767  -5.486  1.00  0.00    -0.502 OA
ATOM     15  H   UNL     1      71.254  37.850  -6.337  1.00  0.00     0.293 HD
ENDBRANCH   6  14
TORSDOF 4
ENDMDL
MODEL 3
REMARK VINA RESULT:    -4.486     14.170     15.982
REMARK INTER + INTRA:          -5.192
REMARK INTER:                  -5.147
REMARK INTRA:                  -0.045
REMARK UNBOUND:                -0.050
REMARK SMILES O=C([O-])c1cc(O)c(O)c(O)c1
REMARK SMILES IDX 4 1 5 2 12 3 6 4 10 5 8 6 2 7 1 8 3 9 7 10 11 12 9 14
REMARK H PARENT 7 11 11 13 9 15
REMARK Flexibility Score: inf
ROOT
ATOM      1  C   UNL     1      68.712  49.215   8.612  1.00  0.00     0.005 A 
ATOM      2  C   UNL     1      67.567  49.802   9.172  1.00  0.00     0.060 A 
ATOM      3  C   UNL     1      68.560  48.275   7.583  1.00  0.00     0.060 A 
ATOM      4  C   UNL     1      66.287  49.463   8.718  1.00  0.00     0.162 A 
ATOM      5  C   UNL     1      67.290  47.924   7.117  1.00  0.00     0.162 A 
ATOM      6  C   UNL     1      66.142  48.512   7.678  1.00  0.00     0.200 A 
ENDROOT
BRANCH   1   7
ATOM      7  C   UNL     1      70.062  49.580   9.098  1.00  0.00     0.072 C 
ATOM      8  O   UNL     1      70.529  50.732   8.889  1.00  0.00    -0.545 OA
ATOM      9  O   UNL     1      70.835  48.656   9.793  1.00  0.00    -0.545 OA
ENDBRANCH   1   7
BRANCH   4  10
ATOM     10  O   UNL     1      65.195  50.089   9.325  1.00  0.00    -0.504 OA
ATOM     11  H   UNL     1      65.058  50.148  10.324  1.00  0.00     0.293 HD
ENDBRANCH   4  10
BRANCH   5  12
ATOM     12  O   UNL     1      67.189  46.985   6.090  1.00  0.00    -0.504 OA
ATOM     13  H   UNL     1      66.558  46.194   6.140  1.00  0.00     0.293 HD
ENDBRANCH   5  12
BRANCH   6  14
ATOM     14  O   UNL     1      64.891  48.133   7.184  1.00  0.00    -0.502 OA
ATOM     15  H   UNL     1      64.181  47.669   7.731  1.00  0.00     0.293 HD
ENDBRANCH   6  14
TORSDOF 4
ENDMDL
MODEL 4
REMARK VINA RESULT:    -4.465      9.802     11.983
REMARK INTER + INTRA:          -5.168
REMARK INTER:                  -5.116
REMARK INTRA:                  -0.052
REMARK UNBOUND:                -0.050
REMARK SMILES O=C([O-])c1cc(O)c(O)c(O)c1
REMARK SMILES IDX 4 1 5 2 12 3 6 4 10 5 8 6 2 7 1 8 3 9 7 10 11 12 9 14
REMARK H PARENT 7 11 11 13 9 15
REMARK Flexibility Score: inf
ROOT
ATOM      1  C   UNL     1      73.642  47.806   6.671  1.00  0.00     0.005 A 
ATOM      2  C   UNL     1      74.345  46.592   6.617  1.00  0.00     0.060 A 
ATOM      3  C   UNL     1      72.887  48.205   5.558  1.00  0.00     0.060 A 
ATOM      4  C   UNL     1      74.300  45.783   5.476  1.00  0.00     0.162 A 
ATOM      5  C   UNL     1      72.832  47.409   4.411  1.00  0.00     0.162 A 
ATOM      6  C   UNL     1      73.535  46.193   4.357  1.00  0.00     0.200 A 
ENDROOT
BRANCH   1   7
ATOM      7  C   UNL     1      73.695  48.656   7.882  1.00  0.00     0.072 C 
ATOM      8  O   UNL     1      74.093  48.183   8.980  1.00  0.00    -0.545 OA
ATOM      9  O   UNL     1      73.304  49.989   7.825  1.00  0.00    -0.545 OA
ENDBRANCH   1   7
BRANCH   4  10
ATOM     10  O   UNL     1      75.026  44.589   5.498  1.00  0.00    -0.504 OA
ATOM     11  H   UNL     1      75.030  43.942   6.273  1.00  0.00     0.293 HD
ENDBRANCH   4  10
BRANCH   5  12
ATOM     12  O   UNL     1      72.066  47.847   3.329  1.00  0.00    -0.504 OA
ATOM     13  H   UNL     1      72.437  47.893   2.387  1.00  0.00     0.293 HD
ENDBRANCH   5  12
BRANCH   6  14
ATOM     14  O   UNL     1      73.453  45.428   3.189  1.00  0.00    -0.502 OA
ATOM     15  H   UNL     1      73.884  44.522   3.073  1.00  0.00     0.293 HD
ENDBRANCH   6  14
TORSDOF 4
ENDMDL
MODEL 5
REMARK VINA RESULT:    -4.462     14.141     15.836
REMARK INTER + INTRA:          -5.164
REMARK INTER:                  -5.118
REMARK INTRA:                  -0.046
REMARK UNBOUND:                -0.050
REMARK SMILES O=C([O-])c1cc(O)c(O)c(O)c1
REMARK SMILES IDX 4 1 5 2 12 3 6 4 10 5 8 6 2 7 1 8 3 9 7 10 11 12 9 14
REMARK H PARENT 7 11 11 13 9 15
REMARK Flexibility Score: inf
ROOT
ATOM      1  C   UNL     1      68.690  49.238   8.572  1.00  0.00     0.005 A 
ATOM      2  C   UNL     1      68.544  48.292   7.546  1.00  0.00     0.060 A 
ATOM      3  C   UNL     1      67.541  49.805   9.142  1.00  0.00     0.060 A 
ATOM      4  C   UNL     1      67.277  47.911   7.089  1.00  0.00     0.162 A 
ATOM      5  C   UNL     1      66.267  49.437   8.698  1.00  0.00     0.162 A 
ATOM      6  C   UNL     1      66.121  48.489   7.670  1.00  0.00     0.200 A 
ENDROOT
BRANCH   1   7
ATOM      7  C   UNL     1      70.034  49.635   9.049  1.00  0.00     0.072 C 
ATOM      8  O   UNL     1      70.422  50.829   8.951  1.00  0.00    -0.545 OA
ATOM      9  O   UNL     1      70.888  48.693   9.613  1.00  0.00    -0.545 OA
ENDBRANCH   1   7
BRANCH   4  10
ATOM     10  O   UNL     1      67.213  46.964   6.064  1.00  0.00    -0.504 OA
ATOM     11  H   UNL     1      66.421  46.361   5.898  1.00  0.00     0.293 HD
ENDBRANCH   4  10
BRANCH   5  12
ATOM     12  O   UNL     1      65.154  50.028   9.297  1.00  0.00    -0.504 OA
ATOM     13  H   UNL     1      64.799  50.931   9.006  1.00  0.00     0.293 HD
ENDBRANCH   5  12
BRANCH   6  14
ATOM     14  O   UNL     1      64.830  48.149   7.257  1.00  0.00    -0.502 OA
ATOM     15  H   UNL     1      64.108  48.821   7.041  1.00  0.00     0.293 HD
ENDBRANCH   6  14
TORSDOF 4
ENDMDL
MODEL 6
REMARK VINA RESULT:    -4.425      1.745      2.164
REMARK INTER + INTRA:          -5.122
REMARK INTER:                  -5.070
REMARK INTRA:                  -0.052
REMARK UNBOUND:                -0.050
REMARK SMILES O=C([O-])c1cc(O)c(O)c(O)c1
REMARK SMILES IDX 4 1 5 2 12 3 6 4 10 5 8 6 2 7 1 8 3 9 7 10 11 12 9 14
REMARK H PARENT 7 11 11 13 9 15
REMARK Flexibility Score: inf
ROOT
ATOM      1  C   UNL     1      73.568  42.990  -2.259  1.00  0.00     0.005 A 
ATOM      2  C   UNL     1      74.428  42.647  -3.314  1.00  0.00     0.060 A 
ATOM      3  C   UNL     1      72.493  42.142  -1.956  1.00  0.00     0.060 A 
ATOM      4  C   UNL     1      74.227  41.480  -4.059  1.00  0.00     0.162 A 
ATOM      5  C   UNL     1      72.277  40.972  -2.690  1.00  0.00     0.162 A 
ATOM      6  C   UNL     1      73.138  40.629  -3.746  1.00  0.00     0.200 A 
ENDROOT
BRANCH   1   7
ATOM      7  C   UNL     1      73.789  44.226  -1.476  1.00  0.00     0.072 C 
ATOM      8  O   UNL     1      73.218  44.392  -0.365  1.00  0.00    -0.545 OA
ATOM      9  O   UNL     1      74.630  45.224  -1.956  1.00  0.00    -0.545 OA
ENDBRANCH   1   7
BRANCH   4  10
ATOM     10  O   UNL     1      75.125  41.206  -5.094  1.00  0.00    -0.504 OA
ATOM     11  H   UNL     1      76.000  41.691  -5.228  1.00  0.00     0.293 HD
ENDBRANCH   4  10
BRANCH   5  12
ATOM     12  O   UNL     1      71.194  40.160  -2.350  1.00  0.00    -0.504 OA
ATOM     13  H   UNL     1      71.224  39.518  -1.566  1.00  0.00     0.293 HD
ENDBRANCH   5  12
BRANCH   6  14
ATOM     14  O   UNL     1      72.886  39.450  -4.455  1.00  0.00    -0.502 OA
ATOM     15  H   UNL     1      72.162  38.788  -4.215  1.00  0.00     0.293 HD
ENDBRANCH   6  14
TORSDOF 4
ENDMDL
MODEL 7
REMARK VINA RESULT:    -4.419      9.846     12.110
REMARK INTER + INTRA:          -5.115
REMARK INTER:                  -5.063
REMARK INTRA:                  -0.052
REMARK UNBOUND:                -0.050
REMARK SMILES O=C([O-])c1cc(O)c(O)c(O)c1
REMARK SMILES IDX 4 1 5 2 12 3 6 4 10 5 8 6 2 7 1 8 3 9 7 10 11 12 9 14
REMARK H PARENT 7 11 11 13 9 15
REMARK Flexibility Score: inf
ROOT
ATOM      1  C   UNL     1      73.660  47.819   6.717  1.00  0.00     0.005 A 
ATOM      2  C   UNL     1      72.906  48.227   5.605  1.00  0.00     0.060 A 
ATOM      3  C   UNL     1      74.356  46.603   6.658  1.00  0.00     0.060 A 
ATOM      4  C   UNL     1      72.841  47.440   4.449  1.00  0.00     0.162 A 
ATOM      5  C   UNL     1      74.302  45.805   5.511  1.00  0.00     0.162 A 
ATOM      6  C   UNL     1      73.547  46.213   4.398  1.00  0.00     0.200 A 
ENDROOT
BRANCH   1   7
ATOM      7  C   UNL     1      73.723  48.658   7.935  1.00  0.00     0.072 C 
ATOM      8  O   UNL     1      74.123  48.173   9.027  1.00  0.00    -0.545 OA
ATOM      9  O   UNL     1      73.341  49.994   7.892  1.00  0.00    -0.545 OA
ENDBRANCH   1   7
BRANCH   4  10
ATOM     10  O   UNL     1      72.070  47.913   3.384  1.00  0.00    -0.504 OA
ATOM     11  H   UNL     1      72.411  48.540   2.671  1.00  0.00     0.293 HD
ENDBRANCH   4  10
BRANCH   5  12
ATOM     12  O   UNL     1      75.012  44.604   5.499  1.00  0.00    -0.504 OA
ATOM     13  H   UNL     1      75.508  44.260   6.313  1.00  0.00     0.293 HD
ENDBRANCH   5  12
BRANCH   6  14
ATOM     14  O   UNL     1      73.521  45.385   3.272  1.00  0.00    -0.502 OA
ATOM     15  H   UNL     1      72.744  44.789   3.023  1.00  0.00     0.293 HD
ENDBRANCH   6  14
TORSDOF 4
ENDMDL
MODEL 8
REMARK VINA RESULT:    -4.279     14.114     15.846
REMARK INTER + INTRA:          -4.955
REMARK INTER:                  -4.902
REMARK INTRA:                  -0.053
REMARK UNBOUND:                -0.050
REMARK SMILES O=C([O-])c1cc(O)c(O)c(O)c1
REMARK SMILES IDX 4 1 5 2 12 3 6 4 10 5 8 6 2 7 1 8 3 9 7 10 11 12 9 14
REMARK H PARENT 7 11 11 13 9 15
REMARK Flexibility Score: inf
ROOT
ATOM      1  C   UNL     1      69.478  49.380   7.750  1.00  0.00     0.005 A 
ATOM      2  C   UNL     1      68.958  50.212   8.753  1.00  0.00     0.060 A 
ATOM      3  C   UNL     1      68.618  48.491   7.090  1.00  0.00     0.060 A 
ATOM      4  C   UNL     1      67.603  50.166   9.099  1.00  0.00     0.162 A 
ATOM      5  C   UNL     1      67.261  48.431   7.422  1.00  0.00     0.162 A 
ATOM      6  C   UNL     1      66.740  49.265   8.427  1.00  0.00     0.200 A 
ENDROOT
BRANCH   1   7
ATOM      7  C   UNL     1      70.913  49.436   7.390  1.00  0.00     0.072 C 
ATOM      8  O   UNL     1      71.413  48.582   6.610  1.00  0.00    -0.545 OA
ATOM      9  O   UNL     1      71.731  50.434   7.909  1.00  0.00    -0.545 OA
ENDBRANCH   1   7
BRANCH   4  10
ATOM     10  O   UNL     1      67.160  51.025  10.108  1.00  0.00    -0.504 OA
ATOM     11  H   UNL     1      67.725  51.318  10.891  1.00  0.00     0.293 HD
ENDBRANCH   4  10
BRANCH   5  12
ATOM     12  O   UNL     1      66.444  47.532   6.737  1.00  0.00    -0.504 OA
ATOM     13  H   UNL     1      65.438  47.641   6.692  1.00  0.00     0.293 HD
ENDBRANCH   5  12
BRANCH   6  14
ATOM     14  O   UNL     1      65.378  49.173   8.728  1.00  0.00    -0.502 OA
ATOM     15  H   UNL     1      64.994  48.566   9.438  1.00  0.00     0.293 HD
ENDBRANCH   6  14
TORSDOF 4
ENDMDL
MODEL 9
REMARK VINA RESULT:    -4.277     14.087     15.762
REMARK INTER + INTRA:          -4.953
REMARK INTER:                  -4.900
REMARK INTRA:                  -0.053
REMARK UNBOUND:                -0.050
REMARK SMILES O=C([O-])c1cc(O)c(O)c(O)c1
REMARK SMILES IDX 4 1 5 2 12 3 6 4 10 5 8 6 2 7 1 8 3 9 7 10 11 12 9 14
REMARK H PARENT 7 11 11 13 9 15
REMARK Flexibility Score: inf
ROOT
ATOM      1  C   UNL     1      69.558  49.402   7.725  1.00  0.00     0.005 A 
ATOM      2  C   UNL     1      68.705  48.512   7.053  1.00  0.00     0.060 A 
ATOM      3  C   UNL     1      69.027  50.227   8.727  1.00  0.00     0.060 A 
ATOM      4  C   UNL     1      67.344  48.440   7.369  1.00  0.00     0.162 A 
ATOM      5  C   UNL     1      67.670  50.168   9.055  1.00  0.00     0.162 A 
ATOM      6  C   UNL     1      66.815  49.277   8.382  1.00  0.00     0.200 A 
ENDROOT
BRANCH   1   7
ATOM      7  C   UNL     1      70.997  49.471   7.385  1.00  0.00     0.072 C 
ATOM      8  O   UNL     1      71.518  48.611   6.626  1.00  0.00    -0.545 OA
ATOM      9  O   UNL     1      71.795  50.487   7.899  1.00  0.00    -0.545 OA
ENDBRANCH   1   7
BRANCH   4  10
ATOM     10  O   UNL     1      66.559  47.530   6.656  1.00  0.00    -0.504 OA
ATOM     11  H   UNL     1      65.569  47.398   6.804  1.00  0.00     0.293 HD
ENDBRANCH   4  10
BRANCH   5  12
ATOM     12  O   UNL     1      67.188  51.009  10.060  1.00  0.00    -0.504 OA
ATOM     13  H   UNL     1      66.419  50.743  10.665  1.00  0.00     0.293 HD
ENDBRANCH   5  12
BRANCH   6  14
ATOM     14  O   UNL     1      65.464  49.251   8.741  1.00  0.00    -0.502 OA
ATOM     15  H   UNL     1      64.896  50.076   8.872  1.00  0.00     0.293 HD
ENDBRANCH   6  14
TORSDOF 4
ENDMDL
