MODEL 1
REMARK VINA RESULT:    -4.066      0.000      0.000
REMARK INTER + INTRA:          -4.846
REMARK INTER:                  -4.541
REMARK INTRA:                  -0.305
REMARK UNBOUND:                -0.305
REMARK SMILES CC(=O)c1ccc(O)cc1O
REMARK SMILES IDX 4 1 10 2 9 3 7 4 6 5 5 6 2 7 1 8 3 9 11 10 8 12
REMARK H PARENT 11 11 8 13
REMARK Flexibility Score: inf
ROOT
ATOM      1  C   UNL     1    -119.739-100.735   1.321  1.00  0.00     0.059 A 
ATOM      2  C   UNL     1    -119.423-102.085   1.028  1.00  0.00     0.130 A 
ATOM      3  C   UNL     1    -118.145-102.414   0.561  1.00  0.00     0.093 A 
ATOM      4  C   UNL     1    -117.163-101.428   0.412  1.00  0.00     0.119 A 
ATOM      5  C   UNL     1    -117.462-100.102   0.727  1.00  0.00     0.047 A 
ATOM      6  C   UNL     1    -118.737 -99.756   1.179  1.00  0.00     0.019 A 
ENDROOT
BRANCH   1   7
ATOM      7  C   UNL     1    -121.100-100.318   1.737  1.00  0.00     0.163 C 
ATOM      8  C   UNL     1    -121.302 -99.342   2.854  1.00  0.00     0.093 C 
ATOM      9  O   UNL     1    -122.105-100.722   1.094  1.00  0.00    -0.294 OA
ENDBRANCH   1   7
BRANCH   2  10
ATOM     10  O   UNL     1    -120.337-103.125   1.216  1.00  0.00    -0.507 OA
ATOM     11  H   UNL     1    -120.066-104.093   1.323  1.00  0.00     0.293 HD
ENDBRANCH   2  10
BRANCH   4  12
ATOM     12  O   UNL     1    -115.889-101.756  -0.045  1.00  0.00    -0.508 OA
ATOM     13  H   UNL     1    -115.401-101.174  -0.715  1.00  0.00     0.293 HD
ENDBRANCH   4  12
TORSDOF 3
ENDMDL
MODEL 2
REMARK VINA RESULT:    -4.035      1.306      3.980
REMARK INTER + INTRA:          -4.812
REMARK INTER:                  -4.519
REMARK INTRA:                  -0.293
REMARK UNBOUND:                -0.305
REMARK SMILES CC(=O)c1ccc(O)cc1O
REMARK SMILES IDX 4 1 10 2 9 3 7 4 6 5 5 6 2 7 1 8 3 9 11 10 8 12
REMARK H PARENT 11 11 8 13
REMARK Flexibility Score: inf
ROOT
ATOM      1  C   UNL     1    -117.326-100.186   0.750  1.00  0.00     0.059 A 
ATOM      2  C   UNL     1    -117.065-101.538   0.410  1.00  0.00     0.130 A 
ATOM      3  C   UNL     1    -118.075-102.497   0.554  1.00  0.00     0.093 A 
ATOM      4  C   UNL     1    -119.351-102.132   0.997  1.00  0.00     0.119 A 
ATOM      5  C   UNL     1    -119.620-100.797   1.304  1.00  0.00     0.047 A 
ATOM      6  C   UNL     1    -118.619 -99.832   1.182  1.00  0.00     0.019 A 
ENDROOT
BRANCH   1   7
ATOM      7  C   UNL     1    -116.273 -99.145   0.698  1.00  0.00     0.163 C 
ATOM      8  C   UNL     1    -116.207 -98.059   1.727  1.00  0.00     0.093 C 
ATOM      9  O   UNL     1    -115.365 -99.212  -0.172  1.00  0.00    -0.294 OA
ENDBRANCH   1   7
BRANCH   2  10
ATOM     10  O   UNL     1    -115.833-101.956  -0.098  1.00  0.00    -0.507 OA
ATOM     11  H   UNL     1    -115.062-102.253   0.485  1.00  0.00     0.293 HD
ENDBRANCH   2  10
BRANCH   4  12
ATOM     12  O   UNL     1    -120.357-103.085   1.133  1.00  0.00    -0.508 OA
ATOM     13  H   UNL     1    -121.324-102.818   1.270  1.00  0.00     0.293 HD
ENDBRANCH   4  12
TORSDOF 3
ENDMDL
MODEL 3
REMARK VINA RESULT:    -3.823      1.430      3.925
REMARK INTER + INTRA:          -4.575
REMARK INTER:                  -4.264
REMARK INTRA:                  -0.311
REMARK UNBOUND:                -0.305
REMARK SMILES CC(=O)c1ccc(O)cc1O
REMARK SMILES IDX 4 1 10 2 9 3 7 4 6 5 5 6 2 7 1 8 3 9 11 10 8 12
REMARK H PARENT 11 11 8 13
REMARK Flexibility Score: inf
ROOT
ATOM      1  C   UNL     1    -119.215-100.871   0.831  1.00  0.00     0.059 A 
ATOM      2  C   UNL     1    -120.121-101.754   1.471  1.00  0.00     0.130 A 
ATOM      3  C   UNL     1    -121.054-101.249   2.385  1.00  0.00     0.093 A 
ATOM      4  C   UNL     1    -121.125 -99.877   2.649  1.00  0.00     0.119 A 
ATOM      5  C   UNL     1    -120.255 -99.001   1.998  1.00  0.00     0.047 A 
ATOM      6  C   UNL     1    -119.308 -99.492   1.097  1.00  0.00     0.019 A 
ENDROOT
BRANCH   1   7
ATOM      7  C   UNL     1    -118.153-101.360  -0.080  1.00  0.00     0.163 C 
ATOM      8  C   UNL     1    -116.720-100.978   0.128  1.00  0.00     0.093 C 
ATOM      9  O   UNL     1    -118.437-102.175  -0.997  1.00  0.00    -0.294 OA
ENDBRANCH   1   7
BRANCH   2  10
ATOM     10  O   UNL     1    -120.143-103.125   1.205  1.00  0.00    -0.507 OA
ATOM     11  H   UNL     1    -119.354-103.632   0.827  1.00  0.00     0.293 HD
ENDBRANCH   2  10
BRANCH   4  12
ATOM     12  O   UNL     1    -122.058 -99.374   3.552  1.00  0.00    -0.508 OA
ATOM     13  H   UNL     1    -122.984 -99.089   3.254  1.00  0.00     0.293 HD
ENDBRANCH   4  12
TORSDOF 3
ENDMDL
MODEL 4
REMARK VINA RESULT:    -3.794      8.437      9.675
REMARK INTER + INTRA:          -4.542
REMARK INTER:                  -4.273
REMARK INTRA:                  -0.270
REMARK UNBOUND:                -0.305
REMARK SMILES CC(=O)c1ccc(O)cc1O
REMARK SMILES IDX 4 1 10 2 9 3 7 4 6 5 5 6 2 7 1 8 3 9 11 10 8 12
REMARK H PARENT 11 11 8 13
REMARK Flexibility Score: inf
ROOT
ATOM      1  C   UNL     1    -113.927 -95.316   5.747  1.00  0.00     0.059 A 
ATOM      2  C   UNL     1    -115.177 -95.788   6.218  1.00  0.00     0.130 A 
ATOM      3  C   UNL     1    -116.348 -95.087   5.903  1.00  0.00     0.093 A 
ATOM      4  C   UNL     1    -116.301 -93.943   5.098  1.00  0.00     0.119 A 
ATOM      5  C   UNL     1    -115.075 -93.493   4.607  1.00  0.00     0.047 A 
ATOM      6  C   UNL     1    -113.897 -94.172   4.927  1.00  0.00     0.019 A 
ENDROOT
BRANCH   1   7
ATOM      7  C   UNL     1    -112.649 -95.969   6.119  1.00  0.00     0.163 C 
ATOM      8  C   UNL     1    -111.377 -95.647   5.398  1.00  0.00     0.093 C 
ATOM      9  O   UNL     1    -112.605 -96.745   7.110  1.00  0.00    -0.294 OA
ENDBRANCH   1   7
BRANCH   2  10
ATOM     10  O   UNL     1    -115.299 -96.957   6.972  1.00  0.00    -0.507 OA
ATOM     11  H   UNL     1    -114.650 -97.730   6.911  1.00  0.00     0.293 HD
ENDBRANCH   2  10
BRANCH   4  12
ATOM     12  O   UNL     1    -117.466 -93.251   4.778  1.00  0.00    -0.508 OA
ATOM     13  H   UNL     1    -117.526 -92.244   4.870  1.00  0.00     0.293 HD
ENDBRANCH   4  12
TORSDOF 3
ENDMDL
MODEL 5
REMARK VINA RESULT:    -3.745      1.481      2.262
REMARK INTER + INTRA:          -4.488
REMARK INTER:                  -4.177
REMARK INTRA:                  -0.310
REMARK UNBOUND:                -0.305
REMARK SMILES CC(=O)c1ccc(O)cc1O
REMARK SMILES IDX 4 1 10 2 9 3 7 4 6 5 5 6 2 7 1 8 3 9 11 10 8 12
REMARK H PARENT 11 11 8 13
REMARK Flexibility Score: inf
ROOT
ATOM      1  C   UNL     1    -119.704-100.427   1.479  1.00  0.00     0.059 A 
ATOM      2  C   UNL     1    -118.659 -99.533   1.136  1.00  0.00     0.130 A 
ATOM      3  C   UNL     1    -117.435-100.037   0.680  1.00  0.00     0.093 A 
ATOM      4  C   UNL     1    -117.242-101.415   0.527  1.00  0.00     0.119 A 
ATOM      5  C   UNL     1    -118.279-102.297   0.836  1.00  0.00     0.047 A 
ATOM      6  C   UNL     1    -119.499-101.809   1.307  1.00  0.00     0.019 A 
ENDROOT
BRANCH   1   7
ATOM      7  C   UNL     1    -120.989 -99.954   2.046  1.00  0.00     0.163 C 
ATOM      8  C   UNL     1    -121.539-100.539   3.310  1.00  0.00     0.093 C 
ATOM      9  O   UNL     1    -121.594 -98.988   1.510  1.00  0.00    -0.294 OA
ENDBRANCH   1   7
BRANCH   2  10
ATOM     10  O   UNL     1    -118.808 -98.146   1.206  1.00  0.00    -0.507 OA
ATOM     11  H   UNL     1    -118.739 -97.537   0.401  1.00  0.00     0.293 HD
ENDBRANCH   2  10
BRANCH   4  12
ATOM     12  O   UNL     1    -116.027-101.916   0.067  1.00  0.00    -0.508 OA
ATOM     13  H   UNL     1    -115.366-101.330  -0.429  1.00  0.00     0.293 HD
ENDBRANCH   4  12
TORSDOF 3
ENDMDL
MODEL 6
REMARK VINA RESULT:    -3.657      1.477      2.009
REMARK INTER + INTRA:          -4.389
REMARK INTER:                  -4.104
REMARK INTRA:                  -0.285
REMARK UNBOUND:                -0.305
REMARK SMILES CC(=O)c1ccc(O)cc1O
REMARK SMILES IDX 4 1 10 2 9 3 7 4 6 5 5 6 2 7 1 8 3 9 11 10 8 12
REMARK H PARENT 11 11 8 13
REMARK Flexibility Score: inf
ROOT
ATOM      1  C   UNL     1    -119.093-100.844   1.402  1.00  0.00     0.059 A 
ATOM      2  C   UNL     1    -117.855-101.492   1.165  1.00  0.00     0.130 A 
ATOM      3  C   UNL     1    -116.746-100.742   0.755  1.00  0.00     0.093 A 
ATOM      4  C   UNL     1    -116.836 -99.353   0.609  1.00  0.00     0.119 A 
ATOM      5  C   UNL     1    -118.046 -98.708   0.871  1.00  0.00     0.047 A 
ATOM      6  C   UNL     1    -119.165 -99.445   1.264  1.00  0.00     0.019 A 
ENDROOT
BRANCH   1   7
ATOM      7  C   UNL     1    -120.320-101.597   1.755  1.00  0.00     0.163 C 
ATOM      8  C   UNL     1    -121.474-100.923   2.430  1.00  0.00     0.093 C 
ATOM      9  O   UNL     1    -120.437-102.804   1.413  1.00  0.00    -0.294 OA
ENDBRANCH   1   7
BRANCH   2  10
ATOM     10  O   UNL     1    -117.682-102.865   1.353  1.00  0.00    -0.507 OA
ATOM     11  H   UNL     1    -118.244-103.566   0.890  1.00  0.00     0.293 HD
ENDBRANCH   2  10
BRANCH   4  12
ATOM     12  O   UNL     1    -115.731 -98.607   0.210  1.00  0.00    -0.508 OA
ATOM     13  H   UNL     1    -115.696 -98.157  -0.698  1.00  0.00     0.293 HD
ENDBRANCH   4  12
TORSDOF 3
ENDMDL
MODEL 7
REMARK VINA RESULT:    -3.602      8.777      9.414
REMARK INTER + INTRA:          -4.329
REMARK INTER:                  -4.085
REMARK INTRA:                  -0.244
REMARK UNBOUND:                -0.305
REMARK SMILES CC(=O)c1ccc(O)cc1O
REMARK SMILES IDX 4 1 10 2 9 3 7 4 6 5 5 6 2 7 1 8 3 9 11 10 8 12
REMARK H PARENT 11 11 8 13
REMARK Flexibility Score: inf
ROOT
ATOM      1  C   UNL     1    -115.081 -93.700   4.920  1.00  0.00     0.059 A 
ATOM      2  C   UNL     1    -115.854 -94.597   5.700  1.00  0.00     0.130 A 
ATOM      3  C   UNL     1    -115.216 -95.606   6.432  1.00  0.00     0.093 A 
ATOM      4  C   UNL     1    -113.821 -95.718   6.429  1.00  0.00     0.119 A 
ATOM      5  C   UNL     1    -113.056 -94.818   5.686  1.00  0.00     0.047 A 
ATOM      6  C   UNL     1    -113.679 -93.817   4.938  1.00  0.00     0.019 A 
ENDROOT
BRANCH   1   7
ATOM      7  C   UNL     1    -115.708 -92.667   4.060  1.00  0.00     0.163 C 
ATOM      8  C   UNL     1    -115.784 -92.841   2.574  1.00  0.00     0.093 C 
ATOM      9  O   UNL     1    -116.260 -91.663   4.583  1.00  0.00    -0.294 OA
ENDBRANCH   1   7
BRANCH   2  10
ATOM     10  O   UNL     1    -117.243 -94.499   5.796  1.00  0.00    -0.507 OA
ATOM     11  H   UNL     1    -117.878 -94.899   5.117  1.00  0.00     0.293 HD
ENDBRANCH   2  10
BRANCH   4  12
ATOM     12  O   UNL     1    -113.186 -96.717   7.164  1.00  0.00    -0.508 OA
ATOM     13  H   UNL     1    -113.352 -96.830   8.157  1.00  0.00     0.293 HD
ENDBRANCH   4  12
TORSDOF 3
ENDMDL
MODEL 8
REMARK VINA RESULT:    -3.577      2.118      3.746
REMARK INTER + INTRA:          -4.301
REMARK INTER:                  -3.993
REMARK INTRA:                  -0.307
REMARK UNBOUND:                -0.305
REMARK SMILES CC(=O)c1ccc(O)cc1O
REMARK SMILES IDX 4 1 10 2 9 3 7 4 6 5 5 6 2 7 1 8 3 9 11 10 8 12
REMARK H PARENT 11 11 8 13
REMARK Flexibility Score: inf
ROOT
ATOM      1  C   UNL     1    -118.373 -99.398   1.216  1.00  0.00     0.059 A 
ATOM      2  C   UNL     1    -119.766 -99.458   1.471  1.00  0.00     0.130 A 
ATOM      3  C   UNL     1    -120.421-100.695   1.459  1.00  0.00     0.093 A 
ATOM      4  C   UNL     1    -119.710-101.879   1.232  1.00  0.00     0.119 A 
ATOM      5  C   UNL     1    -118.333-101.826   1.010  1.00  0.00     0.047 A 
ATOM      6  C   UNL     1    -117.669-100.598   1.002  1.00  0.00     0.019 A 
ENDROOT
BRANCH   1   7
ATOM      7  C   UNL     1    -117.643 -98.110   1.132  1.00  0.00     0.163 C 
ATOM      8  C   UNL     1    -116.267 -97.962   1.702  1.00  0.00     0.093 C 
ATOM      9  O   UNL     1    -118.147 -97.143   0.501  1.00  0.00    -0.294 OA
ENDBRANCH   1   7
BRANCH   2  10
ATOM     10  O   UNL     1    -120.521 -98.321   1.767  1.00  0.00    -0.507 OA
ATOM     11  H   UNL     1    -121.447 -98.358   2.171  1.00  0.00     0.293 HD
ENDBRANCH   2  10
BRANCH   4  12
ATOM     12  O   UNL     1    -120.361-103.110   1.229  1.00  0.00    -0.508 OA
ATOM     13  H   UNL     1    -120.731-103.516   2.080  1.00  0.00     0.293 HD
ENDBRANCH   4  12
TORSDOF 3
ENDMDL
MODEL 9
REMARK VINA RESULT:    -3.565     14.752     15.921
REMARK INTER + INTRA:          -4.287
REMARK INTER:                  -3.985
REMARK INTRA:                  -0.302
REMARK UNBOUND:                -0.305
REMARK SMILES CC(=O)c1ccc(O)cc1O
REMARK SMILES IDX 4 1 10 2 9 3 7 4 6 5 5 6 2 7 1 8 3 9 11 10 8 12
REMARK H PARENT 11 11 8 13
REMARK Flexibility Score: inf
ROOT
ATOM      1  C   UNL     1    -116.247 -97.033  15.297  1.00  0.00     0.059 A 
ATOM      2  C   UNL     1    -116.367 -96.477  16.595  1.00  0.00     0.130 A 
ATOM      3  C   UNL     1    -116.714 -95.128  16.743  1.00  0.00     0.093 A 
ATOM      4  C   UNL     1    -116.976 -94.330  15.624  1.00  0.00     0.119 A 
ATOM      5  C   UNL     1    -116.887 -94.883  14.345  1.00  0.00     0.047 A 
ATOM      6  C   UNL     1    -116.527 -96.222  14.181  1.00  0.00     0.019 A 
ENDROOT
BRANCH   1   7
ATOM      7  C   UNL     1    -115.801 -98.430  15.079  1.00  0.00     0.163 C 
ATOM      8  C   UNL     1    -114.812 -98.768  14.007  1.00  0.00     0.093 C 
ATOM      9  O   UNL     1    -116.192 -99.343  15.854  1.00  0.00    -0.294 OA
ENDBRANCH   1   7
BRANCH   2  10
ATOM     10  O   UNL     1    -116.181 -97.234  17.754  1.00  0.00    -0.507 OA
ATOM     11  H   UNL     1    -116.354 -98.229  17.802  1.00  0.00     0.293 HD
ENDBRANCH   2  10
BRANCH   4  12
ATOM     12  O   UNL     1    -117.328 -92.991  15.771  1.00  0.00    -0.508 OA
ATOM     13  H   UNL     1    -118.235 -92.647  15.478  1.00  0.00     0.293 HD
ENDBRANCH   4  12
TORSDOF 3
ENDMDL
