MODEL 1
REMARK VINA RESULT:    -6.784      0.000      0.000
REMARK INTER + INTRA:         -10.270
REMARK INTER:                  -9.956
REMARK INTRA:                  -0.314
REMARK UNBOUND:                -0.314
REMARK SMILES Cc1cc2c(C(C)C)c(O)c(O)c(C=O)c2c(O)c1-c1c(C)cc2c(C(C)C)c(O)c(O)c(C=O)c2c1O
REMARK SMILES IDX 1 1 2 2 3 3 4 4 16 5 13 6 11 7 9 8 5 9 17 10 19 11 20 12
REMARK SMILES IDX 37 13 21 14 36 15 23 16 22 17 24 18 33 19 25 20 31 21 29 22
REMARK SMILES IDX 38 23 34 25 35 26 26 27 27 28 28 29 32 30 30 32 18 34 6 36
REMARK SMILES IDX 7 37 8 38 14 39 15 40 10 41 12 43
REMARK H PARENT 38 24 32 31 30 33 18 35 10 42 12 44
REMARK Flexibility Score: inf
ROOT
ATOM      1  C   UNL     1      57.623  65.412 131.246  1.00  0.00     0.045 C 
ATOM      2  C   UNL     1      56.341  65.855 130.585  1.00  0.00    -0.039 A 
ATOM      3  C   UNL     1      55.144  65.213 130.910  1.00  0.00     0.013 A 
ATOM      4  C   UNL     1      53.919  65.575 130.318  1.00  0.00    -0.006 A 
ATOM      5  C   UNL     1      53.934  66.517 129.246  1.00  0.00     0.039 A 
ATOM      6  C   UNL     1      52.750  66.708 128.477  1.00  0.00     0.072 A 
ATOM      7  C   UNL     1      51.578  66.010 128.817  1.00  0.00     0.169 A 
ATOM      8  C   UNL     1      51.543  65.157 129.924  1.00  0.00     0.162 A 
ATOM      9  C   UNL     1      52.683  65.001 130.753  1.00  0.00     0.008 A 
ATOM     10  C   UNL     1      55.131  67.253 128.997  1.00  0.00     0.132 A 
ATOM     11  C   UNL     1      56.330  66.908 129.657  1.00  0.00     0.031 A 
ENDROOT
BRANCH  11  12
ATOM     12  C   UNL     1      57.586  67.646 129.363  1.00  0.00     0.031 A 
ATOM     13  C   UNL     1      58.164  67.578 128.077  1.00  0.00     0.132 A 
ATOM     14  C   UNL     1      58.210  68.392 130.377  1.00  0.00    -0.039 A 
ATOM     15  C   UNL     1      59.402  68.236 127.806  1.00  0.00     0.039 A 
ATOM     16  C   UNL     1      59.372  69.107 130.088  1.00  0.00     0.013 A 
ATOM     17  C   UNL     1      57.639  68.436 131.773  1.00  0.00     0.045 C 
ATOM     18  C   UNL     1      59.950  69.102 128.800  1.00  0.00    -0.006 A 
ATOM     19  C   UNL     1      60.105  68.066 126.575  1.00  0.00     0.072 A 
ATOM     20  C   UNL     1      61.080  69.921 128.493  1.00  0.00     0.008 A 
ATOM     21  C   UNL     1      61.323  68.745 126.364  1.00  0.00     0.169 A 
ATOM     22  C   UNL     1      61.799  69.663 127.307  1.00  0.00     0.162 A 
BRANCH  13  23
ATOM     23  O   UNL     1      57.497  66.879 127.063  1.00  0.00    -0.507 OA
ATOM     24  H   UNL     1      57.216  67.293 126.183  1.00  0.00     0.293 HD
ENDBRANCH  13  23
BRANCH  19  25
ATOM     25  C   UNL     1      59.648  67.116 125.539  1.00  0.00     0.264 C 
ATOM     26  O   UNL     1      59.202  67.536 124.438  1.00  0.00    -0.298 OA
ENDBRANCH  19  25
BRANCH  20  27
ATOM     27  C   UNL     1      61.534  71.053 129.432  1.00  0.00     0.017 C 
ATOM     28  C   UNL     1      62.841  70.682 130.141  1.00  0.00     0.012 C 
ATOM     29  C   UNL     1      61.642  72.426 128.743  1.00  0.00     0.012 C 
ENDBRANCH  20  27
BRANCH  21  30
ATOM     30  O   UNL     1      62.104  68.512 125.226  1.00  0.00    -0.504 OA
ATOM     31  H   UNL     1      61.787  68.669 124.280  1.00  0.00     0.293 HD
ENDBRANCH  21  30
BRANCH  22  32
ATOM     32  O   UNL     1      63.016  70.308 127.078  1.00  0.00    -0.504 OA
ATOM     33  H   UNL     1      63.492  70.290 126.183  1.00  0.00     0.293 HD
ENDBRANCH  22  32
ENDBRANCH  11  12
BRANCH  10  34
ATOM     34  O   UNL     1      55.117  68.348 128.127  1.00  0.00    -0.507 OA
ATOM     35  H   UNL     1      55.150  68.268 127.119  1.00  0.00     0.293 HD
ENDBRANCH  10  34
BRANCH   9  36
ATOM     36  C   UNL     1      52.505  64.315 132.121  1.00  0.00     0.017 C 
ATOM     37  C   UNL     1      51.739  65.192 133.121  1.00  0.00     0.012 C 
ATOM     38  C   UNL     1      51.956  62.876 132.051  1.00  0.00     0.012 C 
ENDBRANCH   9  36
BRANCH   6  39
ATOM     39  C   UNL     1      52.734  67.504 127.227  1.00  0.00     0.264 C 
ATOM     40  O   UNL     1      52.150  68.619 127.176  1.00  0.00    -0.298 OA
ENDBRANCH   6  39
BRANCH   8  41
ATOM     41  O   UNL     1      50.357  64.452 130.157  1.00  0.00    -0.504 OA
ATOM     42  H   UNL     1      49.840  63.956 129.442  1.00  0.00     0.293 HD
ENDBRANCH   8  41
BRANCH   7  43
ATOM     43  O   UNL     1      50.438  66.153 128.016  1.00  0.00    -0.504 OA
ATOM     44  H   UNL     1      49.719  66.842 128.198  1.00  0.00     0.293 HD
ENDBRANCH   7  43
TORSDOF 11
ENDMDL
MODEL 2
REMARK VINA RESULT:    -6.514      1.008      8.974
REMARK INTER + INTRA:          -9.875
REMARK INTER:                  -9.850
REMARK INTRA:                  -0.024
REMARK UNBOUND:                -0.314
REMARK SMILES Cc1cc2c(C(C)C)c(O)c(O)c(C=O)c2c(O)c1-c1c(C)cc2c(C(C)C)c(O)c(O)c(C=O)c2c1O
REMARK SMILES IDX 1 1 2 2 3 3 4 4 16 5 13 6 11 7 9 8 5 9 17 10 19 11 20 12
REMARK SMILES IDX 37 13 21 14 36 15 23 16 22 17 24 18 33 19 25 20 31 21 29 22
REMARK SMILES IDX 38 23 34 25 35 26 26 27 27 28 28 29 32 30 30 32 18 34 6 36
REMARK SMILES IDX 7 37 8 38 14 39 15 40 10 41 12 43
REMARK H PARENT 38 24 32 31 30 33 18 35 10 42 12 44
REMARK Flexibility Score: inf
ROOT
ATOM      1  C   UNL     1      58.124  69.337 131.124  1.00  0.00     0.045 C 
ATOM      2  C   UNL     1      58.760  68.983 129.802  1.00  0.00    -0.039 A 
ATOM      3  C   UNL     1      59.991  69.545 129.460  1.00  0.00     0.013 A 
ATOM      4  C   UNL     1      60.627  69.261 128.237  1.00  0.00    -0.006 A 
ATOM      5  C   UNL     1      59.915  68.501 127.261  1.00  0.00     0.039 A 
ATOM      6  C   UNL     1      60.436  68.414 125.938  1.00  0.00     0.072 A 
ATOM      7  C   UNL     1      61.661  69.029 125.629  1.00  0.00     0.169 A 
ATOM      8  C   UNL     1      62.400  69.695 126.612  1.00  0.00     0.162 A 
ATOM      9  C   UNL     1      61.945  69.738 127.954  1.00  0.00     0.008 A 
ATOM     10  C   UNL     1      58.716  67.834 127.653  1.00  0.00     0.132 A 
ATOM     11  C   UNL     1      58.138  68.089 128.915  1.00  0.00     0.031 A 
ENDROOT
BRANCH  11  12
ATOM     12  C   UNL     1      56.865  67.429 129.304  1.00  0.00     0.031 A 
ATOM     13  C   UNL     1      55.683  67.681 128.574  1.00  0.00     0.132 A 
ATOM     14  C   UNL     1      56.836  66.571 130.417  1.00  0.00    -0.039 A 
ATOM     15  C   UNL     1      54.445  67.096 128.981  1.00  0.00     0.039 A 
ATOM     16  C   UNL     1      55.646  65.929 130.759  1.00  0.00     0.013 A 
ATOM     17  C   UNL     1      58.076  66.329 131.243  1.00  0.00     0.045 C 
ATOM     18  C   UNL     1      54.457  66.120 130.022  1.00  0.00    -0.006 A 
ATOM     19  C   UNL     1      53.200  67.445 128.376  1.00  0.00     0.072 A 
ATOM     20  C   UNL     1      53.274  65.377 130.322  1.00  0.00     0.008 A 
ATOM     21  C   UNL     1      52.010  66.831 128.818  1.00  0.00     0.169 A 
ATOM     22  C   UNL     1      52.048  65.808 129.772  1.00  0.00     0.162 A 
BRANCH  13  23
ATOM     23  O   UNL     1      55.743  68.491 127.434  1.00  0.00    -0.507 OA
ATOM     24  H   UNL     1      56.123  68.188 126.546  1.00  0.00     0.293 HD
ENDBRANCH  13  23
BRANCH  19  25
ATOM     25  C   UNL     1      53.098  68.512 127.359  1.00  0.00     0.264 C 
ATOM     26  O   UNL     1      52.803  68.233 126.166  1.00  0.00    -0.298 OA
ENDBRANCH  19  25
BRANCH  20  27
ATOM     27  C   UNL     1      53.308  64.142 131.241  1.00  0.00     0.017 C 
ATOM     28  C   UNL     1      52.647  64.448 132.590  1.00  0.00     0.012 C 
ATOM     29  C   UNL     1      52.713  62.875 130.600  1.00  0.00     0.012 C 
ENDBRANCH  20  27
BRANCH  21  30
ATOM     30  O   UNL     1      50.757  67.232 128.340  1.00  0.00    -0.504 OA
ATOM     31  H   UNL     1      50.619  67.965 127.657  1.00  0.00     0.293 HD
ENDBRANCH  21  30
BRANCH  22  32
ATOM     32  O   UNL     1      50.852  65.230 130.202  1.00  0.00    -0.504 OA
ATOM     33  H   UNL     1      50.814  64.366 130.730  1.00  0.00     0.293 HD
ENDBRANCH  22  32
ENDBRANCH  11  12
BRANCH  10  34
ATOM     34  O   UNL     1      58.125  66.890 126.806  1.00  0.00    -0.507 OA
ATOM     35  H   UNL     1      57.382  66.264 127.090  1.00  0.00     0.293 HD
ENDBRANCH  10  34
BRANCH   9  36
ATOM     36  C   UNL     1      62.931  70.196 129.046  1.00  0.00     0.017 C 
ATOM     37  C   UNL     1      64.333  69.601 128.857  1.00  0.00     0.012 C 
ATOM     38  C   UNL     1      62.959  71.717 129.289  1.00  0.00     0.012 C 
ENDBRANCH   9  36
BRANCH   6  39
ATOM     39  C   UNL     1      59.664  67.825 124.818  1.00  0.00     0.264 C 
ATOM     40  O   UNL     1      60.024  66.744 124.281  1.00  0.00    -0.298 OA
ENDBRANCH   6  39
BRANCH   8  41
ATOM     41  O   UNL     1      63.578  70.335 126.208  1.00  0.00    -0.504 OA
ATOM     42  H   UNL     1      64.422  69.851 125.929  1.00  0.00     0.293 HD
ENDBRANCH   8  41
BRANCH   7  43
ATOM     43  O   UNL     1      62.133  68.996 124.311  1.00  0.00    -0.504 OA
ATOM     44  H   UNL     1      61.611  69.371 123.529  1.00  0.00     0.293 HD
ENDBRANCH   7  43
TORSDOF 11
ENDMDL
MODEL 3
REMARK VINA RESULT:    -5.965      3.431      9.836
REMARK INTER + INTRA:          -9.069
REMARK INTER:                  -8.911
REMARK INTRA:                  -0.158
REMARK UNBOUND:                -0.314
REMARK SMILES Cc1cc2c(C(C)C)c(O)c(O)c(C=O)c2c(O)c1-c1c(C)cc2c(C(C)C)c(O)c(O)c(C=O)c2c1O
REMARK SMILES IDX 1 1 2 2 3 3 4 4 16 5 13 6 11 7 9 8 5 9 17 10 19 11 20 12
REMARK SMILES IDX 37 13 21 14 36 15 23 16 22 17 24 18 33 19 25 20 31 21 29 22
REMARK SMILES IDX 38 23 34 25 35 26 26 27 27 28 28 29 32 30 30 32 18 34 6 36
REMARK SMILES IDX 7 37 8 38 14 39 15 40 10 41 12 43
REMARK H PARENT 38 24 32 31 30 33 18 35 10 42 12 44
REMARK Flexibility Score: inf
ROOT
ATOM      1  C   UNL     1      59.026  68.874 127.651  1.00  0.00     0.045 C 
ATOM      2  C   UNL     1      60.325  69.308 128.285  1.00  0.00    -0.039 A 
ATOM      3  C   UNL     1      61.478  69.388 127.500  1.00  0.00     0.013 A 
ATOM      4  C   UNL     1      62.720  69.776 128.038  1.00  0.00    -0.006 A 
ATOM      5  C   UNL     1      62.828  69.937 129.452  1.00  0.00     0.039 A 
ATOM      6  C   UNL     1      64.120  70.084 130.034  1.00  0.00     0.072 A 
ATOM      7  C   UNL     1      65.256  70.122 129.208  1.00  0.00     0.169 A 
ATOM      8  C   UNL     1      65.138  70.055 127.816  1.00  0.00     0.162 A 
ATOM      9  C   UNL     1      63.862  69.981 127.202  1.00  0.00     0.008 A 
ATOM     10  C   UNL     1      61.633  69.969 130.232  1.00  0.00     0.132 A 
ATOM     11  C   UNL     1      60.392  69.641 129.646  1.00  0.00     0.031 A 
ENDROOT
BRANCH  11  12
ATOM     12  C   UNL     1      59.155  69.629 130.470  1.00  0.00     0.031 A 
ATOM     13  C   UNL     1      58.494  68.412 130.742  1.00  0.00     0.132 A 
ATOM     14  C   UNL     1      58.631  70.839 130.958  1.00  0.00    -0.039 A 
ATOM     15  C   UNL     1      57.273  68.403 131.482  1.00  0.00     0.039 A 
ATOM     16  C   UNL     1      57.488  70.820 131.757  1.00  0.00     0.013 A 
ATOM     17  C   UNL     1      59.292  72.157 130.637  1.00  0.00     0.045 C 
ATOM     18  C   UNL     1      56.830  69.616 132.089  1.00  0.00    -0.006 A 
ATOM     19  C   UNL     1      56.485  67.223 131.644  1.00  0.00     0.072 A 
ATOM     20  C   UNL     1      55.722  69.604 132.991  1.00  0.00     0.008 A 
ATOM     21  C   UNL     1      55.290  67.275 132.390  1.00  0.00     0.169 A 
ATOM     22  C   UNL     1      54.917  68.447 133.058  1.00  0.00     0.162 A 
BRANCH  13  23
ATOM     23  O   UNL     1      59.062  67.212 130.298  1.00  0.00    -0.507 OA
ATOM     24  H   UNL     1      58.598  66.314 130.351  1.00  0.00     0.293 HD
ENDBRANCH  13  23
BRANCH  19  25
ATOM     25  C   UNL     1      56.832  65.955 130.969  1.00  0.00     0.264 C 
ATOM     26  O   UNL     1      56.025  65.417 130.165  1.00  0.00    -0.298 OA
ENDBRANCH  19  25
BRANCH  20  27
ATOM     27  C   UNL     1      55.381  70.824 133.867  1.00  0.00     0.017 C 
ATOM     28  C   UNL     1      54.155  71.562 133.320  1.00  0.00     0.012 C 
ATOM     29  C   UNL     1      55.212  70.488 135.361  1.00  0.00     0.012 C 
ENDBRANCH  20  27
BRANCH  21  30
ATOM     30  O   UNL     1      54.428  66.175 132.470  1.00  0.00    -0.504 OA
ATOM     31  H   UNL     1      54.712  65.254 132.772  1.00  0.00     0.293 HD
ENDBRANCH  21  30
BRANCH  22  32
ATOM     32  O   UNL     1      53.720  68.473 133.775  1.00  0.00    -0.504 OA
ATOM     33  H   UNL     1      52.815  68.600 133.336  1.00  0.00     0.293 HD
ENDBRANCH  22  32
ENDBRANCH  11  12
BRANCH  10  34
ATOM     34  O   UNL     1      61.677  70.366 131.572  1.00  0.00    -0.507 OA
ATOM     35  H   UNL     1      61.901  69.745 132.338  1.00  0.00     0.293 HD
ENDBRANCH  10  34
BRANCH   9  36
ATOM     36  C   UNL     1      63.765  70.231 125.685  1.00  0.00     0.017 C 
ATOM     37  C   UNL     1      63.919  68.942 124.867  1.00  0.00     0.012 C 
ATOM     38  C   UNL     1      62.548  71.071 125.249  1.00  0.00     0.012 C 
ENDBRANCH   9  36
BRANCH   6  39
ATOM     39  C   UNL     1      64.339  70.049 131.499  1.00  0.00     0.264 C 
ATOM     40  O   UNL     1      64.762  71.063 132.116  1.00  0.00    -0.298 OA
ENDBRANCH   6  39
BRANCH   8  41
ATOM     41  O   UNL     1      66.322  70.035 127.069  1.00  0.00    -0.504 OA
ATOM     42  H   UNL     1      66.649  69.235 126.543  1.00  0.00     0.293 HD
ENDBRANCH   8  41
BRANCH   7  43
ATOM     43  O   UNL     1      66.527  70.199 129.792  1.00  0.00    -0.504 OA
ATOM     44  H   UNL     1      66.841  69.565 130.515  1.00  0.00     0.293 HD
ENDBRANCH   7  43
TORSDOF 11
ENDMDL
MODEL 4
REMARK VINA RESULT:    -5.287      3.652      5.956
REMARK INTER + INTRA:          -8.073
REMARK INTER:                  -9.066
REMARK INTRA:                   0.993
REMARK UNBOUND:                -0.314
REMARK SMILES Cc1cc2c(C(C)C)c(O)c(O)c(C=O)c2c(O)c1-c1c(C)cc2c(C(C)C)c(O)c(O)c(C=O)c2c1O
REMARK SMILES IDX 1 1 2 2 3 3 4 4 16 5 13 6 11 7 9 8 5 9 17 10 19 11 20 12
REMARK SMILES IDX 37 13 21 14 36 15 23 16 22 17 24 18 33 19 25 20 31 21 29 22
REMARK SMILES IDX 38 23 34 25 35 26 26 27 27 28 28 29 32 30 30 32 18 34 6 36
REMARK SMILES IDX 7 37 8 38 14 39 15 40 10 41 12 43
REMARK H PARENT 38 24 32 31 30 33 18 35 10 42 12 44
REMARK Flexibility Score: inf
ROOT
ATOM      1  C   UNL     1      60.478  71.885 129.864  1.00  0.00     0.045 C 
ATOM      2  C   UNL     1      59.525  70.750 130.149  1.00  0.00    -0.039 A 
ATOM      3  C   UNL     1      58.548  70.906 131.134  1.00  0.00     0.013 A 
ATOM      4  C   UNL     1      57.638  69.879 131.451  1.00  0.00    -0.006 A 
ATOM      5  C   UNL     1      57.826  68.596 130.855  1.00  0.00     0.039 A 
ATOM      6  C   UNL     1      57.075  67.489 131.346  1.00  0.00     0.072 A 
ATOM      7  C   UNL     1      56.130  67.686 132.367  1.00  0.00     0.169 A 
ATOM      8  C   UNL     1      55.883  68.962 132.884  1.00  0.00     0.162 A 
ATOM      9  C   UNL     1      56.561  70.094 132.367  1.00  0.00     0.008 A 
ATOM     10  C   UNL     1      58.744  68.472 129.770  1.00  0.00     0.132 A 
ATOM     11  C   UNL     1      59.598  69.545 129.433  1.00  0.00     0.031 A 
ENDROOT
BRANCH  11  12
ATOM     12  C   UNL     1      60.586  69.399 128.332  1.00  0.00     0.031 A 
ATOM     13  C   UNL     1      61.969  69.458 128.608  1.00  0.00     0.132 A 
ATOM     14  C   UNL     1      60.138  69.226 127.012  1.00  0.00    -0.039 A 
ATOM     15  C   UNL     1      62.921  69.378 127.546  1.00  0.00     0.039 A 
ATOM     16  C   UNL     1      61.069  69.058 125.986  1.00  0.00     0.013 A 
ATOM     17  C   UNL     1      58.664  69.212 126.687  1.00  0.00     0.045 C 
ATOM     18  C   UNL     1      62.458  69.063 126.233  1.00  0.00    -0.006 A 
ATOM     19  C   UNL     1      64.317  69.594 127.753  1.00  0.00     0.072 A 
ATOM     20  C   UNL     1      63.395  68.786 125.190  1.00  0.00     0.008 A 
ATOM     21  C   UNL     1      65.209  69.498 126.666  1.00  0.00     0.169 A 
ATOM     22  C   UNL     1      64.756  69.095 125.405  1.00  0.00     0.162 A 
BRANCH  13  23
ATOM     23  O   UNL     1      62.397  69.571 129.936  1.00  0.00    -0.507 OA
ATOM     24  H   UNL     1      63.290  69.234 130.272  1.00  0.00     0.293 HD
ENDBRANCH  13  23
BRANCH  19  25
ATOM     25  C   UNL     1      64.856  70.015 129.063  1.00  0.00     0.264 C 
ATOM     26  O   UNL     1      65.060  71.233 129.310  1.00  0.00    -0.298 OA
ENDBRANCH  19  25
BRANCH  20  27
ATOM     27  C   UNL     1      62.950  68.185 123.845  1.00  0.00     0.017 C 
ATOM     28  C   UNL     1      63.272  69.138 122.689  1.00  0.00     0.012 C 
ATOM     29  C   UNL     1      63.509  66.775 123.580  1.00  0.00     0.012 C 
ENDBRANCH  20  27
BRANCH  21  30
ATOM     30  O   UNL     1      66.565  69.822 126.799  1.00  0.00    -0.504 OA
ATOM     31  H   UNL     1      66.908  70.621 127.315  1.00  0.00     0.293 HD
ENDBRANCH  21  30
BRANCH  22  32
ATOM     32  O   UNL     1      65.660  69.025 124.344  1.00  0.00    -0.504 OA
ATOM     33  H   UNL     1      65.380  68.826 123.390  1.00  0.00     0.293 HD
ENDBRANCH  22  32
ENDBRANCH  11  12
BRANCH  10  34
ATOM     34  O   UNL     1      58.778  67.302 129.005  1.00  0.00    -0.507 OA
ATOM     35  H   UNL     1      58.274  66.457 129.242  1.00  0.00     0.293 HD
ENDBRANCH  10  34
BRANCH   9  36
ATOM     36  C   UNL     1      56.032  71.494 132.737  1.00  0.00     0.017 C 
ATOM     37  C   UNL     1      56.994  72.614 132.318  1.00  0.00     0.012 C 
ATOM     38  C   UNL     1      54.579  71.767 132.303  1.00  0.00     0.012 C 
ENDBRANCH   9  36
BRANCH   6  39
ATOM     39  C   UNL     1      57.355  66.094 130.931  1.00  0.00     0.264 C 
ATOM     40  O   UNL     1      56.538  65.454 130.218  1.00  0.00    -0.298 OA
ENDBRANCH   6  39
BRANCH   8  41
ATOM     41  O   UNL     1      54.972  69.063 133.942  1.00  0.00    -0.504 OA
ATOM     42  H   UNL     1      54.158  68.471 134.050  1.00  0.00     0.293 HD
ENDBRANCH   8  41
BRANCH   7  43
ATOM     43  O   UNL     1      55.444  66.582 132.890  1.00  0.00    -0.504 OA
ATOM     44  H   UNL     1      55.470  65.665 132.463  1.00  0.00     0.293 HD
ENDBRANCH   7  43
TORSDOF 11
ENDMDL
MODEL 5
REMARK VINA RESULT:    -5.271      4.274     10.074
REMARK INTER + INTRA:          -8.049
REMARK INTER:                  -7.187
REMARK INTRA:                  -0.862
REMARK UNBOUND:                -0.314
REMARK SMILES Cc1cc2c(C(C)C)c(O)c(O)c(C=O)c2c(O)c1-c1c(C)cc2c(C(C)C)c(O)c(O)c(C=O)c2c1O
REMARK SMILES IDX 1 1 2 2 3 3 4 4 16 5 13 6 11 7 9 8 5 9 17 10 19 11 20 12
REMARK SMILES IDX 37 13 21 14 36 15 23 16 22 17 24 18 33 19 25 20 31 21 29 22
REMARK SMILES IDX 38 23 34 25 35 26 26 27 27 28 28 29 32 30 30 32 18 34 6 36
REMARK SMILES IDX 7 37 8 38 14 39 15 40 10 41 12 43
REMARK H PARENT 38 24 32 31 30 33 18 35 10 42 12 44
REMARK Flexibility Score: inf
ROOT
ATOM      1  C   UNL     1      58.857  68.799 127.917  1.00  0.00     0.045 C 
ATOM      2  C   UNL     1      60.172  69.258 128.499  1.00  0.00    -0.039 A 
ATOM      3  C   UNL     1      61.313  69.265 127.694  1.00  0.00     0.013 A 
ATOM      4  C   UNL     1      62.569  69.672 128.183  1.00  0.00    -0.006 A 
ATOM      5  C   UNL     1      62.701  69.934 129.580  1.00  0.00     0.039 A 
ATOM      6  C   UNL     1      64.004  70.104 130.130  1.00  0.00     0.072 A 
ATOM      7  C   UNL     1      65.128  70.065 129.287  1.00  0.00     0.169 A 
ATOM      8  C   UNL     1      64.986  69.899 127.906  1.00  0.00     0.162 A 
ATOM      9  C   UNL     1      63.700  69.799 127.318  1.00  0.00     0.008 A 
ATOM     10  C   UNL     1      61.520  70.040 130.373  1.00  0.00     0.132 A 
ATOM     11  C   UNL     1      60.264  69.688 129.832  1.00  0.00     0.031 A 
ENDROOT
BRANCH  11  12
ATOM     12  C   UNL     1      59.041  69.754 130.672  1.00  0.00     0.031 A 
ATOM     13  C   UNL     1      58.480  71.004 131.013  1.00  0.00     0.132 A 
ATOM     14  C   UNL     1      58.456  68.568 131.147  1.00  0.00    -0.039 A 
ATOM     15  C   UNL     1      57.340  71.075 131.869  1.00  0.00     0.039 A 
ATOM     16  C   UNL     1      57.290  68.633 131.910  1.00  0.00     0.013 A 
ATOM     17  C   UNL     1      59.068  67.223 130.839  1.00  0.00     0.045 C 
ATOM     18  C   UNL     1      56.676  69.864 132.228  1.00  0.00    -0.006 A 
ATOM     19  C   UNL     1      56.836  72.313 132.371  1.00  0.00     0.072 A 
ATOM     20  C   UNL     1      55.427  69.909 132.921  1.00  0.00     0.008 A 
ATOM     21  C   UNL     1      55.704  72.320 133.211  1.00  0.00     0.169 A 
ATOM     22  C   UNL     1      55.007  71.136 133.477  1.00  0.00     0.162 A 
BRANCH  13  23
ATOM     23  O   UNL     1      59.041  72.172 130.482  1.00  0.00    -0.507 OA
ATOM     24  H   UNL     1      59.434  72.237 129.551  1.00  0.00     0.293 HD
ENDBRANCH  13  23
BRANCH  19  25
ATOM     25  C   UNL     1      57.525  73.596 132.119  1.00  0.00     0.264 C 
ATOM     26  O   UNL     1      56.866  74.661 131.985  1.00  0.00    -0.298 OA
ENDBRANCH  19  25
BRANCH  20  27
ATOM     27  C   UNL     1      54.552  68.654 133.089  1.00  0.00     0.017 C 
ATOM     28  C   UNL     1      54.531  68.195 134.551  1.00  0.00     0.012 C 
ATOM     29  C   UNL     1      53.125  68.812 132.532  1.00  0.00     0.012 C 
ENDBRANCH  20  27
BRANCH  21  30
ATOM     30  O   UNL     1      55.252  73.495 133.823  1.00  0.00    -0.504 OA
ATOM     31  H   UNL     1      55.595  74.419 133.597  1.00  0.00     0.293 HD
ENDBRANCH  21  30
BRANCH  22  32
ATOM     32  O   UNL     1      53.899  71.171 134.325  1.00  0.00    -0.504 OA
ATOM     33  H   UNL     1      53.189  70.448 134.339  1.00  0.00     0.293 HD
ENDBRANCH  22  32
ENDBRANCH  11  12
BRANCH  10  34
ATOM     34  O   UNL     1      61.590  70.533 131.680  1.00  0.00    -0.507 OA
ATOM     35  H   UNL     1      61.941  71.450 131.920  1.00  0.00     0.293 HD
ENDBRANCH  10  34
BRANCH   9  36
ATOM     36  C   UNL     1      63.583  69.940 125.788  1.00  0.00     0.017 C 
ATOM     37  C   UNL     1      63.437  68.585 125.083  1.00  0.00     0.012 C 
ATOM     38  C   UNL     1      62.538  70.971 125.316  1.00  0.00     0.012 C 
ENDBRANCH   9  36
BRANCH   6  39
ATOM     39  C   UNL     1      64.246  70.172 131.591  1.00  0.00     0.264 C 
ATOM     40  O   UNL     1      64.698  71.219 132.125  1.00  0.00    -0.298 OA
ENDBRANCH   6  39
BRANCH   8  41
ATOM     41  O   UNL     1      66.158  69.807 127.145  1.00  0.00    -0.504 OA
ATOM     42  H   UNL     1      66.787  69.015 127.162  1.00  0.00     0.293 HD
ENDBRANCH   8  41
BRANCH   7  43
ATOM     43  O   UNL     1      66.409  70.166 129.845  1.00  0.00    -0.504 OA
ATOM     44  H   UNL     1      66.874  71.051 130.000  1.00  0.00     0.293 HD
ENDBRANCH   7  43
TORSDOF 11
ENDMDL
MODEL 6
REMARK VINA RESULT:    -4.359      3.306      4.836
REMARK INTER + INTRA:          -6.711
REMARK INTER:                  -8.199
REMARK INTRA:                   1.489
REMARK UNBOUND:                -0.314
REMARK SMILES Cc1cc2c(C(C)C)c(O)c(O)c(C=O)c2c(O)c1-c1c(C)cc2c(C(C)C)c(O)c(O)c(C=O)c2c1O
REMARK SMILES IDX 1 1 2 2 3 3 4 4 16 5 13 6 11 7 9 8 5 9 17 10 19 11 20 12
REMARK SMILES IDX 37 13 21 14 36 15 23 16 22 17 24 18 33 19 25 20 31 21 29 22
REMARK SMILES IDX 38 23 34 25 35 26 26 27 27 28 28 29 32 30 30 32 18 34 6 36
REMARK SMILES IDX 7 37 8 38 14 39 15 40 10 41 12 43
REMARK H PARENT 38 24 32 31 30 33 18 35 10 42 12 44
REMARK Flexibility Score: inf
ROOT
ATOM      1  C   UNL     1      60.043  71.666 130.328  1.00  0.00     0.045 C 
ATOM      2  C   UNL     1      59.123  70.479 130.477  1.00  0.00    -0.039 A 
ATOM      3  C   UNL     1      58.087  70.528 131.412  1.00  0.00     0.013 A 
ATOM      4  C   UNL     1      57.204  69.448 131.604  1.00  0.00    -0.006 A 
ATOM      5  C   UNL     1      57.478  68.219 130.933  1.00  0.00     0.039 A 
ATOM      6  C   UNL     1      56.748  67.052 131.303  1.00  0.00     0.072 A 
ATOM      7  C   UNL     1      55.740  67.140 132.277  1.00  0.00     0.169 A 
ATOM      8  C   UNL     1      55.412  68.365 132.866  1.00  0.00     0.162 A 
ATOM      9  C   UNL     1      56.070  69.557 132.468  1.00  0.00     0.008 A 
ATOM     10  C   UNL     1      58.460  68.206 129.898  1.00  0.00     0.132 A 
ATOM     11  C   UNL     1      59.285  69.332 129.685  1.00  0.00     0.031 A 
ENDROOT
BRANCH  11  12
ATOM     12  C   UNL     1      60.338  69.301 128.637  1.00  0.00     0.031 A 
ATOM     13  C   UNL     1      60.006  68.965 127.307  1.00  0.00     0.132 A 
ATOM     14  C   UNL     1      61.671  69.586 128.980  1.00  0.00    -0.039 A 
ATOM     15  C   UNL     1      61.025  68.876 126.309  1.00  0.00     0.039 A 
ATOM     16  C   UNL     1      62.651  69.587 127.987  1.00  0.00     0.013 A 
ATOM     17  C   UNL     1      62.057  69.898 130.405  1.00  0.00     0.045 C 
ATOM     18  C   UNL     1      62.346  69.303 126.639  1.00  0.00    -0.006 A 
ATOM     19  C   UNL     1      60.766  68.385 124.994  1.00  0.00     0.072 A 
ATOM     20  C   UNL     1      63.340  69.409 125.618  1.00  0.00     0.008 A 
ATOM     21  C   UNL     1      61.811  68.324 124.051  1.00  0.00     0.169 A 
ATOM     22  C   UNL     1      63.078  68.834 124.356  1.00  0.00     0.162 A 
BRANCH  13  23
ATOM     23  O   UNL     1      58.665  68.743 126.972  1.00  0.00    -0.507 OA
ATOM     24  H   UNL     1      58.029  68.187 127.530  1.00  0.00     0.293 HD
ENDBRANCH  13  23
BRANCH  19  25
ATOM     25  C   UNL     1      59.446  67.839 124.610  1.00  0.00     0.264 C 
ATOM     26  O   UNL     1      59.065  67.872 123.410  1.00  0.00    -0.298 OA
ENDBRANCH  19  25
BRANCH  20  27
ATOM     27  C   UNL     1      64.685  70.113 125.872  1.00  0.00     0.017 C 
ATOM     28  C   UNL     1      64.491  71.627 126.013  1.00  0.00     0.012 C 
ATOM     29  C   UNL     1      65.473  69.537 127.064  1.00  0.00     0.012 C 
ENDBRANCH  20  27
BRANCH  21  30
ATOM     30  O   UNL     1      61.630  67.736 122.793  1.00  0.00    -0.504 OA
ATOM     31  H   UNL     1      61.151  68.183 122.023  1.00  0.00     0.293 HD
ENDBRANCH  21  30
BRANCH  22  32
ATOM     32  O   UNL     1      64.098  68.745 123.407  1.00  0.00    -0.504 OA
ATOM     33  H   UNL     1      63.958  68.948 122.424  1.00  0.00     0.293 HD
ENDBRANCH  22  32
ENDBRANCH  11  12
BRANCH  10  34
ATOM     34  O   UNL     1      58.585  67.095 129.057  1.00  0.00    -0.507 OA
ATOM     35  H   UNL     1      58.061  66.974 128.200  1.00  0.00     0.293 HD
ENDBRANCH  10  34
BRANCH   9  36
ATOM     36  C   UNL     1      55.464  70.906 132.902  1.00  0.00     0.017 C 
ATOM     37  C   UNL     1      54.145  71.216 132.181  1.00  0.00     0.012 C 
ATOM     38  C   UNL     1      55.369  71.106 134.427  1.00  0.00     0.012 C 
ENDBRANCH   9  36
BRANCH   6  39
ATOM     39  C   UNL     1      57.108  65.701 130.810  1.00  0.00     0.264 C 
ATOM     40  O   UNL     1      56.302  65.029 130.113  1.00  0.00    -0.298 OA
ENDBRANCH   6  39
BRANCH   8  41
ATOM     41  O   UNL     1      54.440  68.357 133.873  1.00  0.00    -0.504 OA
ATOM     42  H   UNL     1      54.303  67.596 134.525  1.00  0.00     0.293 HD
ENDBRANCH   8  41
BRANCH   7  43
ATOM     43  O   UNL     1      55.073  65.977 132.682  1.00  0.00    -0.504 OA
ATOM     44  H   UNL     1      55.556  65.148 133.004  1.00  0.00     0.293 HD
ENDBRANCH   7  43
TORSDOF 11
ENDMDL
MODEL 7
REMARK VINA RESULT:    -4.326      4.175      5.922
REMARK INTER + INTRA:          -6.663
REMARK INTER:                  -6.579
REMARK INTRA:                  -0.084
REMARK UNBOUND:                -0.314
REMARK SMILES Cc1cc2c(C(C)C)c(O)c(O)c(C=O)c2c(O)c1-c1c(C)cc2c(C(C)C)c(O)c(O)c(C=O)c2c1O
REMARK SMILES IDX 1 1 2 2 3 3 4 4 16 5 13 6 11 7 9 8 5 9 17 10 19 11 20 12
REMARK SMILES IDX 37 13 21 14 36 15 23 16 22 17 24 18 33 19 25 20 31 21 29 22
REMARK SMILES IDX 38 23 34 25 35 26 26 27 27 28 28 29 32 30 30 32 18 34 6 36
REMARK SMILES IDX 7 37 8 38 14 39 15 40 10 41 12 43
REMARK H PARENT 38 24 32 31 30 33 18 35 10 42 12 44
REMARK Flexibility Score: inf
ROOT
ATOM      1  C   UNL     1      58.918  67.304 130.069  1.00  0.00     0.045 C 
ATOM      2  C   UNL     1      58.396  68.555 130.733  1.00  0.00    -0.039 A 
ATOM      3  C   UNL     1      57.279  68.475 131.566  1.00  0.00     0.013 A 
ATOM      4  C   UNL     1      56.741  69.609 132.204  1.00  0.00    -0.006 A 
ATOM      5  C   UNL     1      57.262  70.892 131.861  1.00  0.00     0.039 A 
ATOM      6  C   UNL     1      56.573  72.058 132.303  1.00  0.00     0.072 A 
ATOM      7  C   UNL     1      55.429  71.929 133.109  1.00  0.00     0.169 A 
ATOM      8  C   UNL     1      54.975  70.671 133.518  1.00  0.00     0.162 A 
ATOM      9  C   UNL     1      55.680  69.495 133.156  1.00  0.00     0.008 A 
ATOM     10  C   UNL     1      58.470  70.963 131.106  1.00  0.00     0.132 A 
ATOM     11  C   UNL     1      59.022  69.796 130.535  1.00  0.00     0.031 A 
ENDROOT
BRANCH  11  12
ATOM     12  C   UNL     1      60.256  69.876 129.709  1.00  0.00     0.031 A 
ATOM     13  C   UNL     1      61.488  70.218 130.306  1.00  0.00     0.132 A 
ATOM     14  C   UNL     1      60.186  69.635 128.327  1.00  0.00    -0.039 A 
ATOM     15  C   UNL     1      62.664  70.355 129.507  1.00  0.00     0.039 A 
ATOM     16  C   UNL     1      61.351  69.681 127.561  1.00  0.00     0.013 A 
ATOM     17  C   UNL     1      58.870  69.319 127.659  1.00  0.00     0.045 C 
ATOM     18  C   UNL     1      62.608  69.972 128.134  1.00  0.00    -0.006 A 
ATOM     19  C   UNL     1      63.893  70.854 130.035  1.00  0.00     0.072 A 
ATOM     20  C   UNL     1      63.806  69.913 127.356  1.00  0.00     0.008 A 
ATOM     21  C   UNL     1      65.022  70.964 129.198  1.00  0.00     0.169 A 
ATOM     22  C   UNL     1      64.980  70.495 127.880  1.00  0.00     0.162 A 
BRANCH  13  23
ATOM     23  O   UNL     1      61.550  70.397 131.694  1.00  0.00    -0.507 OA
ATOM     24  H   UNL     1      60.752  70.641 132.267  1.00  0.00     0.293 HD
ENDBRANCH  13  23
BRANCH  19  25
ATOM     25  C   UNL     1      64.001  71.357 131.421  1.00  0.00     0.264 C 
ATOM     26  O   UNL     1      64.620  70.695 132.296  1.00  0.00    -0.298 OA
ENDBRANCH  19  25
BRANCH  20  27
ATOM     27  C   UNL     1      63.833  69.254 125.966  1.00  0.00     0.017 C 
ATOM     28  C   UNL     1      62.931  68.016 125.931  1.00  0.00     0.012 C 
ATOM     29  C   UNL     1      63.502  70.221 124.813  1.00  0.00     0.012 C 
ENDBRANCH  20  27
BRANCH  21  30
ATOM     30  O   UNL     1      66.208  71.561 129.641  1.00  0.00    -0.504 OA
ATOM     31  H   UNL     1      67.076  71.549 129.124  1.00  0.00     0.293 HD
ENDBRANCH  21  30
BRANCH  22  32
ATOM     32  O   UNL     1      66.109  70.632 127.070  1.00  0.00    -0.504 OA
ATOM     33  H   UNL     1      66.889  71.235 127.305  1.00  0.00     0.293 HD
ENDBRANCH  22  32
ENDBRANCH  11  12
BRANCH  10  34
ATOM     34  O   UNL     1      59.141  72.182 130.959  1.00  0.00    -0.507 OA
ATOM     35  H   UNL     1      58.686  73.084 130.997  1.00  0.00     0.293 HD
ENDBRANCH  10  34
BRANCH   9  36
ATOM     36  C   UNL     1      55.334  68.182 133.884  1.00  0.00     0.017 C 
ATOM     37  C   UNL     1      55.029  68.399 135.372  1.00  0.00     0.012 C 
ATOM     38  C   UNL     1      54.270  67.317 133.180  1.00  0.00     0.012 C 
ENDBRANCH   9  36
BRANCH   6  39
ATOM     39  C   UNL     1      56.922  73.417 131.824  1.00  0.00     0.264 C 
ATOM     40  O   UNL     1      57.355  74.293 132.618  1.00  0.00    -0.298 OA
ENDBRANCH   6  39
BRANCH   8  41
ATOM     41  O   UNL     1      53.793  70.625 134.267  1.00  0.00    -0.504 OA
ATOM     42  H   UNL     1      53.728  70.252 135.205  1.00  0.00     0.293 HD
ENDBRANCH   8  41
BRANCH   7  43
ATOM     43  O   UNL     1      54.719  73.077 133.484  1.00  0.00    -0.504 OA
ATOM     44  H   UNL     1      54.705  73.431 134.432  1.00  0.00     0.293 HD
ENDBRANCH   7  43
TORSDOF 11
ENDMDL
MODEL 8
REMARK VINA RESULT:    -4.146      2.514      9.852
REMARK INTER + INTRA:          -6.398
REMARK INTER:                  -6.921
REMARK INTRA:                   0.523
REMARK UNBOUND:                -0.314
REMARK SMILES Cc1cc2c(C(C)C)c(O)c(O)c(C=O)c2c(O)c1-c1c(C)cc2c(C(C)C)c(O)c(O)c(C=O)c2c1O
REMARK SMILES IDX 1 1 2 2 3 3 4 4 16 5 13 6 11 7 9 8 5 9 17 10 19 11 20 12
REMARK SMILES IDX 37 13 21 14 36 15 23 16 22 17 24 18 33 19 25 20 31 21 29 22
REMARK SMILES IDX 38 23 34 25 35 26 26 27 27 28 28 29 32 30 30 32 18 34 6 36
REMARK SMILES IDX 7 37 8 38 14 39 15 40 10 41 12 43
REMARK H PARENT 38 24 32 31 30 33 18 35 10 42 12 44
REMARK Flexibility Score: inf
ROOT
ATOM      1  C   UNL     1      59.912  71.153 129.186  1.00  0.00     0.045 C 
ATOM      2  C   UNL     1      60.834  70.324 128.325  1.00  0.00    -0.039 A 
ATOM      3  C   UNL     1      62.136  70.770 128.086  1.00  0.00     0.013 A 
ATOM      4  C   UNL     1      63.036  70.045 127.283  1.00  0.00    -0.006 A 
ATOM      5  C   UNL     1      62.550  68.907 126.573  1.00  0.00     0.039 A 
ATOM      6  C   UNL     1      63.372  68.313 125.572  1.00  0.00     0.072 A 
ATOM      7  C   UNL     1      64.662  68.820 125.339  1.00  0.00     0.169 A 
ATOM      8  C   UNL     1      65.169  69.877 126.101  1.00  0.00     0.162 A 
ATOM      9  C   UNL     1      64.404  70.442 127.152  1.00  0.00     0.008 A 
ATOM     10  C   UNL     1      61.263  68.389 126.906  1.00  0.00     0.132 A 
ATOM     11  C   UNL     1      60.408  69.107 127.769  1.00  0.00     0.031 A 
ENDROOT
BRANCH  11  12
ATOM     12  C   UNL     1      59.049  68.590 128.080  1.00  0.00     0.031 A 
ATOM     13  C   UNL     1      58.721  68.204 129.397  1.00  0.00     0.132 A 
ATOM     14  C   UNL     1      58.100  68.464 127.052  1.00  0.00    -0.039 A 
ATOM     15  C   UNL     1      57.437  67.651 129.689  1.00  0.00     0.039 A 
ATOM     16  C   UNL     1      56.817  68.007 127.353  1.00  0.00     0.013 A 
ATOM     17  C   UNL     1      58.446  68.821 125.627  1.00  0.00     0.045 C 
ATOM     18  C   UNL     1      56.439  67.659 128.668  1.00  0.00    -0.006 A 
ATOM     19  C   UNL     1      57.114  67.098 130.965  1.00  0.00     0.072 A 
ATOM     20  C   UNL     1      55.094  67.292 128.978  1.00  0.00     0.008 A 
ATOM     21  C   UNL     1      55.828  66.569 131.194  1.00  0.00     0.169 A 
ATOM     22  C   UNL     1      54.831  66.670 130.217  1.00  0.00     0.162 A 
BRANCH  13  23
ATOM     23  O   UNL     1      59.659  68.393 130.419  1.00  0.00    -0.507 OA
ATOM     24  H   UNL     1      60.182  69.249 130.554  1.00  0.00     0.293 HD
ENDBRANCH  13  23
BRANCH  19  25
ATOM     25  C   UNL     1      58.123  66.971 132.038  1.00  0.00     0.264 C 
ATOM     26  O   UNL     1      58.951  66.022 132.029  1.00  0.00    -0.298 OA
ENDBRANCH  19  25
BRANCH  20  27
ATOM     27  C   UNL     1      53.941  67.541 127.989  1.00  0.00     0.017 C 
ATOM     28  C   UNL     1      52.961  66.363 127.985  1.00  0.00     0.012 C 
ATOM     29  C   UNL     1      53.208  68.877 128.212  1.00  0.00     0.012 C 
ENDBRANCH  20  27
BRANCH  21  30
ATOM     30  O   UNL     1      55.509  65.909 132.387  1.00  0.00    -0.504 OA
ATOM     31  H   UNL     1      56.188  65.646 133.088  1.00  0.00     0.293 HD
ENDBRANCH  21  30
BRANCH  22  32
ATOM     32  O   UNL     1      53.572  66.122 130.467  1.00  0.00    -0.504 OA
ATOM     33  H   UNL     1      53.073  65.553 129.793  1.00  0.00     0.293 HD
ENDBRANCH  22  32
ENDBRANCH  11  12
BRANCH  10  34
ATOM     34  O   UNL     1      60.854  67.145 126.414  1.00  0.00    -0.507 OA
ATOM     35  H   UNL     1      61.467  66.347 126.318  1.00  0.00     0.293 HD
ENDBRANCH  10  34
BRANCH   9  36
ATOM     36  C   UNL     1      65.115  71.370 128.156  1.00  0.00     0.017 C 
ATOM     37  C   UNL     1      66.011  70.600 129.134  1.00  0.00     0.012 C 
ATOM     38  C   UNL     1      65.831  72.578 127.519  1.00  0.00     0.012 C 
ENDBRANCH   9  36
BRANCH   6  39
ATOM     39  C   UNL     1      62.870  67.267 124.649  1.00  0.00     0.264 C 
ATOM     40  O   UNL     1      63.206  66.062 124.792  1.00  0.00    -0.298 OA
ENDBRANCH   6  39
BRANCH   8  41
ATOM     41  O   UNL     1      66.437  70.364 125.763  1.00  0.00    -0.504 OA
ATOM     42  H   UNL     1      66.757  71.303 125.959  1.00  0.00     0.293 HD
ENDBRANCH   8  41
BRANCH   7  43
ATOM     43  O   UNL     1      65.438  68.274 124.309  1.00  0.00    -0.504 OA
ATOM     44  H   UNL     1      66.400  67.987 124.437  1.00  0.00     0.293 HD
ENDBRANCH   7  43
TORSDOF 11
ENDMDL
MODEL 9
REMARK VINA RESULT:    -3.800      3.462      6.009
REMARK INTER + INTRA:          -5.891
REMARK INTER:                  -6.113
REMARK INTRA:                   0.222
REMARK UNBOUND:                -0.314
REMARK SMILES Cc1cc2c(C(C)C)c(O)c(O)c(C=O)c2c(O)c1-c1c(C)cc2c(C(C)C)c(O)c(O)c(C=O)c2c1O
REMARK SMILES IDX 1 1 2 2 3 3 4 4 16 5 13 6 11 7 9 8 5 9 17 10 19 11 20 12
REMARK SMILES IDX 37 13 21 14 36 15 23 16 22 17 24 18 33 19 25 20 31 21 29 22
REMARK SMILES IDX 38 23 34 25 35 26 26 27 27 28 28 29 32 30 30 32 18 34 6 36
REMARK SMILES IDX 7 37 8 38 14 39 15 40 10 41 12 43
REMARK H PARENT 38 24 32 31 30 33 18 35 10 42 12 44
REMARK Flexibility Score: inf
ROOT
ATOM      1  C   UNL     1      60.024  67.759 127.756  1.00  0.00     0.045 C 
ATOM      2  C   UNL     1      59.392  68.422 128.955  1.00  0.00    -0.039 A 
ATOM      3  C   UNL     1      58.236  67.872 129.512  1.00  0.00     0.013 A 
ATOM      4  C   UNL     1      57.595  68.452 130.624  1.00  0.00    -0.006 A 
ATOM      5  C   UNL     1      58.056  69.720 131.089  1.00  0.00     0.039 A 
ATOM      6  C   UNL     1      57.273  70.433 132.043  1.00  0.00     0.072 A 
ATOM      7  C   UNL     1      56.096  69.857 132.548  1.00  0.00     0.169 A 
ATOM      8  C   UNL     1      55.696  68.574 132.158  1.00  0.00     0.162 A 
ATOM      9  C   UNL     1      56.490  67.810 131.266  1.00  0.00     0.008 A 
ATOM     10  C   UNL     1      59.299  70.220 130.598  1.00  0.00     0.132 A 
ATOM     11  C   UNL     1      59.952  69.576 129.525  1.00  0.00     0.031 A 
ENDROOT
BRANCH  11  12
ATOM     12  C   UNL     1      61.223  70.124 128.984  1.00  0.00     0.031 A 
ATOM     13  C   UNL     1      62.379  70.165 129.792  1.00  0.00     0.132 A 
ATOM     14  C   UNL     1      61.263  70.624 127.671  1.00  0.00    -0.039 A 
ATOM     15  C   UNL     1      63.586  70.746 129.296  1.00  0.00     0.039 A 
ATOM     16  C   UNL     1      62.466  71.109 127.156  1.00  0.00     0.013 A 
ATOM     17  C   UNL     1      60.026  70.638 126.807  1.00  0.00     0.045 C 
ATOM     18  C   UNL     1      63.653  71.120 127.920  1.00  0.00    -0.006 A 
ATOM     19  C   UNL     1      64.730  70.957 130.125  1.00  0.00     0.072 A 
ATOM     20  C   UNL     1      64.898  71.522 127.346  1.00  0.00     0.008 A 
ATOM     21  C   UNL     1      65.895  71.531 129.577  1.00  0.00     0.169 A 
ATOM     22  C   UNL     1      65.979  71.804 128.208  1.00  0.00     0.162 A 
BRANCH  13  23
ATOM     23  O   UNL     1      62.336  69.609 131.076  1.00  0.00    -0.507 OA
ATOM     24  H   UNL     1      62.115  68.639 131.264  1.00  0.00     0.293 HD
ENDBRANCH  13  23
BRANCH  19  25
ATOM     25  C   UNL     1      64.703  70.681 131.577  1.00  0.00     0.264 C 
ATOM     26  O   UNL     1      65.336  69.702 132.054  1.00  0.00    -0.298 OA
ENDBRANCH  19  25
BRANCH  20  27
ATOM     27  C   UNL     1      65.073  71.673 125.824  1.00  0.00     0.017 C 
ATOM     28  C   UNL     1      65.861  72.944 125.489  1.00  0.00     0.012 C 
ATOM     29  C   UNL     1      65.690  70.436 125.145  1.00  0.00     0.012 C 
ENDBRANCH  20  27
BRANCH  21  30
ATOM     30  O   UNL     1      66.992  71.868 130.379  1.00  0.00    -0.504 OA
ATOM     31  H   UNL     1      67.944  71.592 130.181  1.00  0.00     0.293 HD
ENDBRANCH  21  30
BRANCH  22  32
ATOM     32  O   UNL     1      67.140  72.388 127.697  1.00  0.00    -0.504 OA
ATOM     33  H   UNL     1      68.052  72.272 128.125  1.00  0.00     0.293 HD
ENDBRANCH  22  32
ENDBRANCH  11  12
BRANCH  10  34
ATOM     34  O   UNL     1      59.901  71.329 131.202  1.00  0.00    -0.507 OA
ATOM     35  H   UNL     1      60.900  71.492 131.213  1.00  0.00     0.293 HD
ENDBRANCH  10  34
BRANCH   9  36
ATOM     36  C   UNL     1      56.184  66.307 131.119  1.00  0.00     0.017 C 
ATOM     37  C   UNL     1      55.336  66.000 129.878  1.00  0.00     0.012 C 
ATOM     38  C   UNL     1      57.414  65.386 131.241  1.00  0.00     0.012 C 
ENDBRANCH   9  36
BRANCH   6  39
ATOM     39  C   UNL     1      57.566  71.835 132.422  1.00  0.00     0.264 C 
ATOM     40  O   UNL     1      56.661  72.711 132.416  1.00  0.00    -0.298 OA
ENDBRANCH   6  39
BRANCH   8  41
ATOM     41  O   UNL     1      54.478  68.099 132.659  1.00  0.00    -0.504 OA
ATOM     42  H   UNL     1      54.285  67.126 132.857  1.00  0.00     0.293 HD
ENDBRANCH   8  41
BRANCH   7  43
ATOM     43  O   UNL     1      55.298  70.591 133.435  1.00  0.00    -0.504 OA
ATOM     44  H   UNL     1      54.680  71.334 133.134  1.00  0.00     0.293 HD
ENDBRANCH   7  43
TORSDOF 11
ENDMDL
