MODEL 1
REMARK VINA RESULT:     6.507      0.000      0.000
REMARK INTER + INTRA:           8.573
REMARK INTER:                   8.789
REMARK INTRA:                  -0.216
REMARK UNBOUND:                -0.216
REMARK SMILES CC[C@@H](CC[C@H](C)[C@@H]1CC[C@@H]2[C@@H]3CC(=O)C4=CC(=O)CC[C@]4(C)[C@@H]3CC[C@]21C)C(C)C
REMARK SMILES IDX 4 1 3 2 2 3 1 4 29 5 30 6 31 7 5 8 6 9 7 10 8 11 9 12 27 13
REMARK SMILES IDX 10 14 11 15 26 16 28 17 12 18 25 19 24 20 13 21 22 22 14 23
REMARK SMILES IDX 16 24 21 25 23 26 15 27 17 28 20 29 18 30 19 31
REMARK H PARENT
REMARK Flexibility Score: inf
ROOT
ATOM      1  C   UNL     1       9.875 -29.722 -34.901  1.00  0.00     0.004 C 
ENDROOT
BRANCH   1   2
ATOM      2  C   UNL     1      10.838 -28.509 -35.122  1.00  0.00    -0.009 C 
BRANCH   2   3
ATOM      3  C   UNL     1      10.119 -27.175 -34.776  1.00  0.00     0.000 C 
ATOM      4  C   UNL     1      11.094 -26.042 -34.437  1.00  0.00     0.004 C 
ENDBRANCH   2   3
BRANCH   2   5
ATOM      5  C   UNL     1      11.414 -28.516 -36.582  1.00  0.00    -0.014 C 
ATOM      6  C   UNL     1      12.096 -29.844 -36.963  1.00  0.00     0.007 C 
ATOM      7  C   UNL     1      10.310 -28.226 -37.620  1.00  0.00     0.007 C 
ENDBRANCH   2   5
ENDBRANCH   1   2
BRANCH   1   8
ATOM      8  C   UNL     1      10.454 -30.743 -33.894  1.00  0.00     0.004 C 
BRANCH   8   9
ATOM      9  C   UNL     1      10.839 -32.126 -34.491  1.00  0.00    -0.011 C 
ATOM     10  C   UNL     1       9.922 -32.512 -35.665  1.00  0.00     0.008 C 
BRANCH   9  11
ATOM     11  C   UNL     1      11.003 -33.328 -33.479  1.00  0.00    -0.002 C 
ATOM     12  C   UNL     1       9.875 -34.387 -33.347  1.00  0.00     0.005 C 
ATOM     13  C   UNL     1      11.280 -32.946 -31.998  1.00  0.00    -0.026 C 
ATOM     14  C   UNL     1      10.071 -35.062 -31.969  1.00  0.00     0.005 C 
ATOM     15  C   UNL     1      11.296 -34.360 -31.390  1.00  0.00    -0.001 C 
ATOM     16  C   UNL     1      12.661 -32.299 -31.742  1.00  0.00     0.007 C 
ATOM     17  C   UNL     1      10.126 -32.034 -31.447  1.00  0.00     0.012 C 
ATOM     18  C   UNL     1      11.643 -34.473 -29.885  1.00  0.00     0.004 C 
ATOM     19  C   UNL     1      13.069 -32.356 -30.243  1.00  0.00     0.005 C 
ATOM     20  C   UNL     1      13.038 -33.802 -29.649  1.00  0.00     0.003 C 
ATOM     21  C   UNL     1      10.570 -33.955 -28.913  1.00  0.00     0.085 C 
ATOM     22  C   UNL     1      13.537 -33.947 -28.149  1.00  0.00    -0.000 C 
ATOM     23  C   UNL     1      11.029 -34.084 -27.499  1.00  0.00     0.159 C 
ATOM     24  C   UNL     1      12.411 -33.703 -27.140  1.00  0.00     0.005 C 
ATOM     25  C   UNL     1      14.719 -32.968 -27.849  1.00  0.00     0.020 C 
ATOM     26  C   UNL     1      14.038 -35.402 -27.940  1.00  0.00     0.017 C 
ATOM     27  O   UNL     1      10.205 -34.436 -26.610  1.00  0.00    -0.295 OA
ATOM     28  C   UNL     1      12.680 -33.299 -25.882  1.00  0.00     0.055 C 
ATOM     29  C   UNL     1      15.204 -33.045 -26.396  1.00  0.00     0.081 C 
ATOM     30  C   UNL     1      14.046 -32.955 -25.448  1.00  0.00     0.156 C 
ATOM     31  O   UNL     1      14.245 -32.602 -24.257  1.00  0.00    -0.295 OA
ENDBRANCH   9  11
ENDBRANCH   8   9
ENDBRANCH   1   8
TORSDOF 6
ENDMDL
MODEL 2
REMARK VINA RESULT:     8.117      2.999      8.360
REMARK INTER + INTRA:          10.749
REMARK INTER:                  10.930
REMARK INTRA:                  -0.182
REMARK UNBOUND:                -0.216
REMARK SMILES CC[C@@H](CC[C@H](C)[C@@H]1CC[C@@H]2[C@@H]3CC(=O)C4=CC(=O)CC[C@]4(C)[C@@H]3CC[C@]21C)C(C)C
REMARK SMILES IDX 4 1 3 2 2 3 1 4 29 5 30 6 31 7 5 8 6 9 7 10 8 11 9 12 27 13
REMARK SMILES IDX 10 14 11 15 26 16 28 17 12 18 25 19 24 20 13 21 22 22 14 23
REMARK SMILES IDX 16 24 21 25 23 26 15 27 17 28 20 29 18 30 19 31
REMARK H PARENT
REMARK Flexibility Score: inf
ROOT
ATOM      1  C   UNL     1      12.595 -33.890 -26.664  1.00  0.00     0.004 C 
ENDROOT
BRANCH   1   2
ATOM      2  C   UNL     1      13.914 -33.563 -27.439  1.00  0.00    -0.009 C 
BRANCH   2   3
ATOM      3  C   UNL     1      14.752 -34.855 -27.655  1.00  0.00     0.000 C 
ATOM      4  C   UNL     1      13.894 -36.066 -28.034  1.00  0.00     0.004 C 
ENDBRANCH   2   3
BRANCH   2   5
ATOM      5  C   UNL     1      14.728 -32.441 -26.703  1.00  0.00    -0.014 C 
ATOM      6  C   UNL     1      14.596 -31.056 -27.367  1.00  0.00     0.007 C 
ATOM      7  C   UNL     1      14.294 -32.311 -25.229  1.00  0.00     0.007 C 
ENDBRANCH   2   5
ENDBRANCH   1   2
BRANCH   1   8
ATOM      8  C   UNL     1      11.394 -33.076 -27.199  1.00  0.00     0.004 C 
BRANCH   8   9
ATOM      9  C   UNL     1      10.303 -33.901 -27.937  1.00  0.00    -0.011 C 
ATOM     10  C   UNL     1       9.875 -35.134 -27.119  1.00  0.00     0.008 C 
BRANCH   9  11
ATOM     11  C   UNL     1      10.586 -34.288 -29.442  1.00  0.00    -0.002 C 
ATOM     12  C   UNL     1      11.618 -35.400 -29.774  1.00  0.00     0.005 C 
ATOM     13  C   UNL     1      11.031 -33.128 -30.377  1.00  0.00    -0.026 C 
ATOM     14  C   UNL     1      12.056 -35.165 -31.239  1.00  0.00     0.005 C 
ATOM     15  C   UNL     1      11.254 -33.939 -31.667  1.00  0.00    -0.001 C 
ATOM     16  C   UNL     1       9.941 -32.069 -30.660  1.00  0.00     0.007 C 
ATOM     17  C   UNL     1      12.335 -32.452 -29.822  1.00  0.00     0.012 C 
ATOM     18  C   UNL     1      11.633 -33.143 -32.939  1.00  0.00     0.004 C 
ATOM     19  C   UNL     1      10.264 -31.213 -31.917  1.00  0.00     0.005 C 
ATOM     20  C   UNL     1      10.521 -32.071 -33.199  1.00  0.00     0.003 C 
ATOM     21  C   UNL     1      13.047 -32.538 -32.951  1.00  0.00     0.085 C 
ATOM     22  C   UNL     1      10.762 -31.257 -34.541  1.00  0.00    -0.000 C 
ATOM     23  C   UNL     1      13.283 -31.769 -34.208  1.00  0.00     0.159 C 
ATOM     24  C   UNL     1      12.232 -30.869 -34.724  1.00  0.00     0.005 C 
ATOM     25  C   UNL     1       9.878 -29.968 -34.587  1.00  0.00     0.020 C 
ATOM     26  C   UNL     1      10.370 -32.166 -35.738  1.00  0.00     0.017 C 
ATOM     27  O   UNL     1      14.413 -31.831 -34.768  1.00  0.00    -0.295 OA
ATOM     28  C   UNL     1      12.581 -29.810 -35.483  1.00  0.00     0.055 C 
ATOM     29  C   UNL     1      10.111 -29.129 -35.850  1.00  0.00     0.081 C 
ATOM     30  C   UNL     1      11.577 -28.905 -36.070  1.00  0.00     0.156 C 
ATOM     31  O   UNL     1      11.956 -27.943 -36.786  1.00  0.00    -0.295 OA
ENDBRANCH   9  11
ENDBRANCH   8   9
ENDBRANCH   1   8
TORSDOF 6
ENDMDL
MODEL 3
REMARK VINA RESULT:     8.666      0.740      1.594
REMARK INTER + INTRA:          11.490
REMARK INTER:                  10.410
REMARK INTRA:                   1.080
REMARK UNBOUND:                -0.216
REMARK SMILES CC[C@@H](CC[C@H](C)[C@@H]1CC[C@@H]2[C@@H]3CC(=O)C4=CC(=O)CC[C@]4(C)[C@@H]3CC[C@]21C)C(C)C
REMARK SMILES IDX 4 1 3 2 2 3 1 4 29 5 30 6 31 7 5 8 6 9 7 10 8 11 9 12 27 13
REMARK SMILES IDX 10 14 11 15 26 16 28 17 12 18 25 19 24 20 13 21 22 22 14 23
REMARK SMILES IDX 16 24 21 25 23 26 15 27 17 28 20 29 18 30 19 31
REMARK H PARENT
REMARK Flexibility Score: inf
ROOT
ATOM      1  C   UNL     1      10.662 -30.252 -34.537  1.00  0.00     0.004 C 
ENDROOT
BRANCH   1   2
ATOM      2  C   UNL     1       9.937 -29.737 -35.825  1.00  0.00    -0.009 C 
BRANCH   2   3
ATOM      3  C   UNL     1      10.101 -30.758 -36.986  1.00  0.00     0.000 C 
ATOM      4  C   UNL     1      10.994 -30.238 -38.117  1.00  0.00     0.004 C 
ENDBRANCH   2   3
BRANCH   2   5
ATOM      5  C   UNL     1      10.448 -28.304 -36.214  1.00  0.00    -0.014 C 
ATOM      6  C   UNL     1      10.015 -27.211 -35.218  1.00  0.00     0.007 C 
ATOM      7  C   UNL     1      11.986 -28.271 -36.328  1.00  0.00     0.007 C 
ENDBRANCH   2   5
ENDBRANCH   1   2
BRANCH   1   8
ATOM      8  C   UNL     1       9.996 -31.527 -33.970  1.00  0.00     0.004 C 
BRANCH   8   9
ATOM      9  C   UNL     1      10.635 -32.871 -34.419  1.00  0.00    -0.011 C 
ATOM     10  C   UNL     1       9.875 -33.492 -35.605  1.00  0.00     0.008 C 
BRANCH   9  11
ATOM     11  C   UNL     1      10.914 -33.947 -33.296  1.00  0.00    -0.002 C 
ATOM     12  C   UNL     1       9.875 -35.069 -33.026  1.00  0.00     0.005 C 
ATOM     13  C   UNL     1      11.190 -33.395 -31.869  1.00  0.00    -0.026 C 
ATOM     14  C   UNL     1      10.152 -35.583 -31.593  1.00  0.00     0.005 C 
ATOM     15  C   UNL     1      11.329 -34.734 -31.122  1.00  0.00    -0.001 C 
ATOM     16  C   UNL     1      12.521 -32.622 -31.719  1.00  0.00     0.007 C 
ATOM     17  C   UNL     1       9.980 -32.522 -31.380  1.00  0.00     0.012 C 
ATOM     18  C   UNL     1      11.715 -34.666 -29.625  1.00  0.00     0.004 C 
ATOM     19  C   UNL     1      12.963 -32.495 -30.234  1.00  0.00     0.005 C 
ATOM     20  C   UNL     1      13.058 -33.870 -29.497  1.00  0.00     0.003 C 
ATOM     21  C   UNL     1      10.625 -34.133 -28.679  1.00  0.00     0.085 C 
ATOM     22  C   UNL     1      13.597 -33.822 -28.005  1.00  0.00    -0.000 C 
ATOM     23  C   UNL     1      11.122 -34.081 -27.273  1.00  0.00     0.159 C 
ATOM     24  C   UNL     1      12.476 -33.562 -26.994  1.00  0.00     0.005 C 
ATOM     25  C   UNL     1      14.705 -32.731 -27.838  1.00  0.00     0.020 C 
ATOM     26  C   UNL     1      14.215 -35.206 -27.665  1.00  0.00     0.017 C 
ATOM     27  O   UNL     1      10.346 -34.402 -26.331  1.00  0.00    -0.295 OA
ATOM     28  C   UNL     1      12.739 -33.012 -25.791  1.00  0.00     0.055 C 
ATOM     29  C   UNL     1      15.224 -32.621 -26.399  1.00  0.00     0.081 C 
ATOM     30  C   UNL     1      14.082 -32.522 -25.433  1.00  0.00     0.156 C 
ATOM     31  O   UNL     1      14.277 -32.035 -24.290  1.00  0.00    -0.295 OA
ENDBRANCH   9  11
ENDBRANCH   8   9
ENDBRANCH   1   8
TORSDOF 6
ENDMDL
MODEL 4
REMARK VINA RESULT:     9.081      2.283      3.574
REMARK INTER + INTRA:          12.050
REMARK INTER:                  11.522
REMARK INTRA:                   0.528
REMARK UNBOUND:                -0.216
REMARK SMILES CC[C@@H](CC[C@H](C)[C@@H]1CC[C@@H]2[C@@H]3CC(=O)C4=CC(=O)CC[C@]4(C)[C@@H]3CC[C@]21C)C(C)C
REMARK SMILES IDX 4 1 3 2 2 3 1 4 29 5 30 6 31 7 5 8 6 9 7 10 8 11 9 12 27 13
REMARK SMILES IDX 10 14 11 15 26 16 28 17 12 18 25 19 24 20 13 21 22 22 14 23
REMARK SMILES IDX 16 24 21 25 23 26 15 27 17 28 20 29 18 30 19 31
REMARK H PARENT
REMARK Flexibility Score: inf
ROOT
ATOM      1  C   UNL     1      12.081 -30.859 -36.937  1.00  0.00     0.004 C 
ENDROOT
BRANCH   1   2
ATOM      2  C   UNL     1      10.590 -30.450 -37.182  1.00  0.00    -0.009 C 
BRANCH   2   3
ATOM      3  C   UNL     1       9.894 -31.472 -38.125  1.00  0.00     0.000 C 
ATOM      4  C   UNL     1      10.024 -32.918 -37.637  1.00  0.00     0.004 C 
ENDBRANCH   2   3
BRANCH   2   5
ATOM      5  C   UNL     1      10.500 -28.979 -37.725  1.00  0.00    -0.014 C 
ATOM      6  C   UNL     1       9.875 -27.994 -36.717  1.00  0.00     0.007 C 
ATOM      7  C   UNL     1      11.890 -28.444 -38.124  1.00  0.00     0.007 C 
ENDBRANCH   2   5
ENDBRANCH   1   2
BRANCH   1   8
ATOM      8  C   UNL     1      12.800 -29.876 -35.984  1.00  0.00     0.004 C 
BRANCH   8   9
ATOM      9  C   UNL     1      13.115 -30.431 -34.566  1.00  0.00    -0.011 C 
ATOM     10  C   UNL     1      14.602 -30.798 -34.418  1.00  0.00     0.008 C 
BRANCH   9  11
ATOM     11  C   UNL     1      12.187 -31.587 -34.022  1.00  0.00    -0.002 C 
ATOM     12  C   UNL     1      10.696 -31.295 -33.698  1.00  0.00     0.005 C 
ATOM     13  C   UNL     1      12.674 -32.311 -32.734  1.00  0.00    -0.026 C 
ATOM     14  C   UNL     1      10.238 -32.403 -32.720  1.00  0.00     0.005 C 
ATOM     15  C   UNL     1      11.482 -33.266 -32.537  1.00  0.00    -0.001 C 
ATOM     16  C   UNL     1      13.949 -33.166 -32.914  1.00  0.00     0.007 C 
ATOM     17  C   UNL     1      12.855 -31.277 -31.566  1.00  0.00     0.012 C 
ATOM     18  C   UNL     1      11.584 -34.283 -31.375  1.00  0.00     0.004 C 
ATOM     19  C   UNL     1      14.130 -34.201 -31.768  1.00  0.00     0.005 C 
ATOM     20  C   UNL     1      12.888 -35.129 -31.572  1.00  0.00     0.003 C 
ATOM     21  C   UNL     1      11.477 -33.692 -29.959  1.00  0.00     0.085 C 
ATOM     22  C   UNL     1      13.042 -36.273 -30.482  1.00  0.00    -0.000 C 
ATOM     23  C   UNL     1      11.622 -34.758 -28.926  1.00  0.00     0.159 C 
ATOM     24  C   UNL     1      12.673 -35.786 -29.078  1.00  0.00     0.005 C 
ATOM     25  C   UNL     1      14.496 -36.845 -30.464  1.00  0.00     0.020 C 
ATOM     26  C   UNL     1      12.065 -37.425 -30.844  1.00  0.00     0.017 C 
ATOM     27  O   UNL     1      10.902 -34.719 -27.891  1.00  0.00    -0.295 OA
ATOM     28  C   UNL     1      13.172 -36.389 -27.980  1.00  0.00     0.055 C 
ATOM     29  C   UNL     1      14.700 -37.926 -29.395  1.00  0.00     0.081 C 
ATOM     30  C   UNL     1      14.184 -37.458 -28.068  1.00  0.00     0.156 C 
ATOM     31  O   UNL     1      14.602 -38.000 -27.013  1.00  0.00    -0.295 OA
ENDBRANCH   9  11
ENDBRANCH   8   9
ENDBRANCH   1   8
TORSDOF 6
ENDMDL
