MODEL 1
REMARK VINA RESULT:    -4.910      0.000      0.000
REMARK INTER + INTRA:          -6.155
REMARK INTER:                  -5.915
REMARK INTRA:                  -0.240
REMARK UNBOUND:                -0.240
REMARK SMILES NC(=O)C[C@@H]([NH3+])C(=O)[O-]
REMARK SMILES IDX 4 1 5 2 6 3 7 7 8 8 9 9 2 10 3 11 1 12
REMARK H PARENT 6 4 6 5 6 6 1 13 1 14
REMARK Flexibility Score: inf
ROOT
ATOM      1  C   UNL     1     -17.428  13.837 -12.906  1.00  0.00     0.171 C 
ENDROOT
BRANCH   1   2
ATOM      2  C   UNL     1     -18.521  12.939 -12.294  1.00  0.00     0.237 C 
BRANCH   2   3
ATOM      3  N   UNL     1     -18.855  13.387 -10.938  1.00  0.00    -0.350 N 
ATOM      4  H   UNL     1     -19.894  13.433 -10.825  1.00  0.00     0.345 HD
ATOM      5  H   UNL     1     -18.445  14.332 -10.749  1.00  0.00     0.345 HD
ATOM      6  H   UNL     1     -18.480  12.706 -10.238  1.00  0.00     0.345 HD
ENDBRANCH   2   3
BRANCH   2   7
ATOM      7  C   UNL     1     -19.758  12.935 -13.156  1.00  0.00     0.100 C 
ATOM      8  O   UNL     1     -20.744  12.214 -12.846  1.00  0.00    -0.544 OA
ATOM      9  O   UNL     1     -19.814  13.714 -14.306  1.00  0.00    -0.544 OA
ENDBRANCH   2   7
ENDBRANCH   1   2
BRANCH   1  10
ATOM     10  C   UNL     1     -16.508  13.059 -13.801  1.00  0.00     0.223 C 
ATOM     11  O   UNL     1     -15.516  12.456 -13.307  1.00  0.00    -0.275 OA
ATOM     12  N   UNL     1     -16.767  12.963 -15.202  1.00  0.00    -0.369 N 
ATOM     13  H   UNL     1     -16.133  12.409 -15.818  1.00  0.00     0.159 HD
ATOM     14  H   UNL     1     -17.593  13.441 -15.625  1.00  0.00     0.159 HD
ENDBRANCH   1  10
TORSDOF 4
ENDMDL
MODEL 2
REMARK VINA RESULT:    -4.734      2.191      4.067
REMARK INTER + INTRA:          -5.943
REMARK INTER:                  -5.804
REMARK INTRA:                  -0.139
REMARK UNBOUND:                -0.240
REMARK SMILES NC(=O)C[C@@H]([NH3+])C(=O)[O-]
REMARK SMILES IDX 4 1 5 2 6 3 7 7 8 8 9 9 2 10 3 11 1 12
REMARK H PARENT 6 4 6 5 6 6 1 13 1 14
REMARK Flexibility Score: inf
ROOT
ATOM      1  C   UNL     1     -19.779  13.540 -14.232  1.00  0.00     0.171 C 
ENDROOT
BRANCH   1   2
ATOM      2  C   UNL     1     -18.812  12.465 -13.699  1.00  0.00     0.237 C 
BRANCH   2   3
ATOM      3  N   UNL     1     -17.933  11.987 -14.772  1.00  0.00    -0.350 N 
ATOM      4  H   UNL     1     -16.962  11.857 -14.403  1.00  0.00     0.345 HD
ATOM      5  H   UNL     1     -17.911  12.671 -15.565  1.00  0.00     0.345 HD
ATOM      6  H   UNL     1     -18.275  11.065 -15.125  1.00  0.00     0.345 HD
ENDBRANCH   2   3
BRANCH   2   7
ATOM      7  C   UNL     1     -17.989  13.001 -12.556  1.00  0.00     0.100 C 
ATOM      8  O   UNL     1     -16.828  13.443 -12.764  1.00  0.00    -0.544 OA
ATOM      9  O   UNL     1     -18.499  12.998 -11.263  1.00  0.00    -0.544 OA
ENDBRANCH   2   7
ENDBRANCH   1   2
BRANCH   1  10
ATOM     10  C   UNL     1     -21.199  13.252 -13.841  1.00  0.00     0.223 C 
ATOM     11  O   UNL     1     -21.459  12.248 -13.124  1.00  0.00    -0.275 OA
ATOM     12  N   UNL     1     -22.255  14.125 -14.243  1.00  0.00    -0.369 N 
ATOM     13  H   UNL     1     -23.239  13.928 -13.956  1.00  0.00     0.159 HD
ATOM     14  H   UNL     1     -22.056  14.970 -14.822  1.00  0.00     0.159 HD
ENDBRANCH   1  10
TORSDOF 4
ENDMDL
MODEL 3
REMARK VINA RESULT:    -4.639      1.602      3.879
REMARK INTER + INTRA:          -5.828
REMARK INTER:                  -5.565
REMARK INTRA:                  -0.263
REMARK UNBOUND:                -0.240
REMARK SMILES NC(=O)C[C@@H]([NH3+])C(=O)[O-]
REMARK SMILES IDX 4 1 5 2 6 3 7 7 8 8 9 9 2 10 3 11 1 12
REMARK H PARENT 6 4 6 5 6 6 1 13 1 14
REMARK Flexibility Score: inf
ROOT
ATOM      1  C   UNL     1     -18.866  12.179 -13.439  1.00  0.00     0.171 C 
ENDROOT
BRANCH   1   2
ATOM      2  C   UNL     1     -17.851  13.329 -13.592  1.00  0.00     0.237 C 
BRANCH   2   3
ATOM      3  N   UNL     1     -17.787  14.125 -12.360  1.00  0.00    -0.350 N 
ATOM      4  H   UNL     1     -17.135  13.672 -11.679  1.00  0.00     0.345 HD
ATOM      5  H   UNL     1     -18.735  14.211 -11.925  1.00  0.00     0.345 HD
ATOM      6  H   UNL     1     -17.422  15.081 -12.576  1.00  0.00     0.345 HD
ENDBRANCH   2   3
BRANCH   2   7
ATOM      7  C   UNL     1     -16.483  12.797 -13.936  1.00  0.00     0.100 C 
ATOM      8  O   UNL     1     -15.553  12.848 -13.088  1.00  0.00    -0.544 OA
ATOM      9  O   UNL     1     -16.235  12.262 -15.194  1.00  0.00    -0.544 OA
ENDBRANCH   2   7
ENDBRANCH   1   2
BRANCH   1  10
ATOM     10  C   UNL     1     -20.270  12.694 -13.297  1.00  0.00     0.223 C 
ATOM     11  O   UNL     1     -20.559  13.846 -13.721  1.00  0.00    -0.275 OA
ATOM     12  N   UNL     1     -21.288  11.877 -12.720  1.00  0.00    -0.369 N 
ATOM     13  H   UNL     1     -22.265  12.233 -12.637  1.00  0.00     0.159 HD
ATOM     14  H   UNL     1     -21.070  10.914 -12.380  1.00  0.00     0.159 HD
ENDBRANCH   1  10
TORSDOF 4
ENDMDL
MODEL 4
REMARK VINA RESULT:    -4.593      2.119      3.960
REMARK INTER + INTRA:          -5.773
REMARK INTER:                  -5.545
REMARK INTRA:                  -0.228
REMARK UNBOUND:                -0.240
REMARK SMILES NC(=O)C[C@@H]([NH3+])C(=O)[O-]
REMARK SMILES IDX 4 1 5 2 6 3 7 7 8 8 9 9 2 10 3 11 1 12
REMARK H PARENT 6 4 6 5 6 6 1 13 1 14
REMARK Flexibility Score: inf
ROOT
ATOM      1  C   UNL     1     -19.629  13.189 -14.322  1.00  0.00     0.171 C 
ENDROOT
BRANCH   1   2
ATOM      2  C   UNL     1     -18.525  12.888 -13.290  1.00  0.00     0.237 C 
BRANCH   2   3
ATOM      3  N   UNL     1     -18.530  11.465 -12.931  1.00  0.00    -0.350 N 
ATOM      4  H   UNL     1     -17.561  11.158 -12.683  1.00  0.00     0.345 HD
ATOM      5  H   UNL     1     -18.883  10.885 -13.727  1.00  0.00     0.345 HD
ATOM      6  H   UNL     1     -19.144  11.313 -12.098  1.00  0.00     0.345 HD
ENDBRANCH   2   3
BRANCH   2   7
ATOM      7  C   UNL     1     -17.169  13.282 -13.821  1.00  0.00     0.100 C 
ATOM      8  O   UNL     1     -16.801  12.898 -14.963  1.00  0.00    -0.544 OA
ATOM      9  O   UNL     1     -16.313  14.058 -13.050  1.00  0.00    -0.544 OA
ENDBRANCH   2   7
ENDBRANCH   1   2
BRANCH   1  10
ATOM     10  C   UNL     1     -20.996  13.130 -13.704  1.00  0.00     0.223 C 
ATOM     11  O   UNL     1     -21.272  12.214 -12.882  1.00  0.00    -0.275 OA
ATOM     12  N   UNL     1     -21.974  14.125 -14.009  1.00  0.00    -0.369 N 
ATOM     13  H   UNL     1     -22.918  14.088 -13.566  1.00  0.00     0.159 HD
ATOM     14  H   UNL     1     -21.757  14.900 -14.673  1.00  0.00     0.159 HD
ENDBRANCH   1  10
TORSDOF 4
ENDMDL
MODEL 5
REMARK VINA RESULT:    -4.575     19.206     20.164
REMARK INTER + INTRA:          -5.750
REMARK INTER:                  -5.456
REMARK INTRA:                  -0.294
REMARK UNBOUND:                -0.240
REMARK SMILES NC(=O)C[C@@H]([NH3+])C(=O)[O-]
REMARK SMILES IDX 4 1 5 2 6 3 7 7 8 8 9 9 2 10 3 11 1 12
REMARK H PARENT 6 4 6 5 6 6 1 13 1 14
REMARK Flexibility Score: inf
ROOT
ATOM      1  C   UNL     1     -13.352  -4.557 -22.906  1.00  0.00     0.171 C 
ENDROOT
BRANCH   1   2
ATOM      2  C   UNL     1     -13.006  -3.518 -21.821  1.00  0.00     0.237 C 
BRANCH   2   3
ATOM      3  N   UNL     1     -14.162  -3.283 -20.947  1.00  0.00    -0.350 N 
ATOM      4  H   UNL     1     -14.679  -4.180 -20.794  1.00  0.00     0.345 HD
ATOM      5  H   UNL     1     -14.810  -2.579 -21.373  1.00  0.00     0.345 HD
ATOM      6  H   UNL     1     -13.837  -2.931 -20.018  1.00  0.00     0.345 HD
ENDBRANCH   2   3
BRANCH   2   7
ATOM      7  C   UNL     1     -11.823  -3.970 -21.002  1.00  0.00     0.100 C 
ATOM      8  O   UNL     1     -11.486  -5.183 -20.992  1.00  0.00    -0.544 OA
ATOM      9  O   UNL     1     -11.106  -3.053 -20.242  1.00  0.00    -0.544 OA
ENDBRANCH   2   7
ENDBRANCH   1   2
BRANCH   1  10
ATOM     10  C   UNL     1     -14.750  -4.373 -23.423  1.00  0.00     0.223 C 
ATOM     11  O   UNL     1     -15.692  -5.053 -22.934  1.00  0.00    -0.275 OA
ATOM     12  N   UNL     1     -15.028  -3.406 -24.437  1.00  0.00    -0.369 N 
ATOM     13  H   UNL     1     -16.003  -3.272 -24.782  1.00  0.00     0.159 HD
ATOM     14  H   UNL     1     -14.262  -2.822 -24.839  1.00  0.00     0.159 HD
ENDBRANCH   1  10
TORSDOF 4
ENDMDL
MODEL 6
REMARK VINA RESULT:    -4.562     19.730     20.678
REMARK INTER + INTRA:          -5.735
REMARK INTER:                  -5.640
REMARK INTRA:                  -0.095
REMARK UNBOUND:                -0.240
REMARK SMILES NC(=O)C[C@@H]([NH3+])C(=O)[O-]
REMARK SMILES IDX 4 1 5 2 6 3 7 7 8 8 9 9 2 10 3 11 1 12
REMARK H PARENT 6 4 6 5 6 6 1 13 1 14
REMARK Flexibility Score: inf
ROOT
ATOM      1  C   UNL     1     -14.031  -3.742 -22.581  1.00  0.00     0.171 C 
ENDROOT
BRANCH   1   2
ATOM      2  C   UNL     1     -12.897  -4.777 -22.448  1.00  0.00     0.237 C 
BRANCH   2   3
ATOM      3  N   UNL     1     -12.094  -4.820 -23.676  1.00  0.00    -0.350 N 
ATOM      4  H   UNL     1     -12.023  -3.861 -24.088  1.00  0.00     0.345 HD
ATOM      5  H   UNL     1     -12.527  -5.465 -24.378  1.00  0.00     0.345 HD
ATOM      6  H   UNL     1     -11.128  -5.153 -23.456  1.00  0.00     0.345 HD
ENDBRANCH   2   3
BRANCH   2   7
ATOM      7  C   UNL     1     -12.016  -4.461 -21.266  1.00  0.00     0.100 C 
ATOM      8  O   UNL     1     -11.197  -5.318 -20.840  1.00  0.00    -0.544 OA
ATOM      9  O   UNL     1     -12.112  -3.229 -20.630  1.00  0.00    -0.544 OA
ENDBRANCH   2   7
ENDBRANCH   1   2
BRANCH   1  10
ATOM     10  C   UNL     1     -15.145  -4.249 -23.451  1.00  0.00     0.223 C 
ATOM     11  O   UNL     1     -15.776  -5.288 -23.117  1.00  0.00    -0.275 OA
ATOM     12  N   UNL     1     -15.520  -3.544 -24.635  1.00  0.00    -0.369 N 
ATOM     13  H   UNL     1     -16.304  -3.893 -25.229  1.00  0.00     0.159 HD
ATOM     14  H   UNL     1     -15.020  -2.673 -24.918  1.00  0.00     0.159 HD
ENDBRANCH   1  10
TORSDOF 4
ENDMDL
MODEL 7
REMARK VINA RESULT:    -4.455      1.620      1.815
REMARK INTER + INTRA:          -5.606
REMARK INTER:                  -5.349
REMARK INTRA:                  -0.257
REMARK UNBOUND:                -0.240
REMARK SMILES NC(=O)C[C@@H]([NH3+])C(=O)[O-]
REMARK SMILES IDX 4 1 5 2 6 3 7 7 8 8 9 9 2 10 3 11 1 12
REMARK H PARENT 6 4 6 5 6 6 1 13 1 14
REMARK Flexibility Score: inf
ROOT
ATOM      1  C   UNL     1     -18.385  12.606 -14.334  1.00  0.00     0.171 C 
ENDROOT
BRANCH   1   2
ATOM      2  C   UNL     1     -18.219  12.468 -12.808  1.00  0.00     0.237 C 
BRANCH   2   3
ATOM      3  N   UNL     1     -17.539  13.645 -12.257  1.00  0.00    -0.350 N 
ATOM      4  H   UNL     1     -17.558  14.425 -12.954  1.00  0.00     0.345 HD
ATOM      5  H   UNL     1     -16.544  13.420 -12.019  1.00  0.00     0.345 HD
ATOM      6  H   UNL     1     -18.033  13.967 -11.394  1.00  0.00     0.345 HD
ENDBRANCH   2   3
BRANCH   2   7
ATOM      7  C   UNL     1     -19.556  12.282 -12.136  1.00  0.00     0.100 C 
ATOM      8  O   UNL     1     -19.623  12.141 -10.886  1.00  0.00    -0.544 OA
ATOM      9  O   UNL     1     -20.722  12.251 -12.891  1.00  0.00    -0.544 OA
ENDBRANCH   2   7
ENDBRANCH   1   2
BRANCH   1  10
ATOM     10  C   UNL     1     -17.185  12.085 -15.071  1.00  0.00     0.223 C 
ATOM     11  O   UNL     1     -16.028  12.382 -14.670  1.00  0.00    -0.275 OA
ATOM     12  N   UNL     1     -17.343  11.224 -16.199  1.00  0.00    -0.369 N 
ATOM     13  H   UNL     1     -16.506  10.853 -16.699  1.00  0.00     0.159 HD
ATOM     14  H   UNL     1     -18.294  10.953 -16.534  1.00  0.00     0.159 HD
ENDBRANCH   1  10
TORSDOF 4
ENDMDL
MODEL 8
REMARK VINA RESULT:    -4.447     18.810     19.773
REMARK INTER + INTRA:          -5.597
REMARK INTER:                  -5.360
REMARK INTRA:                  -0.237
REMARK UNBOUND:                -0.240
REMARK SMILES NC(=O)C[C@@H]([NH3+])C(=O)[O-]
REMARK SMILES IDX 4 1 5 2 6 3 7 7 8 8 9 9 2 10 3 11 1 12
REMARK H PARENT 6 4 6 5 6 6 1 13 1 14
REMARK Flexibility Score: inf
ROOT
ATOM      1  C   UNL     1     -13.479  -3.480 -21.064  1.00  0.00     0.171 C 
ENDROOT
BRANCH   1   2
ATOM      2  C   UNL     1     -12.809  -3.955 -22.368  1.00  0.00     0.237 C 
BRANCH   2   3
ATOM      3  N   UNL     1     -12.301  -5.323 -22.215  1.00  0.00    -0.350 N 
ATOM      4  H   UNL     1     -13.077  -5.959 -21.916  1.00  0.00     0.345 HD
ATOM      5  H   UNL     1     -11.535  -5.356 -21.502  1.00  0.00     0.345 HD
ATOM      6  H   UNL     1     -11.932  -5.668 -23.130  1.00  0.00     0.345 HD
ENDBRANCH   2   3
BRANCH   2   7
ATOM      7  C   UNL     1     -13.775  -3.888 -23.524  1.00  0.00     0.100 C 
ATOM      8  O   UNL     1     -14.952  -4.315 -23.391  1.00  0.00    -0.544 OA
ATOM      9  O   UNL     1     -13.368  -3.369 -24.747  1.00  0.00    -0.544 OA
ENDBRANCH   2   7
ENDBRANCH   1   2
BRANCH   1  10
ATOM     10  C   UNL     1     -12.469  -3.226 -19.982  1.00  0.00     0.223 C 
ATOM     11  O   UNL     1     -11.299  -3.681 -20.100  1.00  0.00    -0.275 OA
ATOM     12  N   UNL     1     -12.810  -2.442 -18.839  1.00  0.00    -0.369 N 
ATOM     13  H   UNL     1     -12.101  -2.256 -18.097  1.00  0.00     0.159 HD
ATOM     14  H   UNL     1     -13.769  -2.042 -18.734  1.00  0.00     0.159 HD
ENDBRANCH   1  10
TORSDOF 4
ENDMDL
MODEL 9
REMARK VINA RESULT:    -4.390      1.872      2.169
REMARK INTER + INTRA:          -5.528
REMARK INTER:                  -5.412
REMARK INTRA:                  -0.116
REMARK UNBOUND:                -0.240
REMARK SMILES NC(=O)C[C@@H]([NH3+])C(=O)[O-]
REMARK SMILES IDX 4 1 5 2 6 3 7 7 8 8 9 9 2 10 3 11 1 12
REMARK H PARENT 6 4 6 5 6 6 1 13 1 14
REMARK Flexibility Score: inf
ROOT
ATOM      1  C   UNL     1     -18.077  12.155 -14.313  1.00  0.00     0.171 C 
ENDROOT
BRANCH   1   2
ATOM      2  C   UNL     1     -18.824  13.288 -13.584  1.00  0.00     0.237 C 
BRANCH   2   3
ATOM      3  N   UNL     1     -19.937  13.780 -14.403  1.00  0.00    -0.350 N 
ATOM      4  H   UNL     1     -20.200  13.059 -15.115  1.00  0.00     0.345 HD
ATOM      5  H   UNL     1     -19.673  14.667 -14.892  1.00  0.00     0.345 HD
ATOM      6  H   UNL     1     -20.770  13.959 -13.797  1.00  0.00     0.345 HD
ENDBRANCH   2   3
BRANCH   2   7
ATOM      7  C   UNL     1     -19.335  12.821 -12.244  1.00  0.00     0.100 C 
ATOM      8  O   UNL     1     -18.727  13.138 -11.188  1.00  0.00    -0.544 OA
ATOM      9  O   UNL     1     -20.472  12.025 -12.167  1.00  0.00    -0.544 OA
ENDBRANCH   2   7
ENDBRANCH   1   2
BRANCH   1  10
ATOM     10  C   UNL     1     -16.631  12.495 -14.531  1.00  0.00     0.223 C 
ATOM     11  O   UNL     1     -16.131  13.499 -13.955  1.00  0.00    -0.275 OA
ATOM     12  N   UNL     1     -15.807  11.671 -15.356  1.00  0.00    -0.369 N 
ATOM     13  H   UNL     1     -14.799  11.903 -15.493  1.00  0.00     0.159 HD
ATOM     14  H   UNL     1     -16.200  10.826 -15.827  1.00  0.00     0.159 HD
ENDBRANCH   1  10
TORSDOF 4
ENDMDL
