MODEL 1
REMARK VINA RESULT:    -4.434      0.000      0.000
REMARK INTER + INTRA:          -4.563
REMARK INTER:                  -4.563
REMARK INTRA:                   0.000
REMARK UNBOUND:                 0.000
REMARK SMILES Cc1ccccc1O
REMARK SMILES IDX 1 1 2 2 3 3 4 4 5 5 6 6 7 7 8 8
REMARK H PARENT 8 9
REMARK Flexibility Score: inf
ROOT
ATOM      1  C   UNL     1     -13.223   3.013  29.077  1.00  0.00     0.048 C 
ATOM      2  C   UNL     1     -12.885   2.006  30.143  1.00  0.00    -0.009 A 
ATOM      3  C   UNL     1     -12.089   2.392  31.235  1.00  0.00     0.007 A 
ATOM      4  C   UNL     1     -11.764   1.473  32.235  1.00  0.00     0.001 A 
ATOM      5  C   UNL     1     -12.229   0.160  32.157  1.00  0.00     0.004 A 
ATOM      6  C   UNL     1     -13.022  -0.237  31.077  1.00  0.00     0.046 A 
ATOM      7  C   UNL     1     -13.355   0.674  30.067  1.00  0.00     0.118 A 
ENDROOT
BRANCH   7   8
ATOM      8  O   UNL     1     -14.150   0.229  29.009  1.00  0.00    -0.508 OA
ATOM      9  H   UNL     1     -14.121   0.641  28.086  1.00  0.00     0.293 HD
ENDBRANCH   7   8
TORSDOF 1
ENDMDL
MODEL 2
REMARK VINA RESULT:    -4.411      1.427      2.292
REMARK INTER + INTRA:          -4.540
REMARK INTER:                  -4.540
REMARK INTRA:                   0.000
REMARK UNBOUND:                 0.000
REMARK SMILES Cc1ccccc1O
REMARK SMILES IDX 1 1 2 2 3 3 4 4 5 5 6 6 7 7 8 8
REMARK H PARENT 8 9
REMARK Flexibility Score: inf
ROOT
ATOM      1  C   UNL     1     -13.749   0.737  28.853  1.00  0.00     0.048 C 
ATOM      2  C   UNL     1     -13.016   0.992  30.141  1.00  0.00    -0.009 A 
ATOM      3  C   UNL     1     -12.822  -0.062  31.051  1.00  0.00     0.007 A 
ATOM      4  C   UNL     1     -12.144   0.154  32.253  1.00  0.00     0.001 A 
ATOM      5  C   UNL     1     -11.652   1.422  32.560  1.00  0.00     0.004 A 
ATOM      6  C   UNL     1     -11.836   2.479  31.664  1.00  0.00     0.046 A 
ATOM      7  C   UNL     1     -12.514   2.277  30.456  1.00  0.00     0.118 A 
ENDROOT
BRANCH   7   8
ATOM      8  O   UNL     1     -12.673   3.364  29.595  1.00  0.00    -0.508 OA
ATOM      9  H   UNL     1     -11.935   3.702  28.991  1.00  0.00     0.293 HD
ENDBRANCH   7   8
TORSDOF 1
ENDMDL
MODEL 3
REMARK VINA RESULT:    -4.407      1.865      2.805
REMARK INTER + INTRA:          -4.535
REMARK INTER:                  -4.535
REMARK INTRA:                   0.000
REMARK UNBOUND:                 0.000
REMARK SMILES Cc1ccccc1O
REMARK SMILES IDX 1 1 2 2 3 3 4 4 5 5 6 6 7 7 8 8
REMARK H PARENT 8 9
REMARK Flexibility Score: inf
ROOT
ATOM      1  C   UNL     1     -11.168   3.059  32.270  1.00  0.00     0.048 C 
ATOM      2  C   UNL     1     -11.961   2.063  31.470  1.00  0.00    -0.009 A 
ATOM      3  C   UNL     1     -12.550   2.459  30.256  1.00  0.00     0.007 A 
ATOM      4  C   UNL     1     -13.290   1.549  29.497  1.00  0.00     0.001 A 
ATOM      5  C   UNL     1     -13.451   0.236  29.941  1.00  0.00     0.004 A 
ATOM      6  C   UNL     1     -12.871  -0.171  31.145  1.00  0.00     0.046 A 
ATOM      7  C   UNL     1     -12.127   0.731  31.916  1.00  0.00     0.118 A 
ENDROOT
BRANCH   7   8
ATOM      8  O   UNL     1     -11.566   0.276  33.111  1.00  0.00    -0.508 OA
ATOM      9  H   UNL     1     -11.681  -0.670  33.449  1.00  0.00     0.293 HD
ENDBRANCH   7   8
TORSDOF 1
ENDMDL
MODEL 4
REMARK VINA RESULT:    -4.223     14.837     15.895
REMARK INTER + INTRA:          -4.346
REMARK INTER:                  -4.346
REMARK INTRA:                   0.000
REMARK UNBOUND:                 0.000
REMARK SMILES Cc1ccccc1O
REMARK SMILES IDX 1 1 2 2 3 3 4 4 5 5 6 6 7 7 8 8
REMARK H PARENT 8 9
REMARK Flexibility Score: inf
ROOT
ATOM      1  C   UNL     1      -9.214  13.030  19.150  1.00  0.00     0.048 C 
ATOM      2  C   UNL     1      -9.998  11.823  18.714  1.00  0.00    -0.009 A 
ATOM      3  C   UNL     1     -11.124  11.987  17.887  1.00  0.00     0.007 A 
ATOM      4  C   UNL     1     -11.865  10.879  17.471  1.00  0.00     0.001 A 
ATOM      5  C   UNL     1     -11.492   9.596  17.873  1.00  0.00     0.004 A 
ATOM      6  C   UNL     1     -10.375   9.418  18.694  1.00  0.00     0.046 A 
ATOM      7  C   UNL     1      -9.623  10.520  19.119  1.00  0.00     0.118 A 
ENDROOT
BRANCH   7   8
ATOM      8  O   UNL     1      -8.516  10.291  19.938  1.00  0.00    -0.508 OA
ATOM      9  H   UNL     1      -8.537   9.663  20.731  1.00  0.00     0.293 HD
ENDBRANCH   7   8
TORSDOF 1
ENDMDL
MODEL 5
REMARK VINA RESULT:    -4.221      1.205      1.877
REMARK INTER + INTRA:          -4.345
REMARK INTER:                  -4.345
REMARK INTRA:                   0.000
REMARK UNBOUND:                 0.000
REMARK SMILES Cc1ccccc1O
REMARK SMILES IDX 1 1 2 2 3 3 4 4 5 5 6 6 7 7 8 8
REMARK H PARENT 8 9
REMARK Flexibility Score: inf
ROOT
ATOM      1  C   UNL     1     -13.904   0.810  28.868  1.00  0.00     0.048 C 
ATOM      2  C   UNL     1     -13.098   1.300  30.039  1.00  0.00    -0.009 A 
ATOM      3  C   UNL     1     -12.498   2.570  29.987  1.00  0.00     0.007 A 
ATOM      4  C   UNL     1     -11.746   3.045  31.064  1.00  0.00     0.001 A 
ATOM      5  C   UNL     1     -11.585   2.258  32.205  1.00  0.00     0.004 A 
ATOM      6  C   UNL     1     -12.177   0.993  32.271  1.00  0.00     0.046 A 
ATOM      7  C   UNL     1     -12.933   0.506  31.198  1.00  0.00     0.118 A 
ENDROOT
BRANCH   7   8
ATOM      8  O   UNL     1     -13.504  -0.763  31.313  1.00  0.00    -0.508 OA
ATOM      9  H   UNL     1     -14.175  -1.004  32.031  1.00  0.00     0.293 HD
ENDBRANCH   7   8
TORSDOF 1
ENDMDL
MODEL 6
REMARK VINA RESULT:    -4.185      1.710      2.413
REMARK INTER + INTRA:          -4.307
REMARK INTER:                  -4.307
REMARK INTRA:                   0.000
REMARK UNBOUND:                 0.000
REMARK SMILES Cc1ccccc1O
REMARK SMILES IDX 1 1 2 2 3 3 4 4 5 5 6 6 7 7 8 8
REMARK H PARENT 8 9
REMARK Flexibility Score: inf
ROOT
ATOM      1  C   UNL     1     -13.389   2.580  28.967  1.00  0.00     0.048 C 
ATOM      2  C   UNL     1     -12.897   1.808  30.160  1.00  0.00    -0.009 A 
ATOM      3  C   UNL     1     -13.249   0.454  30.306  1.00  0.00     0.007 A 
ATOM      4  C   UNL     1     -12.802  -0.281  31.406  1.00  0.00     0.001 A 
ATOM      5  C   UNL     1     -12.000   0.326  32.373  1.00  0.00     0.004 A 
ATOM      6  C   UNL     1     -11.641   1.670  32.241  1.00  0.00     0.046 A 
ATOM      7  C   UNL     1     -12.082   2.418  31.143  1.00  0.00     0.118 A 
ENDROOT
BRANCH   7   8
ATOM      8  O   UNL     1     -11.697   3.758  31.055  1.00  0.00    -0.508 OA
ATOM      9  H   UNL     1     -12.132   4.493  31.597  1.00  0.00     0.293 HD
ENDBRANCH   7   8
TORSDOF 1
ENDMDL
MODEL 7
REMARK VINA RESULT:    -4.155     11.964     12.403
REMARK INTER + INTRA:          -4.276
REMARK INTER:                  -4.276
REMARK INTRA:                   0.000
REMARK UNBOUND:                 0.000
REMARK SMILES Cc1ccccc1O
REMARK SMILES IDX 1 1 2 2 3 3 4 4 5 5 6 6 7 7 8 8
REMARK H PARENT 8 9
REMARK Flexibility Score: inf
ROOT
ATOM      1  C   UNL     1      -1.473  -0.654  26.524  1.00  0.00     0.048 C 
ATOM      2  C   UNL     1      -1.098   0.559  27.329  1.00  0.00    -0.009 A 
ATOM      3  C   UNL     1      -0.295   0.412  28.475  1.00  0.00     0.007 A 
ATOM      4  C   UNL     1       0.065   1.526  29.236  1.00  0.00     0.001 A 
ATOM      5  C   UNL     1      -0.372   2.798  28.865  1.00  0.00     0.004 A 
ATOM      6  C   UNL     1      -1.169   2.959  27.728  1.00  0.00     0.046 A 
ATOM      7  C   UNL     1      -1.537   1.851  26.956  1.00  0.00     0.118 A 
ENDROOT
BRANCH   7   8
ATOM      8  O   UNL     1      -2.335   2.064  25.830  1.00  0.00    -0.508 OA
ATOM      9  H   UNL     1      -3.332   2.228  25.883  1.00  0.00     0.293 HD
ENDBRANCH   7   8
TORSDOF 1
ENDMDL
MODEL 8
REMARK VINA RESULT:    -4.146      1.886      3.499
REMARK INTER + INTRA:          -4.267
REMARK INTER:                  -4.267
REMARK INTRA:                   0.000
REMARK UNBOUND:                 0.000
REMARK SMILES Cc1ccccc1O
REMARK SMILES IDX 1 1 2 2 3 3 4 4 5 5 6 6 7 7 8 8
REMARK H PARENT 8 9
REMARK Flexibility Score: inf
ROOT
ATOM      1  C   UNL     1     -11.858   0.511  32.589  1.00  0.00     0.048 C 
ATOM      2  C   UNL     1     -12.443   1.026  31.303  1.00  0.00    -0.009 A 
ATOM      3  C   UNL     1     -13.218   0.169  30.500  1.00  0.00     0.007 A 
ATOM      4  C   UNL     1     -13.771   0.627  29.302  1.00  0.00     0.001 A 
ATOM      5  C   UNL     1     -13.558   1.944  28.892  1.00  0.00     0.004 A 
ATOM      6  C   UNL     1     -12.791   2.806  29.680  1.00  0.00     0.046 A 
ATOM      7  C   UNL     1     -12.231   2.360  30.883  1.00  0.00     0.118 A 
ENDROOT
BRANCH   7   8
ATOM      8  O   UNL     1     -11.472   3.259  31.635  1.00  0.00    -0.508 OA
ATOM      9  H   UNL     1     -11.556   3.346  32.639  1.00  0.00     0.293 HD
ENDBRANCH   7   8
TORSDOF 1
ENDMDL
MODEL 9
REMARK VINA RESULT:    -4.071      1.022      1.466
REMARK INTER + INTRA:          -4.190
REMARK INTER:                  -4.190
REMARK INTRA:                   0.000
REMARK UNBOUND:                 0.000
REMARK SMILES Cc1ccccc1O
REMARK SMILES IDX 1 1 2 2 3 3 4 4 5 5 6 6 7 7 8 8
REMARK H PARENT 8 9
REMARK Flexibility Score: inf
ROOT
ATOM      1  C   UNL     1     -11.816   3.845  30.751  1.00  0.00     0.048 C 
ATOM      2  C   UNL     1     -12.152   2.398  30.984  1.00  0.00    -0.009 A 
ATOM      3  C   UNL     1     -11.687   1.755  32.145  1.00  0.00     0.007 A 
ATOM      4  C   UNL     1     -11.987   0.412  32.380  1.00  0.00     0.001 A 
ATOM      5  C   UNL     1     -12.754  -0.305  31.461  1.00  0.00     0.004 A 
ATOM      6  C   UNL     1     -13.224   0.321  30.303  1.00  0.00     0.046 A 
ATOM      7  C   UNL     1     -12.929   1.667  30.055  1.00  0.00     0.118 A 
ENDROOT
BRANCH   7   8
ATOM      8  O   UNL     1     -13.421   2.248  28.884  1.00  0.00    -0.508 OA
ATOM      9  H   UNL     1     -14.034   3.053  28.883  1.00  0.00     0.293 HD
ENDBRANCH   7   8
TORSDOF 1
ENDMDL
