MODEL 1
REMARK VINA RESULT:    -2.231      0.000      0.000
REMARK INTER + INTRA:          -3.857
REMARK INTER:                  -3.405
REMARK INTRA:                  -0.452
REMARK UNBOUND:                -0.452
REMARK SMILES CC1=CCC[C@@H](C)C(=O)C[C@@H](C(C)C)C(=O)C1
REMARK SMILES IDX 8 1 9 2 6 3 7 4 5 5 4 6 3 7 2 8 1 9 10 11 11 12 15 13 16 14
REMARK SMILES IDX 17 15 12 17 13 18 14 19
REMARK H PARENT
REMARK Flexibility Score: 70.00
ROOT
ATOM      1  C   UNL     1     166.735 171.694 148.678  1.00  0.00     0.136 C 
ATOM      2  O   UNL     1     165.710 172.059 149.231  1.00  0.00    -0.299 OA
ENDROOT
BRANCH   1   3
ATOM      3  C   UNL     1     167.879 171.121 149.567  1.00  0.00     0.053 C 
ATOM      4  C   UNL     1     167.392 170.876 150.999  1.00  0.00     0.016 C 
BRANCH   3   5
ATOM      5  C   UNL     1     169.019 172.125 149.492  1.00  0.00     0.015 C 
BRANCH   5   6
ATOM      6  C   UNL     1     170.534 172.059 149.292  1.00  0.00     0.028 C 
BRANCH   6   7
ATOM      7  C   UNL     1     171.035 170.581 149.115  1.00  0.00    -0.028 C 
ATOM      8  C   UNL     1     170.869 169.709 148.034  1.00  0.00    -0.070 CG0
ATOM      9  C   UNL     1     171.429 168.318 148.126  1.00  0.00     0.039 C 
ATOM     10  G   UNL     1     170.167 170.113 146.742  1.00  0.00     0.000 G0
ENDBRANCH   6   7
ENDBRANCH   5   6
ENDBRANCH   3   5
ENDBRANCH   1   3
BRANCH   1  11
ATOM     11  C   UNL     1     166.819 171.831 147.129  1.00  0.00     0.087 C 
BRANCH  11  12
ATOM     12  C   UNL     1     167.571 170.648 146.381  1.00  0.00     0.066 C 
BRANCH  12  13
ATOM     13  C   UNL     1     169.095 170.980 146.120  1.00  0.00     0.140 C 
ATOM     14  O   UNL     1     169.425 172.021 145.573  1.00  0.00    -0.299 OA
BRANCH  13  15
ATOM     15  C   UNL     1     170.186 170.114 146.733  1.00  0.00     0.106 CG0
ATOM     16  G   UNL     1     170.862 169.685 148.032  1.00  0.00     0.000 G0
ENDBRANCH  13  15
ENDBRANCH  12  13
BRANCH  12  17
ATOM     17  C   UNL     1     166.825 170.155 145.095  1.00  0.00    -0.006 C 
ATOM     18  C   UNL     1     165.653 169.214 145.447  1.00  0.00     0.008 C 
ATOM     19  C   UNL     1     166.249 171.326 144.271  1.00  0.00     0.008 C 
ENDBRANCH  12  17
ENDBRANCH  11  12
ENDBRANCH   1  11
TORSDOF 1
ENDMDL
MODEL 2
REMARK VINA RESULT:    -2.057     17.497     19.824
REMARK INTER + INTRA:          -3.591
REMARK INTER:                  -2.816
REMARK INTRA:                  -0.775
REMARK UNBOUND:                -0.452
REMARK SMILES CC1=CCC[C@@H](C)C(=O)C[C@@H](C(C)C)C(=O)C1
REMARK SMILES IDX 8 1 9 2 6 3 7 4 5 5 4 6 3 7 2 8 1 9 10 11 11 12 15 13 16 14
REMARK SMILES IDX 17 15 12 17 13 18 14 19
REMARK H PARENT
REMARK Flexibility Score: 70.00
ROOT
ATOM      1  C   UNL     1     159.352 152.262 143.928  1.00  0.00     0.136 C 
ATOM      2  O   UNL     1     160.454 152.295 143.406  1.00  0.00    -0.299 OA
ENDROOT
BRANCH   1   3
ATOM      3  C   UNL     1     159.282 152.100 145.475  1.00  0.00     0.053 C 
ATOM      4  C   UNL     1     157.846 152.273 145.981  1.00  0.00     0.016 C 
BRANCH   3   5
ATOM      5  C   UNL     1     160.242 153.128 146.054  1.00  0.00     0.015 C 
BRANCH   5   6
ATOM      6  C   UNL     1     160.214 154.633 146.324  1.00  0.00     0.028 C 
BRANCH   6   7
ATOM      7  C   UNL     1     161.034 155.433 145.250  1.00  0.00    -0.028 C 
ATOM      8  C   UNL     1     160.619 155.952 144.019  1.00  0.00    -0.070 CG0
ATOM      9  C   UNL     1     161.618 156.664 143.153  1.00  0.00     0.039 C 
ATOM     10  G   UNL     1     159.180 155.858 143.522  1.00  0.00     0.000 G0
ENDBRANCH   6   7
ENDBRANCH   5   6
ENDBRANCH   3   5
ENDBRANCH   1   3
BRANCH   1  11
ATOM     11  C   UNL     1     158.102 152.381 143.005  1.00  0.00     0.087 C 
BRANCH  11  12
ATOM     12  C   UNL     1     157.871 153.813 142.356  1.00  0.00     0.066 C 
BRANCH  12  13
ATOM     13  C   UNL     1     157.947 154.974 143.427  1.00  0.00     0.140 C 
ATOM     14  O   UNL     1     157.109 155.067 144.310  1.00  0.00    -0.299 OA
BRANCH  13  15
ATOM     15  C   UNL     1     159.176 155.867 143.505  1.00  0.00     0.106 CG0
ATOM     16  G   UNL     1     160.613 155.977 144.004  1.00  0.00     0.000 G0
ENDBRANCH  13  15
ENDBRANCH  12  13
BRANCH  12  17
ATOM     17  C   UNL     1     156.585 153.888 141.464  1.00  0.00    -0.006 C 
ATOM     18  C   UNL     1     156.916 153.660 139.974  1.00  0.00     0.008 C 
ATOM     19  C   UNL     1     155.531 152.836 141.872  1.00  0.00     0.008 C 
ENDBRANCH  12  17
ENDBRANCH  11  12
ENDBRANCH   1  11
TORSDOF 1
ENDMDL
MODEL 3
REMARK VINA RESULT:    -1.973     18.485     21.115
REMARK INTER + INTRA:          -3.463
REMARK INTER:                  -3.047
REMARK INTRA:                  -0.416
REMARK UNBOUND:                -0.452
REMARK SMILES CC1=CCC[C@@H](C)C(=O)C[C@@H](C(C)C)C(=O)C1
REMARK SMILES IDX 8 1 9 2 6 3 7 4 5 5 4 6 3 7 2 8 1 9 10 11 11 12 15 13 16 14
REMARK SMILES IDX 17 15 12 17 13 18 14 19
REMARK H PARENT
REMARK Flexibility Score: 70.00
ROOT
ATOM      1  C   UNL     1     156.838 154.939 141.618  1.00  0.00     0.136 C 
ATOM      2  O   UNL     1     157.435 154.739 140.572  1.00  0.00    -0.299 OA
ENDROOT
BRANCH   1   3
ATOM      3  C   UNL     1     155.284 154.836 141.602  1.00  0.00     0.053 C 
ATOM      4  C   UNL     1     154.660 155.795 142.623  1.00  0.00     0.016 C 
BRANCH   3   5
ATOM      5  C   UNL     1     154.951 153.378 141.878  1.00  0.00     0.015 C 
BRANCH   5   6
ATOM      6  C   UNL     1     155.641 152.202 142.571  1.00  0.00     0.028 C 
BRANCH   6   7
ATOM      7  C   UNL     1     155.514 152.290 144.134  1.00  0.00    -0.028 C 
ATOM      8  C   UNL     1     156.501 152.541 145.093  1.00  0.00    -0.070 CG0
ATOM      9  C   UNL     1     156.121 152.545 146.546  1.00  0.00     0.039 C 
ATOM     10  G   UNL     1     157.951 152.847 144.732  1.00  0.00     0.000 G0
ENDBRANCH   6   7
ENDBRANCH   5   6
ENDBRANCH   3   5
ENDBRANCH   1   3
BRANCH   1  11
ATOM     11  C   UNL     1     157.678 155.282 142.884  1.00  0.00     0.087 C 
BRANCH  11  12
ATOM     12  C   UNL     1     159.082 154.544 142.990  1.00  0.00     0.066 C 
BRANCH  12  13
ATOM     13  C   UNL     1     158.952 153.102 143.627  1.00  0.00     0.140 C 
ATOM     14  O   UNL     1     159.751 152.221 143.350  1.00  0.00    -0.299 OA
BRANCH  13  15
ATOM     15  C   UNL     1     157.962 152.847 144.754  1.00  0.00     0.106 CG0
ATOM     16  G   UNL     1     156.506 152.549 145.097  1.00  0.00     0.000 G0
ENDBRANCH  13  15
ENDBRANCH  12  13
BRANCH  12  17
ATOM     17  C   UNL     1     160.190 155.416 143.673  1.00  0.00    -0.006 C 
ATOM     18  C   UNL     1     161.591 154.798 143.485  1.00  0.00     0.008 C 
ATOM     19  C   UNL     1     160.235 156.850 143.104  1.00  0.00     0.008 C 
ENDBRANCH  12  17
ENDBRANCH  11  12
ENDBRANCH   1  11
TORSDOF 1
ENDMDL
MODEL 4
REMARK VINA RESULT:    -1.900     20.000     21.261
REMARK INTER + INTRA:          -3.351
REMARK INTER:                  -2.649
REMARK INTRA:                  -0.702
REMARK UNBOUND:                -0.452
REMARK SMILES CC1=CCC[C@@H](C)C(=O)C[C@@H](C(C)C)C(=O)C1
REMARK SMILES IDX 8 1 9 2 6 3 7 4 5 5 4 6 3 7 2 8 1 9 10 11 11 12 15 13 16 14
REMARK SMILES IDX 17 15 12 17 13 18 14 19
REMARK H PARENT
REMARK Flexibility Score: 70.00
ROOT
ATOM      1  C   UNL     1     154.917 156.299 144.987  1.00  0.00     0.136 C 
ATOM      2  O   UNL     1     155.214 156.986 145.950  1.00  0.00    -0.299 OA
ENDROOT
BRANCH   1   3
ATOM      3  C   UNL     1     153.585 155.494 145.048  1.00  0.00     0.053 C 
ATOM      4  C   UNL     1     152.425 156.385 145.507  1.00  0.00     0.016 C 
BRANCH   3   5
ATOM      5  C   UNL     1     153.838 154.322 145.983  1.00  0.00     0.015 C 
BRANCH   5   6
ATOM      6  C   UNL     1     154.251 152.857 145.828  1.00  0.00     0.028 C 
BRANCH   6   7
ATOM      7  C   UNL     1     155.747 152.625 146.243  1.00  0.00    -0.028 C 
ATOM      8  C   UNL     1     156.899 152.618 145.450  1.00  0.00    -0.070 CG0
ATOM      9  C   UNL     1     158.227 152.340 146.094  1.00  0.00     0.039 C 
ATOM     10  G   UNL     1     156.878 152.911 143.953  1.00  0.00     0.000 G0
ENDBRANCH   6   7
ENDBRANCH   5   6
ENDBRANCH   3   5
ENDBRANCH   1   3
BRANCH   1  11
ATOM     11  C   UNL     1     155.894 156.279 143.774  1.00  0.00     0.087 C 
BRANCH  11  12
ATOM     12  C   UNL     1     155.731 155.041 142.790  1.00  0.00     0.066 C 
BRANCH  12  13
ATOM     13  C   UNL     1     156.930 154.017 142.915  1.00  0.00     0.140 C 
ATOM     14  O   UNL     1     157.969 154.191 142.298  1.00  0.00    -0.299 OA
BRANCH  13  15
ATOM     15  C   UNL     1     156.894 152.916 143.965  1.00  0.00     0.106 CG0
ATOM     16  G   UNL     1     156.902 152.612 145.460  1.00  0.00     0.000 G0
ENDBRANCH  13  15
ENDBRANCH  12  13
BRANCH  12  17
ATOM     17  C   UNL     1     155.439 155.461 141.309  1.00  0.00    -0.006 C 
ATOM     18  C   UNL     1     154.934 154.267 140.472  1.00  0.00     0.008 C 
ATOM     19  C   UNL     1     154.374 156.575 141.219  1.00  0.00     0.008 C 
ENDBRANCH  12  17
ENDBRANCH  11  12
ENDBRANCH   1  11
TORSDOF 1
ENDMDL
MODEL 5
REMARK VINA RESULT:    -1.898     19.943     21.552
REMARK INTER + INTRA:          -3.349
REMARK INTER:                  -2.711
REMARK INTRA:                  -0.638
REMARK UNBOUND:                -0.452
REMARK SMILES CC1=CCC[C@@H](C)C(=O)C[C@@H](C(C)C)C(=O)C1
REMARK SMILES IDX 8 1 9 2 6 3 7 4 5 5 4 6 3 7 2 8 1 9 10 11 11 12 15 13 16 14
REMARK SMILES IDX 17 15 12 17 13 18 14 19
REMARK H PARENT
REMARK Flexibility Score: 70.00
ROOT
ATOM      1  C   UNL     1     156.737 155.036 149.946  1.00  0.00     0.136 C 
ATOM      2  O   UNL     1     157.753 155.668 149.705  1.00  0.00    -0.299 OA
ENDROOT
BRANCH   1   3
ATOM      3  C   UNL     1     156.533 154.509 151.398  1.00  0.00     0.053 C 
ATOM      4  C   UNL     1     156.939 155.568 152.429  1.00  0.00     0.016 C 
BRANCH   3   5
ATOM      5  C   UNL     1     157.351 153.232 151.506  1.00  0.00     0.015 C 
BRANCH   5   6
ATOM      6  C   UNL     1     157.482 151.935 150.705  1.00  0.00     0.028 C 
BRANCH   6   7
ATOM      7  C   UNL     1     158.484 152.088 149.507  1.00  0.00    -0.028 C 
ATOM      8  C   UNL     1     158.230 152.105 148.131  1.00  0.00    -0.070 CG0
ATOM      9  C   UNL     1     159.382 152.237 147.178  1.00  0.00     0.039 C 
ATOM     10  G   UNL     1     156.823 152.027 147.547  1.00  0.00     0.000 G0
ENDBRANCH   6   7
ENDBRANCH   5   6
ENDBRANCH   3   5
ENDBRANCH   1   3
BRANCH   1  11
ATOM     11  C   UNL     1     155.727 154.805 148.783  1.00  0.00     0.087 C 
BRANCH  11  12
ATOM     12  C   UNL     1     154.937 153.427 148.833  1.00  0.00     0.066 C 
BRANCH  12  13
ATOM     13  C   UNL     1     155.374 152.445 147.674  1.00  0.00     0.140 C 
ATOM     14  O   UNL     1     154.596 152.139 146.784  1.00  0.00    -0.299 OA
BRANCH  13  15
ATOM     15  C   UNL     1     156.832 152.032 147.525  1.00  0.00     0.106 CG0
ATOM     16  G   UNL     1     158.226 152.122 148.138  1.00  0.00     0.000 G0
ENDBRANCH  13  15
ENDBRANCH  12  13
BRANCH  12  17
ATOM     17  C   UNL     1     153.383 153.607 148.927  1.00  0.00    -0.006 C 
ATOM     18  C   UNL     1     152.743 152.533 149.831  1.00  0.00     0.008 C 
ATOM     19  C   UNL     1     152.991 154.988 149.496  1.00  0.00     0.008 C 
ENDBRANCH  12  17
ENDBRANCH  11  12
ENDBRANCH   1  11
TORSDOF 1
ENDMDL
MODEL 6
REMARK VINA RESULT:    -1.867      3.980      6.065
REMARK INTER + INTRA:          -3.301
REMARK INTER:                  -2.663
REMARK INTRA:                  -0.639
REMARK UNBOUND:                -0.452
REMARK SMILES CC1=CCC[C@@H](C)C(=O)C[C@@H](C(C)C)C(=O)C1
REMARK SMILES IDX 8 1 9 2 6 3 7 4 5 5 4 6 3 7 2 8 1 9 10 11 11 12 15 13 16 14
REMARK SMILES IDX 17 15 12 17 13 18 14 19
REMARK H PARENT
REMARK Flexibility Score: 70.00
ROOT
ATOM      1  C   UNL     1     170.069 167.884 143.544  1.00  0.00     0.136 C 
ATOM      2  O   UNL     1     171.244 167.956 143.221  1.00  0.00    -0.299 OA
ENDROOT
BRANCH   1   3
ATOM      3  C   UNL     1     169.739 167.474 145.010  1.00  0.00     0.053 C 
ATOM      4  C   UNL     1     168.477 166.606 145.067  1.00  0.00     0.016 C 
BRANCH   3   5
ATOM      5  C   UNL     1     169.603 168.770 145.794  1.00  0.00     0.015 C 
BRANCH   5   6
ATOM      6  C   UNL     1     169.517 170.259 145.455  1.00  0.00     0.028 C 
BRANCH   6   7
ATOM      7  C   UNL     1     168.040 170.787 145.515  1.00  0.00    -0.028 C 
ATOM      8  C   UNL     1     167.231 171.286 144.488  1.00  0.00    -0.070 CG0
ATOM      9  C   UNL     1     165.844 171.758 144.816  1.00  0.00     0.039 C 
ATOM     10  G   UNL     1     167.681 171.345 143.032  1.00  0.00     0.000 G0
ENDBRANCH   6   7
ENDBRANCH   5   6
ENDBRANCH   3   5
ENDBRANCH   1   3
BRANCH   1  11
ATOM     11  C   UNL     1     168.993 168.205 142.464  1.00  0.00     0.087 C 
BRANCH  11  12
ATOM     12  C   UNL     1     169.203 169.570 141.679  1.00  0.00     0.066 C 
BRANCH  12  13
ATOM     13  C   UNL     1     167.934 170.510 141.764  1.00  0.00     0.140 C 
ATOM     14  O   UNL     1     167.060 170.460 140.912  1.00  0.00    -0.299 OA
BRANCH  13  15
ATOM     15  C   UNL     1     167.672 171.337 143.014  1.00  0.00     0.106 CG0
ATOM     16  G   UNL     1     167.251 171.292 144.479  1.00  0.00     0.000 G0
ENDBRANCH  13  15
ENDBRANCH  12  13
BRANCH  12  17
ATOM     17  C   UNL     1     169.718 169.369 140.213  1.00  0.00    -0.006 C 
ATOM     18  C   UNL     1     171.230 169.655 140.100  1.00  0.00     0.008 C 
ATOM     19  C   UNL     1     169.478 167.932 139.704  1.00  0.00     0.008 C 
ENDBRANCH  12  17
ENDBRANCH  11  12
ENDBRANCH   1  11
TORSDOF 1
ENDMDL
MODEL 7
REMARK VINA RESULT:    -1.828     19.653     21.341
REMARK INTER + INTRA:          -3.241
REMARK INTER:                  -2.729
REMARK INTRA:                  -0.512
REMARK UNBOUND:                -0.452
REMARK SMILES CC1=CCC[C@@H](C)C(=O)C[C@@H](C(C)C)C(=O)C1
REMARK SMILES IDX 8 1 9 2 6 3 7 4 5 5 4 6 3 7 2 8 1 9 10 11 11 12 15 13 16 14
REMARK SMILES IDX 17 15 12 17 13 18 14 19
REMARK H PARENT
REMARK Flexibility Score: 70.00
ROOT
ATOM      1  C   UNL     1     158.464 155.047 143.007  1.00  0.00     0.136 C 
ATOM      2  O   UNL     1     158.474 156.260 143.147  1.00  0.00    -0.299 OA
ENDROOT
BRANCH   1   3
ATOM      3  C   UNL     1     159.234 154.185 144.050  1.00  0.00     0.053 C 
ATOM      4  C   UNL     1     159.578 152.806 143.477  1.00  0.00     0.016 C 
BRANCH   3   5
ATOM      5  C   UNL     1     158.345 154.111 145.281  1.00  0.00     0.015 C 
BRANCH   5   6
ATOM      6  C   UNL     1     157.311 153.130 145.836  1.00  0.00     0.028 C 
BRANCH   6   7
ATOM      7  C   UNL     1     155.949 153.841 146.164  1.00  0.00    -0.028 C 
ATOM      8  C   UNL     1     154.830 154.038 145.348  1.00  0.00    -0.070 CG0
ATOM      9  C   UNL     1     153.648 154.783 145.898  1.00  0.00     0.039 C 
ATOM     10  G   UNL     1     154.737 153.502 143.923  1.00  0.00     0.000 G0
ENDBRANCH   6   7
ENDBRANCH   5   6
ENDBRANCH   3   5
ENDBRANCH   1   3
BRANCH   1  11
ATOM     11  C   UNL     1     157.683 154.458 141.794  1.00  0.00     0.087 C 
BRANCH  11  12
ATOM     12  C   UNL     1     156.101 154.583 141.879  1.00  0.00     0.066 C 
BRANCH  12  13
ATOM     13  C   UNL     1     155.440 153.334 142.589  1.00  0.00     0.140 C 
ATOM     14  O   UNL     1     155.636 152.202 142.176  1.00  0.00    -0.299 OA
BRANCH  13  15
ATOM     15  C   UNL     1     154.725 153.499 143.923  1.00  0.00     0.106 CG0
ATOM     16  G   UNL     1     154.835 154.044 145.343  1.00  0.00     0.000 G0
ENDBRANCH  13  15
ENDBRANCH  12  13
BRANCH  12  17
ATOM     17  C   UNL     1     155.432 154.928 140.504  1.00  0.00    -0.006 C 
ATOM     18  C   UNL     1     155.095 156.430 140.401  1.00  0.00     0.008 C 
ATOM     19  C   UNL     1     156.342 154.573 139.309  1.00  0.00     0.008 C 
ENDBRANCH  12  17
ENDBRANCH  11  12
ENDBRANCH   1  11
TORSDOF 1
ENDMDL
MODEL 8
REMARK VINA RESULT:    -1.809     19.870     21.303
REMARK INTER + INTRA:          -3.213
REMARK INTER:                  -2.635
REMARK INTRA:                  -0.578
REMARK UNBOUND:                -0.452
REMARK SMILES CC1=CCC[C@@H](C)C(=O)C[C@@H](C(C)C)C(=O)C1
REMARK SMILES IDX 8 1 9 2 6 3 7 4 5 5 4 6 3 7 2 8 1 9 10 11 11 12 15 13 16 14
REMARK SMILES IDX 17 15 12 17 13 18 14 19
REMARK H PARENT
REMARK Flexibility Score: 70.00
ROOT
ATOM      1  C   UNL     1     158.042 154.382 144.844  1.00  0.00     0.136 C 
ATOM      2  O   UNL     1     159.062 154.745 145.409  1.00  0.00    -0.299 OA
ENDROOT
BRANCH   1   3
ATOM      3  C   UNL     1     157.958 152.902 144.368  1.00  0.00     0.053 C 
ATOM      4  C   UNL     1     159.005 152.036 145.079  1.00  0.00     0.016 C 
BRANCH   3   5
ATOM      5  C   UNL     1     158.137 152.929 142.859  1.00  0.00     0.015 C 
BRANCH   5   6
ATOM      6  C   UNL     1     157.313 152.500 141.643  1.00  0.00     0.028 C 
BRANCH   6   7
ATOM      7  C   UNL     1     157.093 153.687 140.639  1.00  0.00    -0.028 C 
ATOM      8  C   UNL     1     156.116 154.689 140.646  1.00  0.00    -0.070 CG0
ATOM      9  C   UNL     1     156.107 155.706 139.541  1.00  0.00     0.039 C 
ATOM     10  G   UNL     1     155.069 154.819 141.748  1.00  0.00     0.000 G0
ENDBRANCH   6   7
ENDBRANCH   5   6
ENDBRANCH   3   5
ENDBRANCH   1   3
BRANCH   1  11
ATOM     11  C   UNL     1     156.906 155.430 144.643  1.00  0.00     0.087 C 
BRANCH  11  12
ATOM     12  C   UNL     1     155.455 154.823 144.414  1.00  0.00     0.066 C 
BRANCH  12  13
ATOM     13  C   UNL     1     154.760 155.411 143.121  1.00  0.00     0.140 C 
ATOM     14  O   UNL     1     154.113 156.445 143.173  1.00  0.00    -0.299 OA
BRANCH  13  15
ATOM     15  C   UNL     1     155.059 154.820 141.751  1.00  0.00     0.106 CG0
ATOM     16  G   UNL     1     156.100 154.690 140.644  1.00  0.00     0.000 G0
ENDBRANCH  13  15
ENDBRANCH  12  13
BRANCH  12  17
ATOM     17  C   UNL     1     154.544 154.900 145.686  1.00  0.00    -0.006 C 
ATOM     18  C   UNL     1     154.851 153.752 146.671  1.00  0.00     0.008 C 
ATOM     19  C   UNL     1     154.722 156.229 146.451  1.00  0.00     0.008 C 
ENDBRANCH  12  17
ENDBRANCH  11  12
ENDBRANCH   1  11
TORSDOF 1
ENDMDL
MODEL 9
REMARK VINA RESULT:    -1.702      2.578      5.612
REMARK INTER + INTRA:          -3.049
REMARK INTER:                  -2.437
REMARK INTRA:                  -0.611
REMARK UNBOUND:                -0.452
REMARK SMILES CC1=CCC[C@@H](C)C(=O)C[C@@H](C(C)C)C(=O)C1
REMARK SMILES IDX 8 1 9 2 6 3 7 4 5 5 4 6 3 7 2 8 1 9 10 11 11 12 15 13 16 14
REMARK SMILES IDX 17 15 12 17 13 18 14 19
REMARK H PARENT
REMARK Flexibility Score: 70.00
ROOT
ATOM      1  C   UNL     1     168.785 168.046 145.438  1.00  0.00     0.136 C 
ATOM      2  O   UNL     1     167.648 167.608 145.498  1.00  0.00    -0.299 OA
ENDROOT
BRANCH   1   3
ATOM      3  C   UNL     1     169.599 167.789 144.136  1.00  0.00     0.053 C 
ATOM      4  C   UNL     1     171.089 168.080 144.352  1.00  0.00     0.016 C 
BRANCH   3   5
ATOM      5  C   UNL     1     168.974 168.667 143.063  1.00  0.00     0.015 C 
BRANCH   5   6
ATOM      6  C   UNL     1     168.692 170.160 142.886  1.00  0.00     0.028 C 
BRANCH   6   7
ATOM      7  C   UNL     1     167.156 170.477 142.960  1.00  0.00    -0.028 C 
ATOM      8  C   UNL     1     166.395 170.945 144.037  1.00  0.00    -0.070 CG0
ATOM      9  C   UNL     1     164.918 171.143 143.854  1.00  0.00     0.039 C 
ATOM     10  G   UNL     1     167.002 171.297 145.391  1.00  0.00     0.000 G0
ENDBRANCH   6   7
ENDBRANCH   5   6
ENDBRANCH   3   5
ENDBRANCH   1   3
BRANCH   1  11
ATOM     11  C   UNL     1     169.333 168.826 146.671  1.00  0.00     0.087 C 
BRANCH  11  12
ATOM     12  C   UNL     1     168.363 169.939 147.258  1.00  0.00     0.066 C 
BRANCH  12  13
ATOM     13  C   UNL     1     168.216 171.177 146.284  1.00  0.00     0.140 C 
ATOM     14  O   UNL     1     169.144 171.951 146.110  1.00  0.00    -0.299 OA
BRANCH  13  15
ATOM     15  C   UNL     1     166.995 171.306 145.385  1.00  0.00     0.106 CG0
ATOM     16  G   UNL     1     166.394 170.945 144.030  1.00  0.00     0.000 G0
ENDBRANCH  13  15
ENDBRANCH  12  13
BRANCH  12  17
ATOM     17  C   UNL     1     168.715 170.356 148.726  1.00  0.00    -0.006 C 
ATOM     18  C   UNL     1     167.960 169.491 149.756  1.00  0.00     0.008 C 
ATOM     19  C   UNL     1     170.224 170.222 149.023  1.00  0.00     0.008 C 
ENDBRANCH  12  17
ENDBRANCH  11  12
ENDBRANCH   1  11
TORSDOF 1
ENDMDL
