MODEL 1
REMARK VINA RESULT:    -2.374      0.000      0.000
REMARK INTER + INTRA:          -3.013
REMARK INTER:                  -3.345
REMARK INTRA:                   0.332
REMARK UNBOUND:                 0.332
REMARK SMILES CC1=CCC(=C(C)C)C(=O)CC(C)=CCC1
REMARK SMILES IDX 12 1 14 2 13 3 15 4 16 5 2 6 1 7 3 8 11 10 9 11 10 12 5 13
REMARK SMILES IDX 6 14 7 15 8 16 4 17
REMARK H PARENT
REMARK Flexibility Score: 60.00
ROOT
ATOM      1  C   UNL     1      82.025   4.341  59.746  1.00  0.00    -0.070 C 
ATOM      2  C   UNL     1      81.048   3.541  60.228  1.00  0.00    -0.027 C 
ATOM      3  C   UNL     1      82.889   3.806  58.633  1.00  0.00     0.039 C 
ENDROOT
BRANCH   2   4
ATOM      4  C   UNL     1      80.146   3.859  61.401  1.00  0.00     0.032 C 
BRANCH   4   5
ATOM      5  C   UNL     1      79.049   4.904  61.110  1.00  0.00     0.034 C 
BRANCH   5   6
ATOM      6  C   UNL     1      78.484   4.802  59.706  1.00  0.00    -0.077 C 
ATOM      7  C   UNL     1      77.603   3.620  59.388  1.00  0.00     0.039 C 
ATOM      8  C   UNL     1      78.775   5.663  58.700  1.00  0.00    -0.023 CG0
ATOM      9  G   UNL     1      79.615   6.922  58.789  1.00  0.00     0.000 G0
ENDBRANCH   5   6
ENDBRANCH   4   5
ENDBRANCH   2   4
BRANCH   1  10
ATOM     10  C   UNL     1      82.350   5.701  60.330  1.00  0.00     0.111 C 
BRANCH  10  11
ATOM     11  C   UNL     1      82.118   6.804  59.331  1.00  0.00     0.163 C 
ATOM     12  O   UNL     1      82.840   7.835  59.407  1.00  0.00    -0.294 OA
BRANCH  11  13
ATOM     13  C   UNL     1      81.033   6.743  58.307  1.00  0.00    -0.002 C 
ATOM     14  C   UNL     1      81.331   6.601  56.980  1.00  0.00    -0.069 C 
ATOM     15  C   UNL     1      80.268   6.694  55.906  1.00  0.00     0.039 C 
ATOM     16  C   UNL     1      82.748   6.346  56.517  1.00  0.00     0.039 C 
BRANCH  13  17
ATOM     17  C   UNL     1      79.606   6.938  58.793  1.00  0.00     0.066 CG0
ATOM     18  G   UNL     1      78.794   5.659  58.726  1.00  0.00     0.000 G0
ENDBRANCH  13  17
ENDBRANCH  11  13
ENDBRANCH  10  11
ENDBRANCH   1  10
TORSDOF 0
ENDMDL
MODEL 2
REMARK VINA RESULT:    -2.288      7.667      9.147
REMARK INTER + INTRA:          -2.892
REMARK INTER:                  -3.036
REMARK INTRA:                   0.144
REMARK UNBOUND:                 0.332
REMARK SMILES CC1=CCC(=C(C)C)C(=O)CC(C)=CCC1
REMARK SMILES IDX 12 1 14 2 13 3 15 4 16 5 2 6 1 7 3 8 11 10 9 11 10 12 5 13
REMARK SMILES IDX 6 14 7 15 8 16 4 17
REMARK H PARENT
REMARK Flexibility Score: 60.00
ROOT
ATOM      1  C   UNL     1      80.529   2.439  50.933  1.00  0.00    -0.070 C 
ATOM      2  C   UNL     1      79.964   3.290  51.818  1.00  0.00    -0.027 C 
ATOM      3  C   UNL     1      80.425   2.775  49.467  1.00  0.00     0.039 C 
ENDROOT
BRANCH   2   4
ATOM      4  C   UNL     1      79.878   3.079  53.314  1.00  0.00     0.032 C 
BRANCH   4   5
ATOM      5  C   UNL     1      78.679   2.227  53.780  1.00  0.00     0.034 C 
BRANCH   5   6
ATOM      6  C   UNL     1      79.065   1.143  54.769  1.00  0.00    -0.077 C 
ATOM      7  C   UNL     1      79.441   1.570  56.166  1.00  0.00     0.039 C 
ATOM      8  C   UNL     1      79.162  -0.174  54.462  1.00  0.00    -0.023 CG0
ATOM      9  G   UNL     1      78.821  -0.832  53.139  1.00  0.00     0.000 G0
ENDBRANCH   5   6
ENDBRANCH   4   5
ENDBRANCH   2   4
BRANCH   1  10
ATOM     10  C   UNL     1      81.174   1.129  51.335  1.00  0.00     0.111 C 
BRANCH  10  11
ATOM     11  C   UNL     1      80.231  -0.032  51.159  1.00  0.00     0.163 C 
ATOM     12  O   UNL     1      79.584  -0.112  50.079  1.00  0.00    -0.294 OA
BRANCH  11  13
ATOM     13  C   UNL     1      79.993  -1.042  52.232  1.00  0.00    -0.002 C 
ATOM     14  C   UNL     1      80.776  -2.159  52.327  1.00  0.00    -0.069 C 
ATOM     15  C   UNL     1      80.465  -3.275  53.300  1.00  0.00     0.039 C 
ATOM     16  C   UNL     1      81.999  -2.335  51.455  1.00  0.00     0.039 C 
BRANCH  13  17
ATOM     17  C   UNL     1      78.797  -0.820  53.143  1.00  0.00     0.066 CG0
ATOM     18  G   UNL     1      79.186  -0.180  54.461  1.00  0.00     0.000 G0
ENDBRANCH  13  17
ENDBRANCH  11  13
ENDBRANCH  10  11
ENDBRANCH   1  10
TORSDOF 0
ENDMDL
MODEL 3
REMARK VINA RESULT:    -2.194      5.486      8.379
REMARK INTER + INTRA:          -2.760
REMARK INTER:                  -3.250
REMARK INTRA:                   0.490
REMARK UNBOUND:                 0.332
REMARK SMILES CC1=CCC(=C(C)C)C(=O)CC(C)=CCC1
REMARK SMILES IDX 12 1 14 2 13 3 15 4 16 5 2 6 1 7 3 8 11 10 9 11 10 12 5 13
REMARK SMILES IDX 6 14 7 15 8 16 4 17
REMARK H PARENT
REMARK Flexibility Score: 60.00
ROOT
ATOM      1  C   UNL     1      76.379   4.061  63.714  1.00  0.00    -0.070 C 
ATOM      2  C   UNL     1      77.321   4.693  62.978  1.00  0.00    -0.027 C 
ATOM      3  C   UNL     1      75.137   3.581  63.007  1.00  0.00     0.039 C 
ENDROOT
BRANCH   2   4
ATOM      4  C   UNL     1      78.583   5.330  63.519  1.00  0.00     0.032 C 
BRANCH   4   5
ATOM      5  C   UNL     1      79.892   4.627  63.104  1.00  0.00     0.034 C 
BRANCH   5   6
ATOM      6  C   UNL     1      79.778   3.114  63.085  1.00  0.00    -0.077 C 
ATOM      7  C   UNL     1      79.726   2.431  61.742  1.00  0.00     0.039 C 
ATOM      8  C   UNL     1      79.650   2.343  64.193  1.00  0.00    -0.023 CG0
ATOM      9  G   UNL     1      79.692   2.804  65.637  1.00  0.00     0.000 G0
ENDBRANCH   5   6
ENDBRANCH   4   5
ENDBRANCH   2   4
BRANCH   1  10
ATOM     10  C   UNL     1      76.470   3.897  65.217  1.00  0.00     0.111 C 
BRANCH  10  11
ATOM     11  C   UNL     1      77.138   2.602  65.595  1.00  0.00     0.163 C 
ATOM     12  O   UNL     1      76.571   1.524  65.269  1.00  0.00    -0.294 OA
BRANCH  11  13
ATOM     13  C   UNL     1      78.403   2.553  66.388  1.00  0.00    -0.002 C 
ATOM     14  C   UNL     1      78.371   2.372  67.743  1.00  0.00    -0.069 C 
ATOM     15  C   UNL     1      79.619   2.476  68.593  1.00  0.00     0.039 C 
ATOM     16  C   UNL     1      77.079   2.059  68.463  1.00  0.00     0.039 C 
BRANCH  13  17
ATOM     17  C   UNL     1      79.702   2.807  65.641  1.00  0.00     0.066 CG0
ATOM     18  G   UNL     1      79.634   2.355  64.196  1.00  0.00     0.000 G0
ENDBRANCH  13  17
ENDBRANCH  11  13
ENDBRANCH  10  11
ENDBRANCH   1  10
TORSDOF 0
ENDMDL
MODEL 4
REMARK VINA RESULT:    -2.188      2.990      5.106
REMARK INTER + INTRA:          -2.752
REMARK INTER:                  -2.897
REMARK INTRA:                   0.145
REMARK UNBOUND:                 0.332
REMARK SMILES CC1=CCC(=C(C)C)C(=O)CC(C)=CCC1
REMARK SMILES IDX 12 1 14 2 13 3 15 4 16 5 2 6 1 7 3 8 11 10 9 11 10 12 5 13
REMARK SMILES IDX 6 14 7 15 8 16 4 17
REMARK H PARENT
REMARK Flexibility Score: 60.00
ROOT
ATOM      1  C   UNL     1      82.075   4.879  59.680  1.00  0.00    -0.070 C 
ATOM      2  C   UNL     1      82.888   3.913  59.197  1.00  0.00    -0.027 C 
ATOM      3  C   UNL     1      82.704   6.181  60.107  1.00  0.00     0.039 C 
ENDROOT
BRANCH   2   4
ATOM      4  C   UNL     1      82.462   2.513  58.811  1.00  0.00     0.032 C 
BRANCH   4   5
ATOM      5  C   UNL     1      82.417   1.505  59.977  1.00  0.00     0.034 C 
BRANCH   5   6
ATOM      6  C   UNL     1      81.149   0.671  59.998  1.00  0.00    -0.077 C 
ATOM      7  C   UNL     1      80.994  -0.394  58.942  1.00  0.00     0.039 C 
ATOM      8  C   UNL     1      80.119   0.866  60.857  1.00  0.00    -0.023 CG0
ATOM      9  G   UNL     1      80.060   1.857  62.003  1.00  0.00     0.000 G0
ENDBRANCH   5   6
ENDBRANCH   4   5
ENDBRANCH   2   4
BRANCH   1  10
ATOM     10  C   UNL     1      80.588   4.683  59.897  1.00  0.00     0.111 C 
BRANCH  10  11
ATOM     11  C   UNL     1      80.281   4.307  61.323  1.00  0.00     0.163 C 
ATOM     12  O   UNL     1      80.836   4.966  62.243  1.00  0.00    -0.294 OA
BRANCH  11  13
ATOM     13  C   UNL     1      79.400   3.154  61.675  1.00  0.00    -0.002 C 
ATOM     14  C   UNL     1      78.044   3.309  61.755  1.00  0.00    -0.069 C 
ATOM     15  C   UNL     1      77.141   2.205  62.261  1.00  0.00     0.039 C 
ATOM     16  C   UNL     1      77.376   4.600  61.340  1.00  0.00     0.039 C 
BRANCH  13  17
ATOM     17  C   UNL     1      80.081   1.842  62.029  1.00  0.00     0.066 CG0
ATOM     18  G   UNL     1      80.114   0.875  60.861  1.00  0.00     0.000 G0
ENDBRANCH  13  17
ENDBRANCH  11  13
ENDBRANCH  10  11
ENDBRANCH   1  10
TORSDOF 0
ENDMDL
MODEL 5
REMARK VINA RESULT:    -2.186      7.988      9.496
REMARK INTER + INTRA:          -2.749
REMARK INTER:                  -2.931
REMARK INTRA:                   0.182
REMARK UNBOUND:                 0.332
REMARK SMILES CC1=CCC(=C(C)C)C(=O)CC(C)=CCC1
REMARK SMILES IDX 12 1 14 2 13 3 15 4 16 5 2 6 1 7 3 8 11 10 9 11 10 12 5 13
REMARK SMILES IDX 6 14 7 15 8 16 4 17
REMARK H PARENT
REMARK Flexibility Score: 60.00
ROOT
ATOM      1  C   UNL     1      80.640   1.941  68.554  1.00  0.00    -0.070 C 
ATOM      2  C   UNL     1      81.259   0.799  68.929  1.00  0.00    -0.027 C 
ATOM      3  C   UNL     1      81.207   3.246  69.053  1.00  0.00     0.039 C 
ENDROOT
BRANCH   2   4
ATOM      4  C   UNL     1      80.788  -0.604  68.614  1.00  0.00     0.032 C 
BRANCH   4   5
ATOM      5  C   UNL     1      81.163  -1.113  67.207  1.00  0.00     0.034 C 
BRANCH   5   6
ATOM      6  C   UNL     1      79.997  -1.747  66.470  1.00  0.00    -0.077 C 
ATOM      7  C   UNL     1      79.495  -3.079  66.967  1.00  0.00     0.039 C 
ATOM      8  C   UNL     1      79.424  -1.229  65.356  1.00  0.00    -0.023 CG0
ATOM      9  G   UNL     1      79.749   0.094  64.691  1.00  0.00     0.000 G0
ENDBRANCH   5   6
ENDBRANCH   4   5
ENDBRANCH   2   4
BRANCH   1  10
ATOM     10  C   UNL     1      79.362   1.966  67.741  1.00  0.00     0.111 C 
BRANCH  10  11
ATOM     11  C   UNL     1      79.642   2.111  66.269  1.00  0.00     0.163 C 
ATOM     12  O   UNL     1      80.442   3.016  65.904  1.00  0.00    -0.294 OA
BRANCH  11  13
ATOM     13  C   UNL     1      78.965   1.272  65.237  1.00  0.00    -0.002 C 
ATOM     14  C   UNL     1      77.666   1.511  64.884  1.00  0.00    -0.069 C 
ATOM     15  C   UNL     1      76.904   0.585  63.961  1.00  0.00     0.039 C 
ATOM     16  C   UNL     1      76.922   2.721  65.403  1.00  0.00     0.039 C 
BRANCH  13  17
ATOM     17  C   UNL     1      79.747   0.095  64.676  1.00  0.00     0.066 CG0
ATOM     18  G   UNL     1      79.409  -1.208  65.374  1.00  0.00     0.000 G0
ENDBRANCH  13  17
ENDBRANCH  11  13
ENDBRANCH  10  11
ENDBRANCH   1  10
TORSDOF 0
ENDMDL
MODEL 6
REMARK VINA RESULT:    -2.122     16.636     18.346
REMARK INTER + INTRA:          -2.658
REMARK INTER:                  -3.051
REMARK INTRA:                   0.394
REMARK UNBOUND:                 0.332
REMARK SMILES CC1=CCC(=C(C)C)C(=O)CC(C)=CCC1
REMARK SMILES IDX 12 1 14 2 13 3 15 4 16 5 2 6 1 7 3 8 11 10 9 11 10 12 5 13
REMARK SMILES IDX 6 14 7 15 8 16 4 17
REMARK H PARENT
REMARK Flexibility Score: 60.00
ROOT
ATOM      1  C   UNL     1      71.362  -9.789  54.479  1.00  0.00    -0.070 C 
ATOM      2  C   UNL     1      72.081  -9.633  53.345  1.00  0.00    -0.027 C 
ATOM      3  C   UNL     1      72.070  -9.588  55.796  1.00  0.00     0.039 C 
ENDROOT
BRANCH   2   4
ATOM      4  C   UNL     1      71.578  -9.885  51.940  1.00  0.00     0.032 C 
BRANCH   4   5
ATOM      5  C   UNL     1      71.292  -8.612  51.117  1.00  0.00     0.034 C 
BRANCH   5   6
ATOM      6  C   UNL     1      71.738  -7.338  51.811  1.00  0.00    -0.077 C 
ATOM      7  C   UNL     1      73.167  -6.898  51.617  1.00  0.00     0.039 C 
ATOM      8  C   UNL     1      70.959  -6.610  52.648  1.00  0.00    -0.023 CG0
ATOM      9  G   UNL     1      69.499  -6.850  52.977  1.00  0.00     0.000 G0
ENDBRANCH   5   6
ENDBRANCH   4   5
ENDBRANCH   2   4
BRANCH   1  10
ATOM     10  C   UNL     1      69.917 -10.243  54.492  1.00  0.00     0.111 C 
BRANCH  10  11
ATOM     11  C   UNL     1      68.990  -9.159  54.009  1.00  0.00     0.163 C 
ATOM     12  O   UNL     1      67.963  -9.502  53.362  1.00  0.00    -0.294 OA
BRANCH  11  13
ATOM     13  C   UNL     1      69.277  -7.708  54.213  1.00  0.00    -0.002 C 
ATOM     14  C   UNL     1      69.267  -7.164  55.468  1.00  0.00    -0.069 C 
ATOM     15  C   UNL     1      69.397  -5.674  55.695  1.00  0.00     0.039 C 
ATOM     16  C   UNL     1      69.122  -8.032  56.698  1.00  0.00     0.039 C 
BRANCH  13  17
ATOM     17  C   UNL     1      69.484  -6.858  52.971  1.00  0.00     0.066 CG0
ATOM     18  G   UNL     1      70.951  -6.617  52.674  1.00  0.00     0.000 G0
ENDBRANCH  13  17
ENDBRANCH  11  13
ENDBRANCH  10  11
ENDBRANCH   1  10
TORSDOF 0
ENDMDL
MODEL 7
REMARK VINA RESULT:    -2.099      3.335      4.772
REMARK INTER + INTRA:          -2.625
REMARK INTER:                  -2.801
REMARK INTRA:                   0.175
REMARK UNBOUND:                 0.332
REMARK SMILES CC1=CCC(=C(C)C)C(=O)CC(C)=CCC1
REMARK SMILES IDX 12 1 14 2 13 3 15 4 16 5 2 6 1 7 3 8 11 10 9 11 10 12 5 13
REMARK SMILES IDX 6 14 7 15 8 16 4 17
REMARK H PARENT
REMARK Flexibility Score: 60.00
ROOT
ATOM      1  C   UNL     1      82.168   6.778  57.061  1.00  0.00    -0.070 C 
ATOM      2  C   UNL     1      82.859   5.710  57.518  1.00  0.00    -0.027 C 
ATOM      3  C   UNL     1      81.919   7.918  58.016  1.00  0.00     0.039 C 
ENDROOT
BRANCH   2   4
ATOM      4  C   UNL     1      83.124   4.435  56.747  1.00  0.00     0.032 C 
BRANCH   4   5
ATOM      5  C   UNL     1      82.008   3.374  56.846  1.00  0.00     0.034 C 
BRANCH   5   6
ATOM      6  C   UNL     1      81.555   2.857  55.493  1.00  0.00    -0.077 C 
ATOM      7  C   UNL     1      82.475   1.915  54.759  1.00  0.00     0.039 C 
ATOM      8  C   UNL     1      80.412   3.239  54.872  1.00  0.00    -0.023 CG0
ATOM      9  G   UNL     1      79.335   4.154  55.421  1.00  0.00     0.000 G0
ENDBRANCH   5   6
ENDBRANCH   4   5
ENDBRANCH   2   4
BRANCH   1  10
ATOM     10  C   UNL     1      81.557   6.843  55.676  1.00  0.00     0.111 C 
BRANCH  10  11
ATOM     11  C   UNL     1      80.070   6.609  55.713  1.00  0.00     0.163 C 
ATOM     12  O   UNL     1      79.383   7.287  56.526  1.00  0.00    -0.294 OA
BRANCH  11  13
ATOM     13  C   UNL     1      79.400   5.571  54.875  1.00  0.00    -0.002 C 
ATOM     14  C   UNL     1      78.798   5.908  53.694  1.00  0.00    -0.069 C 
ATOM     15  C   UNL     1      77.978   4.914  52.902  1.00  0.00     0.039 C 
ATOM     16  C   UNL     1      78.923   7.301  53.120  1.00  0.00     0.039 C 
BRANCH  13  17
ATOM     17  C   UNL     1      79.337   4.160  55.435  1.00  0.00     0.066 CG0
ATOM     18  G   UNL     1      80.425   3.267  54.873  1.00  0.00     0.000 G0
ENDBRANCH  13  17
ENDBRANCH  11  13
ENDBRANCH  10  11
ENDBRANCH   1  10
TORSDOF 0
ENDMDL
MODEL 8
REMARK VINA RESULT:    -2.016     15.465     17.783
REMARK INTER + INTRA:          -2.509
REMARK INTER:                  -2.761
REMARK INTRA:                   0.252
REMARK UNBOUND:                 0.332
REMARK SMILES CC1=CCC(=C(C)C)C(=O)CC(C)=CCC1
REMARK SMILES IDX 12 1 14 2 13 3 15 4 16 5 2 6 1 7 3 8 11 10 9 11 10 12 5 13
REMARK SMILES IDX 6 14 7 15 8 16 4 17
REMARK H PARENT
REMARK Flexibility Score: 60.00
ROOT
ATOM      1  C   UNL     1      70.952  -9.685  53.356  1.00  0.00    -0.070 C 
ATOM      2  C   UNL     1      71.486 -10.373  52.323  1.00  0.00    -0.027 C 
ATOM      3  C   UNL     1      69.916 -10.378  54.204  1.00  0.00     0.039 C 
ENDROOT
BRANCH   2   4
ATOM      4  C   UNL     1      72.461  -9.822  51.305  1.00  0.00     0.032 C 
BRANCH   4   5
ATOM      5  C   UNL     1      71.844  -8.854  50.275  1.00  0.00     0.034 C 
BRANCH   5   6
ATOM      6  C   UNL     1      72.668  -7.596  50.068  1.00  0.00    -0.077 C 
ATOM      7  C   UNL     1      74.082  -7.758  49.572  1.00  0.00     0.039 C 
ATOM      8  C   UNL     1      72.241  -6.345  50.367  1.00  0.00    -0.023 CG0
ATOM      9  G   UNL     1      70.864  -5.942  50.857  1.00  0.00     0.000 G0
ENDBRANCH   5   6
ENDBRANCH   4   5
ENDBRANCH   2   4
BRANCH   1  10
ATOM     10  C   UNL     1      71.273  -8.231  53.642  1.00  0.00     0.111 C 
BRANCH  10  11
ATOM     11  C   UNL     1      70.299  -7.304  52.964  1.00  0.00     0.163 C 
ATOM     12  O   UNL     1      69.100  -7.680  52.855  1.00  0.00    -0.294 OA
BRANCH  11  13
ATOM     13  C   UNL     1      70.715  -6.000  52.369  1.00  0.00    -0.002 C 
ATOM     14  C   UNL     1      70.884  -4.895  53.157  1.00  0.00    -0.069 C 
ATOM     15  C   UNL     1      71.151  -3.526  52.569  1.00  0.00     0.039 C 
ATOM     16  C   UNL     1      70.811  -4.988  54.664  1.00  0.00     0.039 C 
BRANCH  13  17
ATOM     17  C   UNL     1      70.847  -5.935  50.856  1.00  0.00     0.066 CG0
ATOM     18  G   UNL     1      72.227  -6.347  50.380  1.00  0.00     0.000 G0
ENDBRANCH  13  17
ENDBRANCH  11  13
ENDBRANCH  10  11
ENDBRANCH   1  10
TORSDOF 0
ENDMDL
MODEL 9
REMARK VINA RESULT:    -1.950      8.402     10.112
REMARK INTER + INTRA:          -2.416
REMARK INTER:                  -2.817
REMARK INTRA:                   0.401
REMARK UNBOUND:                 0.332
REMARK SMILES CC1=CCC(=C(C)C)C(=O)CC(C)=CCC1
REMARK SMILES IDX 12 1 14 2 13 3 15 4 16 5 2 6 1 7 3 8 11 10 9 11 10 12 5 13
REMARK SMILES IDX 6 14 7 15 8 16 4 17
REMARK H PARENT
REMARK Flexibility Score: 60.00
ROOT
ATOM      1  C   UNL     1      80.105   2.395  52.456  1.00  0.00    -0.070 C 
ATOM      2  C   UNL     1      80.101   2.669  51.133  1.00  0.00    -0.027 C 
ATOM      3  C   UNL     1      79.462   3.395  53.385  1.00  0.00     0.039 C 
ENDROOT
BRANCH   2   4
ATOM      4  C   UNL     1      80.776   1.843  50.059  1.00  0.00     0.032 C 
BRANCH   4   5
ATOM      5  C   UNL     1      79.816   1.197  49.039  1.00  0.00     0.034 C 
BRANCH   5   6
ATOM      6  C   UNL     1      78.605   0.550  49.685  1.00  0.00    -0.077 C 
ATOM      7  C   UNL     1      77.258   1.183  49.440  1.00  0.00     0.039 C 
ATOM      8  C   UNL     1      78.662  -0.514  50.523  1.00  0.00    -0.023 CG0
ATOM      9  G   UNL     1      79.892  -1.316  50.899  1.00  0.00     0.000 G0
ENDBRANCH   5   6
ENDBRANCH   4   5
ENDBRANCH   2   4
BRANCH   1  10
ATOM     10  C   UNL     1      80.800   1.189  53.055  1.00  0.00     0.111 C 
BRANCH  10  11
ATOM     11  C   UNL     1      79.884  -0.004  53.120  1.00  0.00     0.163 C 
ATOM     12  O   UNL     1      78.860   0.073  53.853  1.00  0.00    -0.294 OA
BRANCH  11  13
ATOM     13  C   UNL     1      80.177  -1.281  52.404  1.00  0.00    -0.002 C 
ATOM     14  C   UNL     1      80.763  -2.329  53.057  1.00  0.00    -0.069 C 
ATOM     15  C   UNL     1      81.217  -3.575  52.326  1.00  0.00     0.039 C 
ATOM     16  C   UNL     1      80.989  -2.295  54.552  1.00  0.00     0.039 C 
BRANCH  13  17
ATOM     17  C   UNL     1      79.887  -1.324  50.913  1.00  0.00     0.066 CG0
ATOM     18  G   UNL     1      78.665  -0.507  50.539  1.00  0.00     0.000 G0
ENDBRANCH  13  17
ENDBRANCH  11  13
ENDBRANCH  10  11
ENDBRANCH   1  10
TORSDOF 0
ENDMDL
