MODEL 1
REMARK VINA RESULT:    -4.577      0.000      0.000
REMARK INTER + INTRA:          -6.888
REMARK INTER:                  -6.182
REMARK INTRA:                  -0.706
REMARK UNBOUND:                -0.706
REMARK SMILES CCCCCCC=CC(=O)[O-]
REMARK SMILES IDX 5 1 6 2 7 3 8 4 9 5 10 6 11 7 4 8 3 9 2 10 1 11
REMARK H PARENT
REMARK Flexibility Score: inf
ROOT
ATOM      1  C   UNL     1      10.256   3.413  54.694  1.00  0.00     0.004 C 
ENDROOT
BRANCH   1   2
ATOM      2  C   UNL     1       9.241   4.152  55.576  1.00  0.00     0.027 C 
BRANCH   2   3
ATOM      3  C   UNL     1       9.676   5.563  55.855  1.00  0.00    -0.025 C 
ATOM      4  C   UNL     1       9.455   6.553  54.984  1.00  0.00     0.020 C 
BRANCH   4   5
ATOM      5  C   UNL     1       9.903   7.930  55.237  1.00  0.00     0.064 C 
ATOM      6  O   UNL     1       9.049   8.845  55.370  1.00  0.00    -0.545 OA
ATOM      7  O   UNL     1      11.254   8.238  55.332  1.00  0.00    -0.545 OA
ENDBRANCH   4   5
ENDBRANCH   2   3
ENDBRANCH   1   2
BRANCH   1   8
ATOM      8  C   UNL     1      11.672   3.442  55.293  1.00  0.00     0.000 C 
BRANCH   8   9
ATOM      9  C   UNL     1      12.681   4.198  54.409  1.00  0.00    -0.000 C 
BRANCH   9  10
ATOM     10  C   UNL     1      12.195   4.495  52.979  1.00  0.00    -0.003 C 
ATOM     11  C   UNL     1      12.206   5.985  52.641  1.00  0.00     0.004 C 
ENDBRANCH   9  10
ENDBRANCH   8   9
ENDBRANCH   1   8
TORSDOF 6
ENDMDL
MODEL 2
REMARK VINA RESULT:    -4.552      2.615      4.437
REMARK INTER + INTRA:          -6.854
REMARK INTER:                  -6.099
REMARK INTRA:                  -0.755
REMARK UNBOUND:                -0.706
REMARK SMILES CCCCCCC=CC(=O)[O-]
REMARK SMILES IDX 5 1 6 2 7 3 8 4 9 5 10 6 11 7 4 8 3 9 2 10 1 11
REMARK H PARENT
REMARK Flexibility Score: inf
ROOT
ATOM      1  C   UNL     1      12.493   5.690  53.053  1.00  0.00     0.004 C 
ENDROOT
BRANCH   1   2
ATOM      2  C   UNL     1      11.981   4.245  53.001  1.00  0.00     0.027 C 
BRANCH   2   3
ATOM      3  C   UNL     1      11.641   3.729  54.372  1.00  0.00    -0.025 C 
ATOM      4  C   UNL     1      12.433   3.956  55.424  1.00  0.00     0.020 C 
BRANCH   4   5
ATOM      5  C   UNL     1      12.122   3.431  56.762  1.00  0.00     0.064 C 
ATOM      6  O   UNL     1      11.480   4.146  57.575  1.00  0.00    -0.545 OA
ATOM      7  O   UNL     1      12.527   2.157  57.144  1.00  0.00    -0.545 OA
ENDBRANCH   4   5
ENDBRANCH   2   3
ENDBRANCH   1   2
BRANCH   1   8
ATOM      8  C   UNL     1      11.386   6.708  52.733  1.00  0.00     0.000 C 
BRANCH   8   9
ATOM      9  C   UNL     1      11.273   7.823  53.789  1.00  0.00    -0.000 C 
BRANCH   9  10
ATOM     10  C   UNL     1      10.981   7.334  55.220  1.00  0.00    -0.003 C 
ATOM     11  C   UNL     1       9.602   6.692  55.362  1.00  0.00     0.004 C 
ENDBRANCH   9  10
ENDBRANCH   8   9
ENDBRANCH   1   8
TORSDOF 6
ENDMDL
MODEL 3
REMARK VINA RESULT:    -4.537      5.029      6.858
REMARK INTER + INTRA:          -6.834
REMARK INTER:                  -6.622
REMARK INTRA:                  -0.212
REMARK UNBOUND:                -0.706
REMARK SMILES CCCCCCC=CC(=O)[O-]
REMARK SMILES IDX 5 1 6 2 7 3 8 4 9 5 10 6 11 7 4 8 3 9 2 10 1 11
REMARK H PARENT
REMARK Flexibility Score: inf
ROOT
ATOM      1  C   UNL     1      13.038   3.851  55.849  1.00  0.00     0.004 C 
ENDROOT
BRANCH   1   2
ATOM      2  C   UNL     1      14.549   3.709  55.626  1.00  0.00     0.027 C 
BRANCH   2   3
ATOM      3  C   UNL     1      15.083   2.451  56.254  1.00  0.00    -0.025 C 
ATOM      4  C   UNL     1      16.084   1.760  55.699  1.00  0.00     0.020 C 
BRANCH   4   5
ATOM      5  C   UNL     1      16.592   0.513  56.292  1.00  0.00     0.064 C 
ATOM      6  O   UNL     1      16.543  -0.555  55.627  1.00  0.00    -0.545 OA
ATOM      7  O   UNL     1      17.127   0.496  57.574  1.00  0.00    -0.545 OA
ENDBRANCH   4   5
ENDBRANCH   2   3
ENDBRANCH   1   2
BRANCH   1   8
ATOM      8  C   UNL     1      12.303   4.284  54.569  1.00  0.00     0.000 C 
BRANCH   8   9
ATOM      9  C   UNL     1      11.093   3.390  54.242  1.00  0.00    -0.000 C 
BRANCH   9  10
ATOM     10  C   UNL     1       9.774   3.811  54.917  1.00  0.00    -0.003 C 
ATOM     11  C   UNL     1       9.709   5.307  55.222  1.00  0.00     0.004 C 
ENDBRANCH   9  10
ENDBRANCH   8   9
ENDBRANCH   1   8
TORSDOF 6
ENDMDL
MODEL 4
REMARK VINA RESULT:    -4.462      2.942      3.928
REMARK INTER + INTRA:          -6.732
REMARK INTER:                  -6.005
REMARK INTRA:                  -0.728
REMARK UNBOUND:                -0.706
REMARK SMILES CCCCCCC=CC(=O)[O-]
REMARK SMILES IDX 5 1 6 2 7 3 8 4 9 5 10 6 11 7 4 8 3 9 2 10 1 11
REMARK H PARENT
REMARK Flexibility Score: inf
ROOT
ATOM      1  C   UNL     1       9.500   6.395  54.831  1.00  0.00     0.004 C 
ENDROOT
BRANCH   1   2
ATOM      2  C   UNL     1       9.526   5.402  56.000  1.00  0.00     0.027 C 
BRANCH   2   3
ATOM      3  C   UNL     1      10.933   5.082  56.422  1.00  0.00    -0.025 C 
ATOM      4  C   UNL     1      11.359   3.822  56.550  1.00  0.00     0.020 C 
BRANCH   4   5
ATOM      5  C   UNL     1      12.725   3.501  56.990  1.00  0.00     0.064 C 
ATOM      6  O   UNL     1      12.941   3.237  58.201  1.00  0.00    -0.545 OA
ATOM      7  O   UNL     1      13.783   3.486  56.088  1.00  0.00    -0.545 OA
ENDBRANCH   4   5
ENDBRANCH   2   3
ENDBRANCH   1   2
BRANCH   1   8
ATOM      8  C   UNL     1      10.895   6.970  54.530  1.00  0.00     0.000 C 
BRANCH   8   9
ATOM      9  C   UNL     1      11.369   6.673  53.096  1.00  0.00    -0.000 C 
BRANCH   9  10
ATOM     10  C   UNL     1      12.499   5.632  52.990  1.00  0.00    -0.003 C 
ATOM     11  C   UNL     1      11.987   4.193  52.970  1.00  0.00     0.004 C 
ENDBRANCH   9  10
ENDBRANCH   8   9
ENDBRANCH   1   8
TORSDOF 6
ENDMDL
MODEL 5
REMARK VINA RESULT:    -4.461      2.194      2.877
REMARK INTER + INTRA:          -6.732
REMARK INTER:                  -6.164
REMARK INTRA:                  -0.568
REMARK UNBOUND:                -0.706
REMARK SMILES CCCCCCC=CC(=O)[O-]
REMARK SMILES IDX 5 1 6 2 7 3 8 4 9 5 10 6 11 7 4 8 3 9 2 10 1 11
REMARK H PARENT
REMARK Flexibility Score: inf
ROOT
ATOM      1  C   UNL     1      10.046   5.296  55.980  1.00  0.00     0.004 C 
ENDROOT
BRANCH   1   2
ATOM      2  C   UNL     1       9.341   6.600  55.584  1.00  0.00     0.027 C 
BRANCH   2   3
ATOM      3  C   UNL     1       9.339   6.795  54.093  1.00  0.00    -0.025 C 
ATOM      4  C   UNL     1       8.806   7.883  53.528  1.00  0.00     0.020 C 
BRANCH   4   5
ATOM      5  C   UNL     1       8.774   8.069  52.070  1.00  0.00     0.064 C 
ATOM      6  O   UNL     1       9.739   7.663  51.372  1.00  0.00    -0.545 OA
ATOM      7  O   UNL     1       7.695   8.687  51.450  1.00  0.00    -0.545 OA
ENDBRANCH   4   5
ENDBRANCH   2   3
ENDBRANCH   1   2
BRANCH   1   8
ATOM      8  C   UNL     1       9.534   4.093  55.169  1.00  0.00     0.000 C 
BRANCH   8   9
ATOM      9  C   UNL     1      10.664   3.322  54.463  1.00  0.00    -0.000 C 
BRANCH   9  10
ATOM     10  C   UNL     1      11.987   4.097  54.321  1.00  0.00    -0.003 C 
ATOM     11  C   UNL     1      12.184   4.694  52.928  1.00  0.00     0.004 C 
ENDBRANCH   9  10
ENDBRANCH   8   9
ENDBRANCH   1   8
TORSDOF 6
ENDMDL
MODEL 6
REMARK VINA RESULT:    -4.453      2.855      4.172
REMARK INTER + INTRA:          -6.721
REMARK INTER:                  -6.026
REMARK INTRA:                  -0.695
REMARK UNBOUND:                -0.706
REMARK SMILES CCCCCCC=CC(=O)[O-]
REMARK SMILES IDX 5 1 6 2 7 3 8 4 9 5 10 6 11 7 4 8 3 9 2 10 1 11
REMARK H PARENT
REMARK Flexibility Score: inf
ROOT
ATOM      1  C   UNL     1       9.617   5.296  55.794  1.00  0.00     0.004 C 
ENDROOT
BRANCH   1   2
ATOM      2  C   UNL     1       9.807   4.034  54.942  1.00  0.00     0.027 C 
BRANCH   2   3
ATOM      3  C   UNL     1      11.190   3.466  55.098  1.00  0.00    -0.025 C 
ATOM      4  C   UNL     1      12.046   3.939  56.009  1.00  0.00     0.020 C 
BRANCH   4   5
ATOM      5  C   UNL     1      13.410   3.408  56.148  1.00  0.00     0.064 C 
ATOM      6  O   UNL     1      14.345   3.914  55.474  1.00  0.00    -0.545 OA
ATOM      7  O   UNL     1      13.683   2.355  57.013  1.00  0.00    -0.545 OA
ENDBRANCH   4   5
ENDBRANCH   2   3
ENDBRANCH   1   2
BRANCH   1   8
ATOM      8  C   UNL     1       9.519   6.566  54.932  1.00  0.00     0.000 C 
BRANCH   8   9
ATOM      9  C   UNL     1      10.894   7.170  54.596  1.00  0.00    -0.000 C 
BRANCH   9  10
ATOM     10  C   UNL     1      11.275   7.125  53.105  1.00  0.00    -0.003 C 
ATOM     11  C   UNL     1      12.225   5.978  52.764  1.00  0.00     0.004 C 
ENDBRANCH   9  10
ENDBRANCH   8   9
ENDBRANCH   1   8
TORSDOF 6
ENDMDL
MODEL 7
REMARK VINA RESULT:    -4.431      4.068      5.396
REMARK INTER + INTRA:          -6.691
REMARK INTER:                  -6.387
REMARK INTRA:                  -0.304
REMARK UNBOUND:                -0.706
REMARK SMILES CCCCCCC=CC(=O)[O-]
REMARK SMILES IDX 5 1 6 2 7 3 8 4 9 5 10 6 11 7 4 8 3 9 2 10 1 11
REMARK H PARENT
REMARK Flexibility Score: inf
ROOT
ATOM      1  C   UNL     1      15.177   3.387  55.577  1.00  0.00     0.004 C 
ENDROOT
BRANCH   1   2
ATOM      2  C   UNL     1      13.991   3.031  56.481  1.00  0.00     0.027 C 
BRANCH   2   3
ATOM      3  C   UNL     1      12.683   3.450  55.867  1.00  0.00    -0.025 C 
ATOM      4  C   UNL     1      12.618   4.409  54.938  1.00  0.00     0.020 C 
BRANCH   4   5
ATOM      5  C   UNL     1      11.341   4.843  54.354  1.00  0.00     0.064 C 
ATOM      6  O   UNL     1      11.327   5.795  53.530  1.00  0.00    -0.545 OA
ATOM      7  O   UNL     1      10.147   4.220  54.697  1.00  0.00    -0.545 OA
ENDBRANCH   4   5
ENDBRANCH   2   3
ENDBRANCH   1   2
BRANCH   1   8
ATOM      8  C   UNL     1      16.243   2.278  55.558  1.00  0.00     0.000 C 
BRANCH   8   9
ATOM      9  C   UNL     1      15.842   1.047  56.391  1.00  0.00    -0.000 C 
BRANCH   9  10
ATOM     10  C   UNL     1      16.953  -0.003  56.573  1.00  0.00    -0.003 C 
ATOM     11  C   UNL     1      17.620   0.063  57.947  1.00  0.00     0.004 C 
ENDBRANCH   9  10
ENDBRANCH   8   9
ENDBRANCH   1   8
TORSDOF 6
ENDMDL
MODEL 8
REMARK VINA RESULT:    -4.402      3.387      4.516
REMARK INTER + INTRA:          -6.651
REMARK INTER:                  -6.370
REMARK INTRA:                  -0.282
REMARK UNBOUND:                -0.706
REMARK SMILES CCCCCCC=CC(=O)[O-]
REMARK SMILES IDX 5 1 6 2 7 3 8 4 9 5 10 6 11 7 4 8 3 9 2 10 1 11
REMARK H PARENT
REMARK Flexibility Score: inf
ROOT
ATOM      1  C   UNL     1      12.840   2.520  57.754  1.00  0.00     0.004 C 
ENDROOT
BRANCH   1   2
ATOM      2  C   UNL     1      11.841   3.547  57.206  1.00  0.00     0.027 C 
BRANCH   2   3
ATOM      3  C   UNL     1      11.939   3.669  55.711  1.00  0.00    -0.025 C 
ATOM      4  C   UNL     1      12.089   4.854  55.111  1.00  0.00     0.020 C 
BRANCH   4   5
ATOM      5  C   UNL     1      12.157   4.985  53.648  1.00  0.00     0.064 C 
ATOM      6  O   UNL     1      12.341   6.119  53.134  1.00  0.00    -0.545 OA
ATOM      7  O   UNL     1      12.022   3.875  52.823  1.00  0.00    -0.545 OA
ENDBRANCH   4   5
ENDBRANCH   2   3
ENDBRANCH   1   2
BRANCH   1   8
ATOM      8  C   UNL     1      13.972   2.225  56.756  1.00  0.00     0.000 C 
BRANCH   8   9
ATOM      9  C   UNL     1      14.810   0.994  57.148  1.00  0.00    -0.000 C 
BRANCH   9  10
ATOM     10  C   UNL     1      16.164   0.874  56.424  1.00  0.00    -0.003 C 
ATOM     11  C   UNL     1      16.462   2.063  55.512  1.00  0.00     0.004 C 
ENDBRANCH   9  10
ENDBRANCH   8   9
ENDBRANCH   1   8
TORSDOF 6
ENDMDL
MODEL 9
REMARK VINA RESULT:    -4.236      1.360      2.890
REMARK INTER + INTRA:          -6.428
REMARK INTER:                  -5.700
REMARK INTRA:                  -0.728
REMARK UNBOUND:                -0.706
REMARK SMILES CCCCCCC=CC(=O)[O-]
REMARK SMILES IDX 5 1 6 2 7 3 8 4 9 5 10 6 11 7 4 8 3 9 2 10 1 11
REMARK H PARENT
REMARK Flexibility Score: inf
ROOT
ATOM      1  C   UNL     1      12.434   5.246  53.456  1.00  0.00     0.004 C 
ENDROOT
BRANCH   1   2
ATOM      2  C   UNL     1      11.748   6.326  52.609  1.00  0.00     0.027 C 
BRANCH   2   3
ATOM      3  C   UNL     1      11.079   7.361  53.471  1.00  0.00    -0.025 C 
ATOM      4  C   UNL     1       9.760   7.571  53.419  1.00  0.00     0.020 C 
BRANCH   4   5
ATOM      5  C   UNL     1       9.102   8.601  54.238  1.00  0.00     0.064 C 
ATOM      6  O   UNL     1       8.399   8.254  55.223  1.00  0.00    -0.545 OA
ATOM      7  O   UNL     1       9.244   9.951  53.941  1.00  0.00    -0.545 OA
ENDBRANCH   4   5
ENDBRANCH   2   3
ENDBRANCH   1   2
BRANCH   1   8
ATOM      8  C   UNL     1      11.765   3.871  53.292  1.00  0.00     0.000 C 
BRANCH   8   9
ATOM      9  C   UNL     1      11.084   3.379  54.582  1.00  0.00    -0.000 C 
BRANCH   9  10
ATOM     10  C   UNL     1       9.717   4.022  54.881  1.00  0.00    -0.003 C 
ATOM     11  C   UNL     1       9.756   4.986  56.066  1.00  0.00     0.004 C 
ENDBRANCH   9  10
ENDBRANCH   8   9
ENDBRANCH   1   8
TORSDOF 6
ENDMDL
