MODEL 1
REMARK VINA RESULT:    -5.909      0.000      0.000
REMARK INTER + INTRA:          -6.824
REMARK INTER:                  -6.773
REMARK INTRA:                  -0.052
REMARK UNBOUND:                -0.052
REMARK SMILES O=C([O-])c1cc(O)c(O)c(O)c1
REMARK SMILES IDX 4 1 5 2 12 3 6 4 10 5 8 6 2 7 1 8 3 9 7 10 11 12 9 14
REMARK H PARENT 7 11 11 13 9 15
REMARK Flexibility Score: inf
ROOT
ATOM      1  C   UNL     1     -32.897  -3.461 -18.037  1.00  0.00     0.005 A 
ATOM      2  C   UNL     1     -31.511  -3.539 -17.830  1.00  0.00     0.060 A 
ATOM      3  C   UNL     1     -33.378  -2.819 -19.189  1.00  0.00     0.060 A 
ATOM      4  C   UNL     1     -30.612  -2.989 -18.752  1.00  0.00     0.162 A 
ATOM      5  C   UNL     1     -32.490  -2.265 -20.118  1.00  0.00     0.162 A 
ATOM      6  C   UNL     1     -31.106  -2.343 -19.910  1.00  0.00     0.200 A 
ENDROOT
BRANCH   1   7
ATOM      7  C   UNL     1     -33.833  -4.049 -17.052  1.00  0.00     0.072 C 
ATOM      8  O   UNL     1     -33.468  -4.253 -15.864  1.00  0.00    -0.545 OA
ATOM      9  O   UNL     1     -35.129  -4.385 -17.425  1.00  0.00    -0.545 OA
ENDBRANCH   1   7
BRANCH   4  10
ATOM     10  O   UNL     1     -29.248  -3.105 -18.476  1.00  0.00    -0.504 OA
ATOM     11  H   UNL     1     -28.690  -3.914 -18.711  1.00  0.00     0.293 HD
ENDBRANCH   4  10
BRANCH   5  12
ATOM     12  O   UNL     1     -32.978  -1.629 -21.260  1.00  0.00    -0.504 OA
ATOM     13  H   UNL     1     -32.362  -1.144 -21.901  1.00  0.00     0.293 HD
ENDBRANCH   5  12
BRANCH   6  14
ATOM     14  O   UNL     1     -30.265  -1.774 -20.868  1.00  0.00    -0.502 OA
ATOM     15  H   UNL     1     -29.261  -1.712 -20.776  1.00  0.00     0.293 HD
ENDBRANCH   6  14
TORSDOF 4
ENDMDL
MODEL 2
REMARK VINA RESULT:    -5.898      0.122      2.439
REMARK INTER + INTRA:          -6.812
REMARK INTER:                  -6.760
REMARK INTRA:                  -0.052
REMARK UNBOUND:                -0.052
REMARK SMILES O=C([O-])c1cc(O)c(O)c(O)c1
REMARK SMILES IDX 4 1 5 2 12 3 6 4 10 5 8 6 2 7 1 8 3 9 7 10 11 12 9 14
REMARK H PARENT 7 11 11 13 9 15
REMARK Flexibility Score: inf
ROOT
ATOM      1  C   UNL     1     -32.920  -3.416 -18.024  1.00  0.00     0.005 A 
ATOM      2  C   UNL     1     -33.389  -2.800 -19.195  1.00  0.00     0.060 A 
ATOM      3  C   UNL     1     -31.536  -3.527 -17.819  1.00  0.00     0.060 A 
ATOM      4  C   UNL     1     -32.498  -2.299 -20.152  1.00  0.00     0.162 A 
ATOM      5  C   UNL     1     -30.635  -3.030 -18.768  1.00  0.00     0.162 A 
ATOM      6  C   UNL     1     -31.104  -2.415 -19.937  1.00  0.00     0.200 A 
ENDROOT
BRANCH   1   7
ATOM      7  C   UNL     1     -33.876  -3.941 -17.022  1.00  0.00     0.072 C 
ATOM      8  O   UNL     1     -33.486  -4.249 -15.865  1.00  0.00    -0.545 OA
ATOM      9  O   UNL     1     -35.218  -4.101 -17.345  1.00  0.00    -0.545 OA
ENDBRANCH   1   7
BRANCH   4  10
ATOM     10  O   UNL     1     -33.039  -1.700 -21.292  1.00  0.00    -0.504 OA
ATOM     11  H   UNL     1     -32.527  -1.551 -22.149  1.00  0.00     0.293 HD
ENDBRANCH   4  10
BRANCH   5  12
ATOM     12  O   UNL     1     -29.261  -3.144 -18.556  1.00  0.00    -0.504 OA
ATOM     13  H   UNL     1     -28.859  -3.068 -17.630  1.00  0.00     0.293 HD
ENDBRANCH   5  12
BRANCH   6  14
ATOM     14  O   UNL     1     -30.162  -1.936 -20.851  1.00  0.00    -0.502 OA
ATOM     15  H   UNL     1     -29.502  -1.198 -20.650  1.00  0.00     0.293 HD
ENDBRANCH   6  14
TORSDOF 4
ENDMDL
MODEL 3
REMARK VINA RESULT:    -5.727      1.386      4.911
REMARK INTER + INTRA:          -6.616
REMARK INTER:                  -6.563
REMARK INTRA:                  -0.053
REMARK UNBOUND:                -0.052
REMARK SMILES O=C([O-])c1cc(O)c(O)c(O)c1
REMARK SMILES IDX 4 1 5 2 12 3 6 4 10 5 8 6 2 7 1 8 3 9 7 10 11 12 9 14
REMARK H PARENT 7 11 11 13 9 15
REMARK Flexibility Score: inf
ROOT
ATOM      1  C   UNL     1     -31.026  -2.338 -20.066  1.00  0.00     0.005 A 
ATOM      2  C   UNL     1     -32.412  -2.276 -20.279  1.00  0.00     0.060 A 
ATOM      3  C   UNL     1     -30.546  -2.836 -18.845  1.00  0.00     0.060 A 
ATOM      4  C   UNL     1     -33.313  -2.702 -19.295  1.00  0.00     0.162 A 
ATOM      5  C   UNL     1     -31.436  -3.265 -17.853  1.00  0.00     0.162 A 
ATOM      6  C   UNL     1     -32.819  -3.203 -18.066  1.00  0.00     0.200 A 
ENDROOT
BRANCH   1   7
ATOM      7  C   UNL     1     -30.089  -1.883 -21.118  1.00  0.00     0.072 C 
ATOM      8  O   UNL     1     -30.523  -1.405 -22.200  1.00  0.00    -0.545 OA
ATOM      9  O   UNL     1     -28.715  -1.976 -20.927  1.00  0.00    -0.545 OA
ENDBRANCH   1   7
BRANCH   4  10
ATOM     10  O   UNL     1     -34.677  -2.609 -19.579  1.00  0.00    -0.504 OA
ATOM     11  H   UNL     1     -35.114  -1.800 -19.996  1.00  0.00     0.293 HD
ENDBRANCH   4  10
BRANCH   5  12
ATOM     12  O   UNL     1     -30.949  -3.758 -16.642  1.00  0.00    -0.504 OA
ATOM     13  H   UNL     1     -30.532  -3.148 -15.949  1.00  0.00     0.293 HD
ENDBRANCH   5  12
BRANCH   6  14
ATOM     14  O   UNL     1     -33.662  -3.644 -17.043  1.00  0.00    -0.502 OA
ATOM     15  H   UNL     1     -34.014  -3.053 -16.304  1.00  0.00     0.293 HD
ENDBRANCH   6  14
TORSDOF 4
ENDMDL
MODEL 4
REMARK VINA RESULT:    -5.626      1.356      4.228
REMARK INTER + INTRA:          -6.499
REMARK INTER:                  -6.447
REMARK INTRA:                  -0.053
REMARK UNBOUND:                -0.052
REMARK SMILES O=C([O-])c1cc(O)c(O)c(O)c1
REMARK SMILES IDX 4 1 5 2 12 3 6 4 10 5 8 6 2 7 1 8 3 9 7 10 11 12 9 14
REMARK H PARENT 7 11 11 13 9 15
REMARK Flexibility Score: inf
ROOT
ATOM      1  C   UNL     1     -31.197  -2.347 -19.918  1.00  0.00     0.005 A 
ATOM      2  C   UNL     1     -30.777  -2.735 -18.636  1.00  0.00     0.060 A 
ATOM      3  C   UNL     1     -32.570  -2.327 -20.208  1.00  0.00     0.060 A 
ATOM      4  C   UNL     1     -31.705  -3.098 -17.653  1.00  0.00     0.162 A 
ATOM      5  C   UNL     1     -33.508  -2.688 -19.234  1.00  0.00     0.162 A 
ATOM      6  C   UNL     1     -33.088  -3.075 -17.954  1.00  0.00     0.200 A 
ENDROOT
BRANCH   1   7
ATOM      7  C   UNL     1     -30.202  -1.965 -20.946  1.00  0.00     0.072 C 
ATOM      8  O   UNL     1     -30.575  -1.532 -22.069  1.00  0.00    -0.545 OA
ATOM      9  O   UNL     1     -28.841  -2.079 -20.687  1.00  0.00    -0.545 OA
ENDBRANCH   1   7
BRANCH   4  10
ATOM     10  O   UNL     1     -31.212  -3.473 -16.401  1.00  0.00    -0.504 OA
ATOM     11  H   UNL     1     -31.596  -3.155 -15.523  1.00  0.00     0.293 HD
ENDBRANCH   4  10
BRANCH   5  12
ATOM     12  O   UNL     1     -34.871  -2.666 -19.532  1.00  0.00    -0.504 OA
ATOM     13  H   UNL     1     -35.570  -2.544 -18.809  1.00  0.00     0.293 HD
ENDBRANCH   5  12
BRANCH   6  14
ATOM     14  O   UNL     1     -34.065  -3.426 -17.020  1.00  0.00    -0.502 OA
ATOM     15  H   UNL     1     -34.872  -2.858 -16.803  1.00  0.00     0.293 HD
ENDBRANCH   6  14
TORSDOF 4
ENDMDL
MODEL 5
REMARK VINA RESULT:    -5.038      6.762      8.697
REMARK INTER + INTRA:          -5.826
REMARK INTER:                  -5.778
REMARK INTRA:                  -0.048
REMARK UNBOUND:                -0.052
REMARK SMILES O=C([O-])c1cc(O)c(O)c(O)c1
REMARK SMILES IDX 4 1 5 2 12 3 6 4 10 5 8 6 2 7 1 8 3 9 7 10 11 12 9 14
REMARK H PARENT 7 11 11 13 9 15
REMARK Flexibility Score: inf
ROOT
ATOM      1  C   UNL     1     -37.019  -5.715 -13.800  1.00  0.00     0.005 A 
ATOM      2  C   UNL     1     -36.501  -6.911 -14.322  1.00  0.00     0.060 A 
ATOM      3  C   UNL     1     -38.411  -5.547 -13.733  1.00  0.00     0.060 A 
ATOM      4  C   UNL     1     -37.352  -7.929 -14.771  1.00  0.00     0.162 A 
ATOM      5  C   UNL     1     -39.271  -6.556 -14.179  1.00  0.00     0.162 A 
ATOM      6  C   UNL     1     -38.754  -7.750 -14.700  1.00  0.00     0.200 A 
ENDROOT
BRANCH   1   7
ATOM      7  C   UNL     1     -36.105  -4.650 -13.329  1.00  0.00     0.072 C 
ATOM      8  O   UNL     1     -36.289  -4.096 -12.212  1.00  0.00    -0.545 OA
ATOM      9  O   UNL     1     -35.031  -4.244 -14.112  1.00  0.00    -0.545 OA
ENDBRANCH   1   7
BRANCH   4  10
ATOM     10  O   UNL     1     -36.764  -9.090 -15.278  1.00  0.00    -0.504 OA
ATOM     11  H   UNL     1     -36.174  -9.708 -14.738  1.00  0.00     0.293 HD
ENDBRANCH   4  10
BRANCH   5  12
ATOM     12  O   UNL     1     -40.654  -6.380 -14.109  1.00  0.00    -0.504 OA
ATOM     13  H   UNL     1     -41.099  -6.011 -13.277  1.00  0.00     0.293 HD
ENDBRANCH   5  12
BRANCH   6  14
ATOM     14  O   UNL     1     -39.657  -8.725 -15.131  1.00  0.00    -0.502 OA
ATOM     15  H   UNL     1     -39.997  -8.804 -16.078  1.00  0.00     0.293 HD
ENDBRANCH   6  14
TORSDOF 4
ENDMDL
MODEL 6
REMARK VINA RESULT:    -4.981      1.673      2.292
REMARK INTER + INTRA:          -5.761
REMARK INTER:                  -5.709
REMARK INTRA:                  -0.052
REMARK UNBOUND:                -0.052
REMARK SMILES O=C([O-])c1cc(O)c(O)c(O)c1
REMARK SMILES IDX 4 1 5 2 12 3 6 4 10 5 8 6 2 7 1 8 3 9 7 10 11 12 9 14
REMARK H PARENT 7 11 11 13 9 15
REMARK Flexibility Score: inf
ROOT
ATOM      1  C   UNL     1     -34.602  -4.632 -17.814  1.00  0.00     0.005 A 
ATOM      2  C   UNL     1     -33.459  -4.740 -17.005  1.00  0.00     0.060 A 
ATOM      3  C   UNL     1     -34.580  -3.754 -18.909  1.00  0.00     0.060 A 
ATOM      4  C   UNL     1     -32.310  -3.988 -17.277  1.00  0.00     0.162 A 
ATOM      5  C   UNL     1     -33.437  -2.997 -19.191  1.00  0.00     0.162 A 
ATOM      6  C   UNL     1     -32.298  -3.105 -18.382  1.00  0.00     0.200 A 
ENDROOT
BRANCH   1   7
ATOM      7  C   UNL     1     -35.808  -5.435 -17.513  1.00  0.00     0.072 C 
ATOM      8  O   UNL     1     -35.735  -6.444 -16.762  1.00  0.00    -0.545 OA
ATOM      9  O   UNL     1     -37.040  -5.086 -18.053  1.00  0.00    -0.545 OA
ENDBRANCH   1   7
BRANCH   4  10
ATOM     10  O   UNL     1     -31.213  -4.149 -16.427  1.00  0.00    -0.504 OA
ATOM     11  H   UNL     1     -31.288  -4.341 -15.438  1.00  0.00     0.293 HD
ENDBRANCH   4  10
BRANCH   5  12
ATOM     12  O   UNL     1     -33.425  -2.126 -20.281  1.00  0.00    -0.504 OA
ATOM     13  H   UNL     1     -33.766  -1.176 -20.205  1.00  0.00     0.293 HD
ENDBRANCH   5  12
BRANCH   6  14
ATOM     14  O   UNL     1     -31.184  -2.327 -18.709  1.00  0.00    -0.502 OA
ATOM     15  H   UNL     1     -31.094  -1.346 -18.488  1.00  0.00     0.293 HD
ENDBRANCH   6  14
TORSDOF 4
ENDMDL
MODEL 7
REMARK VINA RESULT:    -4.951      2.422      4.037
REMARK INTER + INTRA:          -5.726
REMARK INTER:                  -5.681
REMARK INTRA:                  -0.045
REMARK UNBOUND:                -0.052
REMARK SMILES O=C([O-])c1cc(O)c(O)c(O)c1
REMARK SMILES IDX 4 1 5 2 12 3 6 4 10 5 8 6 2 7 1 8 3 9 7 10 11 12 9 14
REMARK H PARENT 7 11 11 13 9 15
REMARK Flexibility Score: inf
ROOT
ATOM      1  C   UNL     1     -35.122  -5.097 -17.066  1.00  0.00     0.005 A 
ATOM      2  C   UNL     1     -36.030  -4.311 -17.794  1.00  0.00     0.060 A 
ATOM      3  C   UNL     1     -33.747  -4.946 -17.303  1.00  0.00     0.060 A 
ATOM      4  C   UNL     1     -35.581  -3.386 -18.745  1.00  0.00     0.162 A 
ATOM      5  C   UNL     1     -33.286  -4.025 -18.251  1.00  0.00     0.162 A 
ATOM      6  C   UNL     1     -34.192  -3.241 -18.977  1.00  0.00     0.200 A 
ENDROOT
BRANCH   1   7
ATOM      7  C   UNL     1     -35.614  -6.070 -16.065  1.00  0.00     0.072 C 
ATOM      8  O   UNL     1     -36.057  -7.193 -16.426  1.00  0.00    -0.545 OA
ATOM      9  O   UNL     1     -35.595  -5.759 -14.710  1.00  0.00    -0.545 OA
ENDBRANCH   1   7
BRANCH   4  10
ATOM     10  O   UNL     1     -36.543  -2.640 -19.430  1.00  0.00    -0.504 OA
ATOM     11  H   UNL     1     -36.584  -1.631 -19.426  1.00  0.00     0.293 HD
ENDBRANCH   4  10
BRANCH   5  12
ATOM     12  O   UNL     1     -31.917  -3.882 -18.480  1.00  0.00    -0.504 OA
ATOM     13  H   UNL     1     -31.406  -4.531 -19.066  1.00  0.00     0.293 HD
ENDBRANCH   5  12
BRANCH   6  14
ATOM     14  O   UNL     1     -33.678  -2.337 -19.911  1.00  0.00    -0.502 OA
ATOM     15  H   UNL     1     -33.383  -1.397 -19.687  1.00  0.00     0.293 HD
ENDBRANCH   6  14
TORSDOF 4
ENDMDL
MODEL 8
REMARK VINA RESULT:    -4.944      6.708      8.785
REMARK INTER + INTRA:          -5.719
REMARK INTER:                  -5.671
REMARK INTRA:                  -0.048
REMARK UNBOUND:                -0.052
REMARK SMILES O=C([O-])c1cc(O)c(O)c(O)c1
REMARK SMILES IDX 4 1 5 2 12 3 6 4 10 5 8 6 2 7 1 8 3 9 7 10 11 12 9 14
REMARK H PARENT 7 11 11 13 9 15
REMARK Flexibility Score: inf
ROOT
ATOM      1  C   UNL     1     -36.922  -5.630 -13.828  1.00  0.00     0.005 A 
ATOM      2  C   UNL     1     -38.316  -5.464 -13.779  1.00  0.00     0.060 A 
ATOM      3  C   UNL     1     -36.396  -6.819 -14.357  1.00  0.00     0.060 A 
ATOM      4  C   UNL     1     -39.178  -6.464 -14.248  1.00  0.00     0.162 A 
ATOM      5  C   UNL     1     -37.247  -7.826 -14.828  1.00  0.00     0.162 A 
ATOM      6  C   UNL     1     -38.638  -7.659 -14.779  1.00  0.00     0.200 A 
ENDROOT
BRANCH   1   7
ATOM      7  C   UNL     1     -36.026  -4.563 -13.329  1.00  0.00     0.072 C 
ATOM      8  O   UNL     1     -36.231  -4.028 -12.206  1.00  0.00    -0.545 OA
ATOM      9  O   UNL     1     -34.945  -4.136 -14.090  1.00  0.00    -0.545 OA
ENDBRANCH   1   7
BRANCH   4  10
ATOM     10  O   UNL     1     -40.551  -6.227 -14.165  1.00  0.00    -0.504 OA
ATOM     11  H   UNL     1     -40.958  -5.345 -13.888  1.00  0.00     0.293 HD
ENDBRANCH   4  10
BRANCH   5  12
ATOM     12  O   UNL     1     -36.715  -9.004 -15.351  1.00  0.00    -0.504 OA
ATOM     13  H   UNL     1     -37.310  -9.754 -15.683  1.00  0.00     0.293 HD
ENDBRANCH   5  12
BRANCH   6  14
ATOM     14  O   UNL     1     -39.441  -8.695 -15.263  1.00  0.00    -0.502 OA
ATOM     15  H   UNL     1     -40.041  -8.616 -16.071  1.00  0.00     0.293 HD
ENDBRANCH   6  14
TORSDOF 4
ENDMDL
