MODEL 1
REMARK VINA RESULT:    -5.642      0.000      0.000
REMARK INTER + INTRA:          -5.642
REMARK INTER:                  -5.642
REMARK INTRA:                   0.000
REMARK UNBOUND:                 0.000
REMARK SMILES CC1=CC(=O)[C@H]2C[C@@H]1C2(C)C
REMARK SMILES IDX 1 1 2 2 3 3 4 4 5 5 6 6 7 7 8 8 9 9 10 10 11 11
REMARK H PARENT
REMARK Flexibility Score: inf
ROOT
ATOM      1  C   UNL     1     -13.997 -19.905  28.812  1.00  0.00     0.040 C 
ATOM      2  C   UNL     1     -12.948 -18.847  28.943  1.00  0.00    -0.066 C 
ATOM      3  C   UNL     1     -11.861 -19.021  29.744  1.00  0.00     0.047 C 
ATOM      4  C   UNL     1     -10.897 -17.876  29.813  1.00  0.00     0.159 C 
ATOM      5  O   UNL     1      -9.876 -17.900  30.548  1.00  0.00    -0.295 OA
ATOM      6  C   UNL     1     -11.242 -16.677  28.930  1.00  0.00     0.067 C 
ATOM      7  C   UNL     1     -11.622 -17.305  27.570  1.00  0.00     0.021 C 
ATOM      8  C   UNL     1     -13.034 -17.518  28.162  1.00  0.00     0.022 C 
ATOM      9  C   UNL     1     -12.746 -16.332  29.128  1.00  0.00    -0.019 C 
ATOM     10  C   UNL     1     -13.122 -14.961  28.509  1.00  0.00     0.012 C 
ATOM     11  C   UNL     1     -13.334 -16.395  30.567  1.00  0.00     0.012 C 
ENDROOT
TORSDOF 0
ENDMDL
MODEL 2
REMARK VINA RESULT:    -5.548      1.772      3.122
REMARK INTER + INTRA:          -5.548
REMARK INTER:                  -5.548
REMARK INTRA:                   0.000
REMARK UNBOUND:                 0.000
REMARK SMILES CC1=CC(=O)[C@H]2C[C@@H]1C2(C)C
REMARK SMILES IDX 1 1 2 2 3 3 4 4 5 5 6 6 7 7 8 8 9 9 10 10 11 11
REMARK H PARENT
REMARK Flexibility Score: inf
ROOT
ATOM      1  C   UNL     1     -14.383 -15.033  31.838  1.00  0.00     0.040 C 
ATOM      2  C   UNL     1     -13.466 -16.113  31.357  1.00  0.00    -0.066 C 
ATOM      3  C   UNL     1     -13.294 -17.265  32.063  1.00  0.00     0.047 C 
ATOM      4  C   UNL     1     -12.326 -18.255  31.490  1.00  0.00     0.159 C 
ATOM      5  O   UNL     1     -12.051 -19.338  32.068  1.00  0.00    -0.295 OA
ATOM      6  C   UNL     1     -11.694 -17.856  30.156  1.00  0.00     0.067 C 
ATOM      7  C   UNL     1     -12.882 -17.340  29.314  1.00  0.00     0.021 C 
ATOM      8  C   UNL     1     -12.687 -15.984  30.030  1.00  0.00     0.022 C 
ATOM      9  C   UNL     1     -11.201 -16.384  30.262  1.00  0.00    -0.019 C 
ATOM     10  C   UNL     1     -10.289 -15.982  29.075  1.00  0.00     0.012 C 
ATOM     11  C   UNL     1     -10.514 -15.928  31.580  1.00  0.00     0.012 C 
ENDROOT
TORSDOF 0
ENDMDL
MODEL 3
REMARK VINA RESULT:    -5.484      1.475      1.673
REMARK INTER + INTRA:          -5.484
REMARK INTER:                  -5.484
REMARK INTRA:                   0.000
REMARK UNBOUND:                 0.000
REMARK SMILES CC1=CC(=O)[C@H]2C[C@@H]1C2(C)C
REMARK SMILES IDX 1 1 2 2 3 3 4 4 5 5 6 6 7 7 8 8 9 9 10 10 11 11
REMARK H PARENT
REMARK Flexibility Score: inf
ROOT
ATOM      1  C   UNL     1     -13.222 -19.640  30.965  1.00  0.00     0.040 C 
ATOM      2  C   UNL     1     -12.432 -18.390  30.741  1.00  0.00    -0.066 C 
ATOM      3  C   UNL     1     -11.561 -17.922  31.677  1.00  0.00     0.047 C 
ATOM      4  C   UNL     1     -10.852 -16.645  31.346  1.00  0.00     0.159 C 
ATOM      5  O   UNL     1     -10.053 -16.092  32.145  1.00  0.00    -0.295 OA
ATOM      6  C   UNL     1     -11.170 -16.059  29.970  1.00  0.00     0.067 C 
ATOM      7  C   UNL     1     -11.094 -17.271  29.015  1.00  0.00     0.021 C 
ATOM      8  C   UNL     1     -12.550 -17.579  29.432  1.00  0.00     0.022 C 
ATOM      9  C   UNL     1     -12.713 -16.069  29.771  1.00  0.00    -0.019 C 
ATOM     10  C   UNL     1     -13.154 -15.232  28.543  1.00  0.00     0.012 C 
ATOM     11  C   UNL     1     -13.615 -15.679  30.976  1.00  0.00     0.012 C 
ENDROOT
TORSDOF 0
ENDMDL
MODEL 4
REMARK VINA RESULT:    -5.470      1.445      3.556
REMARK INTER + INTRA:          -5.470
REMARK INTER:                  -5.470
REMARK INTRA:                   0.000
REMARK UNBOUND:                 0.000
REMARK SMILES CC1=CC(=O)[C@H]2C[C@@H]1C2(C)C
REMARK SMILES IDX 1 1 2 2 3 3 4 4 5 5 6 6 7 7 8 8 9 9 10 10 11 11
REMARK H PARENT
REMARK Flexibility Score: inf
ROOT
ATOM      1  C   UNL     1     -13.942 -15.452  31.273  1.00  0.00     0.040 C 
ATOM      2  C   UNL     1     -12.868 -16.422  30.898  1.00  0.00    -0.066 C 
ATOM      3  C   UNL     1     -11.993 -16.157  29.888  1.00  0.00     0.047 C 
ATOM      4  C   UNL     1     -10.983 -17.222  29.590  1.00  0.00     0.159 C 
ATOM      5  O   UNL     1     -10.146 -17.112  28.656  1.00  0.00    -0.295 OA
ATOM      6  C   UNL     1     -11.040 -18.451  30.496  1.00  0.00     0.067 C 
ATOM      7  C   UNL     1     -11.168 -17.866  31.920  1.00  0.00     0.021 C 
ATOM      8  C   UNL     1     -12.686 -17.760  31.646  1.00  0.00     0.022 C 
ATOM      9  C   UNL     1     -12.521 -18.912  30.613  1.00  0.00    -0.019 C 
ATOM     10  C   UNL     1     -12.653 -20.313  31.264  1.00  0.00     0.012 C 
ATOM     11  C   UNL     1     -13.406 -18.885  29.333  1.00  0.00     0.012 C 
ENDROOT
TORSDOF 0
ENDMDL
MODEL 5
REMARK VINA RESULT:    -5.450      2.116      3.349
REMARK INTER + INTRA:          -5.450
REMARK INTER:                  -5.450
REMARK INTRA:                   0.000
REMARK UNBOUND:                 0.000
REMARK SMILES CC1=CC(=O)[C@H]2C[C@@H]1C2(C)C
REMARK SMILES IDX 1 1 2 2 3 3 4 4 5 5 6 6 7 7 8 8 9 9 10 10 11 11
REMARK H PARENT
REMARK Flexibility Score: inf
ROOT
ATOM      1  C   UNL     1     -12.746 -15.691  28.453  1.00  0.00     0.040 C 
ATOM      2  C   UNL     1     -12.519 -16.576  29.636  1.00  0.00    -0.066 C 
ATOM      3  C   UNL     1     -13.090 -17.810  29.720  1.00  0.00     0.047 C 
ATOM      4  C   UNL     1     -12.809 -18.587  30.969  1.00  0.00     0.159 C 
ATOM      5  O   UNL     1     -13.310 -19.722  31.182  1.00  0.00    -0.295 OA
ATOM      6  C   UNL     1     -11.873 -17.906  31.968  1.00  0.00     0.067 C 
ATOM      7  C   UNL     1     -10.715 -17.371  31.097  1.00  0.00     0.021 C 
ATOM      8  C   UNL     1     -11.612 -16.146  30.809  1.00  0.00     0.022 C 
ATOM      9  C   UNL     1     -12.338 -16.433  32.156  1.00  0.00    -0.019 C 
ATOM     10  C   UNL     1     -11.643 -15.745  33.359  1.00  0.00     0.012 C 
ATOM     11  C   UNL     1     -13.864 -16.146  32.245  1.00  0.00     0.012 C 
ENDROOT
TORSDOF 0
ENDMDL
MODEL 6
REMARK VINA RESULT:    -5.407      1.805      3.368
REMARK INTER + INTRA:          -5.407
REMARK INTER:                  -5.407
REMARK INTRA:                   0.000
REMARK UNBOUND:                 0.000
REMARK SMILES CC1=CC(=O)[C@H]2C[C@@H]1C2(C)C
REMARK SMILES IDX 1 1 2 2 3 3 4 4 5 5 6 6 7 7 8 8 9 9 10 10 11 11
REMARK H PARENT
REMARK Flexibility Score: inf
ROOT
ATOM      1  C   UNL     1     -14.085 -14.517  28.407  1.00  0.00     0.040 C 
ATOM      2  C   UNL     1     -12.949 -15.481  28.284  1.00  0.00    -0.066 C 
ATOM      3  C   UNL     1     -12.599 -16.016  27.081  1.00  0.00     0.047 C 
ATOM      4  C   UNL     1     -11.462 -16.991  27.094  1.00  0.00     0.159 C 
ATOM      5  O   UNL     1     -11.072 -17.583  26.054  1.00  0.00    -0.295 OA
ATOM      6  C   UNL     1     -10.813 -17.221  28.459  1.00  0.00     0.067 C 
ATOM      7  C   UNL     1     -10.635 -15.799  29.037  1.00  0.00     0.021 C 
ATOM      8  C   UNL     1     -12.105 -15.902  29.506  1.00  0.00     0.022 C 
ATOM      9  C   UNL     1     -11.936 -17.449  29.510  1.00  0.00    -0.019 C 
ATOM     10  C   UNL     1     -11.383 -17.979  30.858  1.00  0.00     0.012 C 
ATOM     11  C   UNL     1     -13.158 -18.323  29.108  1.00  0.00     0.012 C 
ENDROOT
TORSDOF 0
ENDMDL
MODEL 7
REMARK VINA RESULT:    -5.278      1.848      3.040
REMARK INTER + INTRA:          -5.278
REMARK INTER:                  -5.278
REMARK INTRA:                   0.000
REMARK UNBOUND:                 0.000
REMARK SMILES CC1=CC(=O)[C@H]2C[C@@H]1C2(C)C
REMARK SMILES IDX 1 1 2 2 3 3 4 4 5 5 6 6 7 7 8 8 9 9 10 10 11 11
REMARK H PARENT
REMARK Flexibility Score: inf
ROOT
ATOM      1  C   UNL     1     -10.475 -18.447  31.284  1.00  0.00     0.040 C 
ATOM      2  C   UNL     1     -11.247 -17.430  30.504  1.00  0.00    -0.066 C 
ATOM      3  C   UNL     1     -12.312 -16.778  31.047  1.00  0.00     0.047 C 
ATOM      4  C   UNL     1     -13.019 -15.805  30.154  1.00  0.00     0.159 C 
ATOM      5  O   UNL     1     -14.040 -15.170  30.526  1.00  0.00    -0.295 OA
ATOM      6  C   UNL     1     -12.417 -15.640  28.759  1.00  0.00     0.067 C 
ATOM      7  C   UNL     1     -10.899 -15.512  29.015  1.00  0.00     0.021 C 
ATOM      8  C   UNL     1     -10.864 -17.056  29.056  1.00  0.00     0.022 C 
ATOM      9  C   UNL     1     -12.141 -17.052  28.168  1.00  0.00    -0.019 C 
ATOM     10  C   UNL     1     -11.809 -17.003  26.654  1.00  0.00     0.012 C 
ATOM     11  C   UNL     1     -13.201 -18.168  28.397  1.00  0.00     0.012 C 
ENDROOT
TORSDOF 0
ENDMDL
MODEL 8
REMARK VINA RESULT:    -5.255      2.087      3.268
REMARK INTER + INTRA:          -5.255
REMARK INTER:                  -5.255
REMARK INTRA:                   0.000
REMARK UNBOUND:                 0.000
REMARK SMILES CC1=CC(=O)[C@H]2C[C@@H]1C2(C)C
REMARK SMILES IDX 1 1 2 2 3 3 4 4 5 5 6 6 7 7 8 8 9 9 10 10 11 11
REMARK H PARENT
REMARK Flexibility Score: inf
ROOT
ATOM      1  C   UNL     1     -12.559 -20.454  31.611  1.00  0.00     0.040 C 
ATOM      2  C   UNL     1     -12.527 -19.053  31.089  1.00  0.00    -0.066 C 
ATOM      3  C   UNL     1     -12.874 -18.766  29.804  1.00  0.00     0.047 C 
ATOM      4  C   UNL     1     -12.772 -17.329  29.394  1.00  0.00     0.159 C 
ATOM      5  O   UNL     1     -13.027 -16.944  28.223  1.00  0.00    -0.295 OA
ATOM      6  C   UNL     1     -12.334 -16.364  30.496  1.00  0.00     0.067 C 
ATOM      7  C   UNL     1     -13.185 -16.775  31.718  1.00  0.00     0.021 C 
ATOM      8  C   UNL     1     -12.120 -17.863  31.984  1.00  0.00     0.022 C 
ATOM      9  C   UNL     1     -11.099 -16.969  31.222  1.00  0.00    -0.019 C 
ATOM     10  C   UNL     1     -10.402 -15.943  32.152  1.00  0.00     0.012 C 
ATOM     11  C   UNL     1     -10.006 -17.668  30.363  1.00  0.00     0.012 C 
ENDROOT
TORSDOF 0
ENDMDL
MODEL 9
REMARK VINA RESULT:    -5.094      1.827      3.362
REMARK INTER + INTRA:          -5.094
REMARK INTER:                  -5.094
REMARK INTRA:                   0.000
REMARK UNBOUND:                 0.000
REMARK SMILES CC1=CC(=O)[C@H]2C[C@@H]1C2(C)C
REMARK SMILES IDX 1 1 2 2 3 3 4 4 5 5 6 6 7 7 8 8 9 9 10 10 11 11
REMARK H PARENT
REMARK Flexibility Score: inf
ROOT
ATOM      1  C   UNL     1     -12.213 -16.623  26.371  1.00  0.00     0.040 C 
ATOM      2  C   UNL     1     -12.384 -16.686  27.856  1.00  0.00    -0.066 C 
ATOM      3  C   UNL     1     -13.156 -15.782  28.521  1.00  0.00     0.047 C 
ATOM      4  C   UNL     1     -13.223 -15.935  30.009  1.00  0.00     0.159 C 
ATOM      5  O   UNL     1     -13.870 -15.139  30.739  1.00  0.00    -0.295 OA
ATOM      6  C   UNL     1     -12.448 -17.123  30.581  1.00  0.00     0.067 C 
ATOM      7  C   UNL     1     -12.821 -18.299  29.652  1.00  0.00     0.021 C 
ATOM      8  C   UNL     1     -11.713 -17.788  28.704  1.00  0.00     0.022 C 
ATOM      9  C   UNL     1     -11.029 -17.142  29.944  1.00  0.00    -0.019 C 
ATOM     10  C   UNL     1     -10.071 -18.122  30.668  1.00  0.00     0.012 C 
ATOM     11  C   UNL     1     -10.288 -15.788  29.753  1.00  0.00     0.012 C 
ENDROOT
TORSDOF 0
ENDMDL
