MODEL 1
REMARK VINA RESULT:    -4.445      0.000      0.000
REMARK INTER + INTRA:          -9.072
REMARK INTER:                  -7.822
REMARK INTRA:                  -1.249
REMARK UNBOUND:                -1.249
REMARK SMILES CCCCCCCCCCCCCCC(=O)[O-]
REMARK SMILES IDX 9 1 10 2 11 3 12 4 13 5 14 6 15 7 16 8 17 9 8 10 7 11 6 12
REMARK SMILES IDX 5 13 4 14 3 15 2 16 1 17
REMARK H PARENT
REMARK Flexibility Score: inf
ROOT
ATOM      1  C   UNL     1      11.069   3.516  41.025  1.00  0.00     0.000 C 
ENDROOT
BRANCH   1   2
ATOM      2  C   UNL     1      11.007   2.030  40.628  1.00  0.00     0.000 C 
BRANCH   2   3
ATOM      3  C   UNL     1      11.415   1.099  41.779  1.00  0.00     0.000 C 
BRANCH   3   4
ATOM      4  C   UNL     1      12.622   0.215  41.416  1.00  0.00     0.000 C 
BRANCH   4   5
ATOM      5  C   UNL     1      12.317  -0.751  40.261  1.00  0.00     0.006 C 
BRANCH   5   6
ATOM      6  C   UNL     1      13.590  -1.321  39.623  1.00  0.00     0.053 C 
BRANCH   6   7
ATOM      7  C   UNL     1      13.931  -2.645  40.232  1.00  0.00     0.041 C 
ATOM      8  O   UNL     1      13.630  -3.712  39.634  1.00  0.00    -0.550 OA
ATOM      9  O   UNL     1      14.627  -2.701  41.433  1.00  0.00    -0.550 OA
ENDBRANCH   6   7
ENDBRANCH   5   6
ENDBRANCH   4   5
ENDBRANCH   3   4
ENDBRANCH   2   3
ENDBRANCH   1   2
BRANCH   1  10
ATOM     10  C   UNL     1      12.280   3.826  41.931  1.00  0.00     0.000 C 
BRANCH  10  11
ATOM     11  C   UNL     1      13.582   4.096  41.151  1.00  0.00    -0.000 C 
BRANCH  11  12
ATOM     12  C   UNL     1      14.592   5.007  41.871  1.00  0.00    -0.000 C 
BRANCH  12  13
ATOM     13  C   UNL     1      15.772   5.415  40.971  1.00  0.00    -0.000 C 
BRANCH  13  14
ATOM     14  C   UNL     1      17.053   4.624  41.282  1.00  0.00    -0.000 C 
BRANCH  14  15
ATOM     15  C   UNL     1      17.282   3.458  40.303  1.00  0.00    -0.000 C 
BRANCH  15  16
ATOM     16  C   UNL     1      17.340   2.097  41.016  1.00  0.00    -0.003 C 
ATOM     17  C   UNL     1      16.108   1.233  40.744  1.00  0.00     0.004 C 
ENDBRANCH  15  16
ENDBRANCH  14  15
ENDBRANCH  13  14
ENDBRANCH  12  13
ENDBRANCH  11  12
ENDBRANCH  10  11
ENDBRANCH   1  10
TORSDOF 13
ENDMDL
MODEL 2
REMARK VINA RESULT:    -4.421      1.403      2.124
REMARK INTER + INTRA:          -9.031
REMARK INTER:                  -8.111
REMARK INTRA:                  -0.920
REMARK UNBOUND:                -1.249
REMARK SMILES CCCCCCCCCCCCCCC(=O)[O-]
REMARK SMILES IDX 9 1 10 2 11 3 12 4 13 5 14 6 15 7 16 8 17 9 8 10 7 11 6 12
REMARK SMILES IDX 5 13 4 14 3 15 2 16 1 17
REMARK H PARENT
REMARK Flexibility Score: inf
ROOT
ATOM      1  C   UNL     1      12.504   4.794  41.093  1.00  0.00     0.000 C 
ENDROOT
BRANCH   1   2
ATOM      2  C   UNL     1      11.539   3.858  41.842  1.00  0.00     0.000 C 
BRANCH   2   3
ATOM      3  C   UNL     1      11.143   2.634  41.003  1.00  0.00     0.000 C 
BRANCH   3   4
ATOM      4  C   UNL     1      11.478   1.308  41.711  1.00  0.00     0.000 C 
BRANCH   4   5
ATOM      5  C   UNL     1      12.202   0.315  40.789  1.00  0.00     0.006 C 
BRANCH   5   6
ATOM      6  C   UNL     1      13.025  -0.716  41.570  1.00  0.00     0.053 C 
BRANCH   6   7
ATOM      7  C   UNL     1      14.282  -1.050  40.828  1.00  0.00     0.041 C 
ATOM      8  O   UNL     1      14.307  -2.029  40.035  1.00  0.00    -0.550 OA
ATOM      9  O   UNL     1      15.408  -0.250  40.971  1.00  0.00    -0.550 OA
ENDBRANCH   6   7
ENDBRANCH   5   6
ENDBRANCH   4   5
ENDBRANCH   3   4
ENDBRANCH   2   3
ENDBRANCH   1   2
BRANCH   1  10
ATOM     10  C   UNL     1      13.950   4.684  41.625  1.00  0.00     0.000 C 
BRANCH  10  11
ATOM     11  C   UNL     1      14.955   5.580  40.874  1.00  0.00    -0.000 C 
BRANCH  11  12
ATOM     12  C   UNL     1      16.413   5.094  40.914  1.00  0.00    -0.000 C 
BRANCH  12  13
ATOM     13  C   UNL     1      16.748   4.324  42.204  1.00  0.00    -0.000 C 
BRANCH  13  14
ATOM     14  C   UNL     1      17.408   2.963  41.926  1.00  0.00    -0.000 C 
BRANCH  14  15
ATOM     15  C   UNL     1      17.691   2.737  40.430  1.00  0.00    -0.000 C 
BRANCH  15  16
ATOM     16  C   UNL     1      19.154   2.351  40.162  1.00  0.00    -0.003 C 
ATOM     17  C   UNL     1      20.123   2.953  41.180  1.00  0.00     0.004 C 
ENDBRANCH  15  16
ENDBRANCH  14  15
ENDBRANCH  13  14
ENDBRANCH  12  13
ENDBRANCH  11  12
ENDBRANCH  10  11
ENDBRANCH   1  10
TORSDOF 13
ENDMDL
MODEL 3
REMARK VINA RESULT:    -4.374      2.207      4.074
REMARK INTER + INTRA:          -8.947
REMARK INTER:                  -7.774
REMARK INTRA:                  -1.173
REMARK UNBOUND:                -1.249
REMARK SMILES CCCCCCCCCCCCCCC(=O)[O-]
REMARK SMILES IDX 9 1 10 2 11 3 12 4 13 5 14 6 15 7 16 8 17 9 8 10 7 11 6 12
REMARK SMILES IDX 5 13 4 14 3 15 2 16 1 17
REMARK H PARENT
REMARK Flexibility Score: inf
ROOT
ATOM      1  C   UNL     1      15.928   1.620  40.645  1.00  0.00     0.000 C 
ENDROOT
BRANCH   1   2
ATOM      2  C   UNL     1      15.528   0.185  41.032  1.00  0.00     0.000 C 
BRANCH   2   3
ATOM      3  C   UNL     1      14.199  -0.244  40.392  1.00  0.00     0.000 C 
BRANCH   3   4
ATOM      4  C   UNL     1      13.238  -0.880  41.412  1.00  0.00     0.000 C 
BRANCH   4   5
ATOM      5  C   UNL     1      12.014   0.005  41.699  1.00  0.00     0.006 C 
BRANCH   5   6
ATOM      6  C   UNL     1      10.862  -0.254  40.721  1.00  0.00     0.053 C 
BRANCH   6   7
ATOM      7  C   UNL     1       9.739  -0.961  41.413  1.00  0.00     0.041 C 
ATOM      8  O   UNL     1       9.004  -1.760  40.773  1.00  0.00    -0.550 OA
ATOM      9  O   UNL     1       9.537  -0.779  42.775  1.00  0.00    -0.550 OA
ENDBRANCH   6   7
ENDBRANCH   5   6
ENDBRANCH   4   5
ENDBRANCH   3   4
ENDBRANCH   2   3
ENDBRANCH   1   2
BRANCH   1  10
ATOM     10  C   UNL     1      17.460   1.808  40.615  1.00  0.00     0.000 C 
BRANCH  10  11
ATOM     11  C   UNL     1      17.959   2.968  41.499  1.00  0.00    -0.000 C 
BRANCH  11  12
ATOM     12  C   UNL     1      17.223   4.303  41.293  1.00  0.00    -0.000 C 
BRANCH  12  13
ATOM     13  C   UNL     1      16.588   4.838  42.589  1.00  0.00    -0.000 C 
BRANCH  13  14
ATOM     14  C   UNL     1      15.085   5.126  42.436  1.00  0.00    -0.000 C 
BRANCH  14  15
ATOM     15  C   UNL     1      14.660   5.287  40.965  1.00  0.00    -0.000 C 
BRANCH  15  16
ATOM     16  C   UNL     1      13.158   5.034  40.758  1.00  0.00    -0.003 C 
ATOM     17  C   UNL     1      12.668   3.764  41.455  1.00  0.00     0.004 C 
ENDBRANCH  15  16
ENDBRANCH  14  15
ENDBRANCH  13  14
ENDBRANCH  12  13
ENDBRANCH  11  12
ENDBRANCH  10  11
ENDBRANCH   1  10
TORSDOF 13
ENDMDL
MODEL 4
REMARK VINA RESULT:    -4.321      3.828      7.212
REMARK INTER + INTRA:          -8.854
REMARK INTER:                  -7.741
REMARK INTRA:                  -1.112
REMARK UNBOUND:                -1.249
REMARK SMILES CCCCCCCCCCCCCCC(=O)[O-]
REMARK SMILES IDX 9 1 10 2 11 3 12 4 13 5 14 6 15 7 16 8 17 9 8 10 7 11 6 12
REMARK SMILES IDX 5 13 4 14 3 15 2 16 1 17
REMARK H PARENT
REMARK Flexibility Score: inf
ROOT
ATOM      1  C   UNL     1      15.125   0.634  40.982  1.00  0.00     0.000 C 
ENDROOT
BRANCH   1   2
ATOM      2  C   UNL     1      16.505   1.210  40.615  1.00  0.00     0.000 C 
BRANCH   2   3
ATOM      3  C   UNL     1      16.853   2.462  41.434  1.00  0.00     0.000 C 
BRANCH   3   4
ATOM      4  C   UNL     1      17.133   3.684  40.542  1.00  0.00     0.000 C 
BRANCH   4   5
ATOM      5  C   UNL     1      16.048   4.766  40.667  1.00  0.00     0.006 C 
BRANCH   5   6
ATOM      6  C   UNL     1      15.889   5.272  42.106  1.00  0.00     0.053 C 
BRANCH   6   7
ATOM      7  C   UNL     1      16.890   6.347  42.394  1.00  0.00     0.041 C 
ATOM      8  O   UNL     1      17.351   6.487  43.558  1.00  0.00    -0.550 OA
ATOM      9  O   UNL     1      17.355   7.158  41.366  1.00  0.00    -0.550 OA
ENDBRANCH   6   7
ENDBRANCH   5   6
ENDBRANCH   4   5
ENDBRANCH   3   4
ENDBRANCH   2   3
ENDBRANCH   1   2
BRANCH   1  10
ATOM     10  C   UNL     1      15.125  -0.910  40.996  1.00  0.00     0.000 C 
BRANCH  10  11
ATOM     11  C   UNL     1      13.993  -1.536  40.158  1.00  0.00    -0.000 C 
BRANCH  11  12
ATOM     12  C   UNL     1      12.946  -0.538  39.635  1.00  0.00    -0.000 C 
BRANCH  12  13
ATOM     13  C   UNL     1      11.569  -0.718  40.299  1.00  0.00    -0.000 C 
BRANCH  13  14
ATOM     14  C   UNL     1      11.497  -0.077  41.694  1.00  0.00    -0.000 C 
BRANCH  14  15
ATOM     15  C   UNL     1      10.314   0.896  41.839  1.00  0.00    -0.000 C 
BRANCH  15  16
ATOM     16  C   UNL     1      10.770   2.343  42.082  1.00  0.00    -0.003 C 
ATOM     17  C   UNL     1      12.075   2.683  41.361  1.00  0.00     0.004 C 
ENDBRANCH  15  16
ENDBRANCH  14  15
ENDBRANCH  13  14
ENDBRANCH  12  13
ENDBRANCH  11  12
ENDBRANCH  10  11
ENDBRANCH   1  10
TORSDOF 13
ENDMDL
MODEL 5
REMARK VINA RESULT:    -4.310      4.323      7.763
REMARK INTER + INTRA:          -8.835
REMARK INTER:                  -7.890
REMARK INTRA:                  -0.945
REMARK UNBOUND:                -1.249
REMARK SMILES CCCCCCCCCCCCCCC(=O)[O-]
REMARK SMILES IDX 9 1 10 2 11 3 12 4 13 5 14 6 15 7 16 8 17 9 8 10 7 11 6 12
REMARK SMILES IDX 5 13 4 14 3 15 2 16 1 17
REMARK H PARENT
REMARK Flexibility Score: inf
ROOT
ATOM      1  C   UNL     1      17.351   2.587  41.427  1.00  0.00     0.000 C 
ENDROOT
BRANCH   1   2
ATOM      2  C   UNL     1      17.287   3.906  40.637  1.00  0.00     0.000 C 
BRANCH   2   3
ATOM      3  C   UNL     1      15.995   4.690  40.910  1.00  0.00     0.000 C 
BRANCH   3   4
ATOM      4  C   UNL     1      15.830   5.043  42.399  1.00  0.00     0.000 C 
BRANCH   4   5
ATOM      5  C   UNL     1      16.361   6.446  42.735  1.00  0.00     0.006 C 
BRANCH   5   6
ATOM      6  C   UNL     1      16.039   7.471  41.641  1.00  0.00     0.053 C 
BRANCH   6   7
ATOM      7  C   UNL     1      17.266   8.246  41.276  1.00  0.00     0.041 C 
ATOM      8  O   UNL     1      17.620   8.342  40.070  1.00  0.00    -0.550 OA
ATOM      9  O   UNL     1      17.990   8.908  42.260  1.00  0.00    -0.550 OA
ENDBRANCH   6   7
ENDBRANCH   5   6
ENDBRANCH   4   5
ENDBRANCH   3   4
ENDBRANCH   2   3
ENDBRANCH   1   2
BRANCH   1  10
ATOM     10  C   UNL     1      16.828   1.390  40.604  1.00  0.00     0.000 C 
BRANCH  10  11
ATOM     11  C   UNL     1      15.393   0.965  40.975  1.00  0.00    -0.000 C 
BRANCH  11  12
ATOM     12  C   UNL     1      15.135  -0.551  40.933  1.00  0.00    -0.000 C 
BRANCH  12  13
ATOM     13  C   UNL     1      13.730  -0.929  41.435  1.00  0.00    -0.000 C 
BRANCH  13  14
ATOM     14  C   UNL     1      12.720  -1.102  40.288  1.00  0.00    -0.000 C 
BRANCH  14  15
ATOM     15  C   UNL     1      11.755   0.090  40.164  1.00  0.00    -0.000 C 
BRANCH  15  16
ATOM     16  C   UNL     1      11.688   0.927  41.451  1.00  0.00    -0.003 C 
ATOM     17  C   UNL     1      11.239   2.367  41.200  1.00  0.00     0.004 C 
ENDBRANCH  15  16
ENDBRANCH  14  15
ENDBRANCH  13  14
ENDBRANCH  12  13
ENDBRANCH  11  12
ENDBRANCH  10  11
ENDBRANCH   1  10
TORSDOF 13
ENDMDL
MODEL 6
REMARK VINA RESULT:    -4.297      2.153      4.025
REMARK INTER + INTRA:          -8.811
REMARK INTER:                  -8.180
REMARK INTRA:                  -0.631
REMARK UNBOUND:                -1.249
REMARK SMILES CCCCCCCCCCCCCCC(=O)[O-]
REMARK SMILES IDX 9 1 10 2 11 3 12 4 13 5 14 6 15 7 16 8 17 9 8 10 7 11 6 12
REMARK SMILES IDX 5 13 4 14 3 15 2 16 1 17
REMARK H PARENT
REMARK Flexibility Score: inf
ROOT
ATOM      1  C   UNL     1      15.439  -0.111  40.968  1.00  0.00     0.000 C 
ENDROOT
BRANCH   1   2
ATOM      2  C   UNL     1      14.067  -0.433  40.350  1.00  0.00     0.000 C 
BRANCH   2   3
ATOM      3  C   UNL     1      12.981  -0.649  41.414  1.00  0.00     0.000 C 
BRANCH   3   4
ATOM      4  C   UNL     1      12.047   0.567  41.550  1.00  0.00     0.000 C 
BRANCH   4   5
ATOM      5  C   UNL     1      10.581   0.221  41.244  1.00  0.00     0.006 C 
BRANCH   5   6
ATOM      6  C   UNL     1      10.415  -0.485  39.893  1.00  0.00     0.053 C 
BRANCH   6   7
ATOM      7  C   UNL     1       9.924  -1.885  40.093  1.00  0.00     0.041 C 
ATOM      8  O   UNL     1      10.521  -2.849  39.546  1.00  0.00    -0.550 OA
ATOM      9  O   UNL     1       8.839  -2.129  40.926  1.00  0.00    -0.550 OA
ENDBRANCH   6   7
ENDBRANCH   5   6
ENDBRANCH   4   5
ENDBRANCH   3   4
ENDBRANCH   2   3
ENDBRANCH   1   2
BRANCH   1  10
ATOM     10  C   UNL     1      15.749   1.401  40.941  1.00  0.00     0.000 C 
BRANCH  10  11
ATOM     11  C   UNL     1      17.222   1.725  40.623  1.00  0.00    -0.000 C 
BRANCH  11  12
ATOM     12  C   UNL     1      17.540   3.223  40.479  1.00  0.00    -0.000 C 
BRANCH  12  13
ATOM     13  C   UNL     1      16.298   4.115  40.661  1.00  0.00    -0.000 C 
BRANCH  13  14
ATOM     14  C   UNL     1      16.411   5.042  41.882  1.00  0.00    -0.000 C 
BRANCH  14  15
ATOM     15  C   UNL     1      17.225   6.315  41.588  1.00  0.00    -0.000 C 
BRANCH  15  16
ATOM     16  C   UNL     1      16.575   7.188  40.503  1.00  0.00    -0.003 C 
ATOM     17  C   UNL     1      17.454   8.367  40.084  1.00  0.00     0.004 C 
ENDBRANCH  15  16
ENDBRANCH  14  15
ENDBRANCH  13  14
ENDBRANCH  12  13
ENDBRANCH  11  12
ENDBRANCH  10  11
ENDBRANCH   1  10
TORSDOF 13
ENDMDL
MODEL 7
REMARK VINA RESULT:    -4.278      2.419      4.270
REMARK INTER + INTRA:          -8.778
REMARK INTER:                  -7.755
REMARK INTRA:                  -1.023
REMARK UNBOUND:                -1.249
REMARK SMILES CCCCCCCCCCCCCCC(=O)[O-]
REMARK SMILES IDX 9 1 10 2 11 3 12 4 13 5 14 6 15 7 16 8 17 9 8 10 7 11 6 12
REMARK SMILES IDX 5 13 4 14 3 15 2 16 1 17
REMARK H PARENT
REMARK Flexibility Score: inf
ROOT
ATOM      1  C   UNL     1      16.628   1.354  40.646  1.00  0.00     0.000 C 
ENDROOT
BRANCH   1   2
ATOM      2  C   UNL     1      15.199   0.933  41.033  1.00  0.00     0.000 C 
BRANCH   2   3
ATOM      3  C   UNL     1      14.982  -0.583  40.911  1.00  0.00     0.000 C 
BRANCH   3   4
ATOM      4  C   UNL     1      14.049  -0.946  39.741  1.00  0.00     0.000 C 
BRANCH   4   5
ATOM      5  C   UNL     1      12.771  -1.661  40.208  1.00  0.00     0.006 C 
BRANCH   5   6
ATOM      6  C   UNL     1      11.511  -0.817  39.979  1.00  0.00     0.053 C 
BRANCH   6   7
ATOM      7  C   UNL     1      11.281   0.100  41.139  1.00  0.00     0.041 C 
ATOM      8  O   UNL     1      10.783  -0.344  42.208  1.00  0.00    -0.550 OA
ATOM      9  O   UNL     1      11.665   1.433  41.059  1.00  0.00    -0.550 OA
ENDBRANCH   6   7
ENDBRANCH   5   6
ENDBRANCH   4   5
ENDBRANCH   3   4
ENDBRANCH   2   3
ENDBRANCH   1   2
BRANCH   1  10
ATOM     10  C   UNL     1      17.060   2.659  41.348  1.00  0.00     0.000 C 
BRANCH  10  11
ATOM     11  C   UNL     1      17.026   3.896  40.429  1.00  0.00    -0.000 C 
BRANCH  11  12
ATOM     12  C   UNL     1      16.178   5.068  40.951  1.00  0.00    -0.000 C 
BRANCH  12  13
ATOM     13  C   UNL     1      16.126   5.127  42.488  1.00  0.00    -0.000 C 
BRANCH  13  14
ATOM     14  C   UNL     1      16.637   6.466  43.046  1.00  0.00    -0.000 C 
BRANCH  14  15
ATOM     15  C   UNL     1      18.152   6.650  42.852  1.00  0.00    -0.000 C 
BRANCH  15  16
ATOM     16  C   UNL     1      18.486   7.834  41.931  1.00  0.00    -0.003 C 
ATOM     17  C   UNL     1      17.262   8.683  41.588  1.00  0.00     0.004 C 
ENDBRANCH  15  16
ENDBRANCH  14  15
ENDBRANCH  13  14
ENDBRANCH  12  13
ENDBRANCH  11  12
ENDBRANCH  10  11
ENDBRANCH   1  10
TORSDOF 13
ENDMDL
MODEL 8
REMARK VINA RESULT:    -4.271      3.421      6.276
REMARK INTER + INTRA:          -8.767
REMARK INTER:                  -8.103
REMARK INTRA:                  -0.664
REMARK UNBOUND:                -1.249
REMARK SMILES CCCCCCCCCCCCCCC(=O)[O-]
REMARK SMILES IDX 9 1 10 2 11 3 12 4 13 5 14 6 15 7 16 8 17 9 8 10 7 11 6 12
REMARK SMILES IDX 5 13 4 14 3 15 2 16 1 17
REMARK H PARENT
REMARK Flexibility Score: inf
ROOT
ATOM      1  C   UNL     1      13.988   5.095  41.019  1.00  0.00     0.000 C 
ENDROOT
BRANCH   1   2
ATOM      2  C   UNL     1      15.017   4.017  41.405  1.00  0.00     0.000 C 
BRANCH   2   3
ATOM      3  C   UNL     1      16.337   4.164  40.634  1.00  0.00     0.000 C 
BRANCH   3   4
ATOM      4  C   UNL     1      17.555   4.249  41.571  1.00  0.00     0.000 C 
BRANCH   4   5
ATOM      5  C   UNL     1      18.302   2.911  41.689  1.00  0.00     0.006 C 
BRANCH   5   6
ATOM      6  C   UNL     1      19.481   2.812  40.714  1.00  0.00     0.053 C 
BRANCH   6   7
ATOM      7  C   UNL     1      20.768   3.107  41.420  1.00  0.00     0.041 C 
ATOM      8  O   UNL     1      21.625   2.199  41.580  1.00  0.00    -0.550 OA
ATOM      9  O   UNL     1      21.043   4.398  41.853  1.00  0.00    -0.550 OA
ENDBRANCH   6   7
ENDBRANCH   5   6
ENDBRANCH   4   5
ENDBRANCH   3   4
ENDBRANCH   2   3
ENDBRANCH   1   2
BRANCH   1  10
ATOM     10  C   UNL     1      12.540   4.564  41.077  1.00  0.00     0.000 C 
BRANCH  10  11
ATOM     11  C   UNL     1      12.446   3.055  41.376  1.00  0.00    -0.000 C 
BRANCH  11  12
ATOM     12  C   UNL     1      11.046   2.558  41.773  1.00  0.00    -0.000 C 
BRANCH  12  13
ATOM     13  C   UNL     1      10.882   1.038  41.599  1.00  0.00    -0.000 C 
BRANCH  13  14
ATOM     14  C   UNL     1      12.224   0.288  41.660  1.00  0.00    -0.000 C 
BRANCH  14  15
ATOM     15  C   UNL     1      12.447  -0.627  40.443  1.00  0.00    -0.000 C 
BRANCH  15  16
ATOM     16  C   UNL     1      13.937  -0.880  40.165  1.00  0.00    -0.003 C 
ATOM     17  C   UNL     1      14.510  -2.026  41.000  1.00  0.00     0.004 C 
ENDBRANCH  15  16
ENDBRANCH  14  15
ENDBRANCH  13  14
ENDBRANCH  12  13
ENDBRANCH  11  12
ENDBRANCH  10  11
ENDBRANCH   1  10
TORSDOF 13
ENDMDL
MODEL 9
REMARK VINA RESULT:    -4.230      2.196      5.383
REMARK INTER + INTRA:          -8.694
REMARK INTER:                  -7.693
REMARK INTRA:                  -1.001
REMARK UNBOUND:                -1.249
REMARK SMILES CCCCCCCCCCCCCCC(=O)[O-]
REMARK SMILES IDX 9 1 10 2 11 3 12 4 13 5 14 6 15 7 16 8 17 9 8 10 7 11 6 12
REMARK SMILES IDX 5 13 4 14 3 15 2 16 1 17
REMARK H PARENT
REMARK Flexibility Score: inf
ROOT
ATOM      1  C   UNL     1      11.550   3.998  40.694  1.00  0.00     0.000 C 
ENDROOT
BRANCH   1   2
ATOM      2  C   UNL     1      12.557   5.163  40.663  1.00  0.00     0.000 C 
BRANCH   2   3
ATOM      3  C   UNL     1      13.421   5.223  41.932  1.00  0.00     0.000 C 
BRANCH   3   4
ATOM      4  C   UNL     1      14.917   5.390  41.611  1.00  0.00     0.000 C 
BRANCH   4   5
ATOM      5  C   UNL     1      15.492   4.189  40.843  1.00  0.00     0.006 C 
BRANCH   5   6
ATOM      6  C   UNL     1      17.024   4.149  40.880  1.00  0.00     0.053 C 
BRANCH   6   7
ATOM      7  C   UNL     1      17.502   2.763  41.181  1.00  0.00     0.041 C 
ATOM      8  O   UNL     1      18.634   2.583  41.705  1.00  0.00    -0.550 OA
ATOM      9  O   UNL     1      16.677   1.673  40.932  1.00  0.00    -0.550 OA
ENDBRANCH   6   7
ENDBRANCH   5   6
ENDBRANCH   4   5
ENDBRANCH   3   4
ENDBRANCH   2   3
ENDBRANCH   1   2
BRANCH   1  10
ATOM     10  C   UNL     1      11.572   3.247  42.043  1.00  0.00     0.000 C 
BRANCH  10  11
ATOM     11  C   UNL     1      11.464   1.715  41.899  1.00  0.00    -0.000 C 
BRANCH  11  12
ATOM     12  C   UNL     1      11.373   1.205  40.451  1.00  0.00    -0.000 C 
BRANCH  12  13
ATOM     13  C   UNL     1      12.041  -0.168  40.261  1.00  0.00    -0.000 C 
BRANCH  13  14
ATOM     14  C   UNL     1      13.002  -0.522  41.409  1.00  0.00    -0.000 C 
BRANCH  14  15
ATOM     15  C   UNL     1      14.356  -1.053  40.907  1.00  0.00    -0.000 C 
BRANCH  15  16
ATOM     16  C   UNL     1      14.491  -2.574  41.085  1.00  0.00    -0.003 C 
ATOM     17  C   UNL     1      13.837  -3.365  39.952  1.00  0.00     0.004 C 
ENDBRANCH  15  16
ENDBRANCH  14  15
ENDBRANCH  13  14
ENDBRANCH  12  13
ENDBRANCH  11  12
ENDBRANCH  10  11
ENDBRANCH   1  10
TORSDOF 13
ENDMDL
