MODEL 1
REMARK VINA RESULT:    -1.876      0.000      0.000
REMARK INTER + INTRA:          -1.876
REMARK INTER:                  -1.876
REMARK INTRA:                   0.000
REMARK UNBOUND:                 0.000
REMARK SMILES CC(=O)[O-]
REMARK SMILES IDX 1 1 2 2 3 3 4 4
REMARK H PARENT
REMARK Flexibility Score: inf
ROOT
ATOM      1  C   UNL     1      67.902  14.362  76.019  1.00  0.00     0.063 C 
ATOM      2  C   UNL     1      69.202  14.765  76.627  1.00  0.00     0.038 C 
ATOM      3  O   UNL     1      70.215  14.935  75.899  1.00  0.00    -0.550 OA
ATOM      4  O   UNL     1      69.286  15.007  77.992  1.00  0.00    -0.550 OA
ENDROOT
TORSDOF 0
ENDMDL
MODEL 2
REMARK VINA RESULT:    -1.807      1.730      2.028
REMARK INTER + INTRA:          -1.807
REMARK INTER:                  -1.807
REMARK INTRA:                   0.000
REMARK UNBOUND:                 0.000
REMARK SMILES CC(=O)[O-]
REMARK SMILES IDX 1 1 2 2 3 3 4 4
REMARK H PARENT
REMARK Flexibility Score: inf
ROOT
ATOM      1  C   UNL     1      70.242  14.795  76.242  1.00  0.00     0.063 C 
ATOM      2  C   UNL     1      68.763  14.968  76.311  1.00  0.00     0.038 C 
ATOM      3  O   UNL     1      68.003  13.976  76.157  1.00  0.00    -0.550 OA
ATOM      4  O   UNL     1      68.221  16.214  76.599  1.00  0.00    -0.550 OA
ENDROOT
TORSDOF 0
ENDMDL
MODEL 3
REMARK VINA RESULT:    -1.780      1.750      2.036
REMARK INTER + INTRA:          -1.780
REMARK INTER:                  -1.780
REMARK INTRA:                   0.000
REMARK UNBOUND:                 0.000
REMARK SMILES CC(=O)[O-]
REMARK SMILES IDX 1 1 2 2 3 3 4 4
REMARK H PARENT
REMARK Flexibility Score: inf
ROOT
ATOM      1  C   UNL     1      69.757  14.794  76.294  1.00  0.00     0.063 C 
ATOM      2  C   UNL     1      69.749  15.062  77.760  1.00  0.00     0.038 C 
ATOM      3  O   UNL     1      68.729  15.559  78.306  1.00  0.00    -0.550 OA
ATOM      4  O   UNL     1      70.846  14.714  78.537  1.00  0.00    -0.550 OA
ENDROOT
TORSDOF 0
ENDMDL
MODEL 4
REMARK VINA RESULT:    -1.702      1.434      1.741
REMARK INTER + INTRA:          -1.702
REMARK INTER:                  -1.702
REMARK INTRA:                   0.000
REMARK UNBOUND:                 0.000
REMARK SMILES CC(=O)[O-]
REMARK SMILES IDX 1 1 2 2 3 3 4 4
REMARK H PARENT
REMARK Flexibility Score: inf
ROOT
ATOM      1  C   UNL     1      69.023  15.512  77.898  1.00  0.00     0.063 C 
ATOM      2  C   UNL     1      69.027  14.764  76.609  1.00  0.00     0.038 C 
ATOM      3  O   UNL     1      70.050  14.775  75.875  1.00  0.00    -0.550 OA
ATOM      4  O   UNL     1      67.922  14.007  76.240  1.00  0.00    -0.550 OA
ENDROOT
TORSDOF 0
ENDMDL
MODEL 5
REMARK VINA RESULT:    -1.691      1.719      2.194
REMARK INTER + INTRA:          -1.691
REMARK INTER:                  -1.691
REMARK INTRA:                   0.000
REMARK UNBOUND:                 0.000
REMARK SMILES CC(=O)[O-]
REMARK SMILES IDX 1 1 2 2 3 3 4 4
REMARK H PARENT
REMARK Flexibility Score: inf
ROOT
ATOM      1  C   UNL     1      70.595  14.976  78.137  1.00  0.00     0.063 C 
ATOM      2  C   UNL     1      69.985  15.372  76.836  1.00  0.00     0.038 C 
ATOM      3  O   UNL     1      69.541  14.492  76.052  1.00  0.00    -0.550 OA
ATOM      4  O   UNL     1      69.854  16.716  76.508  1.00  0.00    -0.550 OA
ENDROOT
TORSDOF 0
ENDMDL
MODEL 6
REMARK VINA RESULT:    -1.661     23.394     24.010
REMARK INTER + INTRA:          -1.661
REMARK INTER:                  -1.661
REMARK INTRA:                   0.000
REMARK UNBOUND:                 0.000
REMARK SMILES CC(=O)[O-]
REMARK SMILES IDX 1 1 2 2 3 3 4 4
REMARK H PARENT
REMARK Flexibility Score: inf
ROOT
ATOM      1  C   UNL     1      70.766  30.152  94.612  1.00  0.00     0.063 C 
ATOM      2  C   UNL     1      69.340  30.074  95.041  1.00  0.00     0.038 C 
ATOM      3  O   UNL     1      68.976  30.600  96.125  1.00  0.00    -0.550 OA
ATOM      4  O   UNL     1      68.399  29.467  94.219  1.00  0.00    -0.550 OA
ENDROOT
TORSDOF 0
ENDMDL
MODEL 7
REMARK VINA RESULT:    -1.606      2.582      3.086
REMARK INTER + INTRA:          -1.606
REMARK INTER:                  -1.606
REMARK INTRA:                   0.000
REMARK UNBOUND:                 0.000
REMARK SMILES CC(=O)[O-]
REMARK SMILES IDX 1 1 2 2 3 3 4 4
REMARK H PARENT
REMARK Flexibility Score: inf
ROOT
ATOM      1  C   UNL     1      70.982  15.526  79.891  1.00  0.00     0.063 C 
ATOM      2  C   UNL     1      70.764  14.994  78.515  1.00  0.00     0.038 C 
ATOM      3  O   UNL     1      71.744  14.609  77.824  1.00  0.00    -0.550 OA
ATOM      4  O   UNL     1      69.475  14.869  78.013  1.00  0.00    -0.550 OA
ENDROOT
TORSDOF 0
ENDMDL
MODEL 8
REMARK VINA RESULT:    -1.546     14.335     14.790
REMARK INTER + INTRA:          -1.546
REMARK INTER:                  -1.546
REMARK INTRA:                   0.000
REMARK UNBOUND:                 0.000
REMARK SMILES CC(=O)[O-]
REMARK SMILES IDX 1 1 2 2 3 3 4 4
REMARK H PARENT
REMARK Flexibility Score: inf
ROOT
ATOM      1  C   UNL     1      53.645  18.676  75.992  1.00  0.00     0.063 C 
ATOM      2  C   UNL     1      55.045  18.986  76.399  1.00  0.00     0.038 C 
ATOM      3  O   UNL     1      56.008  18.367  75.875  1.00  0.00    -0.550 OA
ATOM      4  O   UNL     1      55.294  19.998  77.318  1.00  0.00    -0.550 OA
ENDROOT
TORSDOF 0
ENDMDL
