MODEL 1
REMARK VINA RESULT:    -7.764      0.000      0.000
REMARK INTER + INTRA:          -8.460
REMARK INTER:                  -8.445
REMARK INTRA:                  -0.015
REMARK UNBOUND:                -0.015
REMARK SMILES C[C@@H]1[C@H](C)CC[C@]2(C(=O)[O-])CC[C@]3(C)C(=CC[C@@H]4[C@]5(C)CC[C@H](O)C(C)(C)[C@H]5CC[C@]43C)[C@H]12
REMARK SMILES IDX 7 1 6 2 11 3 33 4 5 5 12 6 15 7 2 8 3 9 13 10 16 11 1 12
REMARK SMILES IDX 4 13 14 14 31 15 17 16 18 17 30 18 32 19 19 20 29 21 28 22
REMARK SMILES IDX 21 23 20 24 25 25 22 26 23 27 26 28 27 29 8 30 9 31 10 32
REMARK SMILES IDX 24 33
REMARK H PARENT 24 34
REMARK Flexibility Score: inf
ROOT
ATOM      1  C   UNL     1      54.983  41.711  47.308  1.00  0.00     0.017 C 
ATOM      2  C   UNL     1      55.785  41.293  46.042  1.00  0.00     0.014 C 
ATOM      3  C   UNL     1      55.354  40.802  48.500  1.00  0.00     0.014 C 
ATOM      4  C   UNL     1      53.426  41.654  47.076  1.00  0.00     0.030 C 
ATOM      5  C   UNL     1      55.244  40.052  45.339  1.00  0.00     0.004 C 
ATOM      6  C   UNL     1      54.736  41.307  49.810  1.00  0.00     0.013 C 
ATOM      7  C   UNL     1      52.620  41.815  48.380  1.00  0.00    -0.063 C 
ATOM      8  C   UNL     1      52.885  40.492  46.155  1.00  0.00    -0.003 C 
ATOM      9  C   UNL     1      53.794  40.294  44.914  1.00  0.00    -0.011 C 
ATOM     10  C   UNL     1      53.171  41.461  49.783  1.00  0.00    -0.006 C 
ATOM     11  C   UNL     1      51.358  42.296  48.261  1.00  0.00    -0.027 C 
ATOM     12  C   UNL     1      52.553  39.171  46.878  1.00  0.00     0.008 C 
ATOM     13  C   UNL     1      53.311  39.190  43.959  1.00  0.00     0.008 C 
ATOM     14  C   UNL     1      52.600  40.049  50.143  1.00  0.00     0.017 C 
ATOM     15  C   UNL     1      52.686  42.590  50.826  1.00  0.00    -0.020 C 
ATOM     16  C   UNL     1      50.513  42.812  49.405  1.00  0.00     0.032 C 
ATOM     17  C   UNL     1      51.108  42.608  50.830  1.00  0.00     0.006 C 
ATOM     18  C   UNL     1      53.252  42.295  52.277  1.00  0.00     0.008 C 
ATOM     19  C   UNL     1      53.199  44.000  50.368  1.00  0.00     0.012 C 
ATOM     20  C   UNL     1      50.370  43.437  51.993  1.00  0.00    -0.025 C 
ATOM     21  C   UNL     1      52.218  42.379  53.417  1.00  0.00     0.005 C 
ATOM     22  C   UNL     1      51.334  43.622  53.220  1.00  0.00     0.003 C 
ATOM     23  C   UNL     1      49.899  44.870  51.560  1.00  0.00     0.010 C 
ATOM     24  C   UNL     1      49.099  42.603  52.360  1.00  0.00     0.012 C 
ATOM     25  C   UNL     1      50.700  44.271  54.516  1.00  0.00    -0.006 C 
ATOM     26  C   UNL     1      49.831  45.917  52.706  1.00  0.00     0.033 C 
ATOM     27  C   UNL     1      49.593  45.325  54.110  1.00  0.00     0.120 C 
ATOM     28  C   UNL     1      51.829  44.990  55.314  1.00  0.00     0.014 C 
ATOM     29  C   UNL     1      50.085  43.212  55.465  1.00  0.00     0.014 C 
ENDROOT
BRANCH   1  30
ATOM     30  C   UNL     1      55.442  43.141  47.616  1.00  0.00     0.048 C 
ATOM     31  O   UNL     1      54.649  44.106  47.450  1.00  0.00    -0.550 OA
ATOM     32  O   UNL     1      56.696  43.400  48.162  1.00  0.00    -0.550 OA
ENDBRANCH   1  30
BRANCH  27  33
ATOM     33  O   UNL     1      49.525  46.390  55.028  1.00  0.00    -0.393 OA
ATOM     34  H   UNL     1      49.895  47.191  54.574  1.00  0.00     0.210 HD
ENDBRANCH  27  33
TORSDOF 2
ENDMDL
MODEL 2
REMARK VINA RESULT:    -6.647      9.361     13.488
REMARK INTER + INTRA:          -7.245
REMARK INTER:                  -7.137
REMARK INTRA:                  -0.108
REMARK UNBOUND:                -0.015
REMARK SMILES C[C@@H]1[C@H](C)CC[C@]2(C(=O)[O-])CC[C@]3(C)C(=CC[C@@H]4[C@]5(C)CC[C@H](O)C(C)(C)[C@H]5CC[C@]43C)[C@H]12
REMARK SMILES IDX 7 1 6 2 11 3 33 4 5 5 12 6 15 7 2 8 3 9 13 10 16 11 1 12
REMARK SMILES IDX 4 13 14 14 31 15 17 16 18 17 30 18 32 19 19 20 29 21 28 22
REMARK SMILES IDX 21 23 20 24 25 25 22 26 23 27 26 28 27 29 8 30 9 31 10 32
REMARK SMILES IDX 24 33
REMARK H PARENT 24 34
REMARK Flexibility Score: inf
ROOT
ATOM      1  C   UNL     1      39.301  38.933  52.792  1.00  0.00     0.017 C 
ATOM      2  C   UNL     1      37.928  39.410  52.236  1.00  0.00     0.014 C 
ATOM      3  C   UNL     1      39.116  37.668  53.658  1.00  0.00     0.014 C 
ATOM      4  C   UNL     1      40.020  40.046  53.645  1.00  0.00     0.030 C 
ATOM      5  C   UNL     1      37.067  40.158  53.249  1.00  0.00     0.004 C 
ATOM      6  C   UNL     1      40.465  37.055  54.060  1.00  0.00     0.013 C 
ATOM      7  C   UNL     1      41.248  39.514  54.410  1.00  0.00    -0.063 C 
ATOM      8  C   UNL     1      39.098  40.975  54.526  1.00  0.00    -0.003 C 
ATOM      9  C   UNL     1      37.821  41.392  53.751  1.00  0.00    -0.011 C 
ATOM     10  C   UNL     1      41.430  38.032  54.824  1.00  0.00    -0.006 C 
ATOM     11  C   UNL     1      42.208  40.417  54.726  1.00  0.00    -0.027 C 
ATOM     12  C   UNL     1      38.800  40.459  55.948  1.00  0.00     0.008 C 
ATOM     13  C   UNL     1      36.886  42.319  54.545  1.00  0.00     0.008 C 
ATOM     14  C   UNL     1      41.022  37.938  56.332  1.00  0.00     0.017 C 
ATOM     15  C   UNL     1      42.970  37.619  54.591  1.00  0.00    -0.020 C 
ATOM     16  C   UNL     1      43.605  40.074  55.192  1.00  0.00     0.032 C 
ATOM     17  C   UNL     1      43.871  38.566  55.476  1.00  0.00     0.006 C 
ATOM     18  C   UNL     1      43.207  36.098  54.969  1.00  0.00     0.008 C 
ATOM     19  C   UNL     1      43.360  37.826  53.085  1.00  0.00     0.012 C 
ATOM     20  C   UNL     1      45.421  38.176  55.652  1.00  0.00    -0.025 C 
ATOM     21  C   UNL     1      44.428  35.824  55.868  1.00  0.00     0.005 C 
ATOM     22  C   UNL     1      45.629  36.645  55.368  1.00  0.00     0.003 C 
ATOM     23  C   UNL     1      46.391  38.956  54.698  1.00  0.00     0.010 C 
ATOM     24  C   UNL     1      45.784  38.559  57.125  1.00  0.00     0.012 C 
ATOM     25  C   UNL     1      47.073  36.069  55.665  1.00  0.00    -0.006 C 
ATOM     26  C   UNL     1      47.697  38.202  54.323  1.00  0.00     0.033 C 
ATOM     27  C   UNL     1      48.169  37.169  55.366  1.00  0.00     0.120 C 
ATOM     28  C   UNL     1      47.314  34.836  54.742  1.00  0.00     0.014 C 
ATOM     29  C   UNL     1      47.220  35.572  57.125  1.00  0.00     0.014 C 
ENDROOT
BRANCH   1  30
ATOM     30  C   UNL     1      40.128  38.567  51.554  1.00  0.00     0.048 C 
ATOM     31  O   UNL     1      39.925  37.473  50.963  1.00  0.00    -0.550 OA
ATOM     32  O   UNL     1      41.050  39.454  51.008  1.00  0.00    -0.550 OA
ENDBRANCH   1  30
BRANCH  27  33
ATOM     33  O   UNL     1      49.369  36.597  54.904  1.00  0.00    -0.393 OA
ATOM     34  H   UNL     1      49.408  35.672  55.260  1.00  0.00     0.210 HD
ENDBRANCH  27  33
TORSDOF 2
ENDMDL
MODEL 3
REMARK VINA RESULT:    -6.448      6.831     10.205
REMARK INTER + INTRA:          -7.028
REMARK INTER:                  -6.914
REMARK INTRA:                  -0.114
REMARK UNBOUND:                -0.015
REMARK SMILES C[C@@H]1[C@H](C)CC[C@]2(C(=O)[O-])CC[C@]3(C)C(=CC[C@@H]4[C@]5(C)CC[C@H](O)C(C)(C)[C@H]5CC[C@]43C)[C@H]12
REMARK SMILES IDX 7 1 6 2 11 3 33 4 5 5 12 6 15 7 2 8 3 9 13 10 16 11 1 12
REMARK SMILES IDX 4 13 14 14 31 15 17 16 18 17 30 18 32 19 19 20 29 21 28 22
REMARK SMILES IDX 21 23 20 24 25 25 22 26 23 27 26 28 27 29 8 30 9 31 10 32
REMARK SMILES IDX 24 33
REMARK H PARENT 24 34
REMARK Flexibility Score: inf
ROOT
ATOM      1  C   UNL     1      51.583  38.484  49.311  1.00  0.00     0.017 C 
ATOM      2  C   UNL     1      51.718  40.028  49.449  1.00  0.00     0.014 C 
ATOM      3  C   UNL     1      52.979  37.825  49.294  1.00  0.00     0.014 C 
ATOM      4  C   UNL     1      50.796  38.067  48.011  1.00  0.00     0.030 C 
ATOM      5  C   UNL     1      52.104  40.742  48.158  1.00  0.00     0.004 C 
ATOM      6  C   UNL     1      52.883  36.295  49.359  1.00  0.00     0.013 C 
ATOM      7  C   UNL     1      50.872  36.554  47.724  1.00  0.00    -0.063 C 
ATOM      8  C   UNL     1      51.026  38.951  46.725  1.00  0.00    -0.003 C 
ATOM      9  C   UNL     1      51.053  40.461  47.081  1.00  0.00    -0.011 C 
ATOM     10  C   UNL     1      52.022  35.641  48.218  1.00  0.00    -0.006 C 
ATOM     11  C   UNL     1      49.863  36.020  46.996  1.00  0.00    -0.027 C 
ATOM     12  C   UNL     1      52.201  38.523  45.824  1.00  0.00     0.008 C 
ATOM     13  C   UNL     1      51.250  41.384  45.868  1.00  0.00     0.008 C 
ATOM     14  C   UNL     1      52.995  35.455  47.006  1.00  0.00     0.017 C 
ATOM     15  C   UNL     1      51.393  34.239  48.704  1.00  0.00    -0.020 C 
ATOM     16  C   UNL     1      49.578  34.541  46.858  1.00  0.00     0.032 C 
ATOM     17  C   UNL     1      50.643  33.587  47.477  1.00  0.00     0.006 C 
ATOM     18  C   UNL     1      52.524  33.275  49.252  1.00  0.00     0.008 C 
ATOM     19  C   UNL     1      50.350  34.488  49.850  1.00  0.00     0.012 C 
ATOM     20  C   UNL     1      50.177  32.054  47.612  1.00  0.00    -0.025 C 
ATOM     21  C   UNL     1      52.482  31.833  48.710  1.00  0.00     0.005 C 
ATOM     22  C   UNL     1      51.029  31.325  48.713  1.00  0.00     0.003 C 
ATOM     23  C   UNL     1      48.670  31.873  48.004  1.00  0.00     0.010 C 
ATOM     24  C   UNL     1      50.384  31.429  46.193  1.00  0.00     0.012 C 
ATOM     25  C   UNL     1      50.809  29.763  48.847  1.00  0.00    -0.006 C 
ATOM     26  C   UNL     1      48.343  30.572  48.789  1.00  0.00     0.033 C 
ATOM     27  C   UNL     1      49.305  29.397  48.522  1.00  0.00     0.120 C 
ATOM     28  C   UNL     1      51.139  29.341  50.310  1.00  0.00     0.014 C 
ATOM     29  C   UNL     1      51.753  28.954  47.923  1.00  0.00     0.014 C 
ENDROOT
BRANCH   1  30
ATOM     30  C   UNL     1      50.839  38.034  50.573  1.00  0.00     0.048 C 
ATOM     31  O   UNL     1      51.443  37.992  51.678  1.00  0.00    -0.550 OA
ATOM     32  O   UNL     1      49.478  37.746  50.551  1.00  0.00    -0.550 OA
ENDBRANCH   1  30
BRANCH  27  33
ATOM     33  O   UNL     1      48.865  28.291  49.273  1.00  0.00    -0.393 OA
ATOM     34  H   UNL     1      48.258  28.639  49.977  1.00  0.00     0.210 HD
ENDBRANCH  27  33
TORSDOF 2
ENDMDL
MODEL 4
REMARK VINA RESULT:    -6.392      9.433     13.363
REMARK INTER + INTRA:          -6.968
REMARK INTER:                  -6.889
REMARK INTRA:                  -0.078
REMARK UNBOUND:                -0.015
REMARK SMILES C[C@@H]1[C@H](C)CC[C@]2(C(=O)[O-])CC[C@]3(C)C(=CC[C@@H]4[C@]5(C)CC[C@H](O)C(C)(C)[C@H]5CC[C@]43C)[C@H]12
REMARK SMILES IDX 7 1 6 2 11 3 33 4 5 5 12 6 15 7 2 8 3 9 13 10 16 11 1 12
REMARK SMILES IDX 4 13 14 14 31 15 17 16 18 17 30 18 32 19 19 20 29 21 28 22
REMARK SMILES IDX 21 23 20 24 25 25 22 26 23 27 26 28 27 29 8 30 9 31 10 32
REMARK SMILES IDX 24 33
REMARK H PARENT 24 34
REMARK Flexibility Score: inf
ROOT
ATOM      1  C   UNL     1      39.699  40.029  55.169  1.00  0.00     0.017 C 
ATOM      2  C   UNL     1      38.300  40.710  55.127  1.00  0.00     0.014 C 
ATOM      3  C   UNL     1      40.677  40.871  56.017  1.00  0.00     0.014 C 
ATOM      4  C   UNL     1      40.306  39.821  53.730  1.00  0.00     0.030 C 
ATOM      5  C   UNL     1      38.207  41.892  54.168  1.00  0.00     0.004 C 
ATOM      6  C   UNL     1      42.005  40.135  56.246  1.00  0.00     0.013 C 
ATOM      7  C   UNL     1      41.785  39.388  53.761  1.00  0.00    -0.063 C 
ATOM      8  C   UNL     1      40.015  40.947  52.664  1.00  0.00    -0.003 C 
ATOM      9  C   UNL     1      38.544  41.430  52.748  1.00  0.00    -0.011 C 
ATOM     10  C   UNL     1      42.750  39.699  54.933  1.00  0.00    -0.006 C 
ATOM     11  C   UNL     1      42.241  38.696  52.688  1.00  0.00    -0.027 C 
ATOM     12  C   UNL     1      41.030  42.108  52.629  1.00  0.00     0.008 C 
ATOM     13  C   UNL     1      38.184  42.514  51.719  1.00  0.00     0.008 C 
ATOM     14  C   UNL     1      43.598  40.940  54.494  1.00  0.00     0.017 C 
ATOM     15  C   UNL     1      43.672  38.404  55.198  1.00  0.00    -0.020 C 
ATOM     16  C   UNL     1      43.541  37.924  52.639  1.00  0.00     0.032 C 
ATOM     17  C   UNL     1      44.475  38.095  53.874  1.00  0.00     0.006 C 
ATOM     18  C   UNL     1      44.659  38.655  56.412  1.00  0.00     0.008 C 
ATOM     19  C   UNL     1      42.772  37.164  55.534  1.00  0.00     0.012 C 
ATOM     20  C   UNL     1      45.681  37.034  53.959  1.00  0.00    -0.025 C 
ATOM     21  C   UNL     1      46.129  38.272  56.157  1.00  0.00     0.005 C 
ATOM     22  C   UNL     1      46.190  36.912  55.440  1.00  0.00     0.003 C 
ATOM     23  C   UNL     1      45.299  35.589  53.484  1.00  0.00     0.010 C 
ATOM     24  C   UNL     1      46.786  37.580  52.996  1.00  0.00     0.012 C 
ATOM     25  C   UNL     1      47.488  36.034  55.663  1.00  0.00    -0.006 C 
ATOM     26  C   UNL     1      46.109  34.440  54.145  1.00  0.00     0.033 C 
ATOM     27  C   UNL     1      47.519  34.838  54.628  1.00  0.00     0.120 C 
ATOM     28  C   UNL     1      47.455  35.461  57.112  1.00  0.00     0.014 C 
ATOM     29  C   UNL     1      48.789  36.864  55.538  1.00  0.00     0.014 C 
ENDROOT
BRANCH   1  30
ATOM     30  C   UNL     1      39.469  38.685  55.870  1.00  0.00     0.048 C 
ATOM     31  O   UNL     1      39.157  38.657  57.090  1.00  0.00    -0.550 OA
ATOM     32  O   UNL     1      39.512  37.484  55.169  1.00  0.00    -0.550 OA
ENDBRANCH   1  30
BRANCH  27  33
ATOM     33  O   UNL     1      48.135  33.695  55.170  1.00  0.00    -0.393 OA
ATOM     34  H   UNL     1      48.731  34.004  55.902  1.00  0.00     0.210 HD
ENDBRANCH  27  33
TORSDOF 2
ENDMDL
MODEL 5
REMARK VINA RESULT:    -6.252      2.499      3.882
REMARK INTER + INTRA:          -6.815
REMARK INTER:                  -6.761
REMARK INTRA:                  -0.054
REMARK UNBOUND:                -0.015
REMARK SMILES C[C@@H]1[C@H](C)CC[C@]2(C(=O)[O-])CC[C@]3(C)C(=CC[C@@H]4[C@]5(C)CC[C@H](O)C(C)(C)[C@H]5CC[C@]43C)[C@H]12
REMARK SMILES IDX 7 1 6 2 11 3 33 4 5 5 12 6 15 7 2 8 3 9 13 10 16 11 1 12
REMARK SMILES IDX 4 13 14 14 31 15 17 16 18 17 30 18 32 19 19 20 29 21 28 22
REMARK SMILES IDX 21 23 20 24 25 25 22 26 23 27 26 28 27 29 8 30 9 31 10 32
REMARK SMILES IDX 24 33
REMARK H PARENT 24 34
REMARK Flexibility Score: inf
ROOT
ATOM      1  C   UNL     1      51.920  38.405  48.404  1.00  0.00     0.017 C 
ATOM      2  C   UNL     1      52.380  37.425  47.286  1.00  0.00     0.014 C 
ATOM      3  C   UNL     1      50.456  38.835  48.169  1.00  0.00     0.014 C 
ATOM      4  C   UNL     1      52.831  39.688  48.486  1.00  0.00     0.030 C 
ATOM      5  C   UNL     1      52.729  38.102  45.964  1.00  0.00     0.004 C 
ATOM      6  C   UNL     1      49.906  39.640  49.353  1.00  0.00     0.013 C 
ATOM      7  C   UNL     1      52.247  40.780  49.405  1.00  0.00    -0.063 C 
ATOM      8  C   UNL     1      53.382  40.259  47.123  1.00  0.00    -0.003 C 
ATOM      9  C   UNL     1      53.854  39.115  46.187  1.00  0.00    -0.011 C 
ATOM     10  C   UNL     1      50.736  40.923  49.719  1.00  0.00    -0.006 C 
ATOM     11  C   UNL     1      53.128  41.650  49.955  1.00  0.00    -0.027 C 
ATOM     12  C   UNL     1      52.472  41.282  46.413  1.00  0.00     0.008 C 
ATOM     13  C   UNL     1      54.426  39.604  44.846  1.00  0.00     0.008 C 
ATOM     14  C   UNL     1      50.194  42.060  48.789  1.00  0.00     0.017 C 
ATOM     15  C   UNL     1      50.569  41.292  51.279  1.00  0.00    -0.020 C 
ATOM     16  C   UNL     1      52.823  42.588  51.101  1.00  0.00     0.032 C 
ATOM     17  C   UNL     1      51.331  42.648  51.548  1.00  0.00     0.006 C 
ATOM     18  C   UNL     1      49.037  41.418  51.665  1.00  0.00     0.008 C 
ATOM     19  C   UNL     1      51.217  40.172  52.168  1.00  0.00     0.012 C 
ATOM     20  C   UNL     1      51.078  43.386  52.953  1.00  0.00    -0.025 C 
ATOM     21  C   UNL     1      48.663  42.677  52.473  1.00  0.00     0.005 C 
ATOM     22  C   UNL     1      49.712  42.914  53.572  1.00  0.00     0.003 C 
ATOM     23  C   UNL     1      52.186  43.116  54.029  1.00  0.00     0.010 C 
ATOM     24  C   UNL     1      51.084  44.915  52.629  1.00  0.00     0.012 C 
ATOM     25  C   UNL     1      49.235  43.676  54.875  1.00  0.00    -0.006 C 
ATOM     26  C   UNL     1      51.707  43.190  55.505  1.00  0.00     0.033 C 
ATOM     27  C   UNL     1      50.486  44.103  55.743  1.00  0.00     0.120 C 
ATOM     28  C   UNL     1      48.332  42.717  55.706  1.00  0.00     0.014 C 
ATOM     29  C   UNL     1      48.380  44.926  54.547  1.00  0.00     0.014 C 
ENDROOT
BRANCH   1  30
ATOM     30  C   UNL     1      51.994  37.593  49.702  1.00  0.00     0.048 C 
ATOM     31  O   UNL     1      52.937  37.789  50.514  1.00  0.00    -0.550 OA
ATOM     32  O   UNL     1      50.993  36.693  50.054  1.00  0.00    -0.550 OA
ENDBRANCH   1  30
BRANCH  27  33
ATOM     33  O   UNL     1      50.193  44.091  57.120  1.00  0.00    -0.393 OA
ATOM     34  H   UNL     1      50.823  43.456  57.548  1.00  0.00     0.210 HD
ENDBRANCH  27  33
TORSDOF 2
ENDMDL
MODEL 6
REMARK VINA RESULT:    -6.163      6.528     10.183
REMARK INTER + INTRA:          -6.718
REMARK INTER:                  -6.609
REMARK INTRA:                  -0.109
REMARK UNBOUND:                -0.015
REMARK SMILES C[C@@H]1[C@H](C)CC[C@]2(C(=O)[O-])CC[C@]3(C)C(=CC[C@@H]4[C@]5(C)CC[C@H](O)C(C)(C)[C@H]5CC[C@]43C)[C@H]12
REMARK SMILES IDX 7 1 6 2 11 3 33 4 5 5 12 6 15 7 2 8 3 9 13 10 16 11 1 12
REMARK SMILES IDX 4 13 14 14 31 15 17 16 18 17 30 18 32 19 19 20 29 21 28 22
REMARK SMILES IDX 21 23 20 24 25 25 22 26 23 27 26 28 27 29 8 30 9 31 10 32
REMARK SMILES IDX 24 33
REMARK H PARENT 24 34
REMARK Flexibility Score: inf
ROOT
ATOM      1  C   UNL     1      50.591  38.968  47.768  1.00  0.00     0.017 C 
ATOM      2  C   UNL     1      50.658  40.511  47.577  1.00  0.00     0.014 C 
ATOM      3  C   UNL     1      49.532  38.607  48.833  1.00  0.00     0.014 C 
ATOM      4  C   UNL     1      51.980  38.356  48.189  1.00  0.00     0.030 C 
ATOM      5  C   UNL     1      51.425  41.245  48.673  1.00  0.00     0.004 C 
ATOM      6  C   UNL     1      49.297  37.093  48.906  1.00  0.00     0.013 C 
ATOM      7  C   UNL     1      51.877  36.882  48.628  1.00  0.00    -0.063 C 
ATOM      8  C   UNL     1      52.879  39.225  49.150  1.00  0.00    -0.003 C 
ATOM      9  C   UNL     1      52.861  40.719  48.735  1.00  0.00    -0.011 C 
ATOM     10  C   UNL     1      50.585  36.239  49.191  1.00  0.00    -0.006 C 
ATOM     11  C   UNL     1      52.997  36.129  48.504  1.00  0.00    -0.027 C 
ATOM     12  C   UNL     1      52.636  39.016  50.659  1.00  0.00     0.008 C 
ATOM     13  C   UNL     1      53.737  41.622  49.618  1.00  0.00     0.008 C 
ATOM     14  C   UNL     1      50.742  36.215  50.749  1.00  0.00     0.017 C 
ATOM     15  C   UNL     1      50.440  34.755  48.579  1.00  0.00    -0.020 C 
ATOM     16  C   UNL     1      53.043  34.619  48.582  1.00  0.00     0.032 C 
ATOM     17  C   UNL     1      51.714  33.923  49.002  1.00  0.00     0.006 C 
ATOM     18  C   UNL     1      49.114  34.061  49.097  1.00  0.00     0.008 C 
ATOM     19  C   UNL     1      50.389  34.824  47.012  1.00  0.00     0.012 C 
ATOM     20  C   UNL     1      51.682  32.333  48.769  1.00  0.00    -0.025 C 
ATOM     21  C   UNL     1      49.285  32.623  49.625  1.00  0.00     0.005 C 
ATOM     22  C   UNL     1      50.197  31.830  48.673  1.00  0.00     0.003 C 
ATOM     23  C   UNL     1      52.411  31.861  47.462  1.00  0.00     0.010 C 
ATOM     24  C   UNL     1      52.438  31.716  49.991  1.00  0.00     0.012 C 
ATOM     25  C   UNL     1      49.992  30.262  48.614  1.00  0.00    -0.006 C 
ATOM     26  C   UNL     1      51.864  30.548  46.837  1.00  0.00     0.033 C 
ATOM     27  C   UNL     1      51.194  29.586  47.839  1.00  0.00     0.120 C 
ATOM     28  C   UNL     1      48.660  29.965  47.861  1.00  0.00     0.014 C 
ATOM     29  C   UNL     1      49.861  29.631  50.023  1.00  0.00     0.014 C 
ENDROOT
BRANCH   1  30
ATOM     30  C   UNL     1      50.134  38.417  46.412  1.00  0.00     0.048 C 
ATOM     31  O   UNL     1      48.922  38.492  46.078  1.00  0.00    -0.550 OA
ATOM     32  O   UNL     1      51.044  37.907  45.492  1.00  0.00    -0.550 OA
ENDBRANCH   1  30
BRANCH  27  33
ATOM     33  O   UNL     1      50.781  28.439  47.135  1.00  0.00    -0.393 OA
ATOM     34  H   UNL     1      50.162  27.940  47.728  1.00  0.00     0.210 HD
ENDBRANCH  27  33
TORSDOF 2
ENDMDL
MODEL 7
REMARK VINA RESULT:    -6.145      6.198      8.018
REMARK INTER + INTRA:          -6.698
REMARK INTER:                  -6.586
REMARK INTRA:                  -0.112
REMARK UNBOUND:                -0.015
REMARK SMILES C[C@@H]1[C@H](C)CC[C@]2(C(=O)[O-])CC[C@]3(C)C(=CC[C@@H]4[C@]5(C)CC[C@H](O)C(C)(C)[C@H]5CC[C@]43C)[C@H]12
REMARK SMILES IDX 7 1 6 2 11 3 33 4 5 5 12 6 15 7 2 8 3 9 13 10 16 11 1 12
REMARK SMILES IDX 4 13 14 14 31 15 17 16 18 17 30 18 32 19 19 20 29 21 28 22
REMARK SMILES IDX 21 23 20 24 25 25 22 26 23 27 26 28 27 29 8 30 9 31 10 32
REMARK SMILES IDX 24 33
REMARK H PARENT 24 34
REMARK Flexibility Score: inf
ROOT
ATOM      1  C   UNL     1      49.976  38.604  48.955  1.00  0.00     0.017 C 
ATOM      2  C   UNL     1      50.767  39.030  47.683  1.00  0.00     0.014 C 
ATOM      3  C   UNL     1      48.978  39.711  49.358  1.00  0.00     0.014 C 
ATOM      4  C   UNL     1      50.926  38.292  50.172  1.00  0.00     0.030 C 
ATOM      5  C   UNL     1      51.889  40.028  47.948  1.00  0.00     0.004 C 
ATOM      6  C   UNL     1      48.045  39.247  50.485  1.00  0.00     0.013 C 
ATOM      7  C   UNL     1      50.162  38.120  51.500  1.00  0.00    -0.063 C 
ATOM      8  C   UNL     1      52.218  39.187  50.316  1.00  0.00    -0.003 C 
ATOM      9  C   UNL     1      52.889  39.425  48.938  1.00  0.00    -0.011 C 
ATOM     10  C   UNL     1      48.777  38.754  51.785  1.00  0.00    -0.006 C 
ATOM     11  C   UNL     1      50.758  37.365  52.454  1.00  0.00    -0.027 C 
ATOM     12  C   UNL     1      52.042  40.483  51.134  1.00  0.00     0.008 C 
ATOM     13  C   UNL     1      54.169  40.273  49.008  1.00  0.00     0.008 C 
ATOM     14  C   UNL     1      49.044  40.041  52.636  1.00  0.00     0.017 C 
ATOM     15  C   UNL     1      47.875  37.683  52.583  1.00  0.00    -0.020 C 
ATOM     16  C   UNL     1      50.073  36.821  53.687  1.00  0.00     0.032 C 
ATOM     17  C   UNL     1      48.617  37.322  53.929  1.00  0.00     0.006 C 
ATOM     18  C   UNL     1      46.432  38.269  52.873  1.00  0.00     0.008 C 
ATOM     19  C   UNL     1      47.721  36.373  51.733  1.00  0.00     0.012 C 
ATOM     20  C   UNL     1      47.797  36.500  55.041  1.00  0.00    -0.025 C 
ATOM     21  C   UNL     1      45.931  38.102  54.321  1.00  0.00     0.005 C 
ATOM     22  C   UNL     1      46.253  36.681  54.816  1.00  0.00     0.003 C 
ATOM     23  C   UNL     1      48.083  34.958  55.040  1.00  0.00     0.010 C 
ATOM     24  C   UNL     1      48.267  37.076  56.417  1.00  0.00     0.012 C 
ATOM     25  C   UNL     1      45.308  36.073  55.931  1.00  0.00    -0.006 C 
ATOM     26  C   UNL     1      46.913  34.069  55.544  1.00  0.00     0.033 C 
ATOM     27  C   UNL     1      45.955  34.762  56.534  1.00  0.00     0.120 C 
ATOM     28  C   UNL     1      43.937  35.720  55.279  1.00  0.00     0.014 C 
ATOM     29  C   UNL     1      45.017  37.081  57.071  1.00  0.00     0.014 C 
ENDROOT
BRANCH   1  30
ATOM     30  C   UNL     1      49.189  37.357  48.537  1.00  0.00     0.048 C 
ATOM     31  O   UNL     1      48.154  37.475  47.828  1.00  0.00    -0.550 OA
ATOM     32  O   UNL     1      49.634  36.077  48.851  1.00  0.00    -0.550 OA
ENDBRANCH   1  30
BRANCH  27  33
ATOM     33  O   UNL     1      44.975  33.828  56.921  1.00  0.00    -0.393 OA
ATOM     34  H   UNL     1      44.094  34.277  56.835  1.00  0.00     0.210 HD
ENDBRANCH  27  33
TORSDOF 2
ENDMDL
MODEL 8
REMARK VINA RESULT:    -6.135      2.024      3.514
REMARK INTER + INTRA:          -6.688
REMARK INTER:                  -6.574
REMARK INTRA:                  -0.114
REMARK UNBOUND:                -0.015
REMARK SMILES C[C@@H]1[C@H](C)CC[C@]2(C(=O)[O-])CC[C@]3(C)C(=CC[C@@H]4[C@]5(C)CC[C@H](O)C(C)(C)[C@H]5CC[C@]43C)[C@H]12
REMARK SMILES IDX 7 1 6 2 11 3 33 4 5 5 12 6 15 7 2 8 3 9 13 10 16 11 1 12
REMARK SMILES IDX 4 13 14 14 31 15 17 16 18 17 30 18 32 19 19 20 29 21 28 22
REMARK SMILES IDX 21 23 20 24 25 25 22 26 23 27 26 28 27 29 8 30 9 31 10 32
REMARK SMILES IDX 24 33
REMARK H PARENT 24 34
REMARK Flexibility Score: inf
ROOT
ATOM      1  C   UNL     1      52.898  40.280  47.590  1.00  0.00     0.017 C 
ATOM      2  C   UNL     1      53.540  39.491  46.412  1.00  0.00     0.014 C 
ATOM      3  C   UNL     1      51.748  41.172  47.071  1.00  0.00     0.014 C 
ATOM      4  C   UNL     1      53.946  41.175  48.352  1.00  0.00     0.030 C 
ATOM      5  C   UNL     1      54.490  40.315  45.550  1.00  0.00     0.004 C 
ATOM      6  C   UNL     1      50.964  41.811  48.225  1.00  0.00     0.013 C 
ATOM      7  C   UNL     1      53.289  42.150  49.349  1.00  0.00    -0.063 C 
ATOM      8  C   UNL     1      55.074  41.851  47.480  1.00  0.00    -0.003 C 
ATOM      9  C   UNL     1      55.625  40.865  46.417  1.00  0.00    -0.011 C 
ATOM     10  C   UNL     1      51.834  42.665  49.218  1.00  0.00    -0.006 C 
ATOM     11  C   UNL     1      54.052  42.565  50.390  1.00  0.00    -0.027 C 
ATOM     12  C   UNL     1      54.724  43.234  46.895  1.00  0.00     0.008 C 
ATOM     13  C   UNL     1      56.747  41.452  45.545  1.00  0.00     0.008 C 
ATOM     14  C   UNL     1      51.922  44.094  48.584  1.00  0.00     0.017 C 
ATOM     15  C   UNL     1      51.167  42.699  50.685  1.00  0.00    -0.020 C 
ATOM     16  C   UNL     1      53.530  43.262  51.626  1.00  0.00     0.032 C 
ATOM     17  C   UNL     1      52.025  43.663  51.592  1.00  0.00     0.006 C 
ATOM     18  C   UNL     1      49.661  43.188  50.606  1.00  0.00     0.008 C 
ATOM     19  C   UNL     1      51.193  41.264  51.319  1.00  0.00     0.012 C 
ATOM     20  C   UNL     1      51.412  44.101  53.013  1.00  0.00    -0.025 C 
ATOM     21  C   UNL     1      49.269  44.280  51.620  1.00  0.00     0.005 C 
ATOM     22  C   UNL     1      49.850  43.933  53.001  1.00  0.00     0.003 C 
ATOM     23  C   UNL     1      51.954  43.271  54.228  1.00  0.00     0.010 C 
ATOM     24  C   UNL     1      51.846  45.589  53.215  1.00  0.00     0.012 C 
ATOM     25  C   UNL     1      49.078  44.483  54.269  1.00  0.00    -0.006 C 
ATOM     26  C   UNL     1      50.977  43.145  55.430  1.00  0.00     0.033 C 
ATOM     27  C   UNL     1      49.967  44.302  55.566  1.00  0.00     0.120 C 
ATOM     28  C   UNL     1      47.756  43.675  54.433  1.00  0.00     0.014 C 
ATOM     29  C   UNL     1      48.679  45.972  54.116  1.00  0.00     0.014 C 
ENDROOT
BRANCH   1  30
ATOM     30  C   UNL     1      52.312  39.208  48.516  1.00  0.00     0.048 C 
ATOM     31  O   UNL     1      51.250  38.610  48.194  1.00  0.00    -0.550 OA
ATOM     32  O   UNL     1      52.969  38.811  49.676  1.00  0.00    -0.550 OA
ENDBRANCH   1  30
BRANCH  27  33
ATOM     33  O   UNL     1      49.179  44.064  56.708  1.00  0.00    -0.393 OA
ATOM     34  H   UNL     1      49.801  43.944  57.471  1.00  0.00     0.210 HD
ENDBRANCH  27  33
TORSDOF 2
ENDMDL
MODEL 9
REMARK VINA RESULT:    -6.052      4.970      8.454
REMARK INTER + INTRA:          -6.598
REMARK INTER:                  -6.484
REMARK INTRA:                  -0.114
REMARK UNBOUND:                -0.015
REMARK SMILES C[C@@H]1[C@H](C)CC[C@]2(C(=O)[O-])CC[C@]3(C)C(=CC[C@@H]4[C@]5(C)CC[C@H](O)C(C)(C)[C@H]5CC[C@]43C)[C@H]12
REMARK SMILES IDX 7 1 6 2 11 3 33 4 5 5 12 6 15 7 2 8 3 9 13 10 16 11 1 12
REMARK SMILES IDX 4 13 14 14 31 15 17 16 18 17 30 18 32 19 19 20 29 21 28 22
REMARK SMILES IDX 21 23 20 24 25 25 22 26 23 27 26 28 27 29 8 30 9 31 10 32
REMARK SMILES IDX 24 33
REMARK H PARENT 24 34
REMARK Flexibility Score: inf
ROOT
ATOM      1  C   UNL     1      49.920  34.319  49.017  1.00  0.00     0.017 C 
ATOM      2  C   UNL     1      49.080  33.060  49.382  1.00  0.00     0.014 C 
ATOM      3  C   UNL     1      50.016  35.268  50.232  1.00  0.00     0.014 C 
ATOM      4  C   UNL     1      49.318  35.104  47.791  1.00  0.00     0.030 C 
ATOM      5  C   UNL     1      47.573  33.294  49.393  1.00  0.00     0.004 C 
ATOM      6  C   UNL     1      50.997  36.419  49.974  1.00  0.00     0.013 C 
ATOM      7  C   UNL     1      49.981  36.479  47.577  1.00  0.00    -0.063 C 
ATOM      8  C   UNL     1      47.745  35.153  47.679  1.00  0.00    -0.003 C 
ATOM      9  C   UNL     1      47.118  33.774  48.013  1.00  0.00    -0.011 C 
ATOM     10  C   UNL     1      50.675  37.286  48.703  1.00  0.00    -0.006 C 
ATOM     11  C   UNL     1      49.938  36.988  46.322  1.00  0.00    -0.027 C 
ATOM     12  C   UNL     1      47.061  36.322  48.417  1.00  0.00     0.008 C 
ATOM     13  C   UNL     1      45.585  33.744  47.901  1.00  0.00     0.008 C 
ATOM     14  C   UNL     1      49.646  38.367  49.176  1.00  0.00     0.017 C 
ATOM     15  C   UNL     1      52.015  37.953  48.106  1.00  0.00    -0.020 C 
ATOM     16  C   UNL     1      50.769  38.150  45.826  1.00  0.00     0.032 C 
ATOM     17  C   UNL     1      51.603  38.897  46.910  1.00  0.00     0.006 C 
ATOM     18  C   UNL     1      52.785  38.765  49.228  1.00  0.00     0.008 C 
ATOM     19  C   UNL     1      52.969  36.837  47.554  1.00  0.00     0.012 C 
ATOM     20  C   UNL     1      52.715  39.903  46.331  1.00  0.00    -0.025 C 
ATOM     21  C   UNL     1      53.232  40.184  48.825  1.00  0.00     0.005 C 
ATOM     22  C   UNL     1      53.831  40.152  47.408  1.00  0.00     0.003 C 
ATOM     23  C   UNL     1      53.434  39.389  45.035  1.00  0.00     0.010 C 
ATOM     24  C   UNL     1      51.943  41.213  45.965  1.00  0.00     0.012 C 
ATOM     25  C   UNL     1      54.910  41.255  47.054  1.00  0.00    -0.006 C 
ATOM     26  C   UNL     1      54.885  39.907  44.835  1.00  0.00     0.033 C 
ATOM     27  C   UNL     1      55.182  41.268  45.496  1.00  0.00     0.120 C 
ATOM     28  C   UNL     1      56.232  40.912  47.806  1.00  0.00     0.014 C 
ATOM     29  C   UNL     1      54.483  42.669  47.520  1.00  0.00     0.014 C 
ENDROOT
BRANCH   1  30
ATOM     30  C   UNL     1      51.320  33.785  48.696  1.00  0.00     0.048 C 
ATOM     31  O   UNL     1      52.086  33.425  49.630  1.00  0.00    -0.550 OA
ATOM     32  O   UNL     1      51.746  33.606  47.384  1.00  0.00    -0.550 OA
ENDBRANCH   1  30
BRANCH  27  33
ATOM     33  O   UNL     1      56.514  41.616  45.202  1.00  0.00    -0.393 OA
ATOM     34  H   UNL     1      56.922  41.947  46.044  1.00  0.00     0.210 HD
ENDBRANCH  27  33
TORSDOF 2
ENDMDL
