MODEL 1
REMARK VINA RESULT:    -3.689      0.000      0.000
REMARK INTER + INTRA:          -5.740
REMARK INTER:                  -4.983
REMARK INTRA:                  -0.756
REMARK UNBOUND:                -0.756
REMARK SMILES C[C@H](O)[C@H](O)[C@H](O)[C@@H](O)C=O
REMARK SMILES IDX 4 1 2 2 1 3 3 4 6 6 8 7 10 8 11 9 9 10 7 12 5 14
REMARK H PARENT 3 5 9 11 7 13 5 15
REMARK Flexibility Score: inf
ROOT
ATOM      1  C   UNL     1      24.542  -5.878 -28.510  1.00  0.00     0.174 C 
ENDROOT
BRANCH   1   2
ATOM      2  C   UNL     1      24.369  -7.423 -28.404  1.00  0.00     0.142 C 
ATOM      3  C   UNL     1      24.963  -8.066 -27.141  1.00  0.00     0.041 C 
BRANCH   2   4
ATOM      4  O   UNL     1      24.874  -8.052 -29.556  1.00  0.00    -0.391 OA
ATOM      5  H   UNL     1      24.875  -9.031 -29.389  1.00  0.00     0.211 HD
ENDBRANCH   2   4
ENDBRANCH   1   2
BRANCH   1   6
ATOM      6  C   UNL     1      23.916  -5.242 -29.792  1.00  0.00     0.181 C 
BRANCH   6   7
ATOM      7  C   UNL     1      24.953  -4.841 -30.871  1.00  0.00     0.209 C 
BRANCH   7   8
ATOM      8  C   UNL     1      24.482  -5.254 -32.241  1.00  0.00     0.258 C 
ATOM      9  O   UNL     1      23.679  -4.572 -32.857  1.00  0.00    -0.300 OA
ENDBRANCH   7   8
BRANCH   7  10
ATOM     10  O   UNL     1      26.191  -5.447 -30.599  1.00  0.00    -0.383 OA
ATOM     11  H   UNL     1      26.864  -4.999 -31.178  1.00  0.00     0.211 HD
ENDBRANCH   7  10
ENDBRANCH   6   7
BRANCH   6  12
ATOM     12  O   UNL     1      22.999  -6.144 -30.362  1.00  0.00    -0.387 OA
ATOM     13  H   UNL     1      22.094  -5.875 -30.051  1.00  0.00     0.211 HD
ENDBRANCH   6  12
ENDBRANCH   1   6
BRANCH   1  14
ATOM     14  O   UNL     1      24.160  -5.203 -27.335  1.00  0.00    -0.388 OA
ATOM     15  H   UNL     1      23.493  -5.760 -26.859  1.00  0.00     0.211 HD
ENDBRANCH   1  14
TORSDOF 8
ENDMDL
MODEL 2
REMARK VINA RESULT:    -3.508      1.668      2.506
REMARK INTER + INTRA:          -5.495
REMARK INTER:                  -4.799
REMARK INTRA:                  -0.696
REMARK UNBOUND:                -0.756
REMARK SMILES C[C@H](O)[C@H](O)[C@H](O)[C@@H](O)C=O
REMARK SMILES IDX 4 1 2 2 1 3 3 4 6 6 8 7 10 8 11 9 9 10 7 12 5 14
REMARK H PARENT 3 5 9 11 7 13 5 15
REMARK Flexibility Score: inf
ROOT
ATOM      1  C   UNL     1      25.492  -7.096 -29.241  1.00  0.00     0.174 C 
ENDROOT
BRANCH   1   2
ATOM      2  C   UNL     1      26.938  -7.615 -28.979  1.00  0.00     0.142 C 
ATOM      3  C   UNL     1      27.206  -8.124 -27.553  1.00  0.00     0.041 C 
BRANCH   2   4
ATOM      4  O   UNL     1      27.882  -6.636 -29.333  1.00  0.00    -0.391 OA
ATOM      5  H   UNL     1      27.414  -5.759 -29.352  1.00  0.00     0.211 HD
ENDBRANCH   2   4
ENDBRANCH   1   2
BRANCH   1   6
ATOM      6  C   UNL     1      25.408  -5.872 -30.208  1.00  0.00     0.181 C 
BRANCH   6   7
ATOM      7  C   UNL     1      24.111  -5.820 -31.053  1.00  0.00     0.209 C 
BRANCH   7   8
ATOM      8  C   UNL     1      24.023  -4.522 -31.812  1.00  0.00     0.258 C 
ATOM      9  O   UNL     1      23.644  -3.501 -31.260  1.00  0.00    -0.300 OA
ENDBRANCH   7   8
BRANCH   7  10
ATOM     10  O   UNL     1      22.987  -5.953 -30.220  1.00  0.00    -0.383 OA
ATOM     11  H   UNL     1      23.319  -6.258 -29.334  1.00  0.00     0.211 HD
ENDBRANCH   7  10
ENDBRANCH   6   7
BRANCH   6  12
ATOM     12  O   UNL     1      25.511  -4.682 -29.465  1.00  0.00    -0.387 OA
ATOM     13  H   UNL     1      26.269  -4.164 -29.846  1.00  0.00     0.211 HD
ENDBRANCH   6  12
ENDBRANCH   1   6
BRANCH   1  14
ATOM     14  O   UNL     1      24.598  -8.124 -29.595  1.00  0.00    -0.388 OA
ATOM     15  H   UNL     1      24.418  -8.058 -30.567  1.00  0.00     0.211 HD
ENDBRANCH   1  14
TORSDOF 8
ENDMDL
MODEL 3
REMARK VINA RESULT:    -3.481      1.427      4.171
REMARK INTER + INTRA:          -5.458
REMARK INTER:                  -4.917
REMARK INTRA:                  -0.541
REMARK UNBOUND:                -0.756
REMARK SMILES C[C@H](O)[C@H](O)[C@H](O)[C@@H](O)C=O
REMARK SMILES IDX 4 1 2 2 1 3 3 4 6 6 8 7 10 8 11 9 9 10 7 12 5 14
REMARK H PARENT 3 5 9 11 7 13 5 15
REMARK Flexibility Score: inf
ROOT
ATOM      1  C   UNL     1      23.767  -5.685 -30.728  1.00  0.00     0.174 C 
ENDROOT
BRANCH   1   2
ATOM      2  C   UNL     1      24.310  -5.295 -32.135  1.00  0.00     0.142 C 
ATOM      3  C   UNL     1      25.708  -4.655 -32.147  1.00  0.00     0.041 C 
BRANCH   2   4
ATOM      4  O   UNL     1      23.389  -4.469 -32.804  1.00  0.00    -0.391 OA
ATOM      5  H   UNL     1      23.106  -3.759 -32.170  1.00  0.00     0.211 HD
ENDBRANCH   2   4
ENDBRANCH   1   2
BRANCH   1   6
ATOM      6  C   UNL     1      24.815  -6.372 -29.796  1.00  0.00     0.181 C 
BRANCH   6   7
ATOM      7  C   UNL     1      24.760  -5.897 -28.323  1.00  0.00     0.209 C 
BRANCH   7   8
ATOM      8  C   UNL     1      25.923  -6.451 -27.542  1.00  0.00     0.258 C 
ATOM      9  O   UNL     1      26.819  -7.061 -28.104  1.00  0.00    -0.300 OA
ENDBRANCH   7   8
BRANCH   7  10
ATOM     10  O   UNL     1      23.557  -6.311 -27.727  1.00  0.00    -0.383 OA
ATOM     11  H   UNL     1      23.264  -5.574 -27.126  1.00  0.00     0.211 HD
ENDBRANCH   7  10
ENDBRANCH   6   7
BRANCH   6  12
ATOM     12  O   UNL     1      24.628  -7.765 -29.828  1.00  0.00    -0.387 OA
ATOM     13  H   UNL     1      23.765  -7.934 -30.291  1.00  0.00     0.211 HD
ENDBRANCH   6  12
ENDBRANCH   1   6
BRANCH   1  14
ATOM     14  O   UNL     1      23.092  -4.628 -30.090  1.00  0.00    -0.388 OA
ATOM     15  H   UNL     1      23.516  -3.776 -30.365  1.00  0.00     0.211 HD
ENDBRANCH   1  14
TORSDOF 8
ENDMDL
MODEL 4
REMARK VINA RESULT:    -3.463      1.409      4.016
REMARK INTER + INTRA:          -5.435
REMARK INTER:                  -4.519
REMARK INTRA:                  -0.916
REMARK UNBOUND:                -0.756
REMARK SMILES C[C@H](O)[C@H](O)[C@H](O)[C@@H](O)C=O
REMARK SMILES IDX 4 1 2 2 1 3 3 4 6 6 8 7 10 8 11 9 9 10 7 12 5 14
REMARK H PARENT 3 5 9 11 7 13 5 15
REMARK Flexibility Score: inf
ROOT
ATOM      1  C   UNL     1      25.450  -5.743 -30.105  1.00  0.00     0.174 C 
ENDROOT
BRANCH   1   2
ATOM      2  C   UNL     1      24.212  -5.931 -31.033  1.00  0.00     0.142 C 
ATOM      3  C   UNL     1      24.029  -4.852 -32.112  1.00  0.00     0.041 C 
BRANCH   2   4
ATOM      4  O   UNL     1      23.041  -6.061 -30.266  1.00  0.00    -0.391 OA
ATOM      5  H   UNL     1      23.301  -6.016 -29.308  1.00  0.00     0.211 HD
ENDBRANCH   2   4
ENDBRANCH   1   2
BRANCH   1   6
ATOM      6  C   UNL     1      25.889  -7.032 -29.340  1.00  0.00     0.181 C 
BRANCH   6   7
ATOM      7  C   UNL     1      26.056  -6.837 -27.813  1.00  0.00     0.209 C 
BRANCH   7   8
ATOM      8  C   UNL     1      24.768  -7.143 -27.094  1.00  0.00     0.258 C 
ATOM      9  O   UNL     1      23.754  -6.507 -27.333  1.00  0.00    -0.300 OA
ENDBRANCH   7   8
BRANCH   7  10
ATOM     10  O   UNL     1      26.445  -5.516 -27.535  1.00  0.00    -0.383 OA
ATOM     11  H   UNL     1      26.282  -5.365 -26.565  1.00  0.00     0.211 HD
ENDBRANCH   7  10
ENDBRANCH   6   7
BRANCH   6  12
ATOM     12  O   UNL     1      24.948  -8.053 -29.564  1.00  0.00    -0.387 OA
ATOM     13  H   UNL     1      25.063  -8.355 -30.504  1.00  0.00     0.211 HD
ENDBRANCH   6  12
ENDBRANCH   1   6
BRANCH   1  14
ATOM     14  O   UNL     1      26.527  -5.108 -30.752  1.00  0.00    -0.388 OA
ATOM     15  H   UNL     1      26.170  -4.594 -31.519  1.00  0.00     0.211 HD
ENDBRANCH   1  14
TORSDOF 8
ENDMDL
MODEL 5
REMARK VINA RESULT:    -3.458      1.493      2.432
REMARK INTER + INTRA:          -5.427
REMARK INTER:                  -4.874
REMARK INTRA:                  -0.553
REMARK UNBOUND:                -0.756
REMARK SMILES C[C@H](O)[C@H](O)[C@H](O)[C@@H](O)C=O
REMARK SMILES IDX 4 1 2 2 1 3 3 4 6 6 8 7 10 8 11 9 9 10 7 12 5 14
REMARK H PARENT 3 5 9 11 7 13 5 15
REMARK Flexibility Score: inf
ROOT
ATOM      1  C   UNL     1      24.279  -5.754 -29.909  1.00  0.00     0.174 C 
ENDROOT
BRANCH   1   2
ATOM      2  C   UNL     1      25.057  -6.845 -29.115  1.00  0.00     0.142 C 
ATOM      3  C   UNL     1      26.580  -6.647 -29.044  1.00  0.00     0.041 C 
BRANCH   2   4
ATOM      4  O   UNL     1      24.753  -8.124 -29.614  1.00  0.00    -0.391 OA
ATOM      5  H   UNL     1      25.266  -8.786 -29.079  1.00  0.00     0.211 HD
ENDBRANCH   2   4
ENDBRANCH   1   2
BRANCH   1   6
ATOM      6  C   UNL     1      25.107  -5.057 -31.034  1.00  0.00     0.181 C 
BRANCH   6   7
ATOM      7  C   UNL     1      24.484  -5.177 -32.447  1.00  0.00     0.209 C 
BRANCH   7   8
ATOM      8  C   UNL     1      25.477  -4.768 -33.503  1.00  0.00     0.258 C 
ATOM      9  O   UNL     1      26.658  -4.625 -33.227  1.00  0.00    -0.300 OA
ENDBRANCH   7   8
BRANCH   7  10
ATOM     10  O   UNL     1      23.341  -4.366 -32.541  1.00  0.00    -0.383 OA
ATOM     11  H   UNL     1      22.959  -4.297 -31.625  1.00  0.00     0.211 HD
ENDBRANCH   7  10
ENDBRANCH   6   7
BRANCH   6  12
ATOM     12  O   UNL     1      25.263  -3.693 -30.724  1.00  0.00    -0.387 OA
ATOM     13  H   UNL     1      24.479  -3.215 -31.106  1.00  0.00     0.211 HD
ENDBRANCH   6  12
ENDBRANCH   1   6
BRANCH   1  14
ATOM     14  O   UNL     1      23.023  -6.199 -30.363  1.00  0.00    -0.388 OA
ATOM     15  H   UNL     1      23.099  -7.158 -30.598  1.00  0.00     0.211 HD
ENDBRANCH   1  14
TORSDOF 8
ENDMDL
MODEL 6
REMARK VINA RESULT:    -3.456      1.568      2.551
REMARK INTER + INTRA:          -5.425
REMARK INTER:                  -4.894
REMARK INTRA:                  -0.530
REMARK UNBOUND:                -0.756
REMARK SMILES C[C@H](O)[C@H](O)[C@H](O)[C@@H](O)C=O
REMARK SMILES IDX 4 1 2 2 1 3 3 4 6 6 8 7 10 8 11 9 9 10 7 12 5 14
REMARK H PARENT 3 5 9 11 7 13 5 15
REMARK Flexibility Score: inf
ROOT
ATOM      1  C   UNL     1      23.676  -5.871 -30.035  1.00  0.00     0.174 C 
ENDROOT
BRANCH   1   2
ATOM      2  C   UNL     1      24.323  -6.294 -28.682  1.00  0.00     0.142 C 
ATOM      3  C   UNL     1      24.762  -7.765 -28.594  1.00  0.00     0.041 C 
BRANCH   2   4
ATOM      4  O   UNL     1      23.472  -5.973 -27.610  1.00  0.00    -0.391 OA
ATOM      5  H   UNL     1      24.027  -5.559 -26.898  1.00  0.00     0.211 HD
ENDBRANCH   2   4
ENDBRANCH   1   2
BRANCH   1   6
ATOM      6  C   UNL     1      23.977  -4.401 -30.466  1.00  0.00     0.181 C 
BRANCH   6   7
ATOM      7  C   UNL     1      24.404  -4.249 -31.947  1.00  0.00     0.209 C 
BRANCH   7   8
ATOM      8  C   UNL     1      25.046  -2.906 -32.180  1.00  0.00     0.258 C 
ATOM      9  O   UNL     1      24.434  -1.874 -31.956  1.00  0.00    -0.300 OA
ENDBRANCH   7   8
BRANCH   7  10
ATOM     10  O   UNL     1      23.286  -4.386 -32.787  1.00  0.00    -0.383 OA
ATOM     11  H   UNL     1      22.801  -3.519 -32.766  1.00  0.00     0.211 HD
ENDBRANCH   7  10
ENDBRANCH   6   7
BRANCH   6  12
ATOM     12  O   UNL     1      22.839  -3.605 -30.240  1.00  0.00    -0.387 OA
ATOM     13  H   UNL     1      22.101  -4.218 -29.979  1.00  0.00     0.211 HD
ENDBRANCH   6  12
ENDBRANCH   1   6
BRANCH   1  14
ATOM     14  O   UNL     1      23.919  -6.795 -31.069  1.00  0.00    -0.388 OA
ATOM     15  H   UNL     1      23.945  -7.703 -30.676  1.00  0.00     0.211 HD
ENDBRANCH   1  14
TORSDOF 8
ENDMDL
MODEL 7
REMARK VINA RESULT:    -3.431     13.781     15.461
REMARK INTER + INTRA:          -5.390
REMARK INTER:                  -4.936
REMARK INTRA:                  -0.454
REMARK UNBOUND:                -0.756
REMARK SMILES C[C@H](O)[C@H](O)[C@H](O)[C@@H](O)C=O
REMARK SMILES IDX 4 1 2 2 1 3 3 4 6 6 8 7 10 8 11 9 9 10 7 12 5 14
REMARK H PARENT 3 5 9 11 7 13 5 15
REMARK Flexibility Score: inf
ROOT
ATOM      1  C   UNL     1      35.424   5.178 -33.117  1.00  0.00     0.174 C 
ENDROOT
BRANCH   1   2
ATOM      2  C   UNL     1      35.744   6.171 -31.961  1.00  0.00     0.142 C 
ATOM      3  C   UNL     1      35.630   5.589 -30.543  1.00  0.00     0.041 C 
BRANCH   2   4
ATOM      4  O   UNL     1      34.957   7.330 -32.078  1.00  0.00    -0.391 OA
ATOM      5  H   UNL     1      34.641   7.386 -33.018  1.00  0.00     0.211 HD
ENDBRANCH   2   4
ENDBRANCH   1   2
BRANCH   1   6
ATOM      6  C   UNL     1      34.205   4.240 -32.847  1.00  0.00     0.181 C 
BRANCH   6   7
ATOM      7  C   UNL     1      32.827   4.921 -33.037  1.00  0.00     0.209 C 
BRANCH   7   8
ATOM      8  C   UNL     1      32.171   5.174 -31.704  1.00  0.00     0.258 C 
ATOM      9  O   UNL     1      32.222   6.277 -31.183  1.00  0.00    -0.300 OA
ENDBRANCH   7   8
BRANCH   7  10
ATOM     10  O   UNL     1      31.991   4.111 -33.823  1.00  0.00    -0.383 OA
ATOM     11  H   UNL     1      31.078   4.500 -33.771  1.00  0.00     0.211 HD
ENDBRANCH   7  10
ENDBRANCH   6   7
BRANCH   6  12
ATOM     12  O   UNL     1      34.276   3.123 -33.700  1.00  0.00    -0.387 OA
ATOM     13  H   UNL     1      33.793   2.381 -33.250  1.00  0.00     0.211 HD
ENDBRANCH   6  12
ENDBRANCH   1   6
BRANCH   1  14
ATOM     14  O   UNL     1      35.350   5.808 -34.374  1.00  0.00    -0.388 OA
ATOM     15  H   UNL     1      35.096   6.755 -34.233  1.00  0.00     0.211 HD
ENDBRANCH   1  14
TORSDOF 8
ENDMDL
MODEL 8
REMARK VINA RESULT:    -3.383      1.730      2.738
REMARK INTER + INTRA:          -5.325
REMARK INTER:                  -4.427
REMARK INTRA:                  -0.898
REMARK UNBOUND:                -0.756
REMARK SMILES C[C@H](O)[C@H](O)[C@H](O)[C@@H](O)C=O
REMARK SMILES IDX 4 1 2 2 1 3 3 4 6 6 8 7 10 8 11 9 9 10 7 12 5 14
REMARK H PARENT 3 5 9 11 7 13 5 15
REMARK Flexibility Score: inf
ROOT
ATOM      1  C   UNL     1      24.183  -5.785 -30.094  1.00  0.00     0.174 C 
ENDROOT
BRANCH   1   2
ATOM      2  C   UNL     1      25.484  -6.546 -29.698  1.00  0.00     0.142 C 
ATOM      3  C   UNL     1      25.285  -7.743 -28.754  1.00  0.00     0.041 C 
BRANCH   2   4
ATOM      4  O   UNL     1      26.430  -5.653 -29.162  1.00  0.00    -0.391 OA
ATOM      5  H   UNL     1      26.646  -4.986 -29.866  1.00  0.00     0.211 HD
ENDBRANCH   2   4
ENDBRANCH   1   2
BRANCH   1   6
ATOM      6  C   UNL     1      24.258  -5.046 -31.468  1.00  0.00     0.181 C 
BRANCH   6   7
ATOM      7  C   UNL     1      23.787  -3.571 -31.420  1.00  0.00     0.209 C 
BRANCH   7   8
ATOM      8  C   UNL     1      24.942  -2.653 -31.118  1.00  0.00     0.258 C 
ATOM      9  O   UNL     1      25.617  -2.809 -30.112  1.00  0.00    -0.300 OA
ENDBRANCH   7   8
BRANCH   7  10
ATOM     10  O   UNL     1      22.794  -3.413 -30.439  1.00  0.00    -0.383 OA
ATOM     11  H   UNL     1      22.767  -2.446 -30.209  1.00  0.00     0.211 HD
ENDBRANCH   7  10
ENDBRANCH   6   7
BRANCH   6  12
ATOM     12  O   UNL     1      25.580  -5.082 -31.947  1.00  0.00    -0.387 OA
ATOM     13  H   UNL     1      25.539  -5.385 -32.893  1.00  0.00     0.211 HD
ENDBRANCH   6  12
ENDBRANCH   1   6
BRANCH   1  14
ATOM     14  O   UNL     1      23.027  -6.579 -29.973  1.00  0.00    -0.388 OA
ATOM     15  H   UNL     1      23.069  -7.296 -30.654  1.00  0.00     0.211 HD
ENDBRANCH   1  14
TORSDOF 8
ENDMDL
MODEL 9
REMARK VINA RESULT:    -3.305      1.634      2.931
REMARK INTER + INTRA:          -5.220
REMARK INTER:                  -4.737
REMARK INTRA:                  -0.484
REMARK UNBOUND:                -0.756
REMARK SMILES C[C@H](O)[C@H](O)[C@H](O)[C@@H](O)C=O
REMARK SMILES IDX 4 1 2 2 1 3 3 4 6 6 8 7 10 8 11 9 9 10 7 12 5 14
REMARK H PARENT 3 5 9 11 7 13 5 15
REMARK Flexibility Score: inf
ROOT
ATOM      1  C   UNL     1      24.116  -6.403 -29.162  1.00  0.00     0.174 C 
ENDROOT
BRANCH   1   2
ATOM      2  C   UNL     1      24.828  -7.742 -28.803  1.00  0.00     0.142 C 
ATOM      3  C   UNL     1      24.989  -8.018 -27.299  1.00  0.00     0.041 C 
BRANCH   2   4
ATOM      4  O   UNL     1      26.073  -7.824 -29.451  1.00  0.00    -0.391 OA
ATOM      5  H   UNL     1      26.397  -6.896 -29.598  1.00  0.00     0.211 HD
ENDBRANCH   2   4
ENDBRANCH   1   2
BRANCH   1   6
ATOM      6  C   UNL     1      25.079  -5.254 -29.602  1.00  0.00     0.181 C 
BRANCH   6   7
ATOM      7  C   UNL     1      24.406  -3.862 -29.689  1.00  0.00     0.209 C 
BRANCH   7   8
ATOM      8  C   UNL     1      24.590  -3.100 -28.403  1.00  0.00     0.258 C 
ATOM      9  O   UNL     1      24.109  -3.512 -27.359  1.00  0.00    -0.300 OA
ENDBRANCH   7   8
BRANCH   7  10
ATOM     10  O   UNL     1      23.034  -4.005 -29.956  1.00  0.00    -0.383 OA
ATOM     11  H   UNL     1      22.630  -3.099 -29.884  1.00  0.00     0.211 HD
ENDBRANCH   7  10
ENDBRANCH   6   7
BRANCH   6  12
ATOM     12  O   UNL     1      26.157  -5.178 -28.702  1.00  0.00    -0.387 OA
ATOM     13  H   UNL     1      26.731  -4.422 -28.997  1.00  0.00     0.211 HD
ENDBRANCH   6  12
ENDBRANCH   1   6
BRANCH   1  14
ATOM     14  O   UNL     1      23.043  -6.577 -30.057  1.00  0.00    -0.388 OA
ATOM     15  H   UNL     1      23.378  -6.430 -30.977  1.00  0.00     0.211 HD
ENDBRANCH   1  14
TORSDOF 8
ENDMDL
