MODEL 1
REMARK VINA RESULT:    -6.643      0.000      0.000
REMARK INTER + INTRA:          -8.680
REMARK INTER:                  -8.197
REMARK INTRA:                  -0.483
REMARK UNBOUND:                -0.483
REMARK SMILES CC(C)=CCC[C@@H](C)c1ccc(C)cc1
REMARK SMILES IDX 6 1 7 2 8 3 9 4 13 5 12 6 11 7 14 8 10 9 15 10 5 11 4 12
REMARK SMILES IDX 2 13 1 14 3 15
REMARK H PARENT
REMARK Flexibility Score: inf
ROOT
ATOM      1  C   UNL     1       7.612   6.002  -4.839  1.00  0.00     0.012 C 
ENDROOT
BRANCH   1   2
ATOM      2  C   UNL     1       8.693   6.695  -5.699  1.00  0.00     0.016 C 
ATOM      3  C   UNL     1      10.043   6.791  -4.970  1.00  0.00     0.013 C 
BRANCH   2   4
ATOM      4  C   UNL     1       8.862   5.971  -7.022  1.00  0.00    -0.045 A 
ATOM      5  C   UNL     1       9.315   3.884 -10.778  1.00  0.00     0.044 C 
ATOM      6  C   UNL     1       9.187   4.603  -9.468  1.00  0.00    -0.051 A 
ATOM      7  C   UNL     1       8.804   3.906  -8.313  1.00  0.00     0.004 A 
ATOM      8  C   UNL     1       9.383   5.990  -9.401  1.00  0.00     0.004 A 
ATOM      9  C   UNL     1       8.649   4.582  -7.099  1.00  0.00     0.004 A 
ATOM     10  C   UNL     1       9.228   6.668  -8.189  1.00  0.00     0.004 A 
ENDBRANCH   2   4
ENDBRANCH   1   2
BRANCH   1  11
ATOM     11  C   UNL     1       7.710   6.374  -3.352  1.00  0.00     0.028 C 
BRANCH  11  12
ATOM     12  C   UNL     1       7.175   5.259  -2.488  1.00  0.00    -0.028 C 
ATOM     13  C   UNL     1       6.622   5.434  -1.268  1.00  0.00    -0.080 C 
ATOM     14  C   UNL     1       6.435   6.806  -0.664  1.00  0.00     0.039 C 
ATOM     15  C   UNL     1       6.166   4.217  -0.504  1.00  0.00     0.039 C 
ENDBRANCH  11  12
ENDBRANCH   1  11
TORSDOF 4
ENDMDL
MODEL 2
REMARK VINA RESULT:    -6.609      0.825      1.784
REMARK INTER + INTRA:          -8.637
REMARK INTER:                  -8.107
REMARK INTRA:                  -0.530
REMARK UNBOUND:                -0.483
REMARK SMILES CC(C)=CCC[C@@H](C)c1ccc(C)cc1
REMARK SMILES IDX 6 1 7 2 8 3 9 4 13 5 12 6 11 7 14 8 10 9 15 10 5 11 4 12
REMARK SMILES IDX 2 13 1 14 3 15
REMARK H PARENT
REMARK Flexibility Score: inf
ROOT
ATOM      1  C   UNL     1       8.956   6.356  -4.689  1.00  0.00     0.012 C 
ENDROOT
BRANCH   1   2
ATOM      2  C   UNL     1       9.241   7.093  -6.017  1.00  0.00     0.016 C 
ATOM      3  C   UNL     1      10.598   7.817  -6.001  1.00  0.00     0.013 C 
BRANCH   2   4
ATOM      4  C   UNL     1       9.178   6.125  -7.184  1.00  0.00    -0.045 A 
ATOM      5  C   UNL     1       9.025   3.391 -10.526  1.00  0.00     0.044 C 
ATOM      6  C   UNL     1       9.048   4.346  -9.370  1.00  0.00    -0.051 A 
ATOM      7  C   UNL     1       9.362   5.697  -9.575  1.00  0.00     0.004 A 
ATOM      8  C   UNL     1       8.824   3.882  -8.066  1.00  0.00     0.004 A 
ATOM      9  C   UNL     1       9.420   6.581  -8.493  1.00  0.00     0.004 A 
ATOM     10  C   UNL     1       8.883   4.763  -6.983  1.00  0.00     0.004 A 
ENDBRANCH   2   4
ENDBRANCH   1   2
BRANCH   1  11
ATOM     11  C   UNL     1       7.487   6.468  -4.254  1.00  0.00     0.028 C 
BRANCH  11  12
ATOM     12  C   UNL     1       7.341   6.148  -2.787  1.00  0.00    -0.028 C 
ATOM     13  C   UNL     1       6.799   5.009  -2.303  1.00  0.00    -0.080 C 
ATOM     14  C   UNL     1       6.326   3.898  -3.210  1.00  0.00     0.039 C 
ATOM     15  C   UNL     1       6.685   4.846  -0.808  1.00  0.00     0.039 C 
ENDBRANCH  11  12
ENDBRANCH   1  11
TORSDOF 4
ENDMDL
MODEL 3
REMARK VINA RESULT:    -6.372      1.029      6.884
REMARK INTER + INTRA:          -8.345
REMARK INTER:                  -7.813
REMARK INTRA:                  -0.532
REMARK UNBOUND:                -0.483
REMARK SMILES CC(C)=CCC[C@@H](C)c1ccc(C)cc1
REMARK SMILES IDX 6 1 7 2 8 3 9 4 13 5 12 6 11 7 14 8 10 9 15 10 5 11 4 12
REMARK SMILES IDX 2 13 1 14 3 15
REMARK H PARENT
REMARK Flexibility Score: inf
ROOT
ATOM      1  C   UNL     1       7.739   6.679  -5.011  1.00  0.00     0.012 C 
ENDROOT
BRANCH   1   2
ATOM      2  C   UNL     1       7.672   7.367  -3.629  1.00  0.00     0.016 C 
ATOM      3  C   UNL     1       6.737   8.588  -3.631  1.00  0.00     0.013 C 
BRANCH   2   4
ATOM      4  C   UNL     1       7.237   6.375  -2.565  1.00  0.00    -0.045 A 
ATOM      5  C   UNL     1       6.022   3.526   0.447  1.00  0.00     0.044 C 
ATOM      6  C   UNL     1       6.414   4.519  -0.606  1.00  0.00    -0.051 A 
ATOM      7  C   UNL     1       6.729   4.088  -1.903  1.00  0.00     0.004 A 
ATOM      8  C   UNL     1       6.536   5.878  -0.286  1.00  0.00     0.004 A 
ATOM      9  C   UNL     1       7.130   5.007  -2.876  1.00  0.00     0.004 A 
ATOM     10  C   UNL     1       6.939   6.800  -1.256  1.00  0.00     0.004 A 
ENDBRANCH   2   4
ENDBRANCH   1   2
BRANCH   1  11
ATOM     11  C   UNL     1       9.181   6.460  -5.494  1.00  0.00     0.028 C 
BRANCH  11  12
ATOM     12  C   UNL     1       9.268   6.603  -6.992  1.00  0.00    -0.028 C 
ATOM     13  C   UNL     1       9.165   5.578  -7.866  1.00  0.00    -0.080 C 
ATOM     14  C   UNL     1       8.891   4.163  -7.412  1.00  0.00     0.039 C 
ATOM     15  C   UNL     1       9.311   5.870  -9.338  1.00  0.00     0.039 C 
ENDBRANCH  11  12
ENDBRANCH   1  11
TORSDOF 4
ENDMDL
MODEL 4
REMARK VINA RESULT:    -6.371      1.022      6.948
REMARK INTER + INTRA:          -8.344
REMARK INTER:                  -7.809
REMARK INTRA:                  -0.535
REMARK UNBOUND:                -0.483
REMARK SMILES CC(C)=CCC[C@@H](C)c1ccc(C)cc1
REMARK SMILES IDX 6 1 7 2 8 3 9 4 13 5 12 6 11 7 14 8 10 9 15 10 5 11 4 12
REMARK SMILES IDX 2 13 1 14 3 15
REMARK H PARENT
REMARK Flexibility Score: inf
ROOT
ATOM      1  C   UNL     1       7.758   6.529  -4.997  1.00  0.00     0.012 C 
ENDROOT
BRANCH   1   2
ATOM      2  C   UNL     1       7.690   7.244  -3.629  1.00  0.00     0.016 C 
ATOM      3  C   UNL     1       6.740   8.454  -3.651  1.00  0.00     0.013 C 
BRANCH   2   4
ATOM      4  C   UNL     1       7.272   6.270  -2.543  1.00  0.00    -0.045 A 
ATOM      5  C   UNL     1       6.061   3.525   0.566  1.00  0.00     0.044 C 
ATOM      6  C   UNL     1       6.511   4.474  -0.505  1.00  0.00    -0.051 A 
ATOM      7  C   UNL     1       6.612   5.847  -0.237  1.00  0.00     0.004 A 
ATOM      8  C   UNL     1       6.768   4.005  -1.801  1.00  0.00     0.004 A 
ATOM      9  C   UNL     1       6.995   6.737  -1.245  1.00  0.00     0.004 A 
ATOM     10  C   UNL     1       7.151   4.893  -2.810  1.00  0.00     0.004 A 
ENDBRANCH   2   4
ENDBRANCH   1   2
BRANCH   1  11
ATOM     11  C   UNL     1       9.198   6.373  -5.512  1.00  0.00     0.028 C 
BRANCH  11  12
ATOM     12  C   UNL     1       9.245   6.519  -7.012  1.00  0.00    -0.028 C 
ATOM     13  C   UNL     1       9.130   5.493  -7.884  1.00  0.00    -0.080 C 
ATOM     14  C   UNL     1       8.884   4.075  -7.424  1.00  0.00     0.039 C 
ATOM     15  C   UNL     1       9.235   5.788  -9.359  1.00  0.00     0.039 C 
ENDBRANCH  11  12
ENDBRANCH   1  11
TORSDOF 4
ENDMDL
MODEL 5
REMARK VINA RESULT:    -5.569      1.879      2.829
REMARK INTER + INTRA:          -7.354
REMARK INTER:                  -7.179
REMARK INTRA:                  -0.176
REMARK UNBOUND:                -0.483
REMARK SMILES CC(C)=CCC[C@@H](C)c1ccc(C)cc1
REMARK SMILES IDX 6 1 7 2 8 3 9 4 13 5 12 6 11 7 14 8 10 9 15 10 5 11 4 12
REMARK SMILES IDX 2 13 1 14 3 15
REMARK H PARENT
REMARK Flexibility Score: inf
ROOT
ATOM      1  C   UNL     1       7.810   5.826  -3.227  1.00  0.00     0.012 C 
ENDROOT
BRANCH   1   2
ATOM      2  C   UNL     1       7.503   7.142  -3.975  1.00  0.00     0.016 C 
ATOM      3  C   UNL     1       7.684   8.378  -3.078  1.00  0.00     0.013 C 
BRANCH   2   4
ATOM      4  C   UNL     1       8.371   7.262  -5.214  1.00  0.00    -0.045 A 
ATOM      5  C   UNL     1      10.865   7.631  -8.723  1.00  0.00     0.044 C 
ATOM      6  C   UNL     1       9.975   7.510  -7.522  1.00  0.00    -0.051 A 
ATOM      7  C   UNL     1       9.744   8.620  -6.698  1.00  0.00     0.004 A 
ATOM      8  C   UNL     1       9.421   6.269  -7.175  1.00  0.00     0.004 A 
ATOM      9  C   UNL     1       8.944   8.500  -5.557  1.00  0.00     0.004 A 
ATOM     10  C   UNL     1       8.622   6.146  -6.036  1.00  0.00     0.004 A 
ENDBRANCH   2   4
ENDBRANCH   1   2
BRANCH   1  11
ATOM     11  C   UNL     1       6.641   4.831  -3.273  1.00  0.00     0.028 C 
BRANCH  11  12
ATOM     12  C   UNL     1       6.575   4.027  -1.998  1.00  0.00    -0.028 C 
ATOM     13  C   UNL     1       6.518   4.562  -0.759  1.00  0.00    -0.080 C 
ATOM     14  C   UNL     1       6.457   6.054  -0.533  1.00  0.00     0.039 C 
ATOM     15  C   UNL     1       6.496   3.630   0.426  1.00  0.00     0.039 C 
ENDBRANCH  11  12
ENDBRANCH   1  11
TORSDOF 4
ENDMDL
MODEL 6
REMARK VINA RESULT:    -5.545      5.160      7.313
REMARK INTER + INTRA:          -7.325
REMARK INTER:                  -6.738
REMARK INTRA:                  -0.587
REMARK UNBOUND:                -0.483
REMARK SMILES CC(C)=CCC[C@@H](C)c1ccc(C)cc1
REMARK SMILES IDX 6 1 7 2 8 3 9 4 13 5 12 6 11 7 14 8 10 9 15 10 5 11 4 12
REMARK SMILES IDX 2 13 1 14 3 15
REMARK H PARENT
REMARK Flexibility Score: inf
ROOT
ATOM      1  C   UNL     1       6.802   8.552  -0.744  1.00  0.00     0.012 C 
ENDROOT
BRANCH   1   2
ATOM      2  C   UNL     1       6.438   9.745  -1.655  1.00  0.00     0.016 C 
ATOM      3  C   UNL     1       7.270   9.764  -2.949  1.00  0.00     0.013 C 
BRANCH   2   4
ATOM      4  C   UNL     1       4.957   9.726  -1.986  1.00  0.00    -0.045 A 
ATOM      5  C   UNL     1       0.749   9.663  -2.964  1.00  0.00     0.044 C 
ATOM      6  C   UNL     1       2.207   9.714  -2.615  1.00  0.00    -0.051 A 
ATOM      7  C   UNL     1       3.153  10.085  -3.582  1.00  0.00     0.004 A 
ATOM      8  C   UNL     1       2.643   9.325  -1.340  1.00  0.00     0.004 A 
ATOM      9  C   UNL     1       4.515  10.098  -3.269  1.00  0.00     0.004 A 
ATOM     10  C   UNL     1       4.004   9.336  -1.026  1.00  0.00     0.004 A 
ENDBRANCH   2   4
ENDBRANCH   1   2
BRANCH   1  11
ATOM     11  C   UNL     1       6.722   7.202  -1.474  1.00  0.00     0.028 C 
BRANCH  11  12
ATOM     12  C   UNL     1       6.600   6.069  -0.486  1.00  0.00    -0.028 C 
ATOM     13  C   UNL     1       6.499   4.765  -0.826  1.00  0.00    -0.080 C 
ATOM     14  C   UNL     1       6.553   4.307  -2.264  1.00  0.00     0.039 C 
ATOM     15  C   UNL     1       6.344   3.746   0.274  1.00  0.00     0.039 C 
ENDBRANCH  11  12
ENDBRANCH   1  11
TORSDOF 4
ENDMDL
MODEL 7
REMARK VINA RESULT:    -5.473      2.273      6.831
REMARK INTER + INTRA:          -7.236
REMARK INTER:                  -6.414
REMARK INTRA:                  -0.821
REMARK UNBOUND:                -0.483
REMARK SMILES CC(C)=CCC[C@@H](C)c1ccc(C)cc1
REMARK SMILES IDX 6 1 7 2 8 3 9 4 13 5 12 6 11 7 14 8 10 9 15 10 5 11 4 12
REMARK SMILES IDX 2 13 1 14 3 15
REMARK H PARENT
REMARK Flexibility Score: inf
ROOT
ATOM      1  C   UNL     1       7.616   6.073  -5.068  1.00  0.00     0.012 C 
ENDROOT
BRANCH   1   2
ATOM      2  C   UNL     1       7.768   6.847  -3.740  1.00  0.00     0.016 C 
ATOM      3  C   UNL     1       6.973   8.163  -3.738  1.00  0.00     0.013 C 
BRANCH   2   4
ATOM      4  C   UNL     1       7.345   5.978  -2.569  1.00  0.00    -0.045 A 
ATOM      5  C   UNL     1       6.117   3.533   0.775  1.00  0.00     0.044 C 
ATOM      6  C   UNL     1       6.572   4.380  -0.376  1.00  0.00    -0.051 A 
ATOM      7  C   UNL     1       6.593   5.777  -0.262  1.00  0.00     0.004 A 
ATOM      8  C   UNL     1       6.916   3.785  -1.599  1.00  0.00     0.004 A 
ATOM      9  C   UNL     1       6.982   6.570  -1.345  1.00  0.00     0.004 A 
ATOM     10  C   UNL     1       7.304   4.575  -2.684  1.00  0.00     0.004 A 
ENDBRANCH   2   4
ENDBRANCH   1   2
BRANCH   1  11
ATOM     11  C   UNL     1       8.928   5.998  -5.863  1.00  0.00     0.028 C 
BRANCH  11  12
ATOM     12  C   UNL     1       9.876   7.088  -5.429  1.00  0.00    -0.028 C 
ATOM     13  C   UNL     1      10.119   8.216  -6.132  1.00  0.00    -0.080 C 
ATOM     14  C   UNL     1       9.402   8.523  -7.426  1.00  0.00     0.039 C 
ATOM     15  C   UNL     1      11.124   9.199  -5.589  1.00  0.00     0.039 C 
ENDBRANCH  11  12
ENDBRANCH   1  11
TORSDOF 4
ENDMDL
MODEL 8
REMARK VINA RESULT:    -5.258      2.853      6.543
REMARK INTER + INTRA:          -6.971
REMARK INTER:                  -5.876
REMARK INTRA:                  -1.095
REMARK UNBOUND:                -0.483
REMARK SMILES CC(C)=CCC[C@@H](C)c1ccc(C)cc1
REMARK SMILES IDX 6 1 7 2 8 3 9 4 13 5 12 6 11 7 14 8 10 9 15 10 5 11 4 12
REMARK SMILES IDX 2 13 1 14 3 15
REMARK H PARENT
REMARK Flexibility Score: inf
ROOT
ATOM      1  C   UNL     1       8.836   9.746  -2.693  1.00  0.00     0.012 C 
ENDROOT
BRANCH   1   2
ATOM      2  C   UNL     1       7.329   9.410  -2.642  1.00  0.00     0.016 C 
ATOM      3  C   UNL     1       6.615   9.734  -3.965  1.00  0.00     0.013 C 
BRANCH   2   4
ATOM      4  C   UNL     1       7.124   7.949  -2.281  1.00  0.00    -0.045 A 
ATOM      5  C   UNL     1       6.513   3.804  -1.229  1.00  0.00     0.044 C 
ATOM      6  C   UNL     1       6.754   5.241  -1.584  1.00  0.00    -0.051 A 
ATOM      7  C   UNL     1       6.479   6.255  -0.656  1.00  0.00     0.004 A 
ATOM      8  C   UNL     1       7.192   5.587  -2.871  1.00  0.00     0.004 A 
ATOM      9  C   UNL     1       6.668   7.597  -0.998  1.00  0.00     0.004 A 
ATOM     10  C   UNL     1       7.381   6.928  -3.215  1.00  0.00     0.004 A 
ENDBRANCH   2   4
ENDBRANCH   1   2
BRANCH   1  11
ATOM     11  C   UNL     1       9.341   9.987  -4.124  1.00  0.00     0.028 C 
BRANCH  11  12
ATOM     12  C   UNL     1      10.174   8.821  -4.597  1.00  0.00    -0.028 C 
ATOM     13  C   UNL     1       9.990   8.177  -5.770  1.00  0.00    -0.080 C 
ATOM     14  C   UNL     1       8.942   8.611  -6.767  1.00  0.00     0.039 C 
ATOM     15  C   UNL     1      10.878   7.001  -6.091  1.00  0.00     0.039 C 
ENDBRANCH  11  12
ENDBRANCH   1  11
TORSDOF 4
ENDMDL
MODEL 9
REMARK VINA RESULT:    -5.234      4.455      7.775
REMARK INTER + INTRA:          -6.941
REMARK INTER:                  -6.243
REMARK INTRA:                  -0.699
REMARK UNBOUND:                -0.483
REMARK SMILES CC(C)=CCC[C@@H](C)c1ccc(C)cc1
REMARK SMILES IDX 6 1 7 2 8 3 9 4 13 5 12 6 11 7 14 8 10 9 15 10 5 11 4 12
REMARK SMILES IDX 2 13 1 14 3 15
REMARK H PARENT
REMARK Flexibility Score: inf
ROOT
ATOM      1  C   UNL     1       5.399   8.916  -1.001  1.00  0.00     0.012 C 
ENDROOT
BRANCH   1   2
ATOM      2  C   UNL     1       4.940   9.908  -2.093  1.00  0.00     0.016 C 
ATOM      3  C   UNL     1       5.753   9.763  -3.391  1.00  0.00     0.013 C 
BRANCH   2   4
ATOM      4  C   UNL     1       3.460   9.732  -2.380  1.00  0.00    -0.045 A 
ATOM      5  C   UNL     1      -0.761   9.237  -3.158  1.00  0.00     0.044 C 
ATOM      6  C   UNL     1       0.709   9.380  -2.899  1.00  0.00    -0.051 A 
ATOM      7  C   UNL     1       1.250   9.004  -1.661  1.00  0.00     0.004 A 
ATOM      8  C   UNL     1       1.544   9.955  -3.868  1.00  0.00     0.004 A 
ATOM      9  C   UNL     1       2.614   9.172  -1.405  1.00  0.00     0.004 A 
ATOM     10  C   UNL     1       2.908  10.125  -3.614  1.00  0.00     0.004 A 
ENDBRANCH   2   4
ENDBRANCH   1   2
BRANCH   1  11
ATOM     11  C   UNL     1       6.695   8.181  -1.376  1.00  0.00     0.028 C 
BRANCH  11  12
ATOM     12  C   UNL     1       6.604   6.721  -1.010  1.00  0.00    -0.028 C 
ATOM     13  C   UNL     1       6.870   5.702  -1.858  1.00  0.00    -0.080 C 
ATOM     14  C   UNL     1       7.350   5.940  -3.270  1.00  0.00     0.039 C 
ATOM     15  C   UNL     1       6.697   4.290  -1.360  1.00  0.00     0.039 C 
ENDBRANCH  11  12
ENDBRANCH   1  11
TORSDOF 4
ENDMDL
