MODEL 1
REMARK VINA RESULT:    -4.636      0.000      0.000
REMARK INTER + INTRA:          -5.253
REMARK INTER:                  -5.042
REMARK INTRA:                  -0.210
REMARK UNBOUND:                -0.210
REMARK SMILES O=C([O-])c1ccccc1O
REMARK SMILES IDX 4 1 9 2 5 3 8 4 6 5 7 6 2 7 1 8 3 9 10 10
REMARK H PARENT 10 11
REMARK Flexibility Score: inf
ROOT
ATOM      1  C   UNL     1     124.950 132.928 125.527  1.00  0.00     0.039 A 
ATOM      2  C   UNL     1     125.759 133.591 124.568  1.00  0.00     0.124 A 
ATOM      3  C   UNL     1     124.178 131.824 125.118  1.00  0.00     0.014 A 
ATOM      4  C   UNL     1     125.825 133.101 123.257  1.00  0.00     0.047 A 
ATOM      5  C   UNL     1     124.239 131.361 123.801  1.00  0.00     0.001 A 
ATOM      6  C   UNL     1     125.068 131.993 122.875  1.00  0.00     0.004 A 
ENDROOT
BRANCH   1   7
ATOM      7  C   UNL     1     124.904 133.325 126.951  1.00  0.00     0.075 C 
ATOM      8  O   UNL     1     124.308 132.614 127.802  1.00  0.00    -0.545 OA
ATOM      9  O   UNL     1     125.465 134.530 127.355  1.00  0.00    -0.545 OA
ENDBRANCH   1   7
BRANCH   2  10
ATOM     10  O   UNL     1     126.482 134.750 124.863  1.00  0.00    -0.507 OA
ATOM     11  H   UNL     1     127.255 135.084 124.304  1.00  0.00     0.293 HD
ENDBRANCH   2  10
TORSDOF 2
ENDMDL
MODEL 2
REMARK VINA RESULT:    -4.304      0.981      2.208
REMARK INTER + INTRA:          -4.892
REMARK INTER:                  -4.679
REMARK INTRA:                  -0.213
REMARK UNBOUND:                -0.210
REMARK SMILES O=C([O-])c1ccccc1O
REMARK SMILES IDX 4 1 9 2 5 3 8 4 6 5 7 6 2 7 1 8 3 9 10 10
REMARK H PARENT 10 11
REMARK Flexibility Score: inf
ROOT
ATOM      1  C   UNL     1     124.891 132.964 125.752  1.00  0.00     0.039 A 
ATOM      2  C   UNL     1     124.055 131.975 125.171  1.00  0.00     0.124 A 
ATOM      3  C   UNL     1     125.936 133.507 124.982  1.00  0.00     0.014 A 
ATOM      4  C   UNL     1     124.243 131.606 123.833  1.00  0.00     0.047 A 
ATOM      5  C   UNL     1     126.123 133.113 123.655  1.00  0.00     0.001 A 
ATOM      6  C   UNL     1     125.272 132.171 123.079  1.00  0.00     0.004 A 
ENDROOT
BRANCH   1   7
ATOM      7  C   UNL     1     124.693 133.477 127.125  1.00  0.00     0.075 C 
ATOM      8  O   UNL     1     123.879 132.925 127.911  1.00  0.00    -0.545 OA
ATOM      9  O   UNL     1     125.359 134.623 127.542  1.00  0.00    -0.545 OA
ENDBRANCH   1   7
BRANCH   2  10
ATOM     10  O   UNL     1     123.056 131.314 125.891  1.00  0.00    -0.507 OA
ATOM     11  H   UNL     1     122.711 131.630 126.787  1.00  0.00     0.293 HD
ENDBRANCH   2  10
TORSDOF 2
ENDMDL
MODEL 3
REMARK VINA RESULT:    -3.862      1.920      3.526
REMARK INTER + INTRA:          -4.411
REMARK INTER:                  -4.199
REMARK INTRA:                  -0.212
REMARK UNBOUND:                -0.210
REMARK SMILES O=C([O-])c1ccccc1O
REMARK SMILES IDX 4 1 9 2 5 3 8 4 6 5 7 6 2 7 1 8 3 9 10 10
REMARK H PARENT 10 11
REMARK Flexibility Score: inf
ROOT
ATOM      1  C   UNL     1     124.940 132.626 125.082  1.00  0.00     0.039 A 
ATOM      2  C   UNL     1     125.532 133.848 125.495  1.00  0.00     0.124 A 
ATOM      3  C   UNL     1     124.110 131.934 125.984  1.00  0.00     0.014 A 
ATOM      4  C   UNL     1     125.232 134.372 126.759  1.00  0.00     0.047 A 
ATOM      5  C   UNL     1     123.838 132.460 127.249  1.00  0.00     0.001 A 
ATOM      6  C   UNL     1     124.390 133.681 127.633  1.00  0.00     0.004 A 
ENDROOT
BRANCH   1   7
ATOM      7  C   UNL     1     125.130 132.060 123.729  1.00  0.00     0.075 C 
ATOM      8  O   UNL     1     125.865 132.634 122.884  1.00  0.00    -0.545 OA
ATOM      9  O   UNL     1     124.439 130.914 123.352  1.00  0.00    -0.545 OA
ENDBRANCH   1   7
BRANCH   2  10
ATOM     10  O   UNL     1     126.442 134.552 124.702  1.00  0.00    -0.507 OA
ATOM     11  H   UNL     1     126.861 134.174 123.864  1.00  0.00     0.293 HD
ENDBRANCH   2  10
TORSDOF 2
ENDMDL
MODEL 4
REMARK VINA RESULT:    -3.337      2.101      3.831
REMARK INTER + INTRA:          -3.840
REMARK INTER:                  -3.591
REMARK INTRA:                  -0.250
REMARK UNBOUND:                -0.210
REMARK SMILES O=C([O-])c1ccccc1O
REMARK SMILES IDX 4 1 9 2 5 3 8 4 6 5 7 6 2 7 1 8 3 9 10 10
REMARK H PARENT 10 11
REMARK Flexibility Score: inf
ROOT
ATOM      1  C   UNL     1     125.125 133.360 124.980  1.00  0.00     0.039 A 
ATOM      2  C   UNL     1     124.385 132.175 125.235  1.00  0.00     0.124 A 
ATOM      3  C   UNL     1     125.392 134.237 126.048  1.00  0.00     0.014 A 
ATOM      4  C   UNL     1     123.993 131.872 126.546  1.00  0.00     0.047 A 
ATOM      5  C   UNL     1     124.975 133.929 127.345  1.00  0.00     0.001 A 
ATOM      6  C   UNL     1     124.285 132.744 127.595  1.00  0.00     0.004 A 
ENDROOT
BRANCH   1   7
ATOM      7  C   UNL     1     125.658 133.700 123.643  1.00  0.00     0.075 C 
ATOM      8  O   UNL     1     126.107 132.806 122.879  1.00  0.00    -0.545 OA
ATOM      9  O   UNL     1     125.732 135.029 123.242  1.00  0.00    -0.545 OA
ENDBRANCH   1   7
BRANCH   2  10
ATOM     10  O   UNL     1     123.993 131.297 124.222  1.00  0.00    -0.507 OA
ATOM     11  H   UNL     1     123.089 131.333 123.771  1.00  0.00     0.293 HD
ENDBRANCH   2  10
TORSDOF 2
ENDMDL
MODEL 5
REMARK VINA RESULT:    -3.110      1.922      2.627
REMARK INTER + INTRA:          -3.593
REMARK INTER:                  -3.516
REMARK INTRA:                  -0.078
REMARK UNBOUND:                -0.210
REMARK SMILES O=C([O-])c1ccccc1O
REMARK SMILES IDX 4 1 9 2 5 3 8 4 6 5 7 6 2 7 1 8 3 9 10 10
REMARK H PARENT 10 11
REMARK Flexibility Score: inf
ROOT
ATOM      1  C   UNL     1     123.860 133.691 127.356  1.00  0.00     0.039 A 
ATOM      2  C   UNL     1     125.201 134.079 127.099  1.00  0.00     0.124 A 
ATOM      3  C   UNL     1     123.310 132.621 126.626  1.00  0.00     0.014 A 
ATOM      4  C   UNL     1     125.967 133.355 126.177  1.00  0.00     0.047 A 
ATOM      5  C   UNL     1     124.082 131.923 125.695  1.00  0.00     0.001 A 
ATOM      6  C   UNL     1     125.411 132.282 125.477  1.00  0.00     0.004 A 
ENDROOT
BRANCH   1   7
ATOM      7  C   UNL     1     123.019 134.343 128.384  1.00  0.00     0.075 C 
ATOM      8  O   UNL     1     122.977 133.900 129.562  1.00  0.00    -0.545 OA
ATOM      9  O   UNL     1     122.208 135.418 128.040  1.00  0.00    -0.545 OA
ENDBRANCH   1   7
BRANCH   2  10
ATOM     10  O   UNL     1     125.796 135.188 127.707  1.00  0.00    -0.507 OA
ATOM     11  H   UNL     1     126.793 135.284 127.838  1.00  0.00     0.293 HD
ENDBRANCH   2  10
TORSDOF 2
ENDMDL
MODEL 6
REMARK VINA RESULT:    -3.101      2.598      3.408
REMARK INTER + INTRA:          -3.584
REMARK INTER:                  -3.338
REMARK INTRA:                  -0.246
REMARK UNBOUND:                -0.210
REMARK SMILES O=C([O-])c1ccccc1O
REMARK SMILES IDX 4 1 9 2 5 3 8 4 6 5 7 6 2 7 1 8 3 9 10 10
REMARK H PARENT 10 11
REMARK Flexibility Score: inf
ROOT
ATOM      1  C   UNL     1     124.140 133.825 127.444  1.00  0.00     0.039 A 
ATOM      2  C   UNL     1     124.370 132.429 127.567  1.00  0.00     0.124 A 
ATOM      3  C   UNL     1     124.839 134.544 126.456  1.00  0.00     0.014 A 
ATOM      4  C   UNL     1     125.231 131.786 126.668  1.00  0.00     0.047 A 
ATOM      5  C   UNL     1     125.710 133.890 125.581  1.00  0.00     0.001 A 
ATOM      6  C   UNL     1     125.898 132.512 125.681  1.00  0.00     0.004 A 
ENDROOT
BRANCH   1   7
ATOM      7  C   UNL     1     123.173 134.556 128.291  1.00  0.00     0.075 C 
ATOM      8  O   UNL     1     123.009 134.248 129.500  1.00  0.00    -0.545 OA
ATOM      9  O   UNL     1     122.380 135.555 127.737  1.00  0.00    -0.545 OA
ENDBRANCH   1   7
BRANCH   2  10
ATOM     10  O   UNL     1     123.794 131.656 128.579  1.00  0.00    -0.507 OA
ATOM     11  H   UNL     1     123.829 130.646 128.598  1.00  0.00     0.293 HD
ENDBRANCH   2  10
TORSDOF 2
ENDMDL
MODEL 7
REMARK VINA RESULT:    -2.530      2.076      3.817
REMARK INTER + INTRA:          -2.962
REMARK INTER:                  -2.741
REMARK INTRA:                  -0.221
REMARK UNBOUND:                -0.210
REMARK SMILES O=C([O-])c1ccccc1O
REMARK SMILES IDX 4 1 9 2 5 3 8 4 6 5 7 6 2 7 1 8 3 9 10 10
REMARK H PARENT 10 11
REMARK Flexibility Score: inf
ROOT
ATOM      1  C   UNL     1     124.907 133.447 126.798  1.00  0.00     0.039 A 
ATOM      2  C   UNL     1     124.992 134.644 127.556  1.00  0.00     0.124 A 
ATOM      3  C   UNL     1     123.932 132.493 127.143  1.00  0.00     0.014 A 
ATOM      4  C   UNL     1     124.070 134.882 128.583  1.00  0.00     0.047 A 
ATOM      5  C   UNL     1     123.033 132.737 128.184  1.00  0.00     0.001 A 
ATOM      6  C   UNL     1     123.096 133.933 128.897  1.00  0.00     0.004 A 
ENDROOT
BRANCH   1   7
ATOM      7  C   UNL     1     125.780 133.168 125.638  1.00  0.00     0.075 C 
ATOM      8  O   UNL     1     126.497 132.133 125.601  1.00  0.00    -0.545 OA
ATOM      9  O   UNL     1     125.870 134.086 124.598  1.00  0.00    -0.545 OA
ENDBRANCH   1   7
BRANCH   2  10
ATOM     10  O   UNL     1     125.989 135.601 127.346  1.00  0.00    -0.507 OA
ATOM     11  H   UNL     1     125.804 136.590 127.254  1.00  0.00     0.293 HD
ENDBRANCH   2  10
TORSDOF 2
ENDMDL
MODEL 8
REMARK VINA RESULT:    -2.347      1.361      3.228
REMARK INTER + INTRA:          -2.763
REMARK INTER:                  -2.529
REMARK INTRA:                  -0.235
REMARK UNBOUND:                -0.210
REMARK SMILES O=C([O-])c1ccccc1O
REMARK SMILES IDX 4 1 9 2 5 3 8 4 6 5 7 6 2 7 1 8 3 9 10 10
REMARK H PARENT 10 11
REMARK Flexibility Score: inf
ROOT
ATOM      1  C   UNL     1     125.038 133.175 125.303  1.00  0.00     0.039 A 
ATOM      2  C   UNL     1     125.060 133.766 126.593  1.00  0.00     0.124 A 
ATOM      3  C   UNL     1     124.231 132.042 125.089  1.00  0.00     0.014 A 
ATOM      4  C   UNL     1     124.237 133.255 127.605  1.00  0.00     0.047 A 
ATOM      5  C   UNL     1     123.432 131.532 126.115  1.00  0.00     0.001 A 
ATOM      6  C   UNL     1     123.427 132.143 127.368  1.00  0.00     0.004 A 
ENDROOT
BRANCH   1   7
ATOM      7  C   UNL     1     125.803 133.716 124.159  1.00  0.00     0.075 C 
ATOM      8  O   UNL     1     126.141 132.976 123.198  1.00  0.00    -0.545 OA
ATOM      9  O   UNL     1     126.218 135.043 124.165  1.00  0.00    -0.545 OA
ENDBRANCH   1   7
BRANCH   2  10
ATOM     10  O   UNL     1     125.902 134.832 126.920  1.00  0.00    -0.507 OA
ATOM     11  H   UNL     1     125.589 135.665 127.398  1.00  0.00     0.293 HD
ENDBRANCH   2  10
TORSDOF 2
ENDMDL
MODEL 9
REMARK VINA RESULT:    -1.953      2.252      3.440
REMARK INTER + INTRA:          -2.335
REMARK INTER:                  -2.111
REMARK INTRA:                  -0.224
REMARK UNBOUND:                -0.210
REMARK SMILES O=C([O-])c1ccccc1O
REMARK SMILES IDX 4 1 9 2 5 3 8 4 6 5 7 6 2 7 1 8 3 9 10 10
REMARK H PARENT 10 11
REMARK Flexibility Score: inf
ROOT
ATOM      1  C   UNL     1     125.088 133.083 123.998  1.00  0.00     0.039 A 
ATOM      2  C   UNL     1     125.738 133.586 125.156  1.00  0.00     0.124 A 
ATOM      3  C   UNL     1     124.953 133.921 122.876  1.00  0.00     0.014 A 
ATOM      4  C   UNL     1     126.286 134.875 125.138  1.00  0.00     0.047 A 
ATOM      5  C   UNL     1     125.488 135.212 122.883  1.00  0.00     0.001 A 
ATOM      6  C   UNL     1     126.161 135.685 124.008  1.00  0.00     0.004 A 
ENDROOT
BRANCH   1   7
ATOM      7  C   UNL     1     124.571 131.700 123.905  1.00  0.00     0.075 C 
ATOM      8  O   UNL     1     124.926 130.938 122.968  1.00  0.00    -0.545 OA
ATOM      9  O   UNL     1     123.628 131.247 124.820  1.00  0.00    -0.545 OA
ENDBRANCH   1   7
BRANCH   2  10
ATOM     10  O   UNL     1     125.832 132.858 126.345  1.00  0.00    -0.507 OA
ATOM     11  H   UNL     1     125.145 132.179 126.639  1.00  0.00     0.293 HD
ENDBRANCH   2  10
TORSDOF 2
ENDMDL
