MODEL 1
REMARK VINA RESULT:    -8.590      0.000      0.000
REMARK INTER + INTRA:         -12.836
REMARK INTER:                 -11.603
REMARK INTRA:                  -1.234
REMARK UNBOUND:                -1.234
REMARK SMILES CC[C@@H](CC[C@@H](C)[C@@H]1CC[C@H]2[C@@H]3CC(=O)C4=CC(=O)CC[C@]4(C)[C@@H]3CC[C@]21C)C(C)C
REMARK SMILES IDX 4 1 3 2 2 3 1 4 29 5 30 6 31 7 5 8 6 9 7 10 8 11 9 12 27 13
REMARK SMILES IDX 10 14 11 15 26 16 28 17 12 18 25 19 24 20 13 21 22 22 14 23
REMARK SMILES IDX 16 24 21 25 23 26 15 27 17 28 20 29 18 30 19 31
REMARK H PARENT
REMARK Flexibility Score: inf
ROOT
ATOM      1  C   UNL     1     256.006 261.238 245.381  1.00  0.00     0.004 C 
ENDROOT
BRANCH   1   2
ATOM      2  C   UNL     1     257.283 260.858 246.191  1.00  0.00    -0.009 C 
BRANCH   2   3
ATOM      3  C   UNL     1     257.307 261.572 247.568  1.00  0.00     0.000 C 
ATOM      4  C   UNL     1     257.029 260.613 248.729  1.00  0.00     0.004 C 
ENDBRANCH   2   3
BRANCH   2   5
ATOM      5  C   UNL     1     258.583 261.114 245.355  1.00  0.00    -0.014 C 
ATOM      6  C   UNL     1     258.412 262.177 244.253  1.00  0.00     0.007 C 
ATOM      7  C   UNL     1     259.775 261.478 246.256  1.00  0.00     0.007 C 
ENDBRANCH   2   5
ENDBRANCH   1   2
BRANCH   1   8
ATOM      8  C   UNL     1     254.922 260.135 245.386  1.00  0.00     0.004 C 
BRANCH   8   9
ATOM      9  C   UNL     1     254.155 259.968 246.729  1.00  0.00    -0.011 C 
ATOM     10  C   UNL     1     253.323 261.248 246.994  1.00  0.00     0.008 C 
BRANCH   9  11
ATOM     11  C   UNL     1     253.215 258.701 246.737  1.00  0.00    -0.002 C 
ATOM     12  C   UNL     1     251.737 259.109 246.883  1.00  0.00     0.005 C 
ATOM     13  C   UNL     1     253.428 257.594 247.833  1.00  0.00    -0.026 C 
ATOM     14  C   UNL     1     251.008 258.004 247.630  1.00  0.00     0.005 C 
ATOM     15  C   UNL     1     252.027 256.896 247.924  1.00  0.00    -0.001 C 
ATOM     16  C   UNL     1     254.546 256.565 247.447  1.00  0.00     0.007 C 
ATOM     17  C   UNL     1     253.759 258.222 249.211  1.00  0.00     0.012 C 
ATOM     18  C   UNL     1     251.921 255.675 246.954  1.00  0.00     0.004 C 
ATOM     19  C   UNL     1     254.246 255.161 247.974  1.00  0.00     0.005 C 
ATOM     20  C   UNL     1     252.972 254.560 247.324  1.00  0.00     0.003 C 
ATOM     21  C   UNL     1     250.476 255.147 246.767  1.00  0.00     0.085 C 
ATOM     22  C   UNL     1     252.427 253.259 248.068  1.00  0.00    -0.000 C 
ATOM     23  C   UNL     1     250.449 253.685 246.493  1.00  0.00     0.159 C 
ATOM     24  C   UNL     1     251.083 252.829 247.487  1.00  0.00     0.005 C 
ATOM     25  C   UNL     1     252.222 253.448 249.603  1.00  0.00     0.020 C 
ATOM     26  C   UNL     1     253.446 252.111 247.820  1.00  0.00     0.017 C 
ATOM     27  O   UNL     1     249.812 253.208 245.514  1.00  0.00    -0.295 OA
ATOM     28  C   UNL     1     250.325 251.906 248.100  1.00  0.00     0.055 C 
ATOM     29  C   UNL     1     251.678 252.176 250.292  1.00  0.00     0.081 C 
ATOM     30  C   UNL     1     250.643 251.462 249.465  1.00  0.00     0.156 C 
ATOM     31  O   UNL     1     250.013 250.491 249.964  1.00  0.00    -0.295 OA
ENDBRANCH   9  11
ENDBRANCH   8   9
ENDBRANCH   1   8
TORSDOF 6
ENDMDL
MODEL 2
REMARK VINA RESULT:    -8.585      1.681      2.493
REMARK INTER + INTRA:         -12.830
REMARK INTER:                 -11.374
REMARK INTRA:                  -1.456
REMARK UNBOUND:                -1.234
REMARK SMILES CC[C@@H](CC[C@@H](C)[C@@H]1CC[C@H]2[C@@H]3CC(=O)C4=CC(=O)CC[C@]4(C)[C@@H]3CC[C@]21C)C(C)C
REMARK SMILES IDX 4 1 3 2 2 3 1 4 29 5 30 6 31 7 5 8 6 9 7 10 8 11 9 12 27 13
REMARK SMILES IDX 10 14 11 15 26 16 28 17 12 18 25 19 24 20 13 21 22 22 14 23
REMARK SMILES IDX 16 24 21 25 23 26 15 27 17 28 20 29 18 30 19 31
REMARK H PARENT
REMARK Flexibility Score: inf
ROOT
ATOM      1  C   UNL     1     256.510 260.650 245.196  1.00  0.00     0.004 C 
ENDROOT
BRANCH   1   2
ATOM      2  C   UNL     1     257.048 261.609 246.300  1.00  0.00    -0.009 C 
BRANCH   2   3
ATOM      3  C   UNL     1     257.983 262.691 245.698  1.00  0.00     0.000 C 
ATOM      4  C   UNL     1     258.438 262.346 244.277  1.00  0.00     0.004 C 
ENDBRANCH   2   3
BRANCH   2   5
ATOM      5  C   UNL     1     257.722 260.810 247.468  1.00  0.00    -0.014 C 
ATOM      6  C   UNL     1     259.260 260.891 247.467  1.00  0.00     0.007 C 
ATOM      7  C   UNL     1     257.174 261.237 248.839  1.00  0.00     0.007 C 
ENDBRANCH   2   5
ENDBRANCH   1   2
BRANCH   1   8
ATOM      8  C   UNL     1     254.987 260.397 245.287  1.00  0.00     0.004 C 
BRANCH   8   9
ATOM      9  C   UNL     1     254.428 260.238 246.730  1.00  0.00    -0.011 C 
ATOM     10  C   UNL     1     253.272 261.248 246.936  1.00  0.00     0.008 C 
BRANCH   9  11
ATOM     11  C   UNL     1     253.925 258.772 247.026  1.00  0.00    -0.002 C 
ATOM     12  C   UNL     1     252.387 258.695 246.978  1.00  0.00     0.005 C 
ATOM     13  C   UNL     1     254.310 258.088 248.388  1.00  0.00    -0.026 C 
ATOM     14  C   UNL     1     251.931 257.621 247.953  1.00  0.00     0.005 C 
ATOM     15  C   UNL     1     253.188 257.012 248.588  1.00  0.00    -0.001 C 
ATOM     16  C   UNL     1     255.729 257.423 248.353  1.00  0.00     0.007 C 
ATOM     17  C   UNL     1     254.243 259.096 249.564  1.00  0.00     0.012 C 
ATOM     18  C   UNL     1     253.591 255.631 247.975  1.00  0.00     0.004 C 
ATOM     19  C   UNL     1     255.799 256.164 249.219  1.00  0.00     0.005 C 
ATOM     20  C   UNL     1     254.869 255.043 248.685  1.00  0.00     0.003 C 
ATOM     21  C   UNL     1     252.413 254.630 247.859  1.00  0.00     0.085 C 
ATOM     22  C   UNL     1     254.647 253.850 249.720  1.00  0.00    -0.000 C 
ATOM     23  C   UNL     1     252.868 253.219 247.984  1.00  0.00     0.159 C 
ATOM     24  C   UNL     1     253.589 252.879 249.204  1.00  0.00     0.005 C 
ATOM     25  C   UNL     1     254.186 254.318 251.136  1.00  0.00     0.020 C 
ATOM     26  C   UNL     1     255.990 253.076 249.844  1.00  0.00     0.017 C 
ATOM     27  O   UNL     1     252.546 252.343 247.136  1.00  0.00    -0.295 OA
ATOM     28  C   UNL     1     253.070 251.931 250.000  1.00  0.00     0.055 C 
ATOM     29  C   UNL     1     253.964 253.139 252.109  1.00  0.00     0.081 C 
ATOM     30  C   UNL     1     253.317 251.951 251.450  1.00  0.00     0.156 C 
ATOM     31  O   UNL     1     252.949 250.973 252.155  1.00  0.00    -0.295 OA
ENDBRANCH   9  11
ENDBRANCH   8   9
ENDBRANCH   1   8
TORSDOF 6
ENDMDL
MODEL 3
REMARK VINA RESULT:    -8.537      4.325      8.707
REMARK INTER + INTRA:         -12.765
REMARK INTER:                 -10.920
REMARK INTRA:                  -1.846
REMARK UNBOUND:                -1.234
REMARK SMILES CC[C@@H](CC[C@@H](C)[C@@H]1CC[C@H]2[C@@H]3CC(=O)C4=CC(=O)CC[C@]4(C)[C@@H]3CC[C@]21C)C(C)C
REMARK SMILES IDX 4 1 3 2 2 3 1 4 29 5 30 6 31 7 5 8 6 9 7 10 8 11 9 12 27 13
REMARK SMILES IDX 10 14 11 15 26 16 28 17 12 18 25 19 24 20 13 21 22 22 14 23
REMARK SMILES IDX 16 24 21 25 23 26 15 27 17 28 20 29 18 30 19 31
REMARK H PARENT
REMARK Flexibility Score: inf
ROOT
ATOM      1  C   UNL     1     254.335 253.802 254.425  1.00  0.00     0.004 C 
ENDROOT
BRANCH   1   2
ATOM      2  C   UNL     1     255.885 253.927 254.313  1.00  0.00    -0.009 C 
BRANCH   2   3
ATOM      3  C   UNL     1     256.578 252.560 254.553  1.00  0.00     0.000 C 
ATOM      4  C   UNL     1     255.654 251.547 255.234  1.00  0.00     0.004 C 
ENDBRANCH   2   3
BRANCH   2   5
ATOM      5  C   UNL     1     256.432 255.055 255.252  1.00  0.00    -0.014 C 
ATOM      6  C   UNL     1     257.686 254.645 256.047  1.00  0.00     0.007 C 
ATOM      7  C   UNL     1     256.703 256.357 254.479  1.00  0.00     0.007 C 
ENDBRANCH   2   5
ENDBRANCH   1   2
BRANCH   1   8
ATOM      8  C   UNL     1     253.608 253.908 253.064  1.00  0.00     0.004 C 
BRANCH   8   9
ATOM      9  C   UNL     1     254.453 253.488 251.828  1.00  0.00    -0.011 C 
ATOM     10  C   UNL     1     253.993 252.085 251.358  1.00  0.00     0.008 C 
BRANCH   9  11
ATOM     11  C   UNL     1     254.344 254.520 250.640  1.00  0.00    -0.002 C 
ATOM     12  C   UNL     1     254.485 253.813 249.278  1.00  0.00     0.005 C 
ATOM     13  C   UNL     1     255.358 255.718 250.567  1.00  0.00    -0.026 C 
ATOM     14  C   UNL     1     255.129 254.782 248.300  1.00  0.00     0.005 C 
ATOM     15  C   UNL     1     255.364 256.102 249.047  1.00  0.00    -0.001 C 
ATOM     16  C   UNL     1     254.923 256.936 251.454  1.00  0.00     0.007 C 
ATOM     17  C   UNL     1     256.788 255.273 250.970  1.00  0.00     0.012 C 
ATOM     18  C   UNL     1     254.302 257.202 248.721  1.00  0.00     0.004 C 
ATOM     19  C   UNL     1     255.336 258.275 250.840  1.00  0.00     0.005 C 
ATOM     20  C   UNL     1     254.611 258.540 249.493  1.00  0.00     0.003 C 
ATOM     21  C   UNL     1     254.041 257.391 247.205  1.00  0.00     0.085 C 
ATOM     22  C   UNL     1     255.243 259.740 248.654  1.00  0.00    -0.000 C 
ATOM     23  C   UNL     1     253.657 258.790 246.876  1.00  0.00     0.159 C 
ATOM     24  C   UNL     1     254.599 259.829 247.274  1.00  0.00     0.005 C 
ATOM     25  C   UNL     1     256.782 259.617 248.434  1.00  0.00     0.020 C 
ATOM     26  C   UNL     1     254.934 261.062 249.413  1.00  0.00     0.017 C 
ATOM     27  O   UNL     1     252.631 259.050 246.191  1.00  0.00    -0.295 OA
ATOM     28  C   UNL     1     255.122 260.606 246.312  1.00  0.00     0.055 C 
ATOM     29  C   UNL     1     257.360 260.785 247.604  1.00  0.00     0.081 C 
ATOM     30  C   UNL     1     256.458 261.201 246.473  1.00  0.00     0.156 C 
ATOM     31  O   UNL     1     256.867 262.045 245.631  1.00  0.00    -0.295 OA
ENDBRANCH   9  11
ENDBRANCH   8   9
ENDBRANCH   1   8
TORSDOF 6
ENDMDL
MODEL 4
REMARK VINA RESULT:    -8.474      3.249      5.759
REMARK INTER + INTRA:         -12.680
REMARK INTER:                 -10.712
REMARK INTRA:                  -1.968
REMARK UNBOUND:                -1.234
REMARK SMILES CC[C@@H](CC[C@@H](C)[C@@H]1CC[C@H]2[C@@H]3CC(=O)C4=CC(=O)CC[C@]4(C)[C@@H]3CC[C@]21C)C(C)C
REMARK SMILES IDX 4 1 3 2 2 3 1 4 29 5 30 6 31 7 5 8 6 9 7 10 8 11 9 12 27 13
REMARK SMILES IDX 10 14 11 15 26 16 28 17 12 18 25 19 24 20 13 21 22 22 14 23
REMARK SMILES IDX 16 24 21 25 23 26 15 27 17 28 20 29 18 30 19 31
REMARK H PARENT
REMARK Flexibility Score: inf
ROOT
ATOM      1  C   UNL     1     252.331 257.817 247.700  1.00  0.00     0.004 C 
ENDROOT
BRANCH   1   2
ATOM      2  C   UNL     1     253.654 258.320 247.048  1.00  0.00    -0.009 C 
BRANCH   2   3
ATOM      3  C   UNL     1     254.843 258.219 248.040  1.00  0.00     0.000 C 
ATOM      4  C   UNL     1     254.413 257.715 249.420  1.00  0.00     0.004 C 
ENDBRANCH   2   3
BRANCH   2   5
ATOM      5  C   UNL     1     253.483 259.759 246.454  1.00  0.00    -0.014 C 
ATOM      6  C   UNL     1     253.484 260.873 247.519  1.00  0.00     0.007 C 
ATOM      7  C   UNL     1     254.541 260.060 245.379  1.00  0.00     0.007 C 
ENDBRANCH   2   5
ENDBRANCH   1   2
BRANCH   1   8
ATOM      8  C   UNL     1     251.458 256.966 246.748  1.00  0.00     0.004 C 
BRANCH   8   9
ATOM      9  C   UNL     1     251.876 255.473 246.626  1.00  0.00    -0.011 C 
ATOM     10  C   UNL     1     252.621 255.269 245.283  1.00  0.00     0.008 C 
BRANCH   9  11
ATOM     11  C   UNL     1     252.782 254.997 247.826  1.00  0.00    -0.002 C 
ATOM     12  C   UNL     1     254.045 254.278 247.314  1.00  0.00     0.005 C 
ATOM     13  C   UNL     1     252.183 254.020 248.901  1.00  0.00    -0.026 C 
ATOM     14  C   UNL     1     254.445 253.228 248.338  1.00  0.00     0.005 C 
ATOM     15  C   UNL     1     253.447 253.313 249.500  1.00  0.00    -0.001 C 
ATOM     16  C   UNL     1     251.374 254.769 250.017  1.00  0.00     0.007 C 
ATOM     17  C   UNL     1     251.279 252.945 248.245  1.00  0.00     0.012 C 
ATOM     18  C   UNL     1     254.003 254.074 250.748  1.00  0.00     0.004 C 
ATOM     19  C   UNL     1     251.490 254.077 251.377  1.00  0.00     0.005 C 
ATOM     20  C   UNL     1     252.945 254.103 251.915  1.00  0.00     0.003 C 
ATOM     21  C   UNL     1     255.417 253.612 251.184  1.00  0.00     0.085 C 
ATOM     22  C   UNL     1     253.188 253.119 253.147  1.00  0.00    -0.000 C 
ATOM     23  C   UNL     1     255.621 253.758 252.650  1.00  0.00     0.159 C 
ATOM     24  C   UNL     1     254.669 253.064 253.508  1.00  0.00     0.005 C 
ATOM     25  C   UNL     1     252.725 251.653 252.886  1.00  0.00     0.020 C 
ATOM     26  C   UNL     1     252.417 253.694 254.370  1.00  0.00     0.017 C 
ATOM     27  O   UNL     1     256.629 254.353 253.121  1.00  0.00    -0.295 OA
ATOM     28  C   UNL     1     255.143 252.136 254.354  1.00  0.00     0.055 C 
ATOM     29  C   UNL     1     252.989 250.722 254.091  1.00  0.00     0.081 C 
ATOM     30  C   UNL     1     254.306 250.999 254.766  1.00  0.00     0.156 C 
ATOM     31  O   UNL     1     254.713 250.225 255.673  1.00  0.00    -0.295 OA
ENDBRANCH   9  11
ENDBRANCH   8   9
ENDBRANCH   1   8
TORSDOF 6
ENDMDL
MODEL 5
REMARK VINA RESULT:    -8.444      3.009      8.700
REMARK INTER + INTRA:         -12.639
REMARK INTER:                 -10.295
REMARK INTRA:                  -2.344
REMARK UNBOUND:                -1.234
REMARK SMILES CC[C@@H](CC[C@@H](C)[C@@H]1CC[C@H]2[C@@H]3CC(=O)C4=CC(=O)CC[C@]4(C)[C@@H]3CC[C@]21C)C(C)C
REMARK SMILES IDX 4 1 3 2 2 3 1 4 29 5 30 6 31 7 5 8 6 9 7 10 8 11 9 12 27 13
REMARK SMILES IDX 10 14 11 15 26 16 28 17 12 18 25 19 24 20 13 21 22 22 14 23
REMARK SMILES IDX 16 24 21 25 23 26 15 27 17 28 20 29 18 30 19 31
REMARK H PARENT
REMARK Flexibility Score: inf
ROOT
ATOM      1  C   UNL     1     251.892 253.910 251.702  1.00  0.00     0.004 C 
ENDROOT
BRANCH   1   2
ATOM      2  C   UNL     1     250.779 253.135 250.935  1.00  0.00    -0.009 C 
BRANCH   2   3
ATOM      3  C   UNL     1     251.148 251.637 250.771  1.00  0.00     0.000 C 
ATOM      4  C   UNL     1     250.084 250.705 251.359  1.00  0.00     0.004 C 
ENDBRANCH   2   3
BRANCH   2   5
ATOM      5  C   UNL     1     250.441 253.827 249.571  1.00  0.00    -0.014 C 
ATOM      6  C   UNL     1     251.025 255.246 249.435  1.00  0.00     0.007 C 
ATOM      7  C   UNL     1     250.874 252.964 248.374  1.00  0.00     0.007 C 
ENDBRANCH   2   5
ENDBRANCH   1   2
BRANCH   1   8
ATOM      8  C   UNL     1     253.060 253.011 252.169  1.00  0.00     0.004 C 
BRANCH   8   9
ATOM      9  C   UNL     1     254.395 253.206 251.394  1.00  0.00    -0.011 C 
ATOM     10  C   UNL     1     254.809 251.854 250.760  1.00  0.00     0.008 C 
BRANCH   9  11
ATOM     11  C   UNL     1     254.292 254.318 250.279  1.00  0.00    -0.002 C 
ATOM     12  C   UNL     1     254.422 253.704 248.872  1.00  0.00     0.005 C 
ATOM     13  C   UNL     1     255.317 255.509 250.285  1.00  0.00    -0.026 C 
ATOM     14  C   UNL     1     255.073 254.732 247.961  1.00  0.00     0.005 C 
ATOM     15  C   UNL     1     255.322 255.996 248.795  1.00  0.00    -0.001 C 
ATOM     16  C   UNL     1     254.897 256.667 251.254  1.00  0.00     0.007 C 
ATOM     17  C   UNL     1     256.744 255.023 250.651  1.00  0.00     0.012 C 
ATOM     18  C   UNL     1     254.270 257.125 248.548  1.00  0.00     0.004 C 
ATOM     19  C   UNL     1     255.321 258.041 250.731  1.00  0.00     0.005 C 
ATOM     20  C   UNL     1     254.595 258.404 249.409  1.00  0.00     0.003 C 
ATOM     21  C   UNL     1     254.007 257.419 247.049  1.00  0.00     0.085 C 
ATOM     22  C   UNL     1     255.235 259.653 248.652  1.00  0.00    -0.000 C 
ATOM     23  C   UNL     1     253.635 258.841 246.819  1.00  0.00     0.159 C 
ATOM     24  C   UNL     1     254.588 259.842 247.283  1.00  0.00     0.005 C 
ATOM     25  C   UNL     1     256.773 259.530 248.418  1.00  0.00     0.020 C 
ATOM     26  C   UNL     1     254.941 260.922 249.500  1.00  0.00     0.017 C 
ATOM     27  O   UNL     1     252.609 259.158 246.157  1.00  0.00    -0.295 OA
ATOM     28  C   UNL     1     255.116 260.678 246.375  1.00  0.00     0.055 C 
ATOM     29  C   UNL     1     257.359 260.747 247.667  1.00  0.00     0.081 C 
ATOM     30  C   UNL     1     256.458 261.248 246.571  1.00  0.00     0.156 C 
ATOM     31  O   UNL     1     256.872 262.143 245.787  1.00  0.00    -0.295 OA
ENDBRANCH   9  11
ENDBRANCH   8   9
ENDBRANCH   1   8
TORSDOF 6
ENDMDL
MODEL 6
REMARK VINA RESULT:    -8.251      2.429      4.770
REMARK INTER + INTRA:         -12.379
REMARK INTER:                 -10.975
REMARK INTRA:                  -1.404
REMARK UNBOUND:                -1.234
REMARK SMILES CC[C@@H](CC[C@@H](C)[C@@H]1CC[C@H]2[C@@H]3CC(=O)C4=CC(=O)CC[C@]4(C)[C@@H]3CC[C@]21C)C(C)C
REMARK SMILES IDX 4 1 3 2 2 3 1 4 29 5 30 6 31 7 5 8 6 9 7 10 8 11 9 12 27 13
REMARK SMILES IDX 10 14 11 15 26 16 28 17 12 18 25 19 24 20 13 21 22 22 14 23
REMARK SMILES IDX 16 24 21 25 23 26 15 27 17 28 20 29 18 30 19 31
REMARK H PARENT
REMARK Flexibility Score: inf
ROOT
ATOM      1  C   UNL     1     255.991 260.930 250.956  1.00  0.00     0.004 C 
ENDROOT
BRANCH   1   2
ATOM      2  C   UNL     1     255.516 260.312 252.305  1.00  0.00    -0.009 C 
BRANCH   2   3
ATOM      3  C   UNL     1     254.944 258.884 252.099  1.00  0.00     0.000 C 
ATOM      4  C   UNL     1     255.693 257.830 252.918  1.00  0.00     0.004 C 
ENDBRANCH   2   3
BRANCH   2   5
ATOM      5  C   UNL     1     254.514 261.263 253.044  1.00  0.00    -0.014 C 
ATOM      6  C   UNL     1     253.321 260.528 253.684  1.00  0.00     0.007 C 
ATOM      7  C   UNL     1     255.224 262.129 254.098  1.00  0.00     0.007 C 
ENDBRANCH   2   5
ENDBRANCH   1   2
BRANCH   1   8
ATOM      8  C   UNL     1     254.883 260.988 249.879  1.00  0.00     0.004 C 
BRANCH   8   9
ATOM      9  C   UNL     1     255.142 260.116 248.617  1.00  0.00    -0.011 C 
ATOM     10  C   UNL     1     256.669 260.041 248.363  1.00  0.00     0.008 C 
BRANCH   9  11
ATOM     11  C   UNL     1     254.544 258.662 248.752  1.00  0.00    -0.002 C 
ATOM     12  C   UNL     1     255.665 257.608 248.837  1.00  0.00     0.005 C 
ATOM     13  C   UNL     1     253.581 258.121 247.634  1.00  0.00    -0.026 C 
ATOM     14  C   UNL     1     255.159 256.320 248.209  1.00  0.00     0.005 C 
ATOM     15  C   UNL     1     253.713 256.564 247.758  1.00  0.00    -0.001 C 
ATOM     16  C   UNL     1     252.096 258.579 247.839  1.00  0.00     0.007 C 
ATOM     17  C   UNL     1     254.060 258.547 246.221  1.00  0.00     0.012 C 
ATOM     18  C   UNL     1     252.645 255.965 248.730  1.00  0.00     0.004 C 
ATOM     19  C   UNL     1     251.095 257.525 247.361  1.00  0.00     0.005 C 
ATOM     20  C   UNL     1     251.184 256.223 248.200  1.00  0.00     0.003 C 
ATOM     21  C   UNL     1     252.923 254.496 249.137  1.00  0.00     0.085 C 
ATOM     22  C   UNL     1     250.415 254.988 247.545  1.00  0.00    -0.000 C 
ATOM     23  C   UNL     1     251.666 253.747 249.409  1.00  0.00     0.159 C 
ATOM     24  C   UNL     1     250.692 253.706 248.326  1.00  0.00     0.005 C 
ATOM     25  C   UNL     1     250.808 254.713 246.061  1.00  0.00     0.020 C 
ATOM     26  C   UNL     1     248.890 255.282 247.630  1.00  0.00     0.017 C 
ATOM     27  O   UNL     1     251.506 253.089 250.473  1.00  0.00    -0.295 OA
ATOM     28  C   UNL     1     250.344 252.506 247.836  1.00  0.00     0.055 C 
ATOM     29  C   UNL     1     250.059 253.501 245.462  1.00  0.00     0.081 C 
ATOM     30  C   UNL     1     249.914 252.364 246.437  1.00  0.00     0.156 C 
ATOM     31  O   UNL     1     249.450 251.261 246.040  1.00  0.00    -0.295 OA
ENDBRANCH   9  11
ENDBRANCH   8   9
ENDBRANCH   1   8
TORSDOF 6
ENDMDL
MODEL 7
REMARK VINA RESULT:    -8.244      4.909      7.387
REMARK INTER + INTRA:         -12.369
REMARK INTER:                 -11.431
REMARK INTRA:                  -0.938
REMARK UNBOUND:                -1.234
REMARK SMILES CC[C@@H](CC[C@@H](C)[C@@H]1CC[C@H]2[C@@H]3CC(=O)C4=CC(=O)CC[C@]4(C)[C@@H]3CC[C@]21C)C(C)C
REMARK SMILES IDX 4 1 3 2 2 3 1 4 29 5 30 6 31 7 5 8 6 9 7 10 8 11 9 12 27 13
REMARK SMILES IDX 10 14 11 15 26 16 28 17 12 18 25 19 24 20 13 21 22 22 14 23
REMARK SMILES IDX 16 24 21 25 23 26 15 27 17 28 20 29 18 30 19 31
REMARK H PARENT
REMARK Flexibility Score: inf
ROOT
ATOM      1  C   UNL     1     249.278 255.997 245.872  1.00  0.00     0.004 C 
ENDROOT
BRANCH   1   2
ATOM      2  C   UNL     1     248.952 257.508 246.073  1.00  0.00    -0.009 C 
BRANCH   2   3
ATOM      3  C   UNL     1     249.577 258.048 247.386  1.00  0.00     0.000 C 
ATOM      4  C   UNL     1     250.240 259.416 247.199  1.00  0.00     0.004 C 
ENDBRANCH   2   3
BRANCH   2   5
ATOM      5  C   UNL     1     247.410 257.773 245.985  1.00  0.00    -0.014 C 
ATOM      6  C   UNL     1     247.025 258.850 244.954  1.00  0.00     0.007 C 
ATOM      7  C   UNL     1     246.625 256.479 245.711  1.00  0.00     0.007 C 
ENDBRANCH   2   5
ENDBRANCH   1   2
BRANCH   1   8
ATOM      8  C   UNL     1     250.108 255.386 247.025  1.00  0.00     0.004 C 
BRANCH   8   9
ATOM      9  C   UNL     1     251.308 254.502 246.579  1.00  0.00    -0.011 C 
ATOM     10  C   UNL     1     252.043 255.206 245.411  1.00  0.00     0.008 C 
BRANCH   9  11
ATOM     11  C   UNL     1     252.317 254.211 247.757  1.00  0.00    -0.002 C 
ATOM     12  C   UNL     1     253.544 253.429 247.253  1.00  0.00     0.005 C 
ATOM     13  C   UNL     1     251.822 253.402 249.010  1.00  0.00    -0.026 C 
ATOM     14  C   UNL     1     254.043 252.543 248.383  1.00  0.00     0.005 C 
ATOM     15  C   UNL     1     253.142 252.795 249.599  1.00  0.00    -0.001 C 
ATOM     16  C   UNL     1     251.097 254.305 250.067  1.00  0.00     0.007 C 
ATOM     17  C   UNL     1     250.884 252.239 248.597  1.00  0.00     0.012 C 
ATOM     18  C   UNL     1     253.787 253.734 250.670  1.00  0.00     0.004 C 
ATOM     19  C   UNL     1     251.335 253.822 251.499  1.00  0.00     0.005 C 
ATOM     20  C   UNL     1     252.828 253.932 251.905  1.00  0.00     0.003 C 
ATOM     21  C   UNL     1     255.239 253.346 251.050  1.00  0.00     0.085 C 
ATOM     22  C   UNL     1     253.186 253.142 253.243  1.00  0.00    -0.000 C 
ATOM     23  C   UNL     1     255.561 253.707 252.457  1.00  0.00     0.159 C 
ATOM     24  C   UNL     1     254.693 253.144 253.484  1.00  0.00     0.005 C 
ATOM     25  C   UNL     1     252.726 251.651 253.240  1.00  0.00     0.020 C 
ATOM     26  C   UNL     1     252.510 253.889 254.428  1.00  0.00     0.017 C 
ATOM     27  O   UNL     1     256.594 254.368 252.750  1.00  0.00    -0.295 OA
ATOM     28  C   UNL     1     255.249 252.353 254.415  1.00  0.00     0.055 C 
ATOM     29  C   UNL     1     253.102 250.910 254.543  1.00  0.00     0.081 C 
ATOM     30  C   UNL     1     254.465 251.287 255.057  1.00  0.00     0.156 C 
ATOM     31  O   UNL     1     254.958 250.656 256.031  1.00  0.00    -0.295 OA
ENDBRANCH   9  11
ENDBRANCH   8   9
ENDBRANCH   1   8
TORSDOF 6
ENDMDL
MODEL 8
REMARK VINA RESULT:    -8.208      1.946      3.569
REMARK INTER + INTRA:         -12.320
REMARK INTER:                 -10.821
REMARK INTRA:                  -1.499
REMARK UNBOUND:                -1.234
REMARK SMILES CC[C@@H](CC[C@@H](C)[C@@H]1CC[C@H]2[C@@H]3CC(=O)C4=CC(=O)CC[C@]4(C)[C@@H]3CC[C@]21C)C(C)C
REMARK SMILES IDX 4 1 3 2 2 3 1 4 29 5 30 6 31 7 5 8 6 9 7 10 8 11 9 12 27 13
REMARK SMILES IDX 10 14 11 15 26 16 28 17 12 18 25 19 24 20 13 21 22 22 14 23
REMARK SMILES IDX 16 24 21 25 23 26 15 27 17 28 20 29 18 30 19 31
REMARK H PARENT
REMARK Flexibility Score: inf
ROOT
ATOM      1  C   UNL     1     254.630 260.835 247.538  1.00  0.00     0.004 C 
ENDROOT
BRANCH   1   2
ATOM      2  C   UNL     1     255.638 260.152 248.510  1.00  0.00    -0.009 C 
BRANCH   2   3
ATOM      3  C   UNL     1     255.213 260.348 249.990  1.00  0.00     0.000 C 
ATOM      4  C   UNL     1     255.047 259.019 250.732  1.00  0.00     0.004 C 
ENDBRANCH   2   3
BRANCH   2   5
ATOM      5  C   UNL     1     257.105 260.628 248.235  1.00  0.00    -0.014 C 
ATOM      6  C   UNL     1     257.302 261.251 246.840  1.00  0.00     0.007 C 
ATOM      7  C   UNL     1     257.600 261.600 249.319  1.00  0.00     0.007 C 
ENDBRANCH   2   5
ENDBRANCH   1   2
BRANCH   1   8
ATOM      8  C   UNL     1     253.203 260.243 247.612  1.00  0.00     0.004 C 
BRANCH   8   9
ATOM      9  C   UNL     1     252.989 258.932 246.803  1.00  0.00    -0.011 C 
ATOM     10  C   UNL     1     254.109 258.810 245.739  1.00  0.00     0.008 C 
BRANCH   9  11
ATOM     11  C   UNL     1     252.973 257.649 247.720  1.00  0.00    -0.002 C 
ATOM     12  C   UNL     1     254.291 256.863 247.596  1.00  0.00     0.005 C 
ATOM     13  C   UNL     1     251.850 256.569 247.511  1.00  0.00    -0.026 C 
ATOM     14  C   UNL     1     253.991 255.387 247.807  1.00  0.00     0.005 C 
ATOM     15  C   UNL     1     252.488 255.260 248.090  1.00  0.00    -0.001 C 
ATOM     16  C   UNL     1     250.518 256.925 248.258  1.00  0.00     0.007 C 
ATOM     17  C   UNL     1     251.552 256.349 246.005  1.00  0.00     0.012 C 
ATOM     18  C   UNL     1     252.152 255.070 249.605  1.00  0.00     0.004 C 
ATOM     19  C   UNL     1     249.783 255.679 248.754  1.00  0.00     0.005 C 
ATOM     20  C   UNL     1     250.600 254.916 249.830  1.00  0.00     0.003 C 
ATOM     21  C   UNL     1     253.005 253.981 250.304  1.00  0.00     0.085 C 
ATOM     22  C   UNL     1     250.046 253.452 250.133  1.00  0.00    -0.000 C 
ATOM     23  C   UNL     1     252.264 253.321 251.413  1.00  0.00     0.159 C 
ATOM     24  C   UNL     1     250.994 252.699 251.062  1.00  0.00     0.005 C 
ATOM     25  C   UNL     1     249.858 252.570 248.860  1.00  0.00     0.020 C 
ATOM     26  C   UNL     1     248.681 253.604 250.862  1.00  0.00     0.017 C 
ATOM     27  O   UNL     1     252.763 253.208 252.566  1.00  0.00    -0.295 OA
ATOM     28  C   UNL     1     250.859 251.380 251.272  1.00  0.00     0.055 C 
ATOM     29  C   UNL     1     249.337 251.153 249.188  1.00  0.00     0.081 C 
ATOM     30  C   UNL     1     249.958 250.576 250.432  1.00  0.00     0.156 C 
ATOM     31  O   UNL     1     249.732 249.375 250.739  1.00  0.00    -0.295 OA
ENDBRANCH   9  11
ENDBRANCH   8   9
ENDBRANCH   1   8
TORSDOF 6
ENDMDL
MODEL 9
REMARK VINA RESULT:    -8.182      4.574      7.058
REMARK INTER + INTRA:         -12.285
REMARK INTER:                 -10.686
REMARK INTRA:                  -1.599
REMARK UNBOUND:                -1.234
REMARK SMILES CC[C@@H](CC[C@@H](C)[C@@H]1CC[C@H]2[C@@H]3CC(=O)C4=CC(=O)CC[C@]4(C)[C@@H]3CC[C@]21C)C(C)C
REMARK SMILES IDX 4 1 3 2 2 3 1 4 29 5 30 6 31 7 5 8 6 9 7 10 8 11 9 12 27 13
REMARK SMILES IDX 10 14 11 15 26 16 28 17 12 18 25 19 24 20 13 21 22 22 14 23
REMARK SMILES IDX 16 24 21 25 23 26 15 27 17 28 20 29 18 30 19 31
REMARK H PARENT
REMARK Flexibility Score: inf
ROOT
ATOM      1  C   UNL     1     249.258 256.347 247.700  1.00  0.00     0.004 C 
ENDROOT
BRANCH   1   2
ATOM      2  C   UNL     1     248.767 257.630 246.965  1.00  0.00    -0.009 C 
BRANCH   2   3
ATOM      3  C   UNL     1     247.961 257.273 245.688  1.00  0.00     0.000 C 
ATOM      4  C   UNL     1     246.952 258.360 245.309  1.00  0.00     0.004 C 
ENDBRANCH   2   3
BRANCH   2   5
ATOM      5  C   UNL     1     249.956 258.608 246.674  1.00  0.00    -0.014 C 
ATOM      6  C   UNL     1     249.726 260.037 247.203  1.00  0.00     0.007 C 
ATOM      7  C   UNL     1     251.289 258.059 247.208  1.00  0.00     0.007 C 
ENDBRANCH   2   5
ENDBRANCH   1   2
BRANCH   1   8
ATOM      8  C   UNL     1     248.974 255.042 246.921  1.00  0.00     0.004 C 
BRANCH   8   9
ATOM      9  C   UNL     1     250.237 254.271 246.440  1.00  0.00    -0.011 C 
ATOM     10  C   UNL     1     250.728 254.894 245.109  1.00  0.00     0.008 C 
BRANCH   9  11
ATOM     11  C   UNL     1     251.400 254.287 247.506  1.00  0.00    -0.002 C 
ATOM     12  C   UNL     1     252.745 253.902 246.863  1.00  0.00     0.005 C 
ATOM     13  C   UNL     1     251.292 253.364 248.774  1.00  0.00    -0.026 C 
ATOM     14  C   UNL     1     253.593 253.199 247.911  1.00  0.00     0.005 C 
ATOM     15  C   UNL     1     252.784 253.171 249.214  1.00  0.00    -0.001 C 
ATOM     16  C   UNL     1     250.444 254.009 249.924  1.00  0.00     0.007 C 
ATOM     17  C   UNL     1     250.699 251.977 248.413  1.00  0.00     0.012 C 
ATOM     18  C   UNL     1     253.229 254.255 250.250  1.00  0.00     0.004 C 
ATOM     19  C   UNL     1     250.955 253.614 251.310  1.00  0.00     0.005 C 
ATOM     20  C   UNL     1     252.384 254.157 251.576  1.00  0.00     0.003 C 
ATOM     21  C   UNL     1     254.762 254.310 250.477  1.00  0.00     0.085 C 
ATOM     22  C   UNL     1     253.090 253.503 252.848  1.00  0.00    -0.000 C 
ATOM     23  C   UNL     1     255.103 254.746 251.858  1.00  0.00     0.159 C 
ATOM     24  C   UNL     1     254.546 253.949 252.944  1.00  0.00     0.005 C 
ATOM     25  C   UNL     1     253.089 251.944 252.840  1.00  0.00     0.020 C 
ATOM     26  C   UNL     1     252.347 254.014 254.115  1.00  0.00     0.017 C 
ATOM     27  O   UNL     1     255.922 255.682 252.073  1.00  0.00    -0.295 OA
ATOM     28  C   UNL     1     255.400 253.354 253.791  1.00  0.00     0.055 C 
ATOM     29  C   UNL     1     253.794 251.342 254.076  1.00  0.00     0.081 C 
ATOM     30  C   UNL     1     255.031 252.102 254.470  1.00  0.00     0.156 C 
ATOM     31  O   UNL     1     255.782 251.642 255.372  1.00  0.00    -0.295 OA
ENDBRANCH   9  11
ENDBRANCH   8   9
ENDBRANCH   1   8
TORSDOF 6
ENDMDL
