MODEL 1
REMARK VINA RESULT:    -6.257      0.000      0.000
REMARK INTER + INTRA:          -7.858
REMARK INTER:                  -7.537
REMARK INTRA:                  -0.321
REMARK UNBOUND:                -0.321
REMARK SMILES O=c1c(O)c(-c2ccc(O)c(O)c2)oc2cc(O)cc(O)c12
REMARK SMILES IDX 5 1 3 2 2 3 1 4 22 5 20 6 19 7 17 8 16 9 15 10 14 11 6 12
REMARK SMILES IDX 7 13 8 14 9 15 13 16 11 17 10 18 12 20 4 22 21 24 18 26
REMARK H PARENT 10 19 12 21 4 23 21 25 18 27
REMARK Flexibility Score: inf
ROOT
ATOM      1  C   UNL     1      19.951  17.381   8.346  1.00  0.00     0.180 A 
ATOM      2  C   UNL     1      19.900  16.404   7.339  1.00  0.00     0.208 A 
ATOM      3  C   UNL     1      18.892  16.481   6.364  1.00  0.00     0.238 A 
ATOM      4  O   UNL     1      18.886  15.634   5.433  1.00  0.00    -0.285 OA
ATOM      5  C   UNL     1      17.938  17.525   6.419  1.00  0.00     0.111 A 
ATOM      6  C   UNL     1      16.851  17.677   5.508  1.00  0.00     0.134 A 
ATOM      7  C   UNL     1      16.045  18.822   5.579  1.00  0.00     0.093 A 
ATOM      8  C   UNL     1      16.246  19.784   6.567  1.00  0.00     0.123 A 
ATOM      9  C   UNL     1      17.271  19.615   7.501  1.00  0.00     0.094 A 
ATOM     10  C   UNL     1      18.113  18.503   7.433  1.00  0.00     0.146 A 
ATOM     11  O   UNL     1      19.082  18.385   8.334  1.00  0.00    -0.452 OA
ENDROOT
BRANCH   1  12
ATOM     12  C   UNL     1      20.968  17.352   9.423  1.00  0.00     0.025 A 
ATOM     13  C   UNL     1      20.736  16.581  10.571  1.00  0.00     0.016 A 
ATOM     14  C   UNL     1      21.690  16.523  11.591  1.00  0.00     0.051 A 
ATOM     15  C   UNL     1      22.898  17.223  11.468  1.00  0.00     0.157 A 
ATOM     16  C   UNL     1      22.190  18.038   9.294  1.00  0.00     0.062 A 
ATOM     17  C   UNL     1      23.149  17.980  10.312  1.00  0.00     0.158 A 
BRANCH  15  18
ATOM     18  O   UNL     1      23.847  17.166  12.487  1.00  0.00    -0.504 OA
ATOM     19  H   UNL     1      24.764  16.760  12.337  1.00  0.00     0.293 HD
ENDBRANCH  15  18
BRANCH  17  20
ATOM     20  O   UNL     1      24.346  18.678  10.154  1.00  0.00    -0.504 OA
ATOM     21  H   UNL     1      24.958  18.881  10.935  1.00  0.00     0.293 HD
ENDBRANCH  17  20
ENDBRANCH   1  12
BRANCH   2  22
ATOM     22  O   UNL     1      20.865  15.393   7.290  1.00  0.00    -0.502 OA
ATOM     23  H   UNL     1      20.821  14.568   7.875  1.00  0.00     0.293 HD
ENDBRANCH   2  22
BRANCH   6  24
ATOM     24  O   UNL     1      16.504  16.730   4.540  1.00  0.00    -0.507 OA
ATOM     25  H   UNL     1      17.090  15.961   4.253  1.00  0.00     0.293 HD
ENDBRANCH   6  24
BRANCH   8  26
ATOM     26  O   UNL     1      15.417  20.901   6.618  1.00  0.00    -0.508 OA
ATOM     27  H   UNL     1      15.771  21.813   6.883  1.00  0.00     0.293 HD
ENDBRANCH   8  26
TORSDOF 6
ENDMDL
MODEL 2
REMARK VINA RESULT:    -6.256      1.669      7.022
REMARK INTER + INTRA:          -7.857
REMARK INTER:                  -7.711
REMARK INTRA:                  -0.146
REMARK UNBOUND:                -0.321
REMARK SMILES O=c1c(O)c(-c2ccc(O)c(O)c2)oc2cc(O)cc(O)c12
REMARK SMILES IDX 5 1 3 2 2 3 1 4 22 5 20 6 19 7 17 8 16 9 15 10 14 11 6 12
REMARK SMILES IDX 7 13 8 14 9 15 13 16 11 17 10 18 12 20 4 22 21 24 18 26
REMARK H PARENT 10 19 12 21 4 23 21 25 18 27
REMARK Flexibility Score: inf
ROOT
ATOM      1  C   UNL     1      19.691  18.682   7.863  1.00  0.00     0.180 A 
ATOM      2  C   UNL     1      20.922  19.229   7.463  1.00  0.00     0.208 A 
ATOM      3  C   UNL     1      22.083  18.889   8.177  1.00  0.00     0.238 A 
ATOM      4  O   UNL     1      23.190  19.339   7.780  1.00  0.00    -0.285 OA
ATOM      5  C   UNL     1      21.996  18.020   9.291  1.00  0.00     0.111 A 
ATOM      6  C   UNL     1      23.100  17.640  10.110  1.00  0.00     0.134 A 
ATOM      7  C   UNL     1      22.920  16.672  11.106  1.00  0.00     0.093 A 
ATOM      8  C   UNL     1      21.664  16.119  11.356  1.00  0.00     0.123 A 
ATOM      9  C   UNL     1      20.565  16.528  10.599  1.00  0.00     0.094 A 
ATOM     10  C   UNL     1      20.720  17.465   9.575  1.00  0.00     0.146 A 
ATOM     11  O   UNL     1      19.651  17.818   8.871  1.00  0.00    -0.452 OA
ENDROOT
BRANCH   1  12
ATOM     12  C   UNL     1      18.421  19.013   7.176  1.00  0.00     0.025 A 
ATOM     13  C   UNL     1      17.431  19.731   7.864  1.00  0.00     0.016 A 
ATOM     14  C   UNL     1      16.234  20.072   7.230  1.00  0.00     0.051 A 
ATOM     15  C   UNL     1      16.016  19.713   5.893  1.00  0.00     0.157 A 
ATOM     16  C   UNL     1      18.207  18.671   5.828  1.00  0.00     0.062 A 
ATOM     17  C   UNL     1      17.009  19.013   5.189  1.00  0.00     0.158 A 
BRANCH  15  18
ATOM     18  O   UNL     1      14.819  20.051   5.263  1.00  0.00    -0.504 OA
ATOM     19  H   UNL     1      14.802  20.632   4.433  1.00  0.00     0.293 HD
ENDBRANCH  15  18
BRANCH  17  20
ATOM     20  O   UNL     1      16.829  18.653   3.854  1.00  0.00    -0.504 OA
ATOM     21  H   UNL     1      15.931  18.736   3.391  1.00  0.00     0.293 HD
ENDBRANCH  17  20
ENDBRANCH   1  12
BRANCH   2  22
ATOM     22  O   UNL     1      20.990  20.067   6.347  1.00  0.00    -0.502 OA
ATOM     23  H   UNL     1      20.779  19.746   5.410  1.00  0.00     0.293 HD
ENDBRANCH   2  22
BRANCH   6  24
ATOM     24  O   UNL     1      24.378  18.198  10.007  1.00  0.00    -0.507 OA
ATOM     25  H   UNL     1      24.880  18.626  10.770  1.00  0.00     0.293 HD
ENDBRANCH   6  24
BRANCH   8  26
ATOM     26  O   UNL     1      21.519  15.170  12.364  1.00  0.00    -0.508 OA
ATOM     27  H   UNL     1      22.022  15.246  13.241  1.00  0.00     0.293 HD
ENDBRANCH   8  26
TORSDOF 6
ENDMDL
MODEL 3
REMARK VINA RESULT:    -6.139      1.667      6.605
REMARK INTER + INTRA:          -7.716
REMARK INTER:                  -7.392
REMARK INTRA:                  -0.323
REMARK UNBOUND:                -0.321
REMARK SMILES O=c1c(O)c(-c2ccc(O)c(O)c2)oc2cc(O)cc(O)c12
REMARK SMILES IDX 5 1 3 2 2 3 1 4 22 5 20 6 19 7 17 8 16 9 15 10 14 11 6 12
REMARK SMILES IDX 7 13 8 14 9 15 13 16 11 17 10 18 12 20 4 22 21 24 18 26
REMARK H PARENT 10 19 12 21 4 23 21 25 18 27
REMARK Flexibility Score: inf
ROOT
ATOM      1  C   UNL     1      19.152  18.130   8.126  1.00  0.00     0.180 A 
ATOM      2  C   UNL     1      19.944  17.626   7.081  1.00  0.00     0.208 A 
ATOM      3  C   UNL     1      21.325  17.469   7.286  1.00  0.00     0.238 A 
ATOM      4  O   UNL     1      22.019  16.966   6.364  1.00  0.00    -0.285 OA
ATOM      5  C   UNL     1      21.898  17.833   8.528  1.00  0.00     0.111 A 
ATOM      6  C   UNL     1      23.290  17.755   8.831  1.00  0.00     0.134 A 
ATOM      7  C   UNL     1      23.728  18.018  10.136  1.00  0.00     0.093 A 
ATOM      8  C   UNL     1      22.835  18.421  11.128  1.00  0.00     0.123 A 
ATOM      9  C   UNL     1      21.479  18.558  10.826  1.00  0.00     0.094 A 
ATOM     10  C   UNL     1      21.007  18.268   9.544  1.00  0.00     0.146 A 
ATOM     11  O   UNL     1      19.709  18.402   9.301  1.00  0.00    -0.452 OA
ENDROOT
BRANCH   1  12
ATOM     12  C   UNL     1      17.695  18.348   7.977  1.00  0.00     0.025 A 
ATOM     13  C   UNL     1      16.799  17.395   8.485  1.00  0.00     0.016 A 
ATOM     14  C   UNL     1      15.420  17.589   8.374  1.00  0.00     0.051 A 
ATOM     15  C   UNL     1      14.917  18.747   7.768  1.00  0.00     0.157 A 
ATOM     16  C   UNL     1      17.186  19.519   7.386  1.00  0.00     0.062 A 
ATOM     17  C   UNL     1      15.805  19.717   7.275  1.00  0.00     0.158 A 
BRANCH  15  18
ATOM     18  O   UNL     1      13.540  18.938   7.655  1.00  0.00    -0.504 OA
ATOM     19  H   UNL     1      13.043  18.720   6.799  1.00  0.00     0.293 HD
ENDBRANCH  15  18
BRANCH  17  20
ATOM     20  O   UNL     1      15.336  20.888   6.678  1.00  0.00    -0.504 OA
ATOM     21  H   UNL     1      15.422  21.792   7.126  1.00  0.00     0.293 HD
ENDBRANCH  17  20
ENDBRANCH   1  12
BRANCH   2  22
ATOM     22  O   UNL     1      19.355  17.252   5.869  1.00  0.00    -0.502 OA
ATOM     23  H   UNL     1      18.536  16.658   5.823  1.00  0.00     0.293 HD
ENDBRANCH   2  22
BRANCH   6  24
ATOM     24  O   UNL     1      24.279  17.452   7.891  1.00  0.00    -0.507 OA
ATOM     25  H   UNL     1      24.996  18.092   7.586  1.00  0.00     0.293 HD
ENDBRANCH   6  24
BRANCH   8  26
ATOM     26  O   UNL     1      23.308  18.689  12.410  1.00  0.00    -0.508 OA
ATOM     27  H   UNL     1      24.239  18.412  12.701  1.00  0.00     0.293 HD
ENDBRANCH   8  26
TORSDOF 6
ENDMDL
MODEL 4
REMARK VINA RESULT:    -6.113      3.953      6.571
REMARK INTER + INTRA:          -7.685
REMARK INTER:                  -7.482
REMARK INTRA:                  -0.203
REMARK UNBOUND:                -0.321
REMARK SMILES O=c1c(O)c(-c2ccc(O)c(O)c2)oc2cc(O)cc(O)c12
REMARK SMILES IDX 5 1 3 2 2 3 1 4 22 5 20 6 19 7 17 8 16 9 15 10 14 11 6 12
REMARK SMILES IDX 7 13 8 14 9 15 13 16 11 17 10 18 12 20 4 22 21 24 18 26
REMARK H PARENT 10 19 12 21 4 23 21 25 18 27
REMARK Flexibility Score: inf
ROOT
ATOM      1  C   UNL     1      22.522  16.559   7.408  1.00  0.00     0.180 A 
ATOM      2  C   UNL     1      23.208  17.062   6.290  1.00  0.00     0.208 A 
ATOM      3  C   UNL     1      23.968  16.181   5.503  1.00  0.00     0.238 A 
ATOM      4  O   UNL     1      24.535  16.628   4.472  1.00  0.00    -0.285 OA
ATOM      5  C   UNL     1      24.046  14.813   5.855  1.00  0.00     0.111 A 
ATOM      6  C   UNL     1      24.819  13.839   5.153  1.00  0.00     0.134 A 
ATOM      7  C   UNL     1      24.719  12.489   5.512  1.00  0.00     0.093 A 
ATOM      8  C   UNL     1      23.927  12.085   6.586  1.00  0.00     0.123 A 
ATOM      9  C   UNL     1      23.213  13.037   7.317  1.00  0.00     0.094 A 
ATOM     10  C   UNL     1      23.265  14.387   6.961  1.00  0.00     0.146 A 
ATOM     11  O   UNL     1      22.562  15.258   7.675  1.00  0.00    -0.452 OA
ENDROOT
BRANCH   1  12
ATOM     12  C   UNL     1      21.722  17.429   8.300  1.00  0.00     0.025 A 
ATOM     13  C   UNL     1      20.510  17.965   7.837  1.00  0.00     0.016 A 
ATOM     14  C   UNL     1      19.728  18.772   8.667  1.00  0.00     0.051 A 
ATOM     15  C   UNL     1      20.139  19.042   9.979  1.00  0.00     0.157 A 
ATOM     16  C   UNL     1      22.121  17.686   9.625  1.00  0.00     0.062 A 
ATOM     17  C   UNL     1      21.339  18.493  10.460  1.00  0.00     0.158 A 
BRANCH  15  18
ATOM     18  O   UNL     1      19.360  19.850  10.806  1.00  0.00    -0.504 OA
ATOM     19  H   UNL     1      19.764  20.364  11.580  1.00  0.00     0.293 HD
ENDBRANCH  15  18
BRANCH  17  20
ATOM     20  O   UNL     1      21.769  18.731  11.765  1.00  0.00    -0.504 OA
ATOM     21  H   UNL     1      21.815  17.995  12.460  1.00  0.00     0.293 HD
ENDBRANCH  17  20
ENDBRANCH   1  12
BRANCH   2  22
ATOM     22  O   UNL     1      23.099  18.413   5.948  1.00  0.00    -0.502 OA
ATOM     23  H   UNL     1      22.221  18.916   5.985  1.00  0.00     0.293 HD
ENDBRANCH   2  22
BRANCH   6  24
ATOM     24  O   UNL     1      25.714  14.146   4.124  1.00  0.00    -0.507 OA
ATOM     25  H   UNL     1      25.555  13.950   3.148  1.00  0.00     0.293 HD
ENDBRANCH   6  24
BRANCH   8  26
ATOM     26  O   UNL     1      23.863  10.736   6.924  1.00  0.00    -0.508 OA
ATOM     27  H   UNL     1      23.799  10.014   6.216  1.00  0.00     0.293 HD
ENDBRANCH   8  26
TORSDOF 6
ENDMDL
MODEL 5
REMARK VINA RESULT:    -6.088      2.008      2.411
REMARK INTER + INTRA:          -7.654
REMARK INTER:                  -7.376
REMARK INTRA:                  -0.278
REMARK UNBOUND:                -0.321
REMARK SMILES O=c1c(O)c(-c2ccc(O)c(O)c2)oc2cc(O)cc(O)c12
REMARK SMILES IDX 5 1 3 2 2 3 1 4 22 5 20 6 19 7 17 8 16 9 15 10 14 11 6 12
REMARK SMILES IDX 7 13 8 14 9 15 13 16 11 17 10 18 12 20 4 22 21 24 18 26
REMARK H PARENT 10 19 12 21 4 23 21 25 18 27
REMARK Flexibility Score: inf
ROOT
ATOM      1  C   UNL     1      18.924  17.988   8.619  1.00  0.00     0.180 A 
ATOM      2  C   UNL     1      18.173  16.820   8.833  1.00  0.00     0.208 A 
ATOM      3  C   UNL     1      16.834  16.784   8.411  1.00  0.00     0.238 A 
ATOM      4  O   UNL     1      16.183  15.716   8.557  1.00  0.00    -0.285 OA
ATOM      5  C   UNL     1      16.258  17.921   7.795  1.00  0.00     0.111 A 
ATOM      6  C   UNL     1      14.901  18.009   7.365  1.00  0.00     0.134 A 
ATOM      7  C   UNL     1      14.475  19.136   6.650  1.00  0.00     0.093 A 
ATOM      8  C   UNL     1      15.338  20.204   6.408  1.00  0.00     0.123 A 
ATOM      9  C   UNL     1      16.652  20.153   6.876  1.00  0.00     0.094 A 
ATOM     10  C   UNL     1      17.116  19.028   7.561  1.00  0.00     0.146 A 
ATOM     11  O   UNL     1      18.376  19.015   7.980  1.00  0.00    -0.452 OA
ENDROOT
BRANCH   1  12
ATOM     12  C   UNL     1      20.333  18.111   9.058  1.00  0.00     0.025 A 
ATOM     13  C   UNL     1      21.358  18.105   8.100  1.00  0.00     0.016 A 
ATOM     14  C   UNL     1      22.693  18.240   8.490  1.00  0.00     0.051 A 
ATOM     15  C   UNL     1      23.021  18.400   9.843  1.00  0.00     0.157 A 
ATOM     16  C   UNL     1      20.664  18.291  10.414  1.00  0.00     0.062 A 
ATOM     17  C   UNL     1      22.000  18.429  10.807  1.00  0.00     0.158 A 
BRANCH  15  18
ATOM     18  O   UNL     1      24.353  18.532  10.230  1.00  0.00    -0.504 OA
ATOM     19  H   UNL     1      24.906  17.730  10.511  1.00  0.00     0.293 HD
ENDBRANCH  15  18
BRANCH  17  20
ATOM     20  O   UNL     1      22.292  18.600  12.161  1.00  0.00    -0.504 OA
ATOM     21  H   UNL     1      21.776  19.247  12.745  1.00  0.00     0.293 HD
ENDBRANCH  17  20
ENDBRANCH   1  12
BRANCH   2  22
ATOM     22  O   UNL     1      18.766  15.700   9.424  1.00  0.00    -0.502 OA
ATOM     23  H   UNL     1      18.672  14.768   9.039  1.00  0.00     0.293 HD
ENDBRANCH   2  22
BRANCH   6  24
ATOM     24  O   UNL     1      13.931  17.040   7.636  1.00  0.00    -0.507 OA
ATOM     25  H   UNL     1      14.040  16.053   7.459  1.00  0.00     0.293 HD
ENDBRANCH   6  24
BRANCH   8  26
ATOM     26  O   UNL     1      14.876  21.315   5.706  1.00  0.00    -0.508 OA
ATOM     27  H   UNL     1      14.489  21.230   4.773  1.00  0.00     0.293 HD
ENDBRANCH   8  26
TORSDOF 6
ENDMDL
MODEL 6
REMARK VINA RESULT:    -6.059      1.369      1.880
REMARK INTER + INTRA:          -7.619
REMARK INTER:                  -7.415
REMARK INTRA:                  -0.203
REMARK UNBOUND:                -0.321
REMARK SMILES O=c1c(O)c(-c2ccc(O)c(O)c2)oc2cc(O)cc(O)c12
REMARK SMILES IDX 5 1 3 2 2 3 1 4 22 5 20 6 19 7 17 8 16 9 15 10 14 11 6 12
REMARK SMILES IDX 7 13 8 14 9 15 13 16 11 17 10 18 12 20 4 22 21 24 18 26
REMARK H PARENT 10 19 12 21 4 23 21 25 18 27
REMARK Flexibility Score: inf
ROOT
ATOM      1  C   UNL     1      20.511  18.024   8.048  1.00  0.00     0.180 A 
ATOM      2  C   UNL     1      20.876  17.670   6.738  1.00  0.00     0.208 A 
ATOM      3  C   UNL     1      19.988  17.947   5.685  1.00  0.00     0.238 A 
ATOM      4  O   UNL     1      20.344  17.677   4.508  1.00  0.00    -0.285 OA
ATOM      5  C   UNL     1      18.742  18.558   5.958  1.00  0.00     0.111 A 
ATOM      6  C   UNL     1      17.749  18.848   4.974  1.00  0.00     0.134 A 
ATOM      7  C   UNL     1      16.607  19.573   5.338  1.00  0.00     0.093 A 
ATOM      8  C   UNL     1      16.391  19.962   6.659  1.00  0.00     0.123 A 
ATOM      9  C   UNL     1      17.328  19.632   7.641  1.00  0.00     0.094 A 
ATOM     10  C   UNL     1      18.493  18.940   7.302  1.00  0.00     0.146 A 
ATOM     11  O   UNL     1      19.363  18.655   8.264  1.00  0.00    -0.452 OA
ENDROOT
BRANCH   1  12
ATOM     12  C   UNL     1      21.382  17.741   9.212  1.00  0.00     0.025 A 
ATOM     13  C   UNL     1      22.568  18.472   9.382  1.00  0.00     0.016 A 
ATOM     14  C   UNL     1      23.394  18.237  10.483  1.00  0.00     0.051 A 
ATOM     15  C   UNL     1      23.038  17.279  11.441  1.00  0.00     0.157 A 
ATOM     16  C   UNL     1      21.018  16.794  10.187  1.00  0.00     0.062 A 
ATOM     17  C   UNL     1      21.842  16.557  11.293  1.00  0.00     0.158 A 
BRANCH  15  18
ATOM     18  O   UNL     1      23.866  17.043  12.538  1.00  0.00    -0.504 OA
ATOM     19  H   UNL     1      24.832  16.761  12.423  1.00  0.00     0.293 HD
ENDBRANCH  15  18
BRANCH  17  20
ATOM     20  O   UNL     1      21.453  15.606  12.235  1.00  0.00    -0.504 OA
ATOM     21  H   UNL     1      22.126  15.090  12.789  1.00  0.00     0.293 HD
ENDBRANCH  17  20
ENDBRANCH   1  12
BRANCH   2  22
ATOM     22  O   UNL     1      22.121  17.086   6.488  1.00  0.00    -0.502 OA
ATOM     23  H   UNL     1      22.991  17.510   6.786  1.00  0.00     0.293 HD
ENDBRANCH   2  22
BRANCH   6  24
ATOM     24  O   UNL     1      17.822  18.426   3.644  1.00  0.00    -0.507 OA
ATOM     25  H   UNL     1      17.905  19.042   2.850  1.00  0.00     0.293 HD
ENDBRANCH   6  24
BRANCH   8  26
ATOM     26  O   UNL     1      15.237  20.669   6.988  1.00  0.00    -0.508 OA
ATOM     27  H   UNL     1      14.874  21.401   6.388  1.00  0.00     0.293 HD
ENDBRANCH   8  26
TORSDOF 6
ENDMDL
MODEL 7
REMARK VINA RESULT:    -6.012      3.982      6.510
REMARK INTER + INTRA:          -7.563
REMARK INTER:                  -7.294
REMARK INTRA:                  -0.269
REMARK UNBOUND:                -0.321
REMARK SMILES O=c1c(O)c(-c2ccc(O)c(O)c2)oc2cc(O)cc(O)c12
REMARK SMILES IDX 5 1 3 2 2 3 1 4 22 5 20 6 19 7 17 8 16 9 15 10 14 11 6 12
REMARK SMILES IDX 7 13 8 14 9 15 13 16 11 17 10 18 12 20 4 22 21 24 18 26
REMARK H PARENT 10 19 12 21 4 23 21 25 18 27
REMARK Flexibility Score: inf
ROOT
ATOM      1  C   UNL     1      22.280  15.555   8.220  1.00  0.00     0.180 A 
ATOM      2  C   UNL     1      22.233  14.243   8.722  1.00  0.00     0.208 A 
ATOM      3  C   UNL     1      22.928  13.229   8.044  1.00  0.00     0.238 A 
ATOM      4  O   UNL     1      22.926  12.067   8.530  1.00  0.00    -0.285 OA
ATOM      5  C   UNL     1      23.647  13.535   6.864  1.00  0.00     0.111 A 
ATOM      6  C   UNL     1      24.353  12.579   6.075  1.00  0.00     0.134 A 
ATOM      7  C   UNL     1      25.138  13.016   5.000  1.00  0.00     0.093 A 
ATOM      8  C   UNL     1      25.189  14.363   4.646  1.00  0.00     0.123 A 
ATOM      9  C   UNL     1      24.455  15.300   5.375  1.00  0.00     0.094 A 
ATOM     10  C   UNL     1      23.691  14.899   6.475  1.00  0.00     0.146 A 
ATOM     11  O   UNL     1      23.016  15.823   7.148  1.00  0.00    -0.452 OA
ENDROOT
BRANCH   1  12
ATOM     12  C   UNL     1      21.552  16.672   8.864  1.00  0.00     0.025 A 
ATOM     13  C   UNL     1      20.339  17.114   8.317  1.00  0.00     0.016 A 
ATOM     14  C   UNL     1      19.625  18.153   8.919  1.00  0.00     0.051 A 
ATOM     15  C   UNL     1      20.108  18.755  10.089  1.00  0.00     0.157 A 
ATOM     16  C   UNL     1      22.024  17.266  10.050  1.00  0.00     0.062 A 
ATOM     17  C   UNL     1      21.311  18.306  10.657  1.00  0.00     0.158 A 
BRANCH  15  18
ATOM     18  O   UNL     1      19.396  19.795  10.687  1.00  0.00    -0.504 OA
ATOM     19  H   UNL     1      19.663  20.764  10.557  1.00  0.00     0.293 HD
ENDBRANCH  15  18
BRANCH  17  20
ATOM     20  O   UNL     1      21.811  18.875  11.829  1.00  0.00    -0.504 OA
ATOM     21  H   UNL     1      21.429  19.729  12.218  1.00  0.00     0.293 HD
ENDBRANCH  17  20
ENDBRANCH   1  12
BRANCH   2  22
ATOM     22  O   UNL     1      21.535  13.966   9.901  1.00  0.00    -0.502 OA
ATOM     23  H   UNL     1      20.552  14.180  10.016  1.00  0.00     0.293 HD
ENDBRANCH   2  22
BRANCH   6  24
ATOM     24  O   UNL     1      24.297  11.198   6.285  1.00  0.00    -0.507 OA
ATOM     25  H   UNL     1      23.462  10.638   6.201  1.00  0.00     0.293 HD
ENDBRANCH   6  24
BRANCH   8  26
ATOM     26  O   UNL     1      25.968  14.760   3.562  1.00  0.00    -0.508 OA
ATOM     27  H   UNL     1      25.861  15.675   3.138  1.00  0.00     0.293 HD
ENDBRANCH   8  26
TORSDOF 6
ENDMDL
MODEL 8
REMARK VINA RESULT:    -5.941      3.580      6.662
REMARK INTER + INTRA:          -7.477
REMARK INTER:                  -7.176
REMARK INTRA:                  -0.301
REMARK UNBOUND:                -0.321
REMARK SMILES O=c1c(O)c(-c2ccc(O)c(O)c2)oc2cc(O)cc(O)c12
REMARK SMILES IDX 5 1 3 2 2 3 1 4 22 5 20 6 19 7 17 8 16 9 15 10 14 11 6 12
REMARK SMILES IDX 7 13 8 14 9 15 13 16 11 17 10 18 12 20 4 22 21 24 18 26
REMARK H PARENT 10 19 12 21 4 23 21 25 18 27
REMARK Flexibility Score: inf
ROOT
ATOM      1  C   UNL     1      22.973  16.259   7.417  1.00  0.00     0.180 A 
ATOM      2  C   UNL     1      21.705  16.815   7.181  1.00  0.00     0.208 A 
ATOM      3  C   UNL     1      21.100  17.584   8.189  1.00  0.00     0.238 A 
ATOM      4  O   UNL     1      19.989  18.125   7.950  1.00  0.00    -0.285 OA
ATOM      5  C   UNL     1      21.763  17.772   9.425  1.00  0.00     0.111 A 
ATOM      6  C   UNL     1      21.226  18.498  10.530  1.00  0.00     0.134 A 
ATOM      7  C   UNL     1      22.025  18.731  11.657  1.00  0.00     0.093 A 
ATOM      8  C   UNL     1      23.315  18.209  11.747  1.00  0.00     0.123 A 
ATOM      9  C   UNL     1      23.828  17.447  10.695  1.00  0.00     0.094 A 
ATOM     10  C   UNL     1      23.069  17.228   9.543  1.00  0.00     0.146 A 
ATOM     11  O   UNL     1      23.599  16.507   8.562  1.00  0.00    -0.452 OA
ENDROOT
BRANCH   1  12
ATOM     12  C   UNL     1      23.664  15.416   6.414  1.00  0.00     0.025 A 
ATOM     13  C   UNL     1      24.398  16.027   5.386  1.00  0.00     0.016 A 
ATOM     14  C   UNL     1      25.074  15.252   4.441  1.00  0.00     0.051 A 
ATOM     15  C   UNL     1      25.039  13.854   4.519  1.00  0.00     0.157 A 
ATOM     16  C   UNL     1      23.647  14.012   6.501  1.00  0.00     0.062 A 
ATOM     17  C   UNL     1      24.326  13.232   5.557  1.00  0.00     0.158 A 
BRANCH  15  18
ATOM     18  O   UNL     1      25.712  13.082   3.573  1.00  0.00    -0.504 OA
ATOM     19  H   UNL     1      25.382  13.006   2.618  1.00  0.00     0.293 HD
ENDBRANCH  15  18
BRANCH  17  20
ATOM     20  O   UNL     1      24.283  11.843   5.671  1.00  0.00    -0.504 OA
ATOM     21  H   UNL     1      24.116  11.242   4.872  1.00  0.00     0.293 HD
ENDBRANCH  17  20
ENDBRANCH   1  12
BRANCH   2  22
ATOM     22  O   UNL     1      21.077  16.636   5.945  1.00  0.00    -0.502 OA
ATOM     23  H   UNL     1      20.219  17.111   5.696  1.00  0.00     0.293 HD
ENDBRANCH   2  22
BRANCH   6  24
ATOM     24  O   UNL     1      19.917  18.984  10.583  1.00  0.00    -0.507 OA
ATOM     25  H   UNL     1      19.655  19.947  10.433  1.00  0.00     0.293 HD
ENDBRANCH   6  24
BRANCH   8  26
ATOM     26  O   UNL     1      24.075  18.448  12.888  1.00  0.00    -0.508 OA
ATOM     27  H   UNL     1      25.060  18.679  12.831  1.00  0.00     0.293 HD
ENDBRANCH   8  26
TORSDOF 6
ENDMDL
MODEL 9
REMARK VINA RESULT:    -5.792      4.312      5.743
REMARK INTER + INTRA:          -7.298
REMARK INTER:                  -6.979
REMARK INTRA:                  -0.319
REMARK UNBOUND:                -0.321
REMARK SMILES O=c1c(O)c(-c2ccc(O)c(O)c2)oc2cc(O)cc(O)c12
REMARK SMILES IDX 5 1 3 2 2 3 1 4 22 5 20 6 19 7 17 8 16 9 15 10 14 11 6 12
REMARK SMILES IDX 7 13 8 14 9 15 13 16 11 17 10 18 12 20 4 22 21 24 18 26
REMARK H PARENT 10 19 12 21 4 23 21 25 18 27
REMARK Flexibility Score: inf
ROOT
ATOM      1  C   UNL     1      22.926  15.880   7.696  1.00  0.00     0.180 A 
ATOM      2  C   UNL     1      23.922  16.203   6.761  1.00  0.00     0.208 A 
ATOM      3  C   UNL     1      24.045  15.425   5.598  1.00  0.00     0.238 A 
ATOM      4  O   UNL     1      24.904  15.754   4.739  1.00  0.00    -0.285 OA
ATOM      5  C   UNL     1      23.181  14.323   5.394  1.00  0.00     0.111 A 
ATOM      6  C   UNL     1      23.242  13.443   4.273  1.00  0.00     0.134 A 
ATOM      7  C   UNL     1      22.253  12.464   4.109  1.00  0.00     0.093 A 
ATOM      8  C   UNL     1      21.246  12.291   5.058  1.00  0.00     0.123 A 
ATOM      9  C   UNL     1      21.211  13.109   6.188  1.00  0.00     0.094 A 
ATOM     10  C   UNL     1      22.162  14.117   6.362  1.00  0.00     0.146 A 
ATOM     11  O   UNL     1      22.088  14.880   7.446  1.00  0.00    -0.452 OA
ENDROOT
BRANCH   1  12
ATOM     12  C   UNL     1      22.751  16.637   8.957  1.00  0.00     0.025 A 
ATOM     13  C   UNL     1      21.937  17.780   8.969  1.00  0.00     0.016 A 
ATOM     14  C   UNL     1      21.742  18.499  10.151  1.00  0.00     0.051 A 
ATOM     15  C   UNL     1      22.344  18.074  11.343  1.00  0.00     0.157 A 
ATOM     16  C   UNL     1      23.338  16.203  10.160  1.00  0.00     0.062 A 
ATOM     17  C   UNL     1      23.142  16.919  11.346  1.00  0.00     0.158 A 
BRANCH  15  18
ATOM     18  O   UNL     1      22.151  18.794  12.521  1.00  0.00    -0.504 OA
ATOM     19  H   UNL     1      22.920  19.008  13.145  1.00  0.00     0.293 HD
ENDBRANCH  15  18
BRANCH  17  20
ATOM     20  O   UNL     1      23.745  16.463  12.519  1.00  0.00    -0.504 OA
ATOM     21  H   UNL     1      23.788  15.478  12.754  1.00  0.00     0.293 HD
ENDBRANCH  17  20
ENDBRANCH   1  12
BRANCH   2  22
ATOM     22  O   UNL     1      24.751  17.309   6.971  1.00  0.00    -0.502 OA
ATOM     23  H   UNL     1      25.042  17.605   7.895  1.00  0.00     0.293 HD
ENDBRANCH   2  22
BRANCH   6  24
ATOM     24  O   UNL     1      24.259  13.468   3.315  1.00  0.00    -0.507 OA
ATOM     25  H   UNL     1      24.223  12.991   2.426  1.00  0.00     0.293 HD
ENDBRANCH   6  24
BRANCH   8  26
ATOM     26  O   UNL     1      20.288  11.298   4.870  1.00  0.00    -0.508 OA
ATOM     27  H   UNL     1      20.333  10.659   4.084  1.00  0.00     0.293 HD
ENDBRANCH   8  26
TORSDOF 6
ENDMDL
