MODEL 1
REMARK VINA RESULT:    -2.648      0.000      0.000
REMARK INTER + INTRA:          -3.738
REMARK INTER:                  -3.267
REMARK INTRA:                  -0.471
REMARK UNBOUND:                -0.471
REMARK SMILES C=CC[C@H](C)C(=O)CC
REMARK SMILES IDX 4 1 5 2 6 3 7 4 8 5 9 6 3 7 2 8 1 9
REMARK H PARENT
REMARK Flexibility Score: inf
ROOT
ATOM      1  C   UNL     1      60.977   4.897  31.769  1.00  0.00     0.057 C 
ATOM      2  C   UNL     1      61.013   3.472  32.332  1.00  0.00     0.016 C 
ENDROOT
BRANCH   1   3
ATOM      3  C   UNL     1      59.946   4.985  30.661  1.00  0.00     0.135 C 
ATOM      4  O   UNL     1      59.721   4.006  29.963  1.00  0.00    -0.299 OA
BRANCH   3   5
ATOM      5  C   UNL     1      59.173   6.255  30.416  1.00  0.00     0.072 C 
ATOM      6  C   UNL     1      58.859   6.966  31.728  1.00  0.00     0.012 C 
ENDBRANCH   3   5
ENDBRANCH   1   3
BRANCH   1   7
ATOM      7  C   UNL     1      62.373   5.316  31.270  1.00  0.00     0.038 C 
BRANCH   7   8
ATOM      8  C   UNL     1      62.706   6.725  31.689  1.00  0.00    -0.034 C 
ATOM      9  C   UNL     1      62.611   7.753  30.842  1.00  0.00     0.004 C 
ENDBRANCH   7   8
ENDBRANCH   1   7
TORSDOF 4
ENDMDL
MODEL 2
REMARK VINA RESULT:    -2.646      1.221      1.971
REMARK INTER + INTRA:          -3.736
REMARK INTER:                  -3.395
REMARK INTRA:                  -0.341
REMARK UNBOUND:                -0.471
REMARK SMILES C=CC[C@H](C)C(=O)CC
REMARK SMILES IDX 4 1 5 2 6 3 7 4 8 5 9 6 3 7 2 8 1 9
REMARK H PARENT
REMARK Flexibility Score: inf
ROOT
ATOM      1  C   UNL     1      62.294   6.118  31.753  1.00  0.00     0.057 C 
ATOM      2  C   UNL     1      63.390   5.067  31.540  1.00  0.00     0.016 C 
ENDROOT
BRANCH   1   3
ATOM      3  C   UNL     1      60.949   5.545  31.354  1.00  0.00     0.135 C 
ATOM      4  O   UNL     1      60.865   4.371  31.021  1.00  0.00    -0.299 OA
BRANCH   3   5
ATOM      5  C   UNL     1      59.704   6.392  31.379  1.00  0.00     0.072 C 
ATOM      6  C   UNL     1      59.019   6.399  30.016  1.00  0.00     0.012 C 
ENDBRANCH   3   5
ENDBRANCH   1   3
BRANCH   1   7
ATOM      7  C   UNL     1      62.615   7.401  30.962  1.00  0.00     0.038 C 
BRANCH   7   8
ATOM      8  C   UNL     1      62.980   8.536  31.882  1.00  0.00    -0.034 C 
ATOM      9  C   UNL     1      62.938   8.408  33.211  1.00  0.00     0.004 C 
ENDBRANCH   7   8
ENDBRANCH   1   7
TORSDOF 4
ENDMDL
MODEL 3
REMARK VINA RESULT:    -2.623     22.038     23.510
REMARK INTER + INTRA:          -3.707
REMARK INTER:                  -3.235
REMARK INTRA:                  -0.473
REMARK UNBOUND:                -0.471
REMARK SMILES C=CC[C@H](C)C(=O)CC
REMARK SMILES IDX 4 1 5 2 6 3 7 4 8 5 9 6 3 7 2 8 1 9
REMARK H PARENT
REMARK Flexibility Score: inf
ROOT
ATOM      1  C   UNL     1      75.386  10.671  48.107  1.00  0.00     0.057 C 
ATOM      2  C   UNL     1      74.293  10.057  48.988  1.00  0.00     0.016 C 
ENDROOT
BRANCH   1   3
ATOM      3  C   UNL     1      76.565  11.085  48.965  1.00  0.00     0.135 C 
ATOM      4  O   UNL     1      76.375  11.468  50.111  1.00  0.00    -0.299 OA
BRANCH   3   5
ATOM      5  C   UNL     1      77.974  11.015  48.439  1.00  0.00     0.072 C 
ATOM      6  C   UNL     1      78.110   9.923  47.382  1.00  0.00     0.012 C 
ENDBRANCH   3   5
ENDBRANCH   1   3
BRANCH   1   7
ATOM      7  C   UNL     1      74.828  11.864  47.306  1.00  0.00     0.038 C 
BRANCH   7   8
ATOM      8  C   UNL     1      75.219  11.780  45.853  1.00  0.00    -0.034 C 
ATOM      9  C   UNL     1      76.240  12.483  45.357  1.00  0.00     0.004 C 
ENDBRANCH   7   8
ENDBRANCH   1   7
TORSDOF 4
ENDMDL
MODEL 4
REMARK VINA RESULT:    -2.602      1.725      3.498
REMARK INTER + INTRA:          -3.681
REMARK INTER:                  -3.310
REMARK INTRA:                  -0.371
REMARK UNBOUND:                -0.471
REMARK SMILES C=CC[C@H](C)C(=O)CC
REMARK SMILES IDX 4 1 5 2 6 3 7 4 8 5 9 6 3 7 2 8 1 9
REMARK H PARENT
REMARK Flexibility Score: inf
ROOT
ATOM      1  C   UNL     1      60.906   5.813  31.865  1.00  0.00     0.057 C 
ATOM      2  C   UNL     1      60.926   5.736  33.395  1.00  0.00     0.016 C 
ENDROOT
BRANCH   1   3
ATOM      3  C   UNL     1      62.237   6.333  31.360  1.00  0.00     0.135 C 
ATOM      4  O   UNL     1      63.193   5.575  31.275  1.00  0.00    -0.299 OA
BRANCH   3   5
ATOM      5  C   UNL     1      62.401   7.770  30.936  1.00  0.00     0.072 C 
ATOM      6  C   UNL     1      62.993   8.608  32.065  1.00  0.00     0.012 C 
ENDBRANCH   3   5
ENDBRANCH   1   3
BRANCH   1   7
ATOM      7  C   UNL     1      59.739   6.696  31.383  1.00  0.00     0.038 C 
BRANCH   7   8
ATOM      8  C   UNL     1      59.090   6.125  30.150  1.00  0.00    -0.034 C 
ATOM      9  C   UNL     1      59.127   4.818  29.875  1.00  0.00     0.004 C 
ENDBRANCH   7   8
ENDBRANCH   1   7
TORSDOF 4
ENDMDL
MODEL 5
REMARK VINA RESULT:    -2.572      1.995      3.924
REMARK INTER + INTRA:          -3.644
REMARK INTER:                  -3.185
REMARK INTRA:                  -0.459
REMARK UNBOUND:                -0.471
REMARK SMILES C=CC[C@H](C)C(=O)CC
REMARK SMILES IDX 4 1 5 2 6 3 7 4 8 5 9 6 3 7 2 8 1 9
REMARK H PARENT
REMARK Flexibility Score: inf
ROOT
ATOM      1  C   UNL     1      60.439   6.497  31.700  1.00  0.00     0.057 C 
ATOM      2  C   UNL     1      59.946   7.629  32.608  1.00  0.00     0.016 C 
ENDROOT
BRANCH   1   3
ATOM      3  C   UNL     1      61.884   6.741  31.314  1.00  0.00     0.135 C 
ATOM      4  O   UNL     1      62.246   7.866  31.000  1.00  0.00    -0.299 OA
BRANCH   3   5
ATOM      5  C   UNL     1      62.893   5.623  31.329  1.00  0.00     0.072 C 
ATOM      6  C   UNL     1      62.619   4.653  32.473  1.00  0.00     0.012 C 
ENDBRANCH   3   5
ENDBRANCH   1   3
BRANCH   1   7
ATOM      7  C   UNL     1      59.538   6.372  30.456  1.00  0.00     0.038 C 
BRANCH   7   8
ATOM      8  C   UNL     1      58.941   4.993  30.346  1.00  0.00    -0.034 C 
ATOM      9  C   UNL     1      59.701   3.908  30.177  1.00  0.00     0.004 C 
ENDBRANCH   7   8
ENDBRANCH   1   7
TORSDOF 4
ENDMDL
MODEL 6
REMARK VINA RESULT:    -2.564      1.847      3.160
REMARK INTER + INTRA:          -3.634
REMARK INTER:                  -3.175
REMARK INTRA:                  -0.459
REMARK UNBOUND:                -0.471
REMARK SMILES C=CC[C@H](C)C(=O)CC
REMARK SMILES IDX 4 1 5 2 6 3 7 4 8 5 9 6 3 7 2 8 1 9
REMARK H PARENT
REMARK Flexibility Score: inf
ROOT
ATOM      1  C   UNL     1      61.715   5.049  31.340  1.00  0.00     0.057 C 
ATOM      2  C   UNL     1      63.227   5.148  31.570  1.00  0.00     0.016 C 
ENDROOT
BRANCH   1   3
ATOM      3  C   UNL     1      61.110   6.438  31.299  1.00  0.00     0.135 C 
ATOM      4  O   UNL     1      61.839   7.414  31.194  1.00  0.00    -0.299 OA
BRANCH   3   5
ATOM      5  C   UNL     1      59.619   6.640  31.365  1.00  0.00     0.072 C 
ATOM      6  C   UNL     1      58.970   6.369  30.012  1.00  0.00     0.012 C 
ENDBRANCH   3   5
ENDBRANCH   1   3
BRANCH   1   7
ATOM      7  C   UNL     1      61.059   4.183  32.433  1.00  0.00     0.038 C 
BRANCH   7   8
ATOM      8  C   UNL     1      60.506   2.903  31.862  1.00  0.00    -0.034 C 
ATOM      9  C   UNL     1      60.017   2.839  30.620  1.00  0.00     0.004 C 
ENDBRANCH   7   8
ENDBRANCH   1   7
TORSDOF 4
ENDMDL
MODEL 7
REMARK VINA RESULT:    -2.556     21.806     23.201
REMARK INTER + INTRA:          -3.625
REMARK INTER:                  -3.189
REMARK INTRA:                  -0.436
REMARK UNBOUND:                -0.471
REMARK SMILES C=CC[C@H](C)C(=O)CC
REMARK SMILES IDX 4 1 5 2 6 3 7 4 8 5 9 6 3 7 2 8 1 9
REMARK H PARENT
REMARK Flexibility Score: inf
ROOT
ATOM      1  C   UNL     1      76.718  10.630  47.103  1.00  0.00     0.057 C 
ATOM      2  C   UNL     1      77.159   9.535  46.126  1.00  0.00     0.016 C 
ENDROOT
BRANCH   1   3
ATOM      3  C   UNL     1      75.980  11.721  46.353  1.00  0.00     0.135 C 
ATOM      4  O   UNL     1      76.496  12.237  45.371  1.00  0.00    -0.299 OA
BRANCH   3   5
ATOM      5  C   UNL     1      74.607  12.170  46.782  1.00  0.00     0.072 C 
ATOM      6  C   UNL     1      73.822  11.017  47.399  1.00  0.00     0.012 C 
ENDBRANCH   3   5
ENDBRANCH   1   3
BRANCH   1   7
ATOM      7  C   UNL     1      77.932  11.196  47.865  1.00  0.00     0.038 C 
BRANCH   7   8
ATOM      8  C   UNL     1      77.737  11.103  49.356  1.00  0.00    -0.034 C 
ATOM      9  C   UNL     1      76.532  11.229  49.918  1.00  0.00     0.004 C 
ENDBRANCH   7   8
ENDBRANCH   1   7
TORSDOF 4
ENDMDL
MODEL 8
REMARK VINA RESULT:    -2.551     20.515     22.034
REMARK INTER + INTRA:          -3.618
REMARK INTER:                  -3.198
REMARK INTRA:                  -0.420
REMARK UNBOUND:                -0.471
REMARK SMILES C=CC[C@H](C)C(=O)CC
REMARK SMILES IDX 4 1 5 2 6 3 7 4 8 5 9 6 3 7 2 8 1 9
REMARK H PARENT
REMARK Flexibility Score: inf
ROOT
ATOM      1  C   UNL     1      75.047  11.142  47.390  1.00  0.00     0.057 C 
ATOM      2  C   UNL     1      75.349  11.061  48.891  1.00  0.00     0.016 C 
ENDROOT
BRANCH   1   3
ATOM      3  C   UNL     1      76.318  11.456  46.627  1.00  0.00     0.135 C 
ATOM      4  O   UNL     1      77.389  11.025  47.030  1.00  0.00    -0.299 OA
BRANCH   3   5
ATOM      5  C   UNL     1      76.285  12.276  45.364  1.00  0.00     0.072 C 
ATOM      6  C   UNL     1      76.044  11.392  44.144  1.00  0.00     0.012 C 
ENDBRANCH   3   5
ENDBRANCH   1   3
BRANCH   1   7
ATOM      7  C   UNL     1      73.952  12.191  47.115  1.00  0.00     0.038 C 
BRANCH   7   8
ATOM      8  C   UNL     1      72.638  11.539  46.776  1.00  0.00    -0.034 C 
ATOM      9  C   UNL     1      72.529  10.647  45.787  1.00  0.00     0.004 C 
ENDBRANCH   7   8
ENDBRANCH   1   7
TORSDOF 4
ENDMDL
MODEL 9
REMARK VINA RESULT:    -2.524     21.799     22.749
REMARK INTER + INTRA:          -3.585
REMARK INTER:                  -3.141
REMARK INTRA:                  -0.444
REMARK UNBOUND:                -0.471
REMARK SMILES C=CC[C@H](C)C(=O)CC
REMARK SMILES IDX 4 1 5 2 6 3 7 4 8 5 9 6 3 7 2 8 1 9
REMARK H PARENT
REMARK Flexibility Score: inf
ROOT
ATOM      1  C   UNL     1      76.701  11.169  47.390  1.00  0.00     0.057 C 
ATOM      2  C   UNL     1      77.964  10.901  48.215  1.00  0.00     0.016 C 
ENDROOT
BRANCH   1   3
ATOM      3  C   UNL     1      75.479  11.092  48.283  1.00  0.00     0.135 C 
ATOM      4  O   UNL     1      75.596  11.271  49.487  1.00  0.00    -0.299 OA
BRANCH   3   5
ATOM      5  C   UNL     1      74.112  10.820  47.711  1.00  0.00     0.072 C 
ATOM      6  C   UNL     1      73.526  12.075  47.072  1.00  0.00     0.012 C 
ENDBRANCH   3   5
ENDBRANCH   1   3
BRANCH   1   7
ATOM      7  C   UNL     1      76.601  10.175  46.216  1.00  0.00     0.038 C 
BRANCH   7   8
ATOM      8  C   UNL     1      76.572  10.890  44.891  1.00  0.00    -0.034 C 
ATOM      9  C   UNL     1      76.367  12.208  44.806  1.00  0.00     0.004 C 
ENDBRANCH   7   8
ENDBRANCH   1   7
TORSDOF 4
ENDMDL
