MODEL 1
REMARK VINA RESULT:    -5.000      0.000      0.000
REMARK INTER + INTRA:          -8.366
REMARK INTER:                  -7.192
REMARK INTRA:                  -1.173
REMARK UNBOUND:                -1.173
REMARK SMILES C=C[C@@](C)(O)CCC=C(C)CCC=C(C)C
REMARK SMILES IDX 9 1 8 2 10 3 11 4 12 5 13 6 15 7 14 8 16 9 7 10 6 11 3 12
REMARK SMILES IDX 4 13 2 14 1 15 5 16
REMARK H PARENT 5 17
REMARK Flexibility Score: inf
ROOT
ATOM      1  C   UNL     1      39.470 -40.318  -2.955  1.00  0.00    -0.077 C 
ATOM      2  C   UNL     1      40.165 -40.882  -1.941  1.00  0.00    -0.028 C 
ATOM      3  C   UNL     1      38.920 -38.915  -2.866  1.00  0.00     0.039 C 
ENDROOT
BRANCH   1   4
ATOM      4  C   UNL     1      39.222 -41.128  -4.213  1.00  0.00     0.034 C 
BRANCH   4   5
ATOM      5  C   UNL     1      40.031 -40.597  -5.406  1.00  0.00     0.032 C 
BRANCH   5   6
ATOM      6  C   UNL     1      41.329 -41.348  -5.590  1.00  0.00    -0.028 C 
ATOM      7  C   UNL     1      43.743 -41.805  -5.313  1.00  0.00     0.039 C 
ATOM      8  C   UNL     1      42.520 -40.956  -5.086  1.00  0.00    -0.080 C 
ATOM      9  C   UNL     1      42.690 -39.650  -4.349  1.00  0.00     0.039 C 
ENDBRANCH   5   6
ENDBRANCH   4   5
ENDBRANCH   1   4
BRANCH   2  10
ATOM     10  C   UNL     1      40.557 -40.169  -0.670  1.00  0.00     0.030 C 
BRANCH  10  11
ATOM     11  C   UNL     1      42.081 -39.961  -0.550  1.00  0.00     0.043 C 
BRANCH  11  12
ATOM     12  C   UNL     1      42.811 -40.920   0.428  1.00  0.00     0.080 C 
ATOM     13  C   UNL     1      43.565 -40.071   1.472  1.00  0.00     0.047 C 
BRANCH  12  14
ATOM     14  C   UNL     1      41.804 -41.803   1.154  1.00  0.00    -0.001 C 
ATOM     15  C   UNL     1      41.711 -43.124   0.959  1.00  0.00     0.007 C 
ENDBRANCH  12  14
BRANCH  12  16
ATOM     16  O   UNL     1      43.751 -41.689  -0.289  1.00  0.00    -0.386 OA
ATOM     17  H   UNL     1      43.276 -42.470  -0.679  1.00  0.00     0.211 HD
ENDBRANCH  12  16
ENDBRANCH  11  12
ENDBRANCH  10  11
ENDBRANCH   2  10
TORSDOF 8
ENDMDL
MODEL 2
REMARK VINA RESULT:    -4.778      0.695      1.492
REMARK INTER + INTRA:          -8.046
REMARK INTER:                  -6.925
REMARK INTRA:                  -1.120
REMARK UNBOUND:                -1.173
REMARK SMILES C=C[C@@](C)(O)CCC=C(C)CCC=C(C)C
REMARK SMILES IDX 9 1 8 2 10 3 11 4 12 5 13 6 15 7 14 8 16 9 7 10 6 11 3 12
REMARK SMILES IDX 4 13 2 14 1 15 5 16
REMARK H PARENT 5 17
REMARK Flexibility Score: inf
ROOT
ATOM      1  C   UNL     1      39.391 -40.540  -2.921  1.00  0.00    -0.077 C 
ATOM      2  C   UNL     1      40.007 -41.168  -1.893  1.00  0.00    -0.028 C 
ATOM      3  C   UNL     1      38.837 -39.142  -2.787  1.00  0.00     0.039 C 
ENDROOT
BRANCH   1   4
ATOM      4  C   UNL     1      39.237 -41.270  -4.241  1.00  0.00     0.034 C 
BRANCH   4   5
ATOM      5  C   UNL     1      40.042 -40.599  -5.365  1.00  0.00     0.032 C 
BRANCH   5   6
ATOM      6  C   UNL     1      41.295 -41.373  -5.703  1.00  0.00    -0.028 C 
ATOM      7  C   UNL     1      43.690 -41.979  -5.575  1.00  0.00     0.039 C 
ATOM      8  C   UNL     1      42.517 -41.119  -5.182  1.00  0.00    -0.080 C 
ATOM      9  C   UNL     1      42.770 -39.953  -4.258  1.00  0.00     0.039 C 
ENDBRANCH   5   6
ENDBRANCH   4   5
ENDBRANCH   1   4
BRANCH   2  10
ATOM     10  C   UNL     1      40.302 -40.536  -0.556  1.00  0.00     0.030 C 
BRANCH  10  11
ATOM     11  C   UNL     1      41.441 -41.251   0.201  1.00  0.00     0.043 C 
BRANCH  11  12
ATOM     12  C   UNL     1      42.837 -40.582   0.094  1.00  0.00     0.080 C 
ATOM     13  C   UNL     1      42.671 -39.213  -0.596  1.00  0.00     0.047 C 
BRANCH  12  14
ATOM     14  C   UNL     1      43.425 -40.359   1.482  1.00  0.00    -0.001 C 
ATOM     15  C   UNL     1      43.842 -39.165   1.920  1.00  0.00     0.007 C 
ENDBRANCH  12  14
BRANCH  12  16
ATOM     16  O   UNL     1      43.680 -41.386  -0.700  1.00  0.00    -0.386 OA
ATOM     17  H   UNL     1      43.598 -41.082  -1.642  1.00  0.00     0.211 HD
ENDBRANCH  12  16
ENDBRANCH  11  12
ENDBRANCH  10  11
ENDBRANCH   2  10
TORSDOF 8
ENDMDL
MODEL 3
REMARK VINA RESULT:    -4.634      1.580      3.197
REMARK INTER + INTRA:          -7.838
REMARK INTER:                  -6.850
REMARK INTRA:                  -0.989
REMARK UNBOUND:                -1.173
REMARK SMILES C=C[C@@](C)(O)CCC=C(C)CCC=C(C)C
REMARK SMILES IDX 9 1 8 2 10 3 11 4 12 5 13 6 15 7 14 8 16 9 7 10 6 11 3 12
REMARK SMILES IDX 4 13 2 14 1 15 5 16
REMARK H PARENT 5 17
REMARK Flexibility Score: inf
ROOT
ATOM      1  C   UNL     1      42.139 -40.956  -4.780  1.00  0.00    -0.077 C 
ATOM      2  C   UNL     1      41.949 -40.370  -3.576  1.00  0.00    -0.028 C 
ATOM      3  C   UNL     1      43.514 -41.326  -5.281  1.00  0.00     0.039 C 
ENDROOT
BRANCH   1   4
ATOM      4  C   UNL     1      40.936 -41.231  -5.660  1.00  0.00     0.034 C 
BRANCH   4   5
ATOM      5  C   UNL     1      39.630 -40.740  -5.017  1.00  0.00     0.032 C 
BRANCH   5   6
ATOM      6  C   UNL     1      38.831 -39.864  -5.955  1.00  0.00    -0.028 C 
ATOM      7  C   UNL     1      38.086 -37.751  -7.002  1.00  0.00     0.039 C 
ATOM      8  C   UNL     1      38.914 -38.516  -6.002  1.00  0.00    -0.080 C 
ATOM      9  C   UNL     1      39.767 -37.729  -5.037  1.00  0.00     0.039 C 
ENDBRANCH   5   6
ENDBRANCH   4   5
ENDBRANCH   1   4
BRANCH   2  10
ATOM     10  C   UNL     1      43.040 -40.113  -2.566  1.00  0.00     0.030 C 
BRANCH  10  11
ATOM     11  C   UNL     1      42.489 -39.876  -1.144  1.00  0.00     0.043 C 
BRANCH  11  12
ATOM     12  C   UNL     1      42.974 -40.880  -0.064  1.00  0.00     0.080 C 
ATOM     13  C   UNL     1      43.458 -40.081   1.164  1.00  0.00     0.047 C 
BRANCH  12  14
ATOM     14  C   UNL     1      41.830 -41.788   0.367  1.00  0.00    -0.001 C 
ATOM     15  C   UNL     1      40.576 -41.652  -0.081  1.00  0.00     0.007 C 
ENDBRANCH  12  14
BRANCH  12  16
ATOM     16  O   UNL     1      44.060 -41.622  -0.573  1.00  0.00    -0.386 OA
ATOM     17  H   UNL     1      44.874 -41.056  -0.514  1.00  0.00     0.211 HD
ENDBRANCH  12  16
ENDBRANCH  11  12
ENDBRANCH  10  11
ENDBRANCH   2  10
TORSDOF 8
ENDMDL
MODEL 4
REMARK VINA RESULT:    -4.584      3.340      5.279
REMARK INTER + INTRA:          -7.767
REMARK INTER:                  -6.290
REMARK INTRA:                  -1.477
REMARK UNBOUND:                -1.173
REMARK SMILES C=C[C@@](C)(O)CCC=C(C)CCC=C(C)C
REMARK SMILES IDX 9 1 8 2 10 3 11 4 12 5 13 6 15 7 14 8 16 9 7 10 6 11 3 12
REMARK SMILES IDX 4 13 2 14 1 15 5 16
REMARK H PARENT 5 17
REMARK Flexibility Score: inf
ROOT
ATOM      1  C   UNL     1      40.560 -39.922  -2.483  1.00  0.00    -0.077 C 
ATOM      2  C   UNL     1      39.983 -38.704  -2.599  1.00  0.00    -0.028 C 
ATOM      3  C   UNL     1      39.752 -41.164  -2.191  1.00  0.00     0.039 C 
ENDROOT
BRANCH   1   4
ATOM      4  C   UNL     1      42.063 -40.040  -2.633  1.00  0.00     0.034 C 
BRANCH   4   5
ATOM      5  C   UNL     1      42.541 -39.568  -4.015  1.00  0.00     0.032 C 
BRANCH   5   6
ATOM      6  C   UNL     1      43.362 -40.622  -4.721  1.00  0.00    -0.028 C 
ATOM      7  C   UNL     1      43.792 -42.499  -6.273  1.00  0.00     0.039 C 
ATOM      8  C   UNL     1      42.866 -41.511  -5.611  1.00  0.00    -0.080 C 
ATOM      9  C   UNL     1      41.393 -41.599  -5.924  1.00  0.00     0.039 C 
ENDBRANCH   5   6
ENDBRANCH   4   5
ENDBRANCH   1   4
BRANCH   2  10
ATOM     10  C   UNL     1      38.497 -38.451  -2.555  1.00  0.00     0.030 C 
BRANCH  10  11
ATOM     11  C   UNL     1      37.978 -37.737  -3.821  1.00  0.00     0.043 C 
BRANCH  11  12
ATOM     12  C   UNL     1      37.446 -38.670  -4.942  1.00  0.00     0.080 C 
ATOM     13  C   UNL     1      38.615 -39.009  -5.890  1.00  0.00     0.047 C 
BRANCH  12  14
ATOM     14  C   UNL     1      36.912 -39.965  -4.345  1.00  0.00    -0.001 C 
ATOM     15  C   UNL     1      37.239 -41.177  -4.808  1.00  0.00     0.007 C 
ENDBRANCH  12  14
BRANCH  12  16
ATOM     16  O   UNL     1      36.453 -37.992  -5.679  1.00  0.00    -0.386 OA
ATOM     17  H   UNL     1      36.811 -37.100  -5.931  1.00  0.00     0.211 HD
ENDBRANCH  12  16
ENDBRANCH  11  12
ENDBRANCH  10  11
ENDBRANCH   2  10
TORSDOF 8
ENDMDL
MODEL 5
REMARK VINA RESULT:    -4.576      3.656      5.577
REMARK INTER + INTRA:          -7.755
REMARK INTER:                  -6.542
REMARK INTRA:                  -1.213
REMARK UNBOUND:                -1.173
REMARK SMILES C=C[C@@](C)(O)CCC=C(C)CCC=C(C)C
REMARK SMILES IDX 9 1 8 2 10 3 11 4 12 5 13 6 15 7 14 8 16 9 7 10 6 11 3 12
REMARK SMILES IDX 4 13 2 14 1 15 5 16
REMARK H PARENT 5 17
REMARK Flexibility Score: inf
ROOT
ATOM      1  C   UNL     1      41.386 -37.940  -3.922  1.00  0.00    -0.077 C 
ATOM      2  C   UNL     1      40.295 -38.477  -3.328  1.00  0.00    -0.028 C 
ATOM      3  C   UNL     1      41.290 -36.743  -4.837  1.00  0.00     0.039 C 
ENDROOT
BRANCH   1   4
ATOM      4  C   UNL     1      42.742 -38.572  -3.674  1.00  0.00     0.034 C 
BRANCH   4   5
ATOM      5  C   UNL     1      42.625 -40.066  -3.336  1.00  0.00     0.032 C 
BRANCH   5   6
ATOM      6  C   UNL     1      43.408 -40.927  -4.301  1.00  0.00    -0.028 C 
ATOM      7  C   UNL     1      43.775 -42.329  -6.305  1.00  0.00     0.039 C 
ATOM      8  C   UNL     1      42.886 -41.514  -5.402  1.00  0.00    -0.080 C 
ATOM      9  C   UNL     1      41.416 -41.437  -5.733  1.00  0.00     0.039 C 
ENDBRANCH   5   6
ENDBRANCH   4   5
ENDBRANCH   1   4
BRANCH   2  10
ATOM     10  C   UNL     1      38.902 -37.906  -3.417  1.00  0.00     0.030 C 
BRANCH  10  11
ATOM     11  C   UNL     1      37.810 -38.949  -3.099  1.00  0.00     0.043 C 
BRANCH  11  12
ATOM     12  C   UNL     1      36.830 -39.265  -4.261  1.00  0.00     0.080 C 
ATOM     13  C   UNL     1      36.448 -37.940  -4.952  1.00  0.00     0.047 C 
BRANCH  12  14
ATOM     14  C   UNL     1      37.498 -40.173  -5.285  1.00  0.00    -0.001 C 
ATOM     15  C   UNL     1      38.094 -39.716  -6.394  1.00  0.00     0.007 C 
ENDBRANCH  12  14
BRANCH  12  16
ATOM     16  O   UNL     1      35.660 -39.852  -3.736  1.00  0.00    -0.386 OA
ATOM     17  H   UNL     1      35.430 -39.379  -2.893  1.00  0.00     0.211 HD
ENDBRANCH  12  16
ENDBRANCH  11  12
ENDBRANCH  10  11
ENDBRANCH   2  10
TORSDOF 8
ENDMDL
MODEL 6
REMARK VINA RESULT:    -4.463      4.679      7.630
REMARK INTER + INTRA:          -7.593
REMARK INTER:                  -6.202
REMARK INTRA:                  -1.391
REMARK UNBOUND:                -1.173
REMARK SMILES C=C[C@@](C)(O)CCC=C(C)CCC=C(C)C
REMARK SMILES IDX 9 1 8 2 10 3 11 4 12 5 13 6 15 7 14 8 16 9 7 10 6 11 3 12
REMARK SMILES IDX 4 13 2 14 1 15 5 16
REMARK H PARENT 5 17
REMARK Flexibility Score: inf
ROOT
ATOM      1  C   UNL     1      39.503 -37.812  -5.250  1.00  0.00    -0.077 C 
ATOM      2  C   UNL     1      38.864 -38.872  -5.796  1.00  0.00    -0.028 C 
ATOM      3  C   UNL     1      38.924 -36.418  -5.297  1.00  0.00     0.039 C 
ENDROOT
BRANCH   1   4
ATOM      4  C   UNL     1      40.850 -38.028  -4.588  1.00  0.00     0.034 C 
BRANCH   4   5
ATOM      5  C   UNL     1      40.941 -39.403  -3.908  1.00  0.00     0.032 C 
BRANCH   5   6
ATOM      6  C   UNL     1      42.256 -40.090  -4.193  1.00  0.00    -0.028 C 
ATOM      7  C   UNL     1      43.798 -41.653  -5.332  1.00  0.00     0.039 C 
ATOM      8  C   UNL     1      42.429 -41.061  -5.118  1.00  0.00    -0.080 C 
ATOM      9  C   UNL     1      41.279 -41.629  -5.912  1.00  0.00     0.039 C 
ENDBRANCH   5   6
ENDBRANCH   4   5
ENDBRANCH   1   4
BRANCH   2  10
ATOM     10  C   UNL     1      37.488 -38.819  -6.411  1.00  0.00     0.030 C 
BRANCH  10  11
ATOM     11  C   UNL     1      37.526 -38.799  -7.953  1.00  0.00     0.043 C 
BRANCH  11  12
ATOM     12  C   UNL     1      36.853 -37.570  -8.622  1.00  0.00     0.080 C 
ATOM     13  C   UNL     1      35.831 -36.974  -7.632  1.00  0.00     0.047 C 
BRANCH  12  14
ATOM     14  C   UNL     1      37.894 -36.506  -8.944  1.00  0.00    -0.001 C 
ATOM     15  C   UNL     1      39.187 -36.783  -9.154  1.00  0.00     0.007 C 
ENDBRANCH  12  14
BRANCH  12  16
ATOM     16  O   UNL     1      36.166 -37.988  -9.780  1.00  0.00    -0.386 OA
ATOM     17  H   UNL     1      35.337 -37.446  -9.859  1.00  0.00     0.211 HD
ENDBRANCH  12  16
ENDBRANCH  11  12
ENDBRANCH  10  11
ENDBRANCH   2  10
TORSDOF 8
ENDMDL
MODEL 7
REMARK VINA RESULT:    -4.460      2.545      5.797
REMARK INTER + INTRA:          -7.589
REMARK INTER:                  -5.934
REMARK INTRA:                  -1.654
REMARK UNBOUND:                -1.173
REMARK SMILES C=C[C@@](C)(O)CCC=C(C)CCC=C(C)C
REMARK SMILES IDX 9 1 8 2 10 3 11 4 12 5 13 6 15 7 14 8 16 9 7 10 6 11 3 12
REMARK SMILES IDX 4 13 2 14 1 15 5 16
REMARK H PARENT 5 17
REMARK Flexibility Score: inf
ROOT
ATOM      1  C   UNL     1      41.722 -39.221  -4.111  1.00  0.00    -0.077 C 
ATOM      2  C   UNL     1      41.506 -40.509  -4.465  1.00  0.00    -0.028 C 
ATOM      3  C   UNL     1      40.782 -38.112  -4.519  1.00  0.00     0.039 C 
ENDROOT
BRANCH   1   4
ATOM      4  C   UNL     1      42.954 -38.880  -3.297  1.00  0.00     0.034 C 
BRANCH   4   5
ATOM      5  C   UNL     1      42.607 -38.572  -1.832  1.00  0.00     0.032 C 
BRANCH   5   6
ATOM      6  C   UNL     1      42.856 -39.758  -0.930  1.00  0.00    -0.028 C 
ATOM      7  C   UNL     1      42.275 -41.784   0.365  1.00  0.00     0.039 C 
ATOM      8  C   UNL     1      41.900 -40.619  -0.514  1.00  0.00    -0.080 C 
ATOM      9  C   UNL     1      40.442 -40.422  -0.847  1.00  0.00     0.039 C 
ENDBRANCH   5   6
ENDBRANCH   4   5
ENDBRANCH   1   4
BRANCH   2  10
ATOM     10  C   UNL     1      40.285 -41.003  -5.200  1.00  0.00     0.030 C 
BRANCH  10  11
ATOM     11  C   UNL     1      39.165 -41.469  -4.247  1.00  0.00     0.043 C 
BRANCH  11  12
ATOM     12  C   UNL     1      37.794 -40.764  -4.433  1.00  0.00     0.080 C 
ATOM     13  C   UNL     1      37.625 -39.720  -3.310  1.00  0.00     0.047 C 
BRANCH  12  14
ATOM     14  C   UNL     1      37.746 -40.046  -5.775  1.00  0.00    -0.001 C 
ATOM     15  C   UNL     1      37.279 -38.801  -5.926  1.00  0.00     0.007 C 
ENDBRANCH  12  14
BRANCH  12  16
ATOM     16  O   UNL     1      36.761 -41.717  -4.319  1.00  0.00    -0.386 OA
ATOM     17  H   UNL     1      35.910 -41.231  -4.161  1.00  0.00     0.211 HD
ENDBRANCH  12  16
ENDBRANCH  11  12
ENDBRANCH  10  11
ENDBRANCH   2  10
TORSDOF 8
ENDMDL
MODEL 8
REMARK VINA RESULT:    -4.433      5.184      8.017
REMARK INTER + INTRA:          -7.551
REMARK INTER:                  -6.773
REMARK INTRA:                  -0.778
REMARK UNBOUND:                -1.173
REMARK SMILES C=C[C@@](C)(O)CCC=C(C)CCC=C(C)C
REMARK SMILES IDX 9 1 8 2 10 3 11 4 12 5 13 6 15 7 14 8 16 9 7 10 6 11 3 12
REMARK SMILES IDX 4 13 2 14 1 15 5 16
REMARK H PARENT 5 17
REMARK Flexibility Score: inf
ROOT
ATOM      1  C   UNL     1      38.980 -38.741  -6.079  1.00  0.00    -0.077 C 
ATOM      2  C   UNL     1      38.624 -38.247  -7.287  1.00  0.00    -0.028 C 
ATOM      3  C   UNL     1      39.399 -37.843  -4.940  1.00  0.00     0.039 C 
ENDROOT
BRANCH   1   4
ATOM      4  C   UNL     1      38.975 -40.242  -5.870  1.00  0.00     0.034 C 
BRANCH   4   5
ATOM      5  C   UNL     1      40.062 -40.687  -4.879  1.00  0.00     0.032 C 
BRANCH   5   6
ATOM      6  C   UNL     1      41.259 -41.283  -5.582  1.00  0.00    -0.028 C 
ATOM      7  C   UNL     1      43.648 -41.821  -5.933  1.00  0.00     0.039 C 
ATOM      8  C   UNL     1      42.538 -41.156  -5.161  1.00  0.00    -0.080 C 
ATOM      9  C   UNL     1      42.911 -40.310  -3.969  1.00  0.00     0.039 C 
ENDBRANCH   5   6
ENDBRANCH   4   5
ENDBRANCH   1   4
BRANCH   2  10
ATOM     10  C   UNL     1      38.504 -36.778  -7.611  1.00  0.00     0.030 C 
BRANCH  10  11
ATOM     11  C   UNL     1      38.496 -36.504  -9.130  1.00  0.00     0.043 C 
BRANCH  11  12
ATOM     12  C   UNL     1      39.731 -35.739  -9.677  1.00  0.00     0.080 C 
ATOM     13  C   UNL     1      40.601 -35.298  -8.482  1.00  0.00     0.047 C 
BRANCH  12  14
ATOM     14  C   UNL     1      40.561 -36.648 -10.573  1.00  0.00    -0.001 C 
ATOM     15  C   UNL     1      41.584 -36.211 -11.317  1.00  0.00     0.007 C 
ENDBRANCH  12  14
BRANCH  12  16
ATOM     16  O   UNL     1      39.298 -34.588 -10.366  1.00  0.00    -0.386 OA
ATOM     17  H   UNL     1      38.933 -33.948  -9.699  1.00  0.00     0.211 HD
ENDBRANCH  12  16
ENDBRANCH  11  12
ENDBRANCH  10  11
ENDBRANCH   2  10
TORSDOF 8
ENDMDL
MODEL 9
REMARK VINA RESULT:    -4.257      3.264      5.590
REMARK INTER + INTRA:          -7.296
REMARK INTER:                  -5.601
REMARK INTRA:                  -1.695
REMARK UNBOUND:                -1.173
REMARK SMILES C=C[C@@](C)(O)CCC=C(C)CCC=C(C)C
REMARK SMILES IDX 9 1 8 2 10 3 11 4 12 5 13 6 15 7 14 8 16 9 7 10 6 11 3 12
REMARK SMILES IDX 4 13 2 14 1 15 5 16
REMARK H PARENT 5 17
REMARK Flexibility Score: inf
ROOT
ATOM      1  C   UNL     1      40.021 -40.828  -5.238  1.00  0.00    -0.077 C 
ATOM      2  C   UNL     1      39.265 -40.092  -6.084  1.00  0.00    -0.028 C 
ATOM      3  C   UNL     1      39.506 -41.277  -3.891  1.00  0.00     0.039 C 
ENDROOT
BRANCH   1   4
ATOM      4  C   UNL     1      41.433 -41.198  -5.647  1.00  0.00     0.034 C 
BRANCH   4   5
ATOM      5  C   UNL     1      42.451 -40.888  -4.540  1.00  0.00     0.032 C 
BRANCH   5   6
ATOM      6  C   UNL     1      42.662 -39.402  -4.363  1.00  0.00    -0.028 C 
ATOM      7  C   UNL     1      43.065 -37.300  -3.124  1.00  0.00     0.039 C 
ATOM      8  C   UNL     1      42.834 -38.788  -3.171  1.00  0.00    -0.080 C 
ATOM      9  C   UNL     1      42.741 -39.533  -1.863  1.00  0.00     0.039 C 
ENDBRANCH   5   6
ENDBRANCH   4   5
ENDBRANCH   1   4
BRANCH   2  10
ATOM     10  C   UNL     1      37.822 -39.723  -5.845  1.00  0.00     0.030 C 
BRANCH  10  11
ATOM     11  C   UNL     1      37.662 -38.314  -5.235  1.00  0.00     0.043 C 
BRANCH  11  12
ATOM     12  C   UNL     1      36.933 -38.258  -3.866  1.00  0.00     0.080 C 
ATOM     13  C   UNL     1      36.242 -39.616  -3.624  1.00  0.00     0.047 C 
BRANCH  12  14
ATOM     14  C   UNL     1      37.933 -38.013  -2.744  1.00  0.00    -0.001 C 
ATOM     15  C   UNL     1      39.217 -37.703  -2.959  1.00  0.00     0.007 C 
ENDBRANCH  12  14
BRANCH  12  16
ATOM     16  O   UNL     1      35.944 -37.253  -3.906  1.00  0.00    -0.386 OA
ATOM     17  H   UNL     1      35.073 -37.668  -3.672  1.00  0.00     0.211 HD
ENDBRANCH  12  16
ENDBRANCH  11  12
ENDBRANCH  10  11
ENDBRANCH   2  10
TORSDOF 8
ENDMDL
