MODEL 1
REMARK VINA RESULT:    -4.848      0.000      0.000
REMARK INTER + INTRA:         -11.040
REMARK INTER:                  -9.100
REMARK INTRA:                  -1.940
REMARK UNBOUND:                -1.940
REMARK SMILES O=C([O-])CCCCCCCCCCCCCCC(=O)[O-]
REMARK SMILES IDX 10 1 9 2 8 3 7 4 6 5 5 6 4 7 2 8 1 9 3 10 11 11 12 12 13 13
REMARK SMILES IDX 14 14 15 15 16 16 17 17 18 18 19 19 20 20
REMARK H PARENT
REMARK Flexibility Score: inf
ROOT
ATOM      1  C   UNL     1       1.643   9.904  25.165  1.00  0.00     0.000 C 
ENDROOT
BRANCH   1   2
ATOM      2  C   UNL     1       0.158   9.537  24.991  1.00  0.00     0.000 C 
BRANCH   2   3
ATOM      3  C   UNL     1      -0.272   9.206  23.547  1.00  0.00     0.000 C 
BRANCH   3   4
ATOM      4  C   UNL     1      -1.700   8.641  23.403  1.00  0.00     0.000 C 
BRANCH   4   5
ATOM      5  C   UNL     1      -2.120   8.286  21.964  1.00  0.00     0.000 C 
BRANCH   5   6
ATOM      6  C   UNL     1      -3.387   8.998  21.453  1.00  0.00     0.006 C 
BRANCH   6   7
ATOM      7  C   UNL     1      -3.272  10.534  21.421  1.00  0.00     0.053 C 
BRANCH   7   8
ATOM      8  C   UNL     1      -4.285  11.207  22.298  1.00  0.00     0.041 C 
ATOM      9  O   UNL     1      -4.450  12.454  22.234  1.00  0.00    -0.550 OA
ATOM     10  O   UNL     1      -5.020  10.463  23.213  1.00  0.00    -0.550 OA
ENDBRANCH   7   8
ENDBRANCH   6   7
ENDBRANCH   5   6
ENDBRANCH   4   5
ENDBRANCH   3   4
ENDBRANCH   2   3
ENDBRANCH   1   2
BRANCH   1  11
ATOM     11  C   UNL     1       1.850  11.362  25.608  1.00  0.00     0.000 C 
BRANCH  11  12
ATOM     12  C   UNL     1       0.676  11.910  26.441  1.00  0.00     0.000 C 
BRANCH  12  13
ATOM     13  C   UNL     1       0.109  13.260  25.966  1.00  0.00     0.000 C 
BRANCH  13  14
ATOM     14  C   UNL     1      -1.425  13.321  26.023  1.00  0.00     0.000 C 
BRANCH  14  15
ATOM     15  C   UNL     1      -2.052  12.222  25.151  1.00  0.00     0.000 C 
BRANCH  15  16
ATOM     16  C   UNL     1      -3.003  11.309  25.941  1.00  0.00     0.006 C 
BRANCH  16  17
ATOM     17  C   UNL     1      -2.914  11.534  27.456  1.00  0.00     0.053 C 
BRANCH  17  18
ATOM     18  C   UNL     1      -2.902  10.223  28.178  1.00  0.00     0.041 C 
ATOM     19  O   UNL     1      -3.629  10.052  29.192  1.00  0.00    -0.550 OA
ATOM     20  O   UNL     1      -2.125   9.174  27.704  1.00  0.00    -0.550 OA
ENDBRANCH  17  18
ENDBRANCH  16  17
ENDBRANCH  15  16
ENDBRANCH  14  15
ENDBRANCH  13  14
ENDBRANCH  12  13
ENDBRANCH  11  12
ENDBRANCH   1  11
TORSDOF 15
ENDMDL
MODEL 2
REMARK VINA RESULT:    -4.681      2.431      4.150
REMARK INTER + INTRA:         -10.727
REMARK INTER:                  -8.753
REMARK INTRA:                  -1.974
REMARK UNBOUND:                -1.940
REMARK SMILES O=C([O-])CCCCCCCCCCCCCCC(=O)[O-]
REMARK SMILES IDX 10 1 9 2 8 3 7 4 6 5 5 6 4 7 2 8 1 9 3 10 11 11 12 12 13 13
REMARK SMILES IDX 14 14 15 15 16 16 17 17 18 18 19 19 20 20
REMARK H PARENT
REMARK Flexibility Score: inf
ROOT
ATOM      1  C   UNL     1      -3.331  10.240  25.407  1.00  0.00     0.000 C 
ENDROOT
BRANCH   1   2
ATOM      2  C   UNL     1      -4.619   9.575  24.886  1.00  0.00     0.000 C 
BRANCH   2   3
ATOM      3  C   UNL     1      -5.073  10.030  23.484  1.00  0.00     0.000 C 
BRANCH   3   4
ATOM      4  C   UNL     1      -4.347  11.273  22.931  1.00  0.00     0.000 C 
BRANCH   4   5
ATOM      5  C   UNL     1      -3.287  10.985  21.852  1.00  0.00     0.000 C 
BRANCH   5   6
ATOM      6  C   UNL     1      -3.529   9.714  21.015  1.00  0.00     0.006 C 
BRANCH   6   7
ATOM      7  C   UNL     1      -2.315   8.769  20.946  1.00  0.00     0.053 C 
BRANCH   7   8
ATOM      8  C   UNL     1      -1.815   8.372  22.302  1.00  0.00     0.041 C 
ATOM      9  O   UNL     1      -2.489   7.589  23.024  1.00  0.00    -0.550 OA
ATOM     10  O   UNL     1      -0.623   8.895  22.787  1.00  0.00    -0.550 OA
ENDBRANCH   7   8
ENDBRANCH   6   7
ENDBRANCH   5   6
ENDBRANCH   4   5
ENDBRANCH   3   4
ENDBRANCH   2   3
ENDBRANCH   1   2
BRANCH   1  11
ATOM     11  C   UNL     1      -2.372   9.242  26.076  1.00  0.00     0.000 C 
BRANCH  11  12
ATOM     12  C   UNL     1      -2.193   9.500  27.584  1.00  0.00     0.000 C 
BRANCH  12  13
ATOM     13  C   UNL     1      -2.994  10.690  28.145  1.00  0.00     0.000 C 
BRANCH  13  14
ATOM     14  C   UNL     1      -2.112  11.899  28.490  1.00  0.00     0.000 C 
BRANCH  14  15
ATOM     15  C   UNL     1      -2.416  13.084  27.560  1.00  0.00     0.000 C 
BRANCH  15  16
ATOM     16  C   UNL     1      -1.393  13.222  26.421  1.00  0.00     0.006 C 
BRANCH  16  17
ATOM     17  C   UNL     1       0.056  13.199  26.924  1.00  0.00     0.053 C 
BRANCH  17  18
ATOM     18  C   UNL     1       0.892  12.306  26.064  1.00  0.00     0.041 C 
ATOM     19  O   UNL     1       0.545  11.113  25.862  1.00  0.00    -0.550 OA
ATOM     20  O   UNL     1       2.031  12.805  25.443  1.00  0.00    -0.550 OA
ENDBRANCH  17  18
ENDBRANCH  16  17
ENDBRANCH  15  16
ENDBRANCH  14  15
ENDBRANCH  13  14
ENDBRANCH  12  13
ENDBRANCH  11  12
ENDBRANCH   1  11
TORSDOF 15
ENDMDL
MODEL 3
REMARK VINA RESULT:    -4.641      1.892      2.338
REMARK INTER + INTRA:         -10.651
REMARK INTER:                  -8.802
REMARK INTRA:                  -1.849
REMARK UNBOUND:                -1.940
REMARK SMILES O=C([O-])CCCCCCCCCCCCCCC(=O)[O-]
REMARK SMILES IDX 10 1 9 2 8 3 7 4 6 5 5 6 4 7 2 8 1 9 3 10 11 11 12 12 13 13
REMARK SMILES IDX 14 14 15 15 16 16 17 17 18 18 19 19 20 20
REMARK H PARENT
REMARK Flexibility Score: inf
ROOT
ATOM      1  C   UNL     1       1.594  10.013  25.498  1.00  0.00     0.000 C 
ENDROOT
BRANCH   1   2
ATOM      2  C   UNL     1       0.315   9.604  24.744  1.00  0.00     0.000 C 
BRANCH   2   3
ATOM      3  C   UNL     1      -0.836   9.090  25.631  1.00  0.00     0.000 C 
BRANCH   3   4
ATOM      4  C   UNL     1      -2.247   9.539  25.198  1.00  0.00     0.000 C 
BRANCH   4   5
ATOM      5  C   UNL     1      -2.285  10.513  24.006  1.00  0.00     0.000 C 
BRANCH   5   6
ATOM      6  C   UNL     1      -3.553  10.437  23.134  1.00  0.00     0.006 C 
BRANCH   6   7
ATOM      7  C   UNL     1      -3.275  10.465  21.620  1.00  0.00     0.053 C 
BRANCH   7   8
ATOM      8  C   UNL     1      -3.116   9.094  21.036  1.00  0.00     0.041 C 
ATOM      9  O   UNL     1      -2.032   8.466  21.175  1.00  0.00    -0.550 OA
ATOM     10  O   UNL     1      -4.151   8.522  20.306  1.00  0.00    -0.550 OA
ENDBRANCH   7   8
ENDBRANCH   6   7
ENDBRANCH   5   6
ENDBRANCH   4   5
ENDBRANCH   3   4
ENDBRANCH   2   3
ENDBRANCH   1   2
BRANCH   1  11
ATOM     11  C   UNL     1       1.749  11.538  25.629  1.00  0.00     0.000 C 
BRANCH  11  12
ATOM     12  C   UNL     1       0.688  12.172  26.549  1.00  0.00     0.000 C 
BRANCH  12  13
ATOM     13  C   UNL     1      -0.045  13.391  25.960  1.00  0.00     0.000 C 
BRANCH  13  14
ATOM     14  C   UNL     1      -1.570  13.315  26.131  1.00  0.00     0.000 C 
BRANCH  14  15
ATOM     15  C   UNL     1      -1.950  13.185  27.614  1.00  0.00     0.000 C 
BRANCH  15  16
ATOM     16  C   UNL     1      -2.742  11.902  27.912  1.00  0.00     0.006 C 
BRANCH  16  17
ATOM     17  C   UNL     1      -2.078  11.035  28.990  1.00  0.00     0.053 C 
BRANCH  17  18
ATOM     18  C   UNL     1      -2.718  11.275  30.320  1.00  0.00     0.041 C 
ATOM     19  O   UNL     1      -3.966  11.414  30.407  1.00  0.00    -0.550 OA
ATOM     20  O   UNL     1      -1.942  11.297  31.472  1.00  0.00    -0.550 OA
ENDBRANCH  17  18
ENDBRANCH  16  17
ENDBRANCH  15  16
ENDBRANCH  14  15
ENDBRANCH  13  14
ENDBRANCH  12  13
ENDBRANCH  11  12
ENDBRANCH   1  11
TORSDOF 15
ENDMDL
MODEL 4
REMARK VINA RESULT:    -4.640      2.889      5.805
REMARK INTER + INTRA:         -10.649
REMARK INTER:                  -8.874
REMARK INTRA:                  -1.776
REMARK UNBOUND:                -1.940
REMARK SMILES O=C([O-])CCCCCCCCCCCCCCC(=O)[O-]
REMARK SMILES IDX 10 1 9 2 8 3 7 4 6 5 5 6 4 7 2 8 1 9 3 10 11 11 12 12 13 13
REMARK SMILES IDX 14 14 15 15 16 16 17 17 18 18 19 19 20 20
REMARK H PARENT
REMARK Flexibility Score: inf
ROOT
ATOM      1  C   UNL     1      -1.630   8.630  24.986  1.00  0.00     0.000 C 
ENDROOT
BRANCH   1   2
ATOM      2  C   UNL     1      -1.477   9.529  26.227  1.00  0.00     0.000 C 
BRANCH   2   3
ATOM      3  C   UNL     1      -0.677  10.828  26.004  1.00  0.00     0.000 C 
BRANCH   3   4
ATOM      4  C   UNL     1      -1.397  12.123  26.433  1.00  0.00     0.000 C 
BRANCH   4   5
ATOM      5  C   UNL     1      -0.869  13.412  25.776  1.00  0.00     0.000 C 
BRANCH   5   6
ATOM      6  C   UNL     1       0.565  13.814  26.173  1.00  0.00     0.006 C 
BRANCH   6   7
ATOM      7  C   UNL     1       1.234  14.796  25.194  1.00  0.00     0.053 C 
BRANCH   7   8
ATOM      8  C   UNL     1       2.603  14.350  24.775  1.00  0.00     0.041 C 
ATOM      9  O   UNL     1       2.983  13.171  25.001  1.00  0.00    -0.550 OA
ATOM     10  O   UNL     1       3.473  15.247  24.168  1.00  0.00    -0.550 OA
ENDBRANCH   7   8
ENDBRANCH   6   7
ENDBRANCH   5   6
ENDBRANCH   4   5
ENDBRANCH   3   4
ENDBRANCH   2   3
ENDBRANCH   1   2
BRANCH   1  11
ATOM     11  C   UNL     1      -0.574   8.919  23.906  1.00  0.00     0.000 C 
BRANCH  11  12
ATOM     12  C   UNL     1      -1.185   9.123  22.507  1.00  0.00     0.000 C 
BRANCH  12  13
ATOM     13  C   UNL     1      -2.371   8.201  22.169  1.00  0.00     0.000 C 
BRANCH  13  14
ATOM     14  C   UNL     1      -3.354   8.827  21.169  1.00  0.00     0.000 C 
BRANCH  14  15
ATOM     15  C   UNL     1      -3.269  10.361  21.202  1.00  0.00     0.000 C 
BRANCH  15  16
ATOM     16  C   UNL     1      -4.392  10.999  22.034  1.00  0.00     0.006 C 
BRANCH  16  17
ATOM     17  C   UNL     1      -3.924  11.421  23.432  1.00  0.00     0.053 C 
BRANCH  17  18
ATOM     18  C   UNL     1      -4.620  10.613  24.481  1.00  0.00     0.041 C 
ATOM     19  O   UNL     1      -5.113   9.491  24.194  1.00  0.00    -0.550 OA
ATOM     20  O   UNL     1      -4.682  11.076  25.790  1.00  0.00    -0.550 OA
ENDBRANCH  17  18
ENDBRANCH  16  17
ENDBRANCH  15  16
ENDBRANCH  14  15
ENDBRANCH  13  14
ENDBRANCH  12  13
ENDBRANCH  11  12
ENDBRANCH   1  11
TORSDOF 15
ENDMDL
MODEL 5
REMARK VINA RESULT:    -4.598      3.639      6.520
REMARK INTER + INTRA:         -10.570
REMARK INTER:                  -9.331
REMARK INTRA:                  -1.239
REMARK UNBOUND:                -1.940
REMARK SMILES O=C([O-])CCCCCCCCCCCCCCC(=O)[O-]
REMARK SMILES IDX 10 1 9 2 8 3 7 4 6 5 5 6 4 7 2 8 1 9 3 10 11 11 12 12 13 13
REMARK SMILES IDX 14 14 15 15 16 16 17 17 18 18 19 19 20 20
REMARK H PARENT
REMARK Flexibility Score: inf
ROOT
ATOM      1  C   UNL     1       1.569  10.254  25.144  1.00  0.00     0.000 C 
ENDROOT
BRANCH   1   2
ATOM      2  C   UNL     1       1.620  11.611  25.871  1.00  0.00     0.000 C 
BRANCH   2   3
ATOM      3  C   UNL     1       0.283  12.080  26.482  1.00  0.00     0.000 C 
BRANCH   3   4
ATOM      4  C   UNL     1       0.131  13.607  26.628  1.00  0.00     0.000 C 
BRANCH   4   5
ATOM      5  C   UNL     1       0.507  14.424  25.377  1.00  0.00     0.000 C 
BRANCH   5   6
ATOM      6  C   UNL     1       1.836  15.198  25.472  1.00  0.00     0.006 C 
BRANCH   6   7
ATOM      7  C   UNL     1       2.698  15.121  24.198  1.00  0.00     0.053 C 
BRANCH   7   8
ATOM      8  C   UNL     1       3.245  16.456  23.790  1.00  0.00     0.041 C 
ATOM      9  O   UNL     1       2.469  17.432  23.607  1.00  0.00    -0.550 OA
ATOM     10  O   UNL     1       4.609  16.614  23.574  1.00  0.00    -0.550 OA
ENDBRANCH   7   8
ENDBRANCH   6   7
ENDBRANCH   5   6
ENDBRANCH   4   5
ENDBRANCH   3   4
ENDBRANCH   2   3
ENDBRANCH   1   2
BRANCH   1  11
ATOM     11  C   UNL     1       0.322   9.429  25.505  1.00  0.00     0.000 C 
BRANCH  11  12
ATOM     12  C   UNL     1      -0.646   9.254  24.320  1.00  0.00     0.000 C 
BRANCH  12  13
ATOM     13  C   UNL     1      -2.100   9.679  24.594  1.00  0.00     0.000 C 
BRANCH  13  14
ATOM     14  C   UNL     1      -2.492  10.980  23.878  1.00  0.00     0.000 C 
BRANCH  14  15
ATOM     15  C   UNL     1      -4.016  11.075  23.705  1.00  0.00     0.000 C 
BRANCH  15  16
ATOM     16  C   UNL     1      -4.480  10.656  22.301  1.00  0.00     0.006 C 
BRANCH  16  17
ATOM     17  C   UNL     1      -3.319  10.541  21.305  1.00  0.00     0.053 C 
BRANCH  17  18
ATOM     18  C   UNL     1      -3.141   9.119  20.875  1.00  0.00     0.041 C 
ATOM     19  O   UNL     1      -4.076   8.512  20.291  1.00  0.00    -0.550 OA
ATOM     20  O   UNL     1      -1.924   8.479  21.074  1.00  0.00    -0.550 OA
ENDBRANCH  17  18
ENDBRANCH  16  17
ENDBRANCH  15  16
ENDBRANCH  14  15
ENDBRANCH  13  14
ENDBRANCH  12  13
ENDBRANCH  11  12
ENDBRANCH   1  11
TORSDOF 15
ENDMDL
MODEL 6
REMARK VINA RESULT:    -4.593      2.508      5.529
REMARK INTER + INTRA:         -10.561
REMARK INTER:                  -9.043
REMARK INTRA:                  -1.518
REMARK UNBOUND:                -1.940
REMARK SMILES O=C([O-])CCCCCCCCCCCCCCC(=O)[O-]
REMARK SMILES IDX 10 1 9 2 8 3 7 4 6 5 5 6 4 7 2 8 1 9 3 10 11 11 12 12 13 13
REMARK SMILES IDX 14 14 15 15 16 16 17 17 18 18 19 19 20 20
REMARK H PARENT
REMARK Flexibility Score: inf
ROOT
ATOM      1  C   UNL     1      -2.496   9.047  20.867  1.00  0.00     0.000 C 
ENDROOT
BRANCH   1   2
ATOM      2  C   UNL     1      -3.789   9.879  20.960  1.00  0.00     0.000 C 
BRANCH   2   3
ATOM      3  C   UNL     1      -3.671  11.191  21.761  1.00  0.00     0.000 C 
BRANCH   3   4
ATOM      4  C   UNL     1      -4.773  11.415  22.816  1.00  0.00     0.000 C 
BRANCH   4   5
ATOM      5  C   UNL     1      -4.929  10.283  23.849  1.00  0.00     0.000 C 
BRANCH   5   6
ATOM      6  C   UNL     1      -4.948  10.734  25.322  1.00  0.00     0.006 C 
BRANCH   6   7
ATOM      7  C   UNL     1      -4.257   9.752  26.287  1.00  0.00     0.053 C 
BRANCH   7   8
ATOM      8  C   UNL     1      -3.372  10.444  27.280  1.00  0.00     0.041 C 
ATOM      9  O   UNL     1      -3.055   9.870  28.355  1.00  0.00    -0.550 OA
ATOM     10  O   UNL     1      -2.928  11.738  27.035  1.00  0.00    -0.550 OA
ENDBRANCH   7   8
ENDBRANCH   6   7
ENDBRANCH   5   6
ENDBRANCH   4   5
ENDBRANCH   3   4
ENDBRANCH   2   3
ENDBRANCH   1   2
BRANCH   1  11
ATOM     11  C   UNL     1      -2.236   8.204  22.127  1.00  0.00     0.000 C 
BRANCH  11  12
ATOM     12  C   UNL     1      -0.999   8.670  22.917  1.00  0.00     0.000 C 
BRANCH  12  13
ATOM     13  C   UNL     1      -1.290   9.639  24.078  1.00  0.00     0.000 C 
BRANCH  13  14
ATOM     14  C   UNL     1      -0.538   9.277  25.367  1.00  0.00     0.000 C 
BRANCH  14  15
ATOM     15  C   UNL     1       0.753  10.100  25.500  1.00  0.00     0.000 C 
BRANCH  15  16
ATOM     16  C   UNL     1       2.011   9.293  25.144  1.00  0.00     0.006 C 
BRANCH  16  17
ATOM     17  C   UNL     1       3.085   9.361  26.237  1.00  0.00     0.053 C 
BRANCH  17  18
ATOM     18  C   UNL     1       3.650   8.001  26.498  1.00  0.00     0.041 C 
ATOM     19  O   UNL     1       4.655   7.597  25.855  1.00  0.00    -0.550 OA
ATOM     20  O   UNL     1       3.099   7.196  27.487  1.00  0.00    -0.550 OA
ENDBRANCH  17  18
ENDBRANCH  16  17
ENDBRANCH  15  16
ENDBRANCH  14  15
ENDBRANCH  13  14
ENDBRANCH  12  13
ENDBRANCH  11  12
ENDBRANCH   1  11
TORSDOF 15
ENDMDL
MODEL 7
REMARK VINA RESULT:    -4.591      3.709      5.217
REMARK INTER + INTRA:         -10.556
REMARK INTER:                  -8.884
REMARK INTRA:                  -1.673
REMARK UNBOUND:                -1.940
REMARK SMILES O=C([O-])CCCCCCCCCCCCCCC(=O)[O-]
REMARK SMILES IDX 10 1 9 2 8 3 7 4 6 5 5 6 4 7 2 8 1 9 3 10 11 11 12 12 13 13
REMARK SMILES IDX 14 14 15 15 16 16 17 17 18 18 19 19 20 20
REMARK H PARENT
REMARK Flexibility Score: inf
ROOT
ATOM      1  C   UNL     1       0.636   9.566  24.230  1.00  0.00     0.000 C 
ENDROOT
BRANCH   1   2
ATOM      2  C   UNL     1      -0.845   9.249  23.951  1.00  0.00     0.000 C 
BRANCH   2   3
ATOM      3  C   UNL     1      -1.772   9.306  25.182  1.00  0.00     0.000 C 
BRANCH   3   4
ATOM      4  C   UNL     1      -2.781  10.473  25.188  1.00  0.00     0.000 C 
BRANCH   4   5
ATOM      5  C   UNL     1      -2.492  11.591  24.168  1.00  0.00     0.000 C 
BRANCH   5   6
ATOM      6  C   UNL     1      -3.602  11.835  23.128  1.00  0.00     0.006 C 
BRANCH   6   7
ATOM      7  C   UNL     1      -3.216  11.433  21.693  1.00  0.00     0.053 C 
BRANCH   7   8
ATOM      8  C   UNL     1      -3.477   9.984  21.409  1.00  0.00     0.041 C 
ATOM      9  O   UNL     1      -4.283   9.332  22.126  1.00  0.00    -0.550 OA
ATOM     10  O   UNL     1      -2.803   9.343  20.377  1.00  0.00    -0.550 OA
ENDBRANCH   7   8
ENDBRANCH   6   7
ENDBRANCH   5   6
ENDBRANCH   4   5
ENDBRANCH   3   4
ENDBRANCH   2   3
ENDBRANCH   1   2
BRANCH   1  11
ATOM     11  C   UNL     1       0.902   9.937  25.698  1.00  0.00     0.000 C 
BRANCH  11  12
ATOM     12  C   UNL     1       1.299  11.414  25.883  1.00  0.00     0.000 C 
BRANCH  12  13
ATOM     13  C   UNL     1       0.259  12.286  26.609  1.00  0.00     0.000 C 
BRANCH  13  14
ATOM     14  C   UNL     1       0.204  13.726  26.076  1.00  0.00     0.000 C 
BRANCH  14  15
ATOM     15  C   UNL     1       1.545  14.129  25.443  1.00  0.00     0.000 C 
BRANCH  15  16
ATOM     16  C   UNL     1       1.476  15.483  24.720  1.00  0.00     0.006 C 
BRANCH  16  17
ATOM     17  C   UNL     1       2.402  16.534  25.345  1.00  0.00     0.053 C 
BRANCH  17  18
ATOM     18  C   UNL     1       3.308  17.116  24.307  1.00  0.00     0.041 C 
ATOM     19  O   UNL     1       3.278  18.350  24.059  1.00  0.00    -0.550 OA
ATOM     20  O   UNL     1       4.221  16.304  23.646  1.00  0.00    -0.550 OA
ENDBRANCH  17  18
ENDBRANCH  16  17
ENDBRANCH  15  16
ENDBRANCH  14  15
ENDBRANCH  13  14
ENDBRANCH  12  13
ENDBRANCH  11  12
ENDBRANCH   1  11
TORSDOF 15
ENDMDL
MODEL 8
REMARK VINA RESULT:    -4.567      2.828      4.674
REMARK INTER + INTRA:         -10.511
REMARK INTER:                  -8.499
REMARK INTRA:                  -2.012
REMARK UNBOUND:                -1.940
REMARK SMILES O=C([O-])CCCCCCCCCCCCCCC(=O)[O-]
REMARK SMILES IDX 10 1 9 2 8 3 7 4 6 5 5 6 4 7 2 8 1 9 3 10 11 11 12 12 13 13
REMARK SMILES IDX 14 14 15 15 16 16 17 17 18 18 19 19 20 20
REMARK H PARENT
REMARK Flexibility Score: inf
ROOT
ATOM      1  C   UNL     1      -2.952  11.095  22.103  1.00  0.00     0.000 C 
ENDROOT
BRANCH   1   2
ATOM      2  C   UNL     1      -3.137   9.818  21.262  1.00  0.00     0.000 C 
BRANCH   2   3
ATOM      3  C   UNL     1      -2.264   8.619  21.686  1.00  0.00     0.000 C 
BRANCH   3   4
ATOM      4  C   UNL     1      -1.306   8.891  22.864  1.00  0.00     0.000 C 
BRANCH   4   5
ATOM      5  C   UNL     1      -1.742   8.291  24.213  1.00  0.00     0.000 C 
BRANCH   5   6
ATOM      6  C   UNL     1      -0.996   8.834  25.447  1.00  0.00     0.006 C 
BRANCH   6   7
ATOM      7  C   UNL     1      -0.390  10.236  25.246  1.00  0.00     0.053 C 
BRANCH   7   8
ATOM      8  C   UNL     1       1.102  10.245  25.387  1.00  0.00     0.041 C 
ATOM      9  O   UNL     1       1.677  11.194  25.983  1.00  0.00    -0.550 OA
ATOM     10  O   UNL     1       1.862   9.226  24.827  1.00  0.00    -0.550 OA
ENDBRANCH   7   8
ENDBRANCH   6   7
ENDBRANCH   5   6
ENDBRANCH   4   5
ENDBRANCH   3   4
ENDBRANCH   2   3
ENDBRANCH   1   2
BRANCH   1  11
ATOM     11  C   UNL     1      -4.210  11.471  22.904  1.00  0.00     0.000 C 
BRANCH  11  12
ATOM     12  C   UNL     1      -4.797  10.284  23.691  1.00  0.00     0.000 C 
BRANCH  12  13
ATOM     13  C   UNL     1      -4.955  10.516  25.205  1.00  0.00     0.000 C 
BRANCH  13  14
ATOM     14  C   UNL     1      -3.749  11.229  25.834  1.00  0.00     0.000 C 
BRANCH  14  15
ATOM     15  C   UNL     1      -3.933  11.386  27.351  1.00  0.00     0.000 C 
BRANCH  15  16
ATOM     16  C   UNL     1      -3.057  10.416  28.158  1.00  0.00     0.006 C 
BRANCH  16  17
ATOM     17  C   UNL     1      -2.088  11.140  29.101  1.00  0.00     0.053 C 
BRANCH  17  18
ATOM     18  C   UNL     1      -2.606  11.114  30.504  1.00  0.00     0.041 C 
ATOM     19  O   UNL     1      -1.857  11.437  31.463  1.00  0.00    -0.550 OA
ATOM     20  O   UNL     1      -3.932  10.779  30.750  1.00  0.00    -0.550 OA
ENDBRANCH  17  18
ENDBRANCH  16  17
ENDBRANCH  15  16
ENDBRANCH  14  15
ENDBRANCH  13  14
ENDBRANCH  12  13
ENDBRANCH  11  12
ENDBRANCH   1  11
TORSDOF 15
ENDMDL
MODEL 9
REMARK VINA RESULT:    -4.559      2.025      6.230
REMARK INTER + INTRA:         -10.497
REMARK INTER:                  -8.695
REMARK INTRA:                  -1.803
REMARK UNBOUND:                -1.940
REMARK SMILES O=C([O-])CCCCCCCCCCCCCCC(=O)[O-]
REMARK SMILES IDX 10 1 9 2 8 3 7 4 6 5 5 6 4 7 2 8 1 9 3 10 11 11 12 12 13 13
REMARK SMILES IDX 14 14 15 15 16 16 17 17 18 18 19 19 20 20
REMARK H PARENT
REMARK Flexibility Score: inf
ROOT
ATOM      1  C   UNL     1       0.935  11.135  25.874  1.00  0.00     0.000 C 
ENDROOT
BRANCH   1   2
ATOM      2  C   UNL     1       0.388  12.503  26.322  1.00  0.00     0.000 C 
BRANCH   2   3
ATOM      3  C   UNL     1      -1.067  12.799  25.904  1.00  0.00     0.000 C 
BRANCH   3   4
ATOM      4  C   UNL     1      -2.008  13.210  27.055  1.00  0.00     0.000 C 
BRANCH   4   5
ATOM      5  C   UNL     1      -3.063  12.157  27.445  1.00  0.00     0.000 C 
BRANCH   5   6
ATOM      6  C   UNL     1      -2.533  10.970  28.273  1.00  0.00     0.006 C 
BRANCH   6   7
ATOM      7  C   UNL     1      -3.174  10.845  29.668  1.00  0.00     0.053 C 
BRANCH   7   8
ATOM      8  C   UNL     1      -2.543  11.757  30.677  1.00  0.00     0.041 C 
ATOM      9  O   UNL     1      -1.650  11.324  31.453  1.00  0.00    -0.550 OA
ATOM     10  O   UNL     1      -2.967  13.075  30.787  1.00  0.00    -0.550 OA
ENDBRANCH   7   8
ENDBRANCH   6   7
ENDBRANCH   5   6
ENDBRANCH   4   5
ENDBRANCH   3   4
ENDBRANCH   2   3
ENDBRANCH   1   2
BRANCH   1  11
ATOM     11  C   UNL     1      -0.137  10.032  25.879  1.00  0.00     0.000 C 
BRANCH  11  12
ATOM     12  C   UNL     1      -0.504   9.543  24.465  1.00  0.00     0.000 C 
BRANCH  12  13
ATOM     13  C   UNL     1      -1.684   8.556  24.398  1.00  0.00     0.000 C 
BRANCH  13  14
ATOM     14  C   UNL     1      -3.041   9.223  24.667  1.00  0.00     0.000 C 
BRANCH  14  15
ATOM     15  C   UNL     1      -3.152  10.562  23.921  1.00  0.00     0.000 C 
BRANCH  15  16
ATOM     16  C   UNL     1      -4.044  10.473  22.673  1.00  0.00     0.006 C 
BRANCH  16  17
ATOM     17  C   UNL     1      -3.235  10.425  21.371  1.00  0.00     0.053 C 
BRANCH  17  18
ATOM     18  C   UNL     1      -3.125   9.018  20.876  1.00  0.00     0.041 C 
ATOM     19  O   UNL     1      -2.086   8.344  21.105  1.00  0.00    -0.550 OA
ATOM     20  O   UNL     1      -4.190   8.432  20.203  1.00  0.00    -0.550 OA
ENDBRANCH  17  18
ENDBRANCH  16  17
ENDBRANCH  15  16
ENDBRANCH  14  15
ENDBRANCH  13  14
ENDBRANCH  12  13
ENDBRANCH  11  12
ENDBRANCH   1  11
TORSDOF 15
ENDMDL
