MODEL 1
REMARK VINA RESULT:    -3.249      0.000      0.000
REMARK INTER + INTRA:          -3.534
REMARK INTER:                  -3.534
REMARK INTRA:                   0.000
REMARK UNBOUND:                 0.000
REMARK SMILES [NH3+]CC(=O)[O-]
REMARK SMILES IDX 2 1 1 2 3 6 4 7 5 8
REMARK H PARENT 1 3 1 4 1 5
REMARK Flexibility Score: inf
ROOT
ATOM      1  C   UNL     1     -27.051  68.740  -3.055  1.00  0.00     0.312 C 
ENDROOT
BRANCH   1   2
ATOM      2  N   UNL     1     -28.508  68.790  -2.936  1.00  0.00    -0.353 N 
ATOM      3  H   UNL     1     -28.784  69.452  -2.175  1.00  0.00     0.344 HD
ATOM      4  H   UNL     1     -28.865  67.837  -2.702  1.00  0.00     0.344 HD
ATOM      5  H   UNL     1     -28.931  69.097  -3.843  1.00  0.00     0.344 HD
ENDBRANCH   1   2
BRANCH   1   6
ATOM      6  C   UNL     1     -26.535  67.391  -2.660  1.00  0.00     0.096 C 
ATOM      7  O   UNL     1     -25.595  67.292  -1.828  1.00  0.00    -0.544 OA
ATOM      8  O   UNL     1     -27.126  66.243  -3.170  1.00  0.00    -0.544 OA
ENDBRANCH   1   6
TORSDOF 2
ENDMDL
MODEL 2
REMARK VINA RESULT:    -3.165     17.154     17.620
REMARK INTER + INTRA:          -3.442
REMARK INTER:                  -3.442
REMARK INTRA:                   0.000
REMARK UNBOUND:                 0.000
REMARK SMILES [NH3+]CC(=O)[O-]
REMARK SMILES IDX 2 1 1 2 3 6 4 7 5 8
REMARK H PARENT 1 3 1 4 1 5
REMARK Flexibility Score: inf
ROOT
ATOM      1  C   UNL     1     -17.531  62.284  10.610  1.00  0.00     0.312 C 
ENDROOT
BRANCH   1   2
ATOM      2  N   UNL     1     -18.794  61.628  10.945  1.00  0.00    -0.353 N 
ATOM      3  H   UNL     1     -18.913  60.763  10.370  1.00  0.00     0.344 HD
ATOM      4  H   UNL     1     -19.583  62.282  10.742  1.00  0.00     0.344 HD
ATOM      5  H   UNL     1     -18.811  61.381  11.962  1.00  0.00     0.344 HD
ENDBRANCH   1   2
BRANCH   1   6
ATOM      6  C   UNL     1     -17.317  63.490  11.472  1.00  0.00     0.096 C 
ATOM      7  O   UNL     1     -16.987  63.355  12.679  1.00  0.00    -0.544 OA
ATOM      8  O   UNL     1     -17.432  64.762  10.927  1.00  0.00    -0.544 OA
ENDBRANCH   1   6
TORSDOF 2
ENDMDL
MODEL 3
REMARK VINA RESULT:    -2.979      6.457      6.805
REMARK INTER + INTRA:          -3.240
REMARK INTER:                  -3.240
REMARK INTRA:                   0.000
REMARK UNBOUND:                 0.000
REMARK SMILES [NH3+]CC(=O)[O-]
REMARK SMILES IDX 2 1 1 2 3 6 4 7 5 8
REMARK H PARENT 1 3 1 4 1 5
REMARK Flexibility Score: inf
ROOT
ATOM      1  C   UNL     1     -21.276  70.658   0.426  1.00  0.00     0.312 C 
ENDROOT
BRANCH   1   2
ATOM      2  N   UNL     1     -21.567  71.583   1.520  1.00  0.00    -0.353 N 
ATOM      3  H   UNL     1     -22.310  72.260   1.231  1.00  0.00     0.344 HD
ATOM      4  H   UNL     1     -20.700  72.114   1.760  1.00  0.00     0.344 HD
ATOM      5  H   UNL     1     -21.883  71.052   2.365  1.00  0.00     0.344 HD
ENDBRANCH   1   2
BRANCH   1   6
ATOM      6  C   UNL     1     -21.754  69.278   0.760  1.00  0.00     0.096 C 
ATOM      7  O   UNL     1     -21.442  68.749   1.859  1.00  0.00    -0.544 OA
ATOM      8  O   UNL     1     -22.585  68.598  -0.121  1.00  0.00    -0.544 OA
ENDBRANCH   1   6
TORSDOF 2
ENDMDL
MODEL 4
REMARK VINA RESULT:    -2.964      6.461      6.648
REMARK INTER + INTRA:          -3.224
REMARK INTER:                  -3.224
REMARK INTRA:                   0.000
REMARK UNBOUND:                 0.000
REMARK SMILES [NH3+]CC(=O)[O-]
REMARK SMILES IDX 2 1 1 2 3 6 4 7 5 8
REMARK H PARENT 1 3 1 4 1 5
REMARK Flexibility Score: inf
ROOT
ATOM      1  C   UNL     1     -22.326  68.882   0.744  1.00  0.00     0.312 C 
ENDROOT
BRANCH   1   2
ATOM      2  N   UNL     1     -23.037  68.308  -0.397  1.00  0.00    -0.353 N 
ATOM      3  H   UNL     1     -24.066  68.298  -0.212  1.00  0.00     0.344 HD
ATOM      4  H   UNL     1     -22.710  67.326  -0.545  1.00  0.00     0.344 HD
ATOM      5  H   UNL     1     -22.838  68.865  -1.261  1.00  0.00     0.344 HD
ENDBRANCH   1   2
BRANCH   1   6
ATOM      6  C   UNL     1     -21.177  69.724   0.282  1.00  0.00     0.096 C 
ATOM      7  O   UNL     1     -21.220  70.977   0.405  1.00  0.00    -0.544 OA
ATOM      8  O   UNL     1     -20.039  69.122  -0.238  1.00  0.00    -0.544 OA
ENDBRANCH   1   6
TORSDOF 2
ENDMDL
MODEL 5
REMARK VINA RESULT:    -2.959      6.367      6.640
REMARK INTER + INTRA:          -3.218
REMARK INTER:                  -3.218
REMARK INTRA:                   0.000
REMARK UNBOUND:                 0.000
REMARK SMILES [NH3+]CC(=O)[O-]
REMARK SMILES IDX 2 1 1 2 3 6 4 7 5 8
REMARK H PARENT 1 3 1 4 1 5
REMARK Flexibility Score: inf
ROOT
ATOM      1  C   UNL     1     -22.363  68.870   0.739  1.00  0.00     0.312 C 
ENDROOT
BRANCH   1   2
ATOM      2  N   UNL     1     -23.107  68.349  -0.406  1.00  0.00    -0.353 N 
ATOM      3  H   UNL     1     -22.710  68.728  -1.296  1.00  0.00     0.344 HD
ATOM      4  H   UNL     1     -24.107  68.644  -0.328  1.00  0.00     0.344 HD
ATOM      5  H   UNL     1     -23.063  67.303  -0.417  1.00  0.00     0.344 HD
ENDBRANCH   1   2
BRANCH   1   6
ATOM      6  C   UNL     1     -21.197  69.690   0.282  1.00  0.00     0.096 C 
ATOM      7  O   UNL     1     -20.211  69.136  -0.272  1.00  0.00    -0.544 OA
ATOM      8  O   UNL     1     -21.221  71.072   0.421  1.00  0.00    -0.544 OA
ENDBRANCH   1   6
TORSDOF 2
ENDMDL
MODEL 6
REMARK VINA RESULT:    -2.902      7.330      7.631
REMARK INTER + INTRA:          -3.157
REMARK INTER:                  -3.157
REMARK INTRA:                   0.000
REMARK UNBOUND:                 0.000
REMARK SMILES [NH3+]CC(=O)[O-]
REMARK SMILES IDX 2 1 1 2 3 6 4 7 5 8
REMARK H PARENT 1 3 1 4 1 5
REMARK Flexibility Score: inf
ROOT
ATOM      1  C   UNL     1     -18.920  67.830  -0.613  1.00  0.00     0.312 C 
ENDROOT
BRANCH   1   2
ATOM      2  N   UNL     1     -18.214  69.027  -1.066  1.00  0.00    -0.353 N 
ATOM      3  H   UNL     1     -18.479  69.847  -0.473  1.00  0.00     0.344 HD
ATOM      4  H   UNL     1     -18.477  69.226  -2.057  1.00  0.00     0.344 HD
ATOM      5  H   UNL     1     -17.179  68.874  -1.015  1.00  0.00     0.344 HD
ENDBRANCH   1   2
BRANCH   1   6
ATOM      6  C   UNL     1     -20.252  67.716  -1.288  1.00  0.00     0.096 C 
ATOM      7  O   UNL     1     -21.156  68.560  -1.051  1.00  0.00    -0.544 OA
ATOM      8  O   UNL     1     -20.477  66.707  -2.216  1.00  0.00    -0.544 OA
ENDBRANCH   1   6
TORSDOF 2
ENDMDL
MODEL 7
REMARK VINA RESULT:    -2.886      7.553      7.971
REMARK INTER + INTRA:          -3.139
REMARK INTER:                  -3.139
REMARK INTRA:                   0.000
REMARK UNBOUND:                 0.000
REMARK SMILES [NH3+]CC(=O)[O-]
REMARK SMILES IDX 2 1 1 2 3 6 4 7 5 8
REMARK H PARENT 1 3 1 4 1 5
REMARK Flexibility Score: inf
ROOT
ATOM      1  C   UNL     1     -20.127  67.019  -1.790  1.00  0.00     0.312 C 
ENDROOT
BRANCH   1   2
ATOM      2  N   UNL     1     -19.586  65.668  -1.929  1.00  0.00    -0.353 N 
ATOM      3  H   UNL     1     -19.246  65.515  -2.906  1.00  0.00     0.344 HD
ATOM      4  H   UNL     1     -20.338  64.974  -1.720  1.00  0.00     0.344 HD
ATOM      5  H   UNL     1     -18.797  65.526  -1.255  1.00  0.00     0.344 HD
ENDBRANCH   1   2
BRANCH   1   6
ATOM      6  C   UNL     1     -19.457  67.743  -0.664  1.00  0.00     0.096 C 
ATOM      7  O   UNL     1     -18.261  68.120  -0.777  1.00  0.00    -0.544 OA
ATOM      8  O   UNL     1     -20.168  68.046   0.490  1.00  0.00    -0.544 OA
ENDBRANCH   1   6
TORSDOF 2
ENDMDL
MODEL 8
REMARK VINA RESULT:    -2.856     17.133     17.505
REMARK INTER + INTRA:          -3.107
REMARK INTER:                  -3.107
REMARK INTRA:                   0.000
REMARK UNBOUND:                 0.000
REMARK SMILES [NH3+]CC(=O)[O-]
REMARK SMILES IDX 2 1 1 2 3 6 4 7 5 8
REMARK H PARENT 1 3 1 4 1 5
REMARK Flexibility Score: inf
ROOT
ATOM      1  C   UNL     1     -17.490  63.805  11.251  1.00  0.00     0.312 C 
ENDROOT
BRANCH   1   2
ATOM      2  N   UNL     1     -16.098  64.246  11.320  1.00  0.00    -0.353 N 
ATOM      3  H   UNL     1     -15.516  63.525  11.806  1.00  0.00     0.344 HD
ATOM      4  H   UNL     1     -16.048  65.140  11.859  1.00  0.00     0.344 HD
ATOM      5  H   UNL     1     -15.725  64.410  10.356  1.00  0.00     0.344 HD
ENDBRANCH   1   2
BRANCH   1   6
ATOM      6  C   UNL     1     -17.570  62.375  10.814  1.00  0.00     0.096 C 
ATOM      7  O   UNL     1     -17.536  61.449  11.668  1.00  0.00    -0.544 OA
ATOM      8  O   UNL     1     -17.733  62.066   9.470  1.00  0.00    -0.544 OA
ENDBRANCH   1   6
TORSDOF 2
ENDMDL
MODEL 9
REMARK VINA RESULT:    -2.773      5.831      6.229
REMARK INTER + INTRA:          -3.016
REMARK INTER:                  -3.016
REMARK INTRA:                   0.000
REMARK UNBOUND:                 0.000
REMARK SMILES [NH3+]CC(=O)[O-]
REMARK SMILES IDX 2 1 1 2 3 6 4 7 5 8
REMARK H PARENT 1 3 1 4 1 5
REMARK Flexibility Score: inf
ROOT
ATOM      1  C   UNL     1     -22.004  68.611   0.187  1.00  0.00     0.312 C 
ENDROOT
BRANCH   1   2
ATOM      2  N   UNL     1     -23.174  68.127  -0.543  1.00  0.00    -0.353 N 
ATOM      3  H   UNL     1     -23.497  68.850  -1.226  1.00  0.00     0.344 HD
ATOM      4  H   UNL     1     -23.945  67.933   0.136  1.00  0.00     0.344 HD
ATOM      5  H   UNL     1     -22.939  67.242  -1.050  1.00  0.00     0.344 HD
ENDBRANCH   1   2
BRANCH   1   6
ATOM      6  C   UNL     1     -20.758  68.413  -0.621  1.00  0.00     0.096 C 
ATOM      7  O   UNL     1     -19.746  69.131  -0.409  1.00  0.00    -0.544 OA
ATOM      8  O   UNL     1     -20.699  67.402  -1.571  1.00  0.00    -0.544 OA
ENDBRANCH   1   6
TORSDOF 2
ENDMDL
