MODEL 1
REMARK VINA RESULT:    -4.862      0.000      0.000
REMARK INTER + INTRA:          -4.862
REMARK INTER:                  -4.862
REMARK INTRA:                   0.000
REMARK UNBOUND:                 0.000
REMARK SMILES CC(C)=C1CC[C@@H](C)CC1=O
REMARK SMILES IDX 8 1 7 2 6 3 5 4 4 5 2 6 1 7 3 8 10 9 11 10 9 11
REMARK H PARENT
REMARK Flexibility Score: inf
ROOT
ATOM      1  C   UNL     1     -43.866  20.073  18.566  1.00  0.00     0.008 C 
ATOM      2  C   UNL     1     -44.232  18.585  18.442  1.00  0.00    -0.006 C 
ATOM      3  C   UNL     1     -43.190  17.670  19.109  1.00  0.00     0.008 C 
ATOM      4  C   UNL     1     -41.829  17.689  18.397  1.00  0.00     0.039 C 
ATOM      5  C   UNL     1     -41.942  17.486  16.892  1.00  0.00    -0.006 C 
ATOM      6  C   UNL     1     -40.941  16.888  16.182  1.00  0.00    -0.070 C 
ATOM      7  C   UNL     1     -39.673  16.419  16.859  1.00  0.00     0.039 C 
ATOM      8  C   UNL     1     -41.062  16.629  14.697  1.00  0.00     0.039 C 
ATOM      9  C   UNL     1     -43.142  18.082  16.233  1.00  0.00     0.159 C 
ATOM     10  O   UNL     1     -43.090  18.529  15.057  1.00  0.00    -0.295 OA
ATOM     11  C   UNL     1     -44.444  18.170  16.978  1.00  0.00     0.084 C 
ENDROOT
TORSDOF 0
ENDMDL
MODEL 2
REMARK VINA RESULT:    -4.764      2.348      4.860
REMARK INTER + INTRA:          -4.764
REMARK INTER:                  -4.764
REMARK INTRA:                   0.000
REMARK UNBOUND:                 0.000
REMARK SMILES CC(C)=C1CC[C@@H](C)CC1=O
REMARK SMILES IDX 8 1 7 2 6 3 5 4 4 5 2 6 1 7 3 8 10 9 11 10 9 11
REMARK H PARENT
REMARK Flexibility Score: inf
ROOT
ATOM      1  C   UNL     1     -39.100  14.147  14.999  1.00  0.00     0.008 C 
ATOM      2  C   UNL     1     -38.668  15.581  15.346  1.00  0.00    -0.006 C 
ATOM      3  C   UNL     1     -39.466  16.162  16.525  1.00  0.00     0.008 C 
ATOM      4  C   UNL     1     -40.951  16.384  16.195  1.00  0.00     0.039 C 
ATOM      5  C   UNL     1     -41.163  17.134  14.887  1.00  0.00    -0.006 C 
ATOM      6  C   UNL     1     -42.254  17.935  14.700  1.00  0.00    -0.070 C 
ATOM      7  C   UNL     1     -43.301  18.095  15.779  1.00  0.00     0.039 C 
ATOM      8  C   UNL     1     -42.450  18.730  13.430  1.00  0.00     0.039 C 
ATOM      9  C   UNL     1     -40.186  16.849  13.795  1.00  0.00     0.159 C 
ATOM     10  O   UNL     1     -40.533  16.870  12.584  1.00  0.00    -0.295 OA
ATOM     11  C   UNL     1     -38.761  16.514  14.129  1.00  0.00     0.084 C 
ENDROOT
TORSDOF 0
ENDMDL
MODEL 3
REMARK VINA RESULT:    -4.721      2.228      5.084
REMARK INTER + INTRA:          -4.721
REMARK INTER:                  -4.721
REMARK INTRA:                   0.000
REMARK UNBOUND:                 0.000
REMARK SMILES CC(C)=C1CC[C@@H](C)CC1=O
REMARK SMILES IDX 8 1 7 2 6 3 5 4 4 5 2 6 1 7 3 8 10 9 11 10 9 11
REMARK H PARENT
REMARK Flexibility Score: inf
ROOT
ATOM      1  C   UNL     1     -37.845  15.613  15.329  1.00  0.00     0.008 C 
ATOM      2  C   UNL     1     -39.112  14.911  14.816  1.00  0.00    -0.006 C 
ATOM      3  C   UNL     1     -39.654  15.553  13.527  1.00  0.00     0.008 C 
ATOM      4  C   UNL     1     -40.186  16.979  13.743  1.00  0.00     0.039 C 
ATOM      5  C   UNL     1     -41.140  17.085  14.925  1.00  0.00    -0.006 C 
ATOM      6  C   UNL     1     -42.143  18.011  14.942  1.00  0.00    -0.070 C 
ATOM      7  C   UNL     1     -42.335  18.980  13.797  1.00  0.00     0.039 C 
ATOM      8  C   UNL     1     -43.134  18.092  16.081  1.00  0.00     0.039 C 
ATOM      9  C   UNL     1     -40.842  16.210  16.096  1.00  0.00     0.159 C 
ATOM     10  O   UNL     1     -41.098  16.580  17.273  1.00  0.00    -0.295 OA
ATOM     11  C   UNL     1     -40.211  14.863  15.889  1.00  0.00     0.084 C 
ENDROOT
TORSDOF 0
ENDMDL
MODEL 4
REMARK VINA RESULT:    -4.684      3.378      5.034
REMARK INTER + INTRA:          -4.684
REMARK INTER:                  -4.684
REMARK INTRA:                   0.000
REMARK UNBOUND:                 0.000
REMARK SMILES CC(C)=C1CC[C@@H](C)CC1=O
REMARK SMILES IDX 8 1 7 2 6 3 5 4 4 5 2 6 1 7 3 8 10 9 11 10 9 11
REMARK H PARENT
REMARK Flexibility Score: inf
ROOT
ATOM      1  C   UNL     1     -40.244  13.963  15.735  1.00  0.00     0.008 C 
ATOM      2  C   UNL     1     -39.546  15.287  16.086  1.00  0.00    -0.006 C 
ATOM      3  C   UNL     1     -40.547  16.399  16.442  1.00  0.00     0.008 C 
ATOM      4  C   UNL     1     -41.408  16.839  15.247  1.00  0.00     0.039 C 
ATOM      5  C   UNL     1     -40.586  17.135  13.999  1.00  0.00    -0.006 C 
ATOM      6  C   UNL     1     -41.000  18.059  13.083  1.00  0.00    -0.070 C 
ATOM      7  C   UNL     1     -42.299  18.811  13.262  1.00  0.00     0.039 C 
ATOM      8  C   UNL     1     -40.168  18.405  11.869  1.00  0.00     0.039 C 
ATOM      9  C   UNL     1     -39.381  16.280  13.783  1.00  0.00     0.159 C 
ATOM     10  O   UNL     1     -38.994  15.976  12.624  1.00  0.00    -0.295 OA
ATOM     11  C   UNL     1     -38.611  15.753  14.959  1.00  0.00     0.084 C 
ENDROOT
TORSDOF 0
ENDMDL
MODEL 5
REMARK VINA RESULT:    -4.584      1.701      2.823
REMARK INTER + INTRA:          -4.584
REMARK INTER:                  -4.584
REMARK INTRA:                   0.000
REMARK UNBOUND:                 0.000
REMARK SMILES CC(C)=C1CC[C@@H](C)CC1=O
REMARK SMILES IDX 8 1 7 2 6 3 5 4 4 5 2 6 1 7 3 8 10 9 11 10 9 11
REMARK H PARENT
REMARK Flexibility Score: inf
ROOT
ATOM      1  C   UNL     1     -44.131  17.947  17.990  1.00  0.00     0.008 C 
ATOM      2  C   UNL     1     -42.916  18.871  17.804  1.00  0.00    -0.006 C 
ATOM      3  C   UNL     1     -42.989  19.674  16.494  1.00  0.00     0.008 C 
ATOM      4  C   UNL     1     -42.870  18.793  15.241  1.00  0.00     0.039 C 
ATOM      5  C   UNL     1     -41.693  17.830  15.300  1.00  0.00    -0.006 C 
ATOM      6  C   UNL     1     -41.053  17.424  14.164  1.00  0.00    -0.070 C 
ATOM      7  C   UNL     1     -41.501  17.901  12.801  1.00  0.00     0.039 C 
ATOM      8  C   UNL     1     -39.848  16.513  14.210  1.00  0.00     0.039 C 
ATOM      9  C   UNL     1     -41.363  17.271  16.645  1.00  0.00     0.159 C 
ATOM     10  O   UNL     1     -40.901  16.106  16.775  1.00  0.00    -0.295 OA
ATOM     11  C   UNL     1     -41.593  18.094  17.879  1.00  0.00     0.084 C 
ENDROOT
TORSDOF 0
ENDMDL
MODEL 6
REMARK VINA RESULT:    -4.448      3.113      4.950
REMARK INTER + INTRA:          -4.448
REMARK INTER:                  -4.448
REMARK INTRA:                   0.000
REMARK UNBOUND:                 0.000
REMARK SMILES CC(C)=C1CC[C@@H](C)CC1=O
REMARK SMILES IDX 8 1 7 2 6 3 5 4 4 5 2 6 1 7 3 8 10 9 11 10 9 11
REMARK H PARENT
REMARK Flexibility Score: inf
ROOT
ATOM      1  C   UNL     1     -40.439  19.387  11.846  1.00  0.00     0.008 C 
ATOM      2  C   UNL     1     -41.372  18.168  11.924  1.00  0.00    -0.006 C 
ATOM      3  C   UNL     1     -42.304  18.223  13.146  1.00  0.00     0.008 C 
ATOM      4  C   UNL     1     -41.554  18.092  14.481  1.00  0.00     0.039 C 
ATOM      5  C   UNL     1     -40.585  16.918  14.506  1.00  0.00    -0.006 C 
ATOM      6  C   UNL     1     -40.295  16.266  15.670  1.00  0.00    -0.070 C 
ATOM      7  C   UNL     1     -40.909  16.697  16.983  1.00  0.00     0.039 C 
ATOM      8  C   UNL     1     -39.379  15.063  15.703  1.00  0.00     0.039 C 
ATOM      9  C   UNL     1     -39.892  16.605  13.222  1.00  0.00     0.159 C 
ATOM     10  O   UNL     1     -38.719  16.148  13.205  1.00  0.00    -0.295 OA
ATOM     11  C   UNL     1     -40.587  16.847  11.913  1.00  0.00     0.084 C 
ENDROOT
TORSDOF 0
ENDMDL
MODEL 7
REMARK VINA RESULT:    -4.441     10.547     13.231
REMARK INTER + INTRA:          -4.441
REMARK INTER:                  -4.441
REMARK INTRA:                   0.000
REMARK UNBOUND:                 0.000
REMARK SMILES CC(C)=C1CC[C@@H](C)CC1=O
REMARK SMILES IDX 8 1 7 2 6 3 5 4 4 5 2 6 1 7 3 8 10 9 11 10 9 11
REMARK H PARENT
REMARK Flexibility Score: inf
ROOT
ATOM      1  C   UNL     1     -32.937  19.042   6.374  1.00  0.00     0.008 C 
ATOM      2  C   UNL     1     -33.955  18.568   5.325  1.00  0.00    -0.006 C 
ATOM      3  C   UNL     1     -35.383  19.046   5.639  1.00  0.00     0.008 C 
ATOM      4  C   UNL     1     -35.965  18.407   6.910  1.00  0.00     0.039 C 
ATOM      5  C   UNL     1     -35.810  16.893   6.938  1.00  0.00    -0.006 C 
ATOM      6  C   UNL     1     -36.713  16.102   7.588  1.00  0.00    -0.070 C 
ATOM      7  C   UNL     1     -37.894  16.700   8.320  1.00  0.00     0.039 C 
ATOM      8  C   UNL     1     -36.604  14.594   7.578  1.00  0.00     0.039 C 
ATOM      9  C   UNL     1     -34.564  16.344   6.326  1.00  0.00     0.159 C 
ATOM     10  O   UNL     1     -34.015  15.304   6.777  1.00  0.00    -0.295 OA
ATOM     11  C   UNL     1     -33.930  17.042   5.156  1.00  0.00     0.084 C 
ENDROOT
TORSDOF 0
ENDMDL
MODEL 8
REMARK VINA RESULT:    -4.401      1.369      4.537
REMARK INTER + INTRA:          -4.401
REMARK INTER:                  -4.401
REMARK INTRA:                   0.000
REMARK UNBOUND:                 0.000
REMARK SMILES CC(C)=C1CC[C@@H](C)CC1=O
REMARK SMILES IDX 8 1 7 2 6 3 5 4 4 5 2 6 1 7 3 8 10 9 11 10 9 11
REMARK H PARENT
REMARK Flexibility Score: inf
ROOT
ATOM      1  C   UNL     1     -39.859  14.570  13.799  1.00  0.00     0.008 C 
ATOM      2  C   UNL     1     -39.198  15.918  14.129  1.00  0.00    -0.006 C 
ATOM      3  C   UNL     1     -38.761  16.010  15.601  1.00  0.00     0.008 C 
ATOM      4  C   UNL     1     -39.945  16.026  16.580  1.00  0.00     0.039 C 
ATOM      5  C   UNL     1     -41.018  17.037  16.200  1.00  0.00    -0.006 C 
ATOM      6  C   UNL     1     -41.792  17.639  17.150  1.00  0.00    -0.070 C 
ATOM      7  C   UNL     1     -41.626  17.310  18.617  1.00  0.00     0.039 C 
ATOM      8  C   UNL     1     -42.822  18.686  16.794  1.00  0.00     0.039 C 
ATOM      9  C   UNL     1     -41.250  17.237  14.739  1.00  0.00     0.159 C 
ATOM     10  O   UNL     1     -42.394  17.509  14.288  1.00  0.00    -0.295 OA
ATOM     11  C   UNL     1     -40.109  17.102  13.770  1.00  0.00     0.084 C 
ENDROOT
TORSDOF 0
ENDMDL
MODEL 9
REMARK VINA RESULT:    -4.193      2.454      5.552
REMARK INTER + INTRA:          -4.193
REMARK INTER:                  -4.193
REMARK INTRA:                   0.000
REMARK UNBOUND:                 0.000
REMARK SMILES CC(C)=C1CC[C@@H](C)CC1=O
REMARK SMILES IDX 8 1 7 2 6 3 5 4 4 5 2 6 1 7 3 8 10 9 11 10 9 11
REMARK H PARENT
REMARK Flexibility Score: inf
ROOT
ATOM      1  C   UNL     1     -38.468  17.243  11.960  1.00  0.00     0.008 C 
ATOM      2  C   UNL     1     -39.670  16.299  12.124  1.00  0.00    -0.006 C 
ATOM      3  C   UNL     1     -41.012  17.050  12.079  1.00  0.00     0.008 C 
ATOM      4  C   UNL     1     -41.219  17.985  13.281  1.00  0.00     0.039 C 
ATOM      5  C   UNL     1     -40.945  17.307  14.616  1.00  0.00    -0.006 C 
ATOM      6  C   UNL     1     -41.600  17.690  15.751  1.00  0.00    -0.070 C 
ATOM      7  C   UNL     1     -42.611  18.815  15.729  1.00  0.00     0.039 C 
ATOM      8  C   UNL     1     -41.381  16.990  17.073  1.00  0.00     0.039 C 
ATOM      9  C   UNL     1     -39.846  16.297  14.632  1.00  0.00     0.159 C 
ATOM     10  O   UNL     1     -39.126  16.128  15.651  1.00  0.00    -0.295 OA
ATOM     11  C   UNL     1     -39.570  15.466  13.411  1.00  0.00     0.084 C 
ENDROOT
TORSDOF 0
ENDMDL
