MODEL 1
REMARK VINA RESULT:    -2.360      0.000      0.000
REMARK INTER + INTRA:          -2.360
REMARK INTER:                  -2.360
REMARK INTRA:                   0.000
REMARK UNBOUND:                 0.000
REMARK SMILES CC(=O)[O-]
REMARK SMILES IDX 1 1 2 2 3 3 4 4
REMARK H PARENT
REMARK Flexibility Score: inf
ROOT
ATOM      1  C   UNL     1      46.050  11.107  95.188  1.00  0.00     0.063 C 
ATOM      2  C   UNL     1      46.287  12.549  94.895  1.00  0.00     0.038 C 
ATOM      3  O   UNL     1      46.315  12.956  93.704  1.00  0.00    -0.550 OA
ATOM      4  O   UNL     1      46.424  13.457  95.936  1.00  0.00    -0.550 OA
ENDROOT
TORSDOF 0
ENDMDL
MODEL 2
REMARK VINA RESULT:    -2.165     13.889     14.114
REMARK INTER + INTRA:          -2.165
REMARK INTER:                  -2.165
REMARK INTRA:                   0.000
REMARK UNBOUND:                 0.000
REMARK SMILES CC(=O)[O-]
REMARK SMILES IDX 1 1 2 2 3 3 4 4
REMARK H PARENT
REMARK Flexibility Score: inf
ROOT
ATOM      1  C   UNL     1      59.087  11.297  89.136  1.00  0.00     0.063 C 
ATOM      2  C   UNL     1      59.196  10.245  90.186  1.00  0.00     0.038 C 
ATOM      3  O   UNL     1      58.277   9.396  90.328  1.00  0.00    -0.550 OA
ATOM      4  O   UNL     1      60.334  10.165  90.977  1.00  0.00    -0.550 OA
ENDROOT
TORSDOF 0
ENDMDL
MODEL 3
REMARK VINA RESULT:    -2.100     14.157     14.395
REMARK INTER + INTRA:          -2.100
REMARK INTER:                  -2.100
REMARK INTRA:                   0.000
REMARK UNBOUND:                 0.000
REMARK SMILES CC(=O)[O-]
REMARK SMILES IDX 1 1 2 2 3 3 4 4
REMARK H PARENT
REMARK Flexibility Score: inf
ROOT
ATOM      1  C   UNL     1      58.302   9.743  90.301  1.00  0.00     0.063 C 
ATOM      2  C   UNL     1      59.609  10.444  90.143  1.00  0.00     0.038 C 
ATOM      3  O   UNL     1      60.551  10.213  90.945  1.00  0.00    -0.550 OA
ATOM      4  O   UNL     1      59.807  11.316  89.081  1.00  0.00    -0.550 OA
ENDROOT
TORSDOF 0
ENDMDL
MODEL 4
REMARK VINA RESULT:    -2.096     13.477     13.749
REMARK INTER + INTRA:          -2.096
REMARK INTER:                  -2.096
REMARK INTRA:                   0.000
REMARK UNBOUND:                 0.000
REMARK SMILES CC(=O)[O-]
REMARK SMILES IDX 1 1 2 2 3 3 4 4
REMARK H PARENT
REMARK Flexibility Score: inf
ROOT
ATOM      1  C   UNL     1      58.453   9.808  90.249  1.00  0.00     0.063 C 
ATOM      2  C   UNL     1      58.671  10.934  89.297  1.00  0.00     0.038 C 
ATOM      3  O   UNL     1      59.836  11.346  89.061  1.00  0.00    -0.550 OA
ATOM      4  O   UNL     1      57.593  11.498  88.628  1.00  0.00    -0.550 OA
ENDROOT
TORSDOF 0
ENDMDL
MODEL 5
REMARK VINA RESULT:    -2.071      9.047      9.304
REMARK INTER + INTRA:          -2.071
REMARK INTER:                  -2.071
REMARK INTRA:                   0.000
REMARK UNBOUND:                 0.000
REMARK SMILES CC(=O)[O-]
REMARK SMILES IDX 1 1 2 2 3 3 4 4
REMARK H PARENT
REMARK Flexibility Score: inf
ROOT
ATOM      1  C   UNL     1      54.369   9.051  92.871  1.00  0.00     0.063 C 
ATOM      2  C   UNL     1      53.915   7.858  93.642  1.00  0.00     0.038 C 
ATOM      3  O   UNL     1      54.495   7.539  94.712  1.00  0.00    -0.550 OA
ATOM      4  O   UNL     1      52.818   7.126  93.208  1.00  0.00    -0.550 OA
ENDROOT
TORSDOF 0
ENDMDL
MODEL 6
REMARK VINA RESULT:    -2.063     12.700     12.959
REMARK INTER + INTRA:          -2.063
REMARK INTER:                  -2.063
REMARK INTRA:                   0.000
REMARK UNBOUND:                 0.000
REMARK SMILES CC(=O)[O-]
REMARK SMILES IDX 1 1 2 2 3 3 4 4
REMARK H PARENT
REMARK Flexibility Score: inf
ROOT
ATOM      1  C   UNL     1      57.779  11.236  88.972  1.00  0.00     0.063 C 
ATOM      2  C   UNL     1      57.908  10.203  90.039  1.00  0.00     0.038 C 
ATOM      3  O   UNL     1      59.039   9.733  90.330  1.00  0.00    -0.550 OA
ATOM      4  O   UNL     1      56.788   9.793  90.750  1.00  0.00    -0.550 OA
ENDROOT
TORSDOF 0
ENDMDL
MODEL 7
REMARK VINA RESULT:    -2.034     12.475     12.858
REMARK INTER + INTRA:          -2.034
REMARK INTER:                  -2.034
REMARK INTRA:                   0.000
REMARK UNBOUND:                 0.000
REMARK SMILES CC(=O)[O-]
REMARK SMILES IDX 1 1 2 2 3 3 4 4
REMARK H PARENT
REMARK Flexibility Score: inf
ROOT
ATOM      1  C   UNL     1      58.833  11.173  88.942  1.00  0.00     0.063 C 
ATOM      2  C   UNL     1      57.359  11.397  88.960  1.00  0.00     0.038 C 
ATOM      3  O   UNL     1      56.784  11.734  90.028  1.00  0.00    -0.550 OA
ATOM      4  O   UNL     1      56.624  11.286  87.788  1.00  0.00    -0.550 OA
ENDROOT
TORSDOF 0
ENDMDL
MODEL 8
REMARK VINA RESULT:    -2.005      8.955      9.162
REMARK INTER + INTRA:          -2.005
REMARK INTER:                  -2.005
REMARK INTRA:                   0.000
REMARK UNBOUND:                 0.000
REMARK SMILES CC(=O)[O-]
REMARK SMILES IDX 1 1 2 2 3 3 4 4
REMARK H PARENT
REMARK Flexibility Score: inf
ROOT
ATOM      1  C   UNL     1      54.441   7.643  94.967  1.00  0.00     0.063 C 
ATOM      2  C   UNL     1      53.897   7.883  93.600  1.00  0.00     0.038 C 
ATOM      3  O   UNL     1      52.905   7.227  93.190  1.00  0.00    -0.550 OA
ATOM      4  O   UNL     1      54.452   8.867  92.793  1.00  0.00    -0.550 OA
ENDROOT
TORSDOF 0
ENDMDL
MODEL 9
REMARK VINA RESULT:    -1.179      1.391      1.765
REMARK INTER + INTRA:          -1.179
REMARK INTER:                  -1.179
REMARK INTRA:                   0.000
REMARK UNBOUND:                 0.000
REMARK SMILES CC(=O)[O-]
REMARK SMILES IDX 1 1 2 2 3 3 4 4
REMARK H PARENT
REMARK Flexibility Score: inf
ROOT
ATOM      1  C   UNL     1      46.603  13.385  95.910  1.00  0.00     0.063 C 
ATOM      2  C   UNL     1      46.206  12.422  94.843  1.00  0.00     0.038 C 
ATOM      3  O   UNL     1      46.215  12.778  93.636  1.00  0.00    -0.550 OA
ATOM      4  O   UNL     1      45.875  11.114  95.173  1.00  0.00    -0.550 OA
ENDROOT
TORSDOF 0
ENDMDL
