MODEL 1
REMARK VINA RESULT:    -3.827      0.000      0.000
REMARK INTER + INTRA:          -5.322
REMARK INTER:                  -5.169
REMARK INTRA:                  -0.153
REMARK UNBOUND:                -0.153
REMARK SMILES CCCCCCCC(=O)[O-]
REMARK SMILES IDX 5 1 6 2 7 3 8 4 9 5 10 6 4 7 3 8 2 9 1 10
REMARK H PARENT
REMARK Flexibility Score: inf
ROOT
ATOM      1  C   UNL     1      36.932  22.582 223.932  1.00  0.00     0.000 C 
ENDROOT
BRANCH   1   2
ATOM      2  C   UNL     1      36.893  23.192 225.344  1.00  0.00     0.006 C 
BRANCH   2   3
ATOM      3  C   UNL     1      37.805  24.419 225.471  1.00  0.00     0.053 C 
BRANCH   3   4
ATOM      4  C   UNL     1      37.129  25.665 224.988  1.00  0.00     0.041 C 
ATOM      5  O   UNL     1      36.021  26.012 225.474  1.00  0.00    -0.550 OA
ATOM      6  O   UNL     1      37.739  26.461 224.027  1.00  0.00    -0.550 OA
ENDBRANCH   3   4
ENDBRANCH   2   3
ENDBRANCH   1   2
BRANCH   1   7
ATOM      7  C   UNL     1      35.975  23.282 222.952  1.00  0.00     0.000 C 
BRANCH   7   8
ATOM      8  C   UNL     1      36.656  23.955 221.744  1.00  0.00    -0.000 C 
BRANCH   8   9
ATOM      9  C   UNL     1      35.893  23.827 220.413  1.00  0.00    -0.003 C 
ATOM     10  C   UNL     1      36.807  23.511 219.231  1.00  0.00     0.004 C 
ENDBRANCH   8   9
ENDBRANCH   7   8
ENDBRANCH   1   7
TORSDOF 6
ENDMDL
MODEL 2
REMARK VINA RESULT:    -3.822      2.978      5.487
REMARK INTER + INTRA:          -5.316
REMARK INTER:                  -5.068
REMARK INTRA:                  -0.248
REMARK UNBOUND:                -0.153
REMARK SMILES CCCCCCCC(=O)[O-]
REMARK SMILES IDX 5 1 6 2 7 3 8 4 9 5 10 6 4 7 3 8 2 9 1 10
REMARK H PARENT
REMARK Flexibility Score: inf
ROOT
ATOM      1  C   UNL     1      38.825  26.135 224.925  1.00  0.00     0.000 C 
ENDROOT
BRANCH   1   2
ATOM      2  C   UNL     1      38.412  25.111 223.853  1.00  0.00     0.006 C 
BRANCH   2   3
ATOM      3  C   UNL     1      36.896  25.102 223.615  1.00  0.00     0.053 C 
BRANCH   3   4
ATOM      4  C   UNL     1      36.137  24.869 224.886  1.00  0.00     0.041 C 
ATOM      5  O   UNL     1      36.192  23.750 225.459  1.00  0.00    -0.550 OA
ATOM      6  O   UNL     1      35.398  25.898 225.454  1.00  0.00    -0.550 OA
ENDBRANCH   3   4
ENDBRANCH   2   3
ENDBRANCH   1   2
BRANCH   1   7
ATOM      7  C   UNL     1      39.987  25.642 225.805  1.00  0.00     0.000 C 
BRANCH   7   8
ATOM      8  C   UNL     1      40.886  26.753 226.382  1.00  0.00    -0.000 C 
BRANCH   8   9
ATOM      9  C   UNL     1      40.272  28.165 226.358  1.00  0.00    -0.003 C 
ATOM     10  C   UNL     1      41.319  29.271 226.470  1.00  0.00     0.004 C 
ENDBRANCH   8   9
ENDBRANCH   7   8
ENDBRANCH   1   7
TORSDOF 6
ENDMDL
MODEL 3
REMARK VINA RESULT:    -3.785      2.851      4.161
REMARK INTER + INTRA:          -5.265
REMARK INTER:                  -4.900
REMARK INTRA:                  -0.365
REMARK UNBOUND:                -0.153
REMARK SMILES CCCCCCCC(=O)[O-]
REMARK SMILES IDX 5 1 6 2 7 3 8 4 9 5 10 6 4 7 3 8 2 9 1 10
REMARK H PARENT
REMARK Flexibility Score: inf
ROOT
ATOM      1  C   UNL     1      39.337  24.762 225.503  1.00  0.00     0.000 C 
ENDROOT
BRANCH   1   2
ATOM      2  C   UNL     1      38.604  25.991 224.936  1.00  0.00     0.006 C 
BRANCH   2   3
ATOM      3  C   UNL     1      37.569  25.608 223.871  1.00  0.00     0.053 C 
BRANCH   3   4
ATOM      4  C   UNL     1      36.281  25.153 224.487  1.00  0.00     0.041 C 
ATOM      5  O   UNL     1      35.781  24.045 224.162  1.00  0.00    -0.550 OA
ATOM      6  O   UNL     1      35.652  25.937 225.446  1.00  0.00    -0.550 OA
ENDBRANCH   3   4
ENDBRANCH   2   3
ENDBRANCH   1   2
BRANCH   1   7
ATOM      7  C   UNL     1      40.862  24.954 225.567  1.00  0.00     0.000 C 
BRANCH   7   8
ATOM      8  C   UNL     1      41.668  24.123 224.548  1.00  0.00    -0.000 C 
BRANCH   8   9
ATOM      9  C   UNL     1      40.917  23.783 223.248  1.00  0.00    -0.003 C 
ATOM     10  C   UNL     1      40.841  22.281 222.980  1.00  0.00     0.004 C 
ENDBRANCH   8   9
ENDBRANCH   7   8
ENDBRANCH   1   7
TORSDOF 6
ENDMDL
MODEL 4
REMARK VINA RESULT:    -3.769      2.929      4.616
REMARK INTER + INTRA:          -5.244
REMARK INTER:                  -4.999
REMARK INTRA:                  -0.245
REMARK UNBOUND:                -0.153
REMARK SMILES CCCCCCCC(=O)[O-]
REMARK SMILES IDX 5 1 6 2 7 3 8 4 9 5 10 6 4 7 3 8 2 9 1 10
REMARK H PARENT
REMARK Flexibility Score: inf
ROOT
ATOM      1  C   UNL     1      39.172  24.492 223.490  1.00  0.00     0.000 C 
ENDROOT
BRANCH   1   2
ATOM      2  C   UNL     1      37.817  23.907 223.056  1.00  0.00     0.006 C 
BRANCH   2   3
ATOM      3  C   UNL     1      36.652  24.861 223.349  1.00  0.00     0.053 C 
BRANCH   3   4
ATOM      4  C   UNL     1      36.297  24.871 224.805  1.00  0.00     0.041 C 
ATOM      5  O   UNL     1      35.935  25.942 225.360  1.00  0.00    -0.550 OA
ATOM      6  O   UNL     1      36.332  23.693 225.539  1.00  0.00    -0.550 OA
ENDBRANCH   3   4
ENDBRANCH   2   3
ENDBRANCH   1   2
BRANCH   1   7
ATOM      7  C   UNL     1      40.369  23.686 222.958  1.00  0.00     0.000 C 
BRANCH   7   8
ATOM      8  C   UNL     1      41.484  23.416 223.988  1.00  0.00    -0.000 C 
BRANCH   8   9
ATOM      9  C   UNL     1      41.396  24.254 225.277  1.00  0.00    -0.003 C 
ATOM     10  C   UNL     1      42.639  25.109 225.516  1.00  0.00     0.004 C 
ENDBRANCH   8   9
ENDBRANCH   7   8
ENDBRANCH   1   7
TORSDOF 6
ENDMDL
MODEL 5
REMARK VINA RESULT:    -3.730      3.857      4.816
REMARK INTER + INTRA:          -5.192
REMARK INTER:                  -4.786
REMARK INTRA:                  -0.406
REMARK UNBOUND:                -0.153
REMARK SMILES CCCCCCCC(=O)[O-]
REMARK SMILES IDX 5 1 6 2 7 3 8 4 9 5 10 6 4 7 3 8 2 9 1 10
REMARK H PARENT
REMARK Flexibility Score: inf
ROOT
ATOM      1  C   UNL     1      40.355  23.593 222.948  1.00  0.00     0.000 C 
ENDROOT
BRANCH   1   2
ATOM      2  C   UNL     1      38.992  23.796 223.632  1.00  0.00     0.006 C 
BRANCH   2   3
ATOM      3  C   UNL     1      38.520  22.536 224.369  1.00  0.00     0.053 C 
BRANCH   3   4
ATOM      4  C   UNL     1      37.051  22.581 224.660  1.00  0.00     0.041 C 
ATOM      5  O   UNL     1      36.218  22.512 223.719  1.00  0.00    -0.550 OA
ATOM      6  O   UNL     1      36.603  22.663 225.972  1.00  0.00    -0.550 OA
ENDBRANCH   3   4
ENDBRANCH   2   3
ENDBRANCH   1   2
BRANCH   1   7
ATOM      7  C   UNL     1      41.462  23.178 223.932  1.00  0.00     0.000 C 
BRANCH   7   8
ATOM      8  C   UNL     1      42.199  21.872 223.573  1.00  0.00    -0.000 C 
BRANCH   8   9
ATOM      9  C   UNL     1      41.562  21.057 222.433  1.00  0.00    -0.003 C 
ATOM     10  C   UNL     1      41.192  19.636 222.852  1.00  0.00     0.004 C 
ENDBRANCH   8   9
ENDBRANCH   7   8
ENDBRANCH   1   7
TORSDOF 6
ENDMDL
MODEL 6
REMARK VINA RESULT:    -3.727      2.606      3.871
REMARK INTER + INTRA:          -5.187
REMARK INTER:                  -4.824
REMARK INTRA:                  -0.363
REMARK UNBOUND:                -0.153
REMARK SMILES CCCCCCCC(=O)[O-]
REMARK SMILES IDX 5 1 6 2 7 3 8 4 9 5 10 6 4 7 3 8 2 9 1 10
REMARK H PARENT
REMARK Flexibility Score: inf
ROOT
ATOM      1  C   UNL     1      38.822  22.479 224.458  1.00  0.00     0.000 C 
ENDROOT
BRANCH   1   2
ATOM      2  C   UNL     1      37.405  22.671 225.027  1.00  0.00     0.006 C 
BRANCH   2   3
ATOM      3  C   UNL     1      37.213  24.063 225.643  1.00  0.00     0.053 C 
BRANCH   3   4
ATOM      4  C   UNL     1      36.102  24.816 224.978  1.00  0.00     0.041 C 
ATOM      5  O   UNL     1      35.776  25.959 225.392  1.00  0.00    -0.550 OA
ATOM      6  O   UNL     1      35.451  24.270 223.879  1.00  0.00    -0.550 OA
ENDBRANCH   3   4
ENDBRANCH   2   3
ENDBRANCH   1   2
BRANCH   1   7
ATOM      7  C   UNL     1      39.071  23.302 223.182  1.00  0.00     0.000 C 
BRANCH   7   8
ATOM      8  C   UNL     1      40.475  23.930 223.074  1.00  0.00    -0.000 C 
BRANCH   8   9
ATOM      9  C   UNL     1      41.554  23.264 223.948  1.00  0.00    -0.003 C 
ATOM     10  C   UNL     1      42.101  24.194 225.030  1.00  0.00     0.004 C 
ENDBRANCH   8   9
ENDBRANCH   7   8
ENDBRANCH   1   7
TORSDOF 6
ENDMDL
MODEL 7
REMARK VINA RESULT:    -3.657      3.294      4.187
REMARK INTER + INTRA:          -5.093
REMARK INTER:                  -4.482
REMARK INTRA:                  -0.611
REMARK UNBOUND:                -0.153
REMARK SMILES CCCCCCCC(=O)[O-]
REMARK SMILES IDX 5 1 6 2 7 3 8 4 9 5 10 6 4 7 3 8 2 9 1 10
REMARK H PARENT
REMARK Flexibility Score: inf
ROOT
ATOM      1  C   UNL     1      40.212  23.553 224.637  1.00  0.00     0.000 C 
ENDROOT
BRANCH   1   2
ATOM      2  C   UNL     1      39.320  22.863 225.685  1.00  0.00     0.006 C 
BRANCH   2   3
ATOM      3  C   UNL     1      38.577  21.653 225.106  1.00  0.00     0.053 C 
BRANCH   3   4
ATOM      4  C   UNL     1      37.091  21.813 225.210  1.00  0.00     0.041 C 
ATOM      5  O   UNL     1      36.397  21.962 224.170  1.00  0.00    -0.550 OA
ATOM      6  O   UNL     1      36.470  21.762 226.451  1.00  0.00    -0.550 OA
ENDBRANCH   3   4
ENDBRANCH   2   3
ENDBRANCH   1   2
BRANCH   1   7
ATOM      7  C   UNL     1      39.416  24.451 223.674  1.00  0.00     0.000 C 
BRANCH   7   8
ATOM      8  C   UNL     1      38.568  25.545 224.352  1.00  0.00    -0.000 C 
BRANCH   8   9
ATOM      9  C   UNL     1      37.053  25.445 224.098  1.00  0.00    -0.003 C 
ATOM     10  C   UNL     1      36.238  25.360 225.388  1.00  0.00     0.004 C 
ENDBRANCH   8   9
ENDBRANCH   7   8
ENDBRANCH   1   7
TORSDOF 6
ENDMDL
MODEL 8
REMARK VINA RESULT:    -3.642      2.714      3.089
REMARK INTER + INTRA:          -5.072
REMARK INTER:                  -4.657
REMARK INTRA:                  -0.415
REMARK UNBOUND:                -0.153
REMARK SMILES CCCCCCCC(=O)[O-]
REMARK SMILES IDX 5 1 6 2 7 3 8 4 9 5 10 6 4 7 3 8 2 9 1 10
REMARK H PARENT
REMARK Flexibility Score: inf
ROOT
ATOM      1  C   UNL     1      37.009  25.114 223.345  1.00  0.00     0.000 C 
ENDROOT
BRANCH   1   2
ATOM      2  C   UNL     1      38.289  24.753 224.119  1.00  0.00     0.006 C 
BRANCH   2   3
ATOM      3  C   UNL     1      39.421  24.301 223.188  1.00  0.00     0.053 C 
BRANCH   3   4
ATOM      4  C   UNL     1      39.820  22.880 223.448  1.00  0.00     0.041 C 
ATOM      5  O   UNL     1      39.122  22.156 224.204  1.00  0.00    -0.550 OA
ATOM      6  O   UNL     1      40.943  22.348 222.828  1.00  0.00    -0.550 OA
ENDBRANCH   3   4
ENDBRANCH   2   3
ENDBRANCH   1   2
BRANCH   1   7
ATOM      7  C   UNL     1      36.084  23.905 223.124  1.00  0.00     0.000 C 
BRANCH   7   8
ATOM      8  C   UNL     1      35.681  23.651 221.657  1.00  0.00    -0.000 C 
BRANCH   8   9
ATOM      9  C   UNL     1      36.852  23.610 220.659  1.00  0.00    -0.003 C 
ATOM     10  C   UNL     1      36.431  23.965 219.234  1.00  0.00     0.004 C 
ENDBRANCH   8   9
ENDBRANCH   7   8
ENDBRANCH   1   7
TORSDOF 6
ENDMDL
MODEL 9
REMARK VINA RESULT:    -3.628      6.872      8.597
REMARK INTER + INTRA:          -5.054
REMARK INTER:                  -4.644
REMARK INTRA:                  -0.409
REMARK UNBOUND:                -0.153
REMARK SMILES CCCCCCCC(=O)[O-]
REMARK SMILES IDX 5 1 6 2 7 3 8 4 9 5 10 6 4 7 3 8 2 9 1 10
REMARK H PARENT
REMARK Flexibility Score: inf
ROOT
ATOM      1  C   UNL     1      38.772  18.090 226.332  1.00  0.00     0.000 C 
ENDROOT
BRANCH   1   2
ATOM      2  C   UNL     1      37.787  18.450 227.459  1.00  0.00     0.006 C 
BRANCH   2   3
ATOM      3  C   UNL     1      36.341  18.079 227.105  1.00  0.00     0.053 C 
BRANCH   3   4
ATOM      4  C   UNL     1      35.692  19.127 226.253  1.00  0.00     0.041 C 
ATOM      5  O   UNL     1      35.474  20.275 226.719  1.00  0.00    -0.550 OA
ATOM      6  O   UNL     1      35.362  18.845 224.934  1.00  0.00    -0.550 OA
ENDBRANCH   3   4
ENDBRANCH   2   3
ENDBRANCH   1   2
BRANCH   1   7
ATOM      7  C   UNL     1      39.848  17.086 226.778  1.00  0.00     0.000 C 
BRANCH   7   8
ATOM      8  C   UNL     1      39.495  16.264 228.033  1.00  0.00    -0.000 C 
BRANCH   8   9
ATOM      9  C   UNL     1      39.364  14.747 227.802  1.00  0.00    -0.003 C 
ATOM     10  C   UNL     1      37.976  14.210 228.148  1.00  0.00     0.004 C 
ENDBRANCH   8   9
ENDBRANCH   7   8
ENDBRANCH   1   7
TORSDOF 6
ENDMDL
