MODEL 1
REMARK VINA RESULT:    -3.861      0.000      0.000
REMARK INTER + INTRA:          -4.854
REMARK INTER:                  -4.651
REMARK INTRA:                  -0.203
REMARK UNBOUND:                -0.203
REMARK SMILES OCC(O)CO
REMARK SMILES IDX 3 1 5 2 6 3 2 5 1 6 4 8
REMARK H PARENT 6 4 1 7 4 9
REMARK Flexibility Score: inf
ROOT
ATOM      1  C   UNL     1      31.428   9.028  12.571  1.00  0.00     0.165 C 
ENDROOT
BRANCH   1   2
ATOM      2  C   UNL     1      32.685   8.568  11.817  1.00  0.00     0.190 C 
BRANCH   2   3
ATOM      3  O   UNL     1      33.835   8.844  12.571  1.00  0.00    -0.394 OA
ATOM      4  H   UNL     1      34.075   8.005  13.045  1.00  0.00     0.210 HD
ENDBRANCH   2   3
ENDBRANCH   1   2
BRANCH   1   5
ATOM      5  C   UNL     1      31.038  10.461  12.175  1.00  0.00     0.190 C 
BRANCH   5   6
ATOM      6  O   UNL     1      32.050  11.371  12.518  1.00  0.00    -0.394 OA
ATOM      7  H   UNL     1      32.256  11.217  13.477  1.00  0.00     0.210 HD
ENDBRANCH   5   6
ENDBRANCH   1   5
BRANCH   1   8
ATOM      8  O   UNL     1      31.675   8.974  13.952  1.00  0.00    -0.388 OA
ATOM      9  H   UNL     1      31.426   8.062  14.253  1.00  0.00     0.211 HD
ENDBRANCH   1   8
TORSDOF 5
ENDMDL
MODEL 2
REMARK VINA RESULT:    -3.675      5.741      7.393
REMARK INTER + INTRA:          -4.629
REMARK INTER:                  -4.623
REMARK INTRA:                  -0.007
REMARK UNBOUND:                -0.203
REMARK SMILES OCC(O)CO
REMARK SMILES IDX 3 1 5 2 6 3 2 5 1 6 4 8
REMARK H PARENT 6 4 1 7 4 9
REMARK Flexibility Score: inf
ROOT
ATOM      1  C   UNL     1      38.326   6.505  10.732  1.00  0.00     0.165 C 
ENDROOT
BRANCH   1   2
ATOM      2  C   UNL     1      36.910   6.762  11.268  1.00  0.00     0.190 C 
BRANCH   2   3
ATOM      3  O   UNL     1      36.398   7.957  10.740  1.00  0.00    -0.394 OA
ATOM      4  H   UNL     1      36.202   8.550  11.512  1.00  0.00     0.210 HD
ENDBRANCH   2   3
ENDBRANCH   1   2
BRANCH   1   5
ATOM      5  C   UNL     1      39.387   6.824  11.798  1.00  0.00     0.190 C 
BRANCH   5   6
ATOM      6  O   UNL     1      40.443   7.568  11.249  1.00  0.00    -0.394 OA
ATOM      7  H   UNL     1      41.216   7.459  11.863  1.00  0.00     0.210 HD
ENDBRANCH   5   6
ENDBRANCH   1   5
BRANCH   1   8
ATOM      8  O   UNL     1      38.543   7.307   9.601  1.00  0.00    -0.388 OA
ATOM      9  H   UNL     1      38.106   6.849   8.836  1.00  0.00     0.211 HD
ENDBRANCH   1   8
TORSDOF 5
ENDMDL
MODEL 3
REMARK VINA RESULT:    -3.484      1.536      3.274
REMARK INTER + INTRA:          -4.399
REMARK INTER:                  -4.179
REMARK INTRA:                  -0.221
REMARK UNBOUND:                -0.203
REMARK SMILES OCC(O)CO
REMARK SMILES IDX 3 1 5 2 6 3 2 5 1 6 4 8
REMARK H PARENT 6 4 1 7 4 9
REMARK Flexibility Score: inf
ROOT
ATOM      1  C   UNL     1      32.837   8.101  11.964  1.00  0.00     0.165 C 
ENDROOT
BRANCH   1   2
ATOM      2  C   UNL     1      31.588   8.780  12.546  1.00  0.00     0.190 C 
BRANCH   2   3
ATOM      3  O   UNL     1      31.683   8.863  13.943  1.00  0.00    -0.394 OA
ATOM      4  H   UNL     1      32.305   9.609  14.144  1.00  0.00     0.210 HD
ENDBRANCH   2   3
ENDBRANCH   1   2
BRANCH   1   5
ATOM      5  C   UNL     1      32.804   6.583  12.204  1.00  0.00     0.190 C 
BRANCH   5   6
ATOM      6  O   UNL     1      31.534   6.169  12.632  1.00  0.00    -0.394 OA
ATOM      7  H   UNL     1      31.459   5.205  12.406  1.00  0.00     0.210 HD
ENDBRANCH   5   6
ENDBRANCH   1   5
BRANCH   1   8
ATOM      8  O   UNL     1      33.981   8.646  12.568  1.00  0.00    -0.388 OA
ATOM      9  H   UNL     1      34.039   8.255  13.478  1.00  0.00     0.211 HD
ENDBRANCH   1   8
TORSDOF 5
ENDMDL
MODEL 4
REMARK VINA RESULT:    -3.480      1.186      2.783
REMARK INTER + INTRA:          -4.395
REMARK INTER:                  -4.392
REMARK INTRA:                  -0.002
REMARK UNBOUND:                -0.203
REMARK SMILES OCC(O)CO
REMARK SMILES IDX 3 1 5 2 6 3 2 5 1 6 4 8
REMARK H PARENT 6 4 1 7 4 9
REMARK Flexibility Score: inf
ROOT
ATOM      1  C   UNL     1      32.117   9.289  12.740  1.00  0.00     0.165 C 
ENDROOT
BRANCH   1   2
ATOM      2  C   UNL     1      31.175  10.360  12.169  1.00  0.00     0.190 C 
BRANCH   2   3
ATOM      3  O   UNL     1      31.437  11.605  12.759  1.00  0.00    -0.394 OA
ATOM      4  H   UNL     1      32.121  11.452  13.462  1.00  0.00     0.210 HD
ENDBRANCH   2   3
ENDBRANCH   1   2
BRANCH   1   5
ATOM      5  C   UNL     1      32.113   8.025  11.866  1.00  0.00     0.190 C 
BRANCH   5   6
ATOM      6  O   UNL     1      31.420   6.980  12.496  1.00  0.00    -0.394 OA
ATOM      7  H   UNL     1      31.125   7.327  13.378  1.00  0.00     0.210 HD
ENDBRANCH   5   6
ENDBRANCH   1   5
BRANCH   1   8
ATOM      8  O   UNL     1      31.705   8.960  14.041  1.00  0.00    -0.388 OA
ATOM      9  H   UNL     1      32.204   9.555  14.659  1.00  0.00     0.211 HD
ENDBRANCH   1   8
TORSDOF 5
ENDMDL
MODEL 5
REMARK VINA RESULT:    -3.464      5.350      6.542
REMARK INTER + INTRA:          -4.376
REMARK INTER:                  -4.167
REMARK INTRA:                  -0.209
REMARK UNBOUND:                -0.203
REMARK SMILES OCC(O)CO
REMARK SMILES IDX 3 1 5 2 6 3 2 5 1 6 4 8
REMARK H PARENT 6 4 1 7 4 9
REMARK Flexibility Score: inf
ROOT
ATOM      1  C   UNL     1      36.539   6.559  10.971  1.00  0.00     0.165 C 
ENDROOT
BRANCH   1   2
ATOM      2  C   UNL     1      38.052   6.523  10.714  1.00  0.00     0.190 C 
BRANCH   2   3
ATOM      3  O   UNL     1      38.372   7.277   9.575  1.00  0.00    -0.394 OA
ATOM      4  H   UNL     1      37.513   7.514   9.138  1.00  0.00     0.210 HD
ENDBRANCH   2   3
ENDBRANCH   1   2
BRANCH   1   5
ATOM      5  C   UNL     1      35.787   5.659   9.977  1.00  0.00     0.190 C 
BRANCH   5   6
ATOM      6  O   UNL     1      36.658   4.741   9.371  1.00  0.00    -0.394 OA
ATOM      7  H   UNL     1      36.124   3.926   9.181  1.00  0.00     0.210 HD
ENDBRANCH   5   6
ENDBRANCH   1   5
BRANCH   1   8
ATOM      8  O   UNL     1      36.081   7.880  10.846  1.00  0.00    -0.388 OA
ATOM      9  H   UNL     1      35.956   8.049   9.876  1.00  0.00     0.211 HD
ENDBRANCH   1   8
TORSDOF 5
ENDMDL
MODEL 6
REMARK VINA RESULT:    -3.406      4.456      5.604
REMARK INTER + INTRA:          -4.305
REMARK INTER:                  -4.302
REMARK INTRA:                  -0.003
REMARK UNBOUND:                -0.203
REMARK SMILES OCC(O)CO
REMARK SMILES IDX 3 1 5 2 6 3 2 5 1 6 4 8
REMARK H PARENT 6 4 1 7 4 9
REMARK Flexibility Score: inf
ROOT
ATOM      1  C   UNL     1      36.436   7.280  11.158  1.00  0.00     0.165 C 
ENDROOT
BRANCH   1   2
ATOM      2  C   UNL     1      37.753   6.610  10.737  1.00  0.00     0.190 C 
BRANCH   2   3
ATOM      3  O   UNL     1      38.305   7.271   9.630  1.00  0.00    -0.394 OA
ATOM      4  H   UNL     1      39.259   7.002   9.581  1.00  0.00     0.210 HD
ENDBRANCH   2   3
ENDBRANCH   1   2
BRANCH   1   5
ATOM      5  C   UNL     1      35.633   6.375  12.106  1.00  0.00     0.190 C 
BRANCH   5   6
ATOM      6  O   UNL     1      34.700   7.121  12.843  1.00  0.00    -0.394 OA
ATOM      7  H   UNL     1      34.222   6.477  13.428  1.00  0.00     0.210 HD
ENDBRANCH   5   6
ENDBRANCH   1   5
BRANCH   1   8
ATOM      8  O   UNL     1      35.673   7.554  10.012  1.00  0.00    -0.388 OA
ATOM      9  H   UNL     1      35.557   6.693   9.532  1.00  0.00     0.211 HD
ENDBRANCH   1   8
TORSDOF 5
ENDMDL
MODEL 7
REMARK VINA RESULT:    -3.357      1.834      2.439
REMARK INTER + INTRA:          -4.246
REMARK INTER:                  -4.023
REMARK INTRA:                  -0.224
REMARK UNBOUND:                -0.203
REMARK SMILES OCC(O)CO
REMARK SMILES IDX 3 1 5 2 6 3 2 5 1 6 4 8
REMARK H PARENT 6 4 1 7 4 9
REMARK Flexibility Score: inf
ROOT
ATOM      1  C   UNL     1      32.209   6.975  12.112  1.00  0.00     0.165 C 
ENDROOT
BRANCH   1   2
ATOM      2  C   UNL     1      33.611   6.662  12.658  1.00  0.00     0.190 C 
BRANCH   2   3
ATOM      3  O   UNL     1      34.396   7.823  12.682  1.00  0.00    -0.394 OA
ATOM      4  H   UNL     1      34.713   7.975  11.754  1.00  0.00     0.210 HD
ENDBRANCH   2   3
ENDBRANCH   1   2
BRANCH   1   5
ATOM      5  C   UNL     1      31.799   8.421  12.438  1.00  0.00     0.190 C 
BRANCH   5   6
ATOM      6  O   UNL     1      31.814   8.648  13.823  1.00  0.00    -0.394 OA
ATOM      7  H   UNL     1      30.998   9.172  14.033  1.00  0.00     0.210 HD
ENDBRANCH   5   6
ENDBRANCH   1   5
BRANCH   1   8
ATOM      8  O   UNL     1      31.284   6.086  12.682  1.00  0.00    -0.388 OA
ATOM      9  H   UNL     1      31.548   5.966  13.631  1.00  0.00     0.211 HD
ENDBRANCH   1   8
TORSDOF 5
ENDMDL
MODEL 8
REMARK VINA RESULT:    -3.352      1.790      3.291
REMARK INTER + INTRA:          -4.241
REMARK INTER:                  -4.238
REMARK INTRA:                  -0.003
REMARK UNBOUND:                -0.203
REMARK SMILES OCC(O)CO
REMARK SMILES IDX 3 1 5 2 6 3 2 5 1 6 4 8
REMARK H PARENT 6 4 1 7 4 9
REMARK Flexibility Score: inf
ROOT
ATOM      1  C   UNL     1      33.428   8.154  12.076  1.00  0.00     0.165 C 
ENDROOT
BRANCH   1   2
ATOM      2  C   UNL     1      31.966   8.117  12.546  1.00  0.00     0.190 C 
BRANCH   2   3
ATOM      3  O   UNL     1      31.834   8.770  13.781  1.00  0.00    -0.394 OA
ATOM      4  H   UNL     1      31.917   9.742  13.601  1.00  0.00     0.210 HD
ENDBRANCH   2   3
ENDBRANCH   1   2
BRANCH   1   5
ATOM      5  C   UNL     1      33.572   7.553  10.668  1.00  0.00     0.190 C 
BRANCH   5   6
ATOM      6  O   UNL     1      34.854   7.789  10.150  1.00  0.00    -0.394 OA
ATOM      7  H   UNL     1      35.486   7.263  10.706  1.00  0.00     0.210 HD
ENDBRANCH   5   6
ENDBRANCH   1   5
BRANCH   1   8
ATOM      8  O   UNL     1      34.220   7.427  12.978  1.00  0.00    -0.388 OA
ATOM      9  H   UNL     1      34.248   7.950  13.822  1.00  0.00     0.211 HD
ENDBRANCH   1   8
TORSDOF 5
ENDMDL
MODEL 9
REMARK VINA RESULT:    -3.265      4.436      5.830
REMARK INTER + INTRA:          -4.136
REMARK INTER:                  -4.133
REMARK INTRA:                  -0.002
REMARK UNBOUND:                -0.203
REMARK SMILES OCC(O)CO
REMARK SMILES IDX 3 1 5 2 6 3 2 5 1 6 4 8
REMARK H PARENT 6 4 1 7 4 9
REMARK Flexibility Score: inf
ROOT
ATOM      1  C   UNL     1      36.210   6.608  10.837  1.00  0.00     0.165 C 
ENDROOT
BRANCH   1   2
ATOM      2  C   UNL     1      35.645   6.327  12.237  1.00  0.00     0.190 C 
BRANCH   2   3
ATOM      3  O   UNL     1      34.771   7.354  12.625  1.00  0.00    -0.394 OA
ATOM      4  H   UNL     1      35.327   8.059  13.048  1.00  0.00     0.210 HD
ENDBRANCH   2   3
ENDBRANCH   1   2
BRANCH   1   5
ATOM      5  C   UNL     1      37.745   6.686  10.865  1.00  0.00     0.190 C 
BRANCH   5   6
ATOM      6  O   UNL     1      38.245   7.208   9.662  1.00  0.00    -0.394 OA
ATOM      7  H   UNL     1      37.456   7.442   9.106  1.00  0.00     0.210 HD
ENDBRANCH   5   6
ENDBRANCH   1   5
BRANCH   1   8
ATOM      8  O   UNL     1      35.688   7.822  10.364  1.00  0.00    -0.388 OA
ATOM      9  H   UNL     1      35.160   8.216  11.107  1.00  0.00     0.211 HD
ENDBRANCH   1   8
TORSDOF 5
ENDMDL
