MODEL 1
REMARK VINA RESULT:    -2.046      0.000      0.000
REMARK INTER + INTRA:          -6.077
REMARK INTER:                  -4.678
REMARK INTRA:                  -1.400
REMARK UNBOUND:                -1.400
REMARK SMILES CCCCCCCCCCCCCCCCCCCCCCCC(=O)[O-]
REMARK SMILES IDX 13 1 14 2 15 3 16 4 17 5 18 6 19 7 20 8 21 9 22 10 23 11
REMARK SMILES IDX 24 12 25 13 26 14 12 15 11 16 10 17 9 18 8 19 7 20 6 21 5 22
REMARK SMILES IDX 4 23 3 24 2 25 1 26
REMARK H PARENT
REMARK Flexibility Score: inf
ROOT
ATOM      1  C   UNL     1      26.636  27.929  23.653  1.00  0.00     0.000 C 
ENDROOT
BRANCH   1   2
ATOM      2  C   UNL     1      26.784  26.470  24.122  1.00  0.00     0.000 C 
BRANCH   2   3
ATOM      3  C   UNL     1      27.170  26.363  25.606  1.00  0.00     0.000 C 
BRANCH   3   4
ATOM      4  C   UNL     1      27.336  24.909  26.070  1.00  0.00     0.000 C 
BRANCH   4   5
ATOM      5  C   UNL     1      27.595  23.978  24.879  1.00  0.00     0.000 C 
BRANCH   5   6
ATOM      6  C   UNL     1      27.110  22.552  25.181  1.00  0.00     0.000 C 
BRANCH   6   7
ATOM      7  C   UNL     1      26.398  21.893  23.987  1.00  0.00     0.000 C 
BRANCH   7   8
ATOM      8  C   UNL     1      26.306  22.768  22.724  1.00  0.00     0.000 C 
BRANCH   8   9
ATOM      9  C   UNL     1      24.857  23.125  22.348  1.00  0.00     0.000 C 
BRANCH   9  10
ATOM     10  C   UNL     1      24.764  24.394  21.481  1.00  0.00     0.006 C 
BRANCH  10  11
ATOM     11  C   UNL     1      25.425  24.262  20.100  1.00  0.00     0.053 C 
BRANCH  11  12
ATOM     12  C   UNL     1      26.744  24.967  20.038  1.00  0.00     0.041 C 
ATOM     13  O   UNL     1      27.372  25.044  18.950  1.00  0.00    -0.550 OA
ATOM     14  O   UNL     1      27.294  25.518  21.190  1.00  0.00    -0.550 OA
ENDBRANCH  11  12
ENDBRANCH  10  11
ENDBRANCH   9  10
ENDBRANCH   8   9
ENDBRANCH   7   8
ENDBRANCH   6   7
ENDBRANCH   5   6
ENDBRANCH   4   5
ENDBRANCH   3   4
ENDBRANCH   2   3
ENDBRANCH   1   2
BRANCH   1  15
ATOM     15  C   UNL     1      27.977  28.690  23.676  1.00  0.00     0.000 C 
BRANCH  15  16
ATOM     16  C   UNL     1      28.040  29.805  24.734  1.00  0.00     0.000 C 
BRANCH  16  17
ATOM     17  C   UNL     1      26.666  30.432  25.023  1.00  0.00     0.000 C 
BRANCH  17  18
ATOM     18  C   UNL     1      26.747  31.607  26.010  1.00  0.00    -0.000 C 
BRANCH  18  19
ATOM     19  C   UNL     1      27.717  32.708  25.542  1.00  0.00    -0.000 C 
BRANCH  19  20
ATOM     20  C   UNL     1      27.276  33.357  24.221  1.00  0.00    -0.000 C 
BRANCH  20  21
ATOM     21  C   UNL     1      28.124  34.588  23.854  1.00  0.00    -0.000 C 
BRANCH  21  22
ATOM     22  C   UNL     1      27.601  35.318  22.604  1.00  0.00    -0.000 C 
BRANCH  22  23
ATOM     23  C   UNL     1      27.379  36.834  22.783  1.00  0.00    -0.000 C 
BRANCH  23  24
ATOM     24  C   UNL     1      28.080  37.728  21.741  1.00  0.00    -0.000 C 
BRANCH  24  25
ATOM     25  C   UNL     1      27.978  39.240  22.013  1.00  0.00    -0.003 C 
ATOM     26  C   UNL     1      27.441  39.556  23.409  1.00  0.00     0.004 C 
ENDBRANCH  24  25
ENDBRANCH  23  24
ENDBRANCH  22  23
ENDBRANCH  21  22
ENDBRANCH  20  21
ENDBRANCH  19  20
ENDBRANCH  18  19
ENDBRANCH  17  18
ENDBRANCH  16  17
ENDBRANCH  15  16
ENDBRANCH   1  15
TORSDOF 22
ENDMDL
MODEL 2
REMARK VINA RESULT:    -1.960      4.379     11.757
REMARK INTER + INTRA:          -5.881
REMARK INTER:                  -5.613
REMARK INTRA:                  -0.268
REMARK UNBOUND:                -1.400
REMARK SMILES CCCCCCCCCCCCCCCCCCCCCCCC(=O)[O-]
REMARK SMILES IDX 13 1 14 2 15 3 16 4 17 5 18 6 19 7 20 8 21 9 22 10 23 11
REMARK SMILES IDX 24 12 25 13 26 14 12 15 11 16 10 17 9 18 8 19 7 20 6 21 5 22
REMARK SMILES IDX 4 23 3 24 2 25 1 26
REMARK H PARENT
REMARK Flexibility Score: inf
ROOT
ATOM      1  C   UNL     1      27.229  30.376  24.524  1.00  0.00     0.000 C 
ENDROOT
BRANCH   1   2
ATOM      2  C   UNL     1      27.305  30.345  26.062  1.00  0.00     0.000 C 
BRANCH   2   3
ATOM      3  C   UNL     1      28.119  31.517  26.636  1.00  0.00     0.000 C 
BRANCH   3   4
ATOM      4  C   UNL     1      27.581  32.884  26.188  1.00  0.00     0.000 C 
BRANCH   4   5
ATOM      5  C   UNL     1      27.666  33.035  24.664  1.00  0.00     0.000 C 
BRANCH   5   6
ATOM      6  C   UNL     1      28.125  34.450  24.279  1.00  0.00     0.000 C 
BRANCH   6   7
ATOM      7  C   UNL     1      27.838  34.796  22.807  1.00  0.00     0.000 C 
BRANCH   7   8
ATOM      8  C   UNL     1      28.088  36.266  22.426  1.00  0.00     0.000 C 
BRANCH   8   9
ATOM      9  C   UNL     1      28.124  37.202  23.646  1.00  0.00     0.000 C 
BRANCH   9  10
ATOM     10  C   UNL     1      26.810  37.980  23.837  1.00  0.00     0.006 C 
BRANCH  10  11
ATOM     11  C   UNL     1      26.997  39.412  24.361  1.00  0.00     0.053 C 
BRANCH  11  12
ATOM     12  C   UNL     1      27.443  40.351  23.283  1.00  0.00     0.041 C 
ATOM     13  O   UNL     1      27.910  41.481  23.580  1.00  0.00    -0.550 OA
ATOM     14  O   UNL     1      27.318  39.987  21.948  1.00  0.00    -0.550 OA
ENDBRANCH  11  12
ENDBRANCH  10  11
ENDBRANCH   9  10
ENDBRANCH   8   9
ENDBRANCH   7   8
ENDBRANCH   6   7
ENDBRANCH   5   6
ENDBRANCH   4   5
ENDBRANCH   3   4
ENDBRANCH   2   3
ENDBRANCH   1   2
BRANCH   1  15
ATOM     15  C   UNL     1      26.528  29.129  23.948  1.00  0.00     0.000 C 
BRANCH  15  16
ATOM     16  C   UNL     1      27.401  28.320  22.973  1.00  0.00     0.000 C 
BRANCH  16  17
ATOM     17  C   UNL     1      26.706  27.046  22.465  1.00  0.00     0.000 C 
BRANCH  17  18
ATOM     18  C   UNL     1      27.152  25.785  23.223  1.00  0.00    -0.000 C 
BRANCH  18  19
ATOM     19  C   UNL     1      27.610  26.090  24.661  1.00  0.00    -0.000 C 
BRANCH  19  20
ATOM     20  C   UNL     1      27.765  24.817  25.509  1.00  0.00    -0.000 C 
BRANCH  20  21
ATOM     21  C   UNL     1      27.673  23.531  24.669  1.00  0.00    -0.000 C 
BRANCH  21  22
ATOM     22  C   UNL     1      26.311  22.827  24.807  1.00  0.00    -0.000 C 
BRANCH  22  23
ATOM     23  C   UNL     1      25.746  22.244  23.497  1.00  0.00    -0.000 C 
BRANCH  23  24
ATOM     24  C   UNL     1      24.216  22.046  23.472  1.00  0.00    -0.000 C 
BRANCH  24  25
ATOM     25  C   UNL     1      23.456  23.000  22.533  1.00  0.00    -0.003 C 
ATOM     26  C   UNL     1      24.368  24.035  21.874  1.00  0.00     0.004 C 
ENDBRANCH  24  25
ENDBRANCH  23  24
ENDBRANCH  22  23
ENDBRANCH  21  22
ENDBRANCH  20  21
ENDBRANCH  19  20
ENDBRANCH  18  19
ENDBRANCH  17  18
ENDBRANCH  16  17
ENDBRANCH  15  16
ENDBRANCH   1  15
TORSDOF 22
ENDMDL
MODEL 3
REMARK VINA RESULT:    -1.818      1.759      3.040
REMARK INTER + INTRA:          -5.556
REMARK INTER:                  -4.746
REMARK INTRA:                  -0.810
REMARK UNBOUND:                -1.400
REMARK SMILES CCCCCCCCCCCCCCCCCCCCCCCC(=O)[O-]
REMARK SMILES IDX 13 1 14 2 15 3 16 4 17 5 18 6 19 7 20 8 21 9 22 10 23 11
REMARK SMILES IDX 24 12 25 13 26 14 12 15 11 16 10 17 9 18 8 19 7 20 6 21 5 22
REMARK SMILES IDX 4 23 3 24 2 25 1 26
REMARK H PARENT
REMARK Flexibility Score: inf
ROOT
ATOM      1  C   UNL     1      27.582  30.021  25.294  1.00  0.00     0.000 C 
ENDROOT
BRANCH   1   2
ATOM      2  C   UNL     1      28.080  28.636  25.745  1.00  0.00     0.000 C 
BRANCH   2   3
ATOM      3  C   UNL     1      27.339  27.485  25.045  1.00  0.00     0.000 C 
BRANCH   3   4
ATOM      4  C   UNL     1      27.978  26.116  25.322  1.00  0.00     0.000 C 
BRANCH   4   5
ATOM      5  C   UNL     1      27.591  25.100  24.242  1.00  0.00     0.000 C 
BRANCH   5   6
ATOM      6  C   UNL     1      27.988  25.605  22.846  1.00  0.00     0.000 C 
BRANCH   6   7
ATOM      7  C   UNL     1      28.108  24.474  21.809  1.00  0.00     0.000 C 
BRANCH   7   8
ATOM      8  C   UNL     1      27.323  24.705  20.505  1.00  0.00     0.000 C 
BRANCH   8   9
ATOM      9  C   UNL     1      26.223  23.654  20.275  1.00  0.00     0.000 C 
BRANCH   9  10
ATOM     10  C   UNL     1      25.914  22.831  21.539  1.00  0.00     0.006 C 
BRANCH  10  11
ATOM     11  C   UNL     1      24.703  23.337  22.338  1.00  0.00     0.053 C 
BRANCH  11  12
ATOM     12  C   UNL     1      23.763  24.136  21.488  1.00  0.00     0.041 C 
ATOM     13  O   UNL     1      23.798  25.394  21.514  1.00  0.00    -0.550 OA
ATOM     14  O   UNL     1      22.830  23.490  20.686  1.00  0.00    -0.550 OA
ENDBRANCH  11  12
ENDBRANCH  10  11
ENDBRANCH   9  10
ENDBRANCH   8   9
ENDBRANCH   7   8
ENDBRANCH   6   7
ENDBRANCH   5   6
ENDBRANCH   4   5
ENDBRANCH   3   4
ENDBRANCH   2   3
ENDBRANCH   1   2
BRANCH   1  15
ATOM     15  C   UNL     1      27.910  31.124  26.321  1.00  0.00     0.000 C 
BRANCH  15  16
ATOM     16  C   UNL     1      26.894  32.280  26.336  1.00  0.00     0.000 C 
BRANCH  16  17
ATOM     17  C   UNL     1      26.581  32.817  24.929  1.00  0.00     0.000 C 
BRANCH  17  18
ATOM     18  C   UNL     1      27.825  33.363  24.212  1.00  0.00    -0.000 C 
BRANCH  18  19
ATOM     19  C   UNL     1      28.115  34.833  24.566  1.00  0.00    -0.000 C 
BRANCH  19  20
ATOM     20  C   UNL     1      27.878  35.781  23.380  1.00  0.00    -0.000 C 
BRANCH  20  21
ATOM     21  C   UNL     1      28.090  37.259  23.752  1.00  0.00    -0.000 C 
BRANCH  21  22
ATOM     22  C   UNL     1      27.325  38.221  22.826  1.00  0.00    -0.000 C 
BRANCH  22  23
ATOM     23  C   UNL     1      27.907  39.647  22.746  1.00  0.00    -0.000 C 
BRANCH  23  24
ATOM     24  C   UNL     1      27.710  40.508  24.010  1.00  0.00    -0.000 C 
BRANCH  24  25
ATOM     25  C   UNL     1      26.940  39.817  25.150  1.00  0.00    -0.003 C 
ATOM     26  C   UNL     1      27.783  39.635  26.411  1.00  0.00     0.004 C 
ENDBRANCH  24  25
ENDBRANCH  23  24
ENDBRANCH  22  23
ENDBRANCH  21  22
ENDBRANCH  20  21
ENDBRANCH  19  20
ENDBRANCH  18  19
ENDBRANCH  17  18
ENDBRANCH  16  17
ENDBRANCH  15  16
ENDBRANCH   1  15
TORSDOF 22
ENDMDL
MODEL 4
REMARK VINA RESULT:    -1.723      1.753      3.361
REMARK INTER + INTRA:          -5.338
REMARK INTER:                  -4.520
REMARK INTRA:                  -0.818
REMARK UNBOUND:                -1.400
REMARK SMILES CCCCCCCCCCCCCCCCCCCCCCCC(=O)[O-]
REMARK SMILES IDX 13 1 14 2 15 3 16 4 17 5 18 6 19 7 20 8 21 9 22 10 23 11
REMARK SMILES IDX 24 12 25 13 26 14 12 15 11 16 10 17 9 18 8 19 7 20 6 21 5 22
REMARK SMILES IDX 4 23 3 24 2 25 1 26
REMARK H PARENT
REMARK Flexibility Score: inf
ROOT
ATOM      1  C   UNL     1      27.593  30.758  25.410  1.00  0.00     0.000 C 
ENDROOT
BRANCH   1   2
ATOM      2  C   UNL     1      27.968  29.289  25.680  1.00  0.00     0.000 C 
BRANCH   2   3
ATOM      3  C   UNL     1      27.343  28.324  24.659  1.00  0.00     0.000 C 
BRANCH   3   4
ATOM      4  C   UNL     1      27.933  26.908  24.747  1.00  0.00     0.000 C 
BRANCH   4   5
ATOM      5  C   UNL     1      27.845  26.191  23.394  1.00  0.00     0.000 C 
BRANCH   5   6
ATOM      6  C   UNL     1      26.628  26.679  22.594  1.00  0.00     0.000 C 
BRANCH   6   7
ATOM      7  C   UNL     1      26.039  25.594  21.674  1.00  0.00     0.000 C 
BRANCH   7   8
ATOM      8  C   UNL     1      24.503  25.602  21.565  1.00  0.00     0.000 C 
BRANCH   8   9
ATOM      9  C   UNL     1      23.860  24.306  22.088  1.00  0.00     0.000 C 
BRANCH   9  10
ATOM     10  C   UNL     1      24.685  23.052  21.745  1.00  0.00     0.006 C 
BRANCH  10  11
ATOM     11  C   UNL     1      25.208  22.289  22.971  1.00  0.00     0.053 C 
BRANCH  11  12
ATOM     12  C   UNL     1      26.673  22.513  23.190  1.00  0.00     0.041 C 
ATOM     13  O   UNL     1      27.489  22.342  22.246  1.00  0.00    -0.550 OA
ATOM     14  O   UNL     1      27.140  22.886  24.444  1.00  0.00    -0.550 OA
ENDBRANCH  11  12
ENDBRANCH  10  11
ENDBRANCH   9  10
ENDBRANCH   8   9
ENDBRANCH   7   8
ENDBRANCH   6   7
ENDBRANCH   5   6
ENDBRANCH   4   5
ENDBRANCH   3   4
ENDBRANCH   2   3
ENDBRANCH   1   2
BRANCH   1  15
ATOM     15  C   UNL     1      27.890  31.669  26.619  1.00  0.00     0.000 C 
BRANCH  15  16
ATOM     16  C   UNL     1      27.026  32.941  26.664  1.00  0.00     0.000 C 
BRANCH  16  17
ATOM     17  C   UNL     1      26.609  33.429  25.267  1.00  0.00     0.000 C 
BRANCH  17  18
ATOM     18  C   UNL     1      27.811  33.788  24.380  1.00  0.00    -0.000 C 
BRANCH  18  19
ATOM     19  C   UNL     1      28.105  35.299  24.363  1.00  0.00    -0.000 C 
BRANCH  19  20
ATOM     20  C   UNL     1      27.710  35.958  23.031  1.00  0.00    -0.000 C 
BRANCH  20  21
ATOM     21  C   UNL     1      27.950  37.478  23.029  1.00  0.00    -0.000 C 
BRANCH  21  22
ATOM     22  C   UNL     1      26.937  38.241  23.902  1.00  0.00    -0.000 C 
BRANCH  22  23
ATOM     23  C   UNL     1      27.506  38.793  25.225  1.00  0.00    -0.000 C 
BRANCH  23  24
ATOM     24  C   UNL     1      27.792  40.308  25.236  1.00  0.00    -0.000 C 
BRANCH  24  25
ATOM     25  C   UNL     1      26.928  41.136  24.269  1.00  0.00    -0.003 C 
ATOM     26  C   UNL     1      27.552  41.266  22.879  1.00  0.00     0.004 C 
ENDBRANCH  24  25
ENDBRANCH  23  24
ENDBRANCH  22  23
ENDBRANCH  21  22
ENDBRANCH  20  21
ENDBRANCH  19  20
ENDBRANCH  18  19
ENDBRANCH  17  18
ENDBRANCH  16  17
ENDBRANCH  15  16
ENDBRANCH   1  15
TORSDOF 22
ENDMDL
MODEL 5
REMARK VINA RESULT:    -1.413      1.255      2.137
REMARK INTER + INTRA:          -4.629
REMARK INTER:                  -3.859
REMARK INTRA:                  -0.770
REMARK UNBOUND:                -1.400
REMARK SMILES CCCCCCCCCCCCCCCCCCCCCCCC(=O)[O-]
REMARK SMILES IDX 13 1 14 2 15 3 16 4 17 5 18 6 19 7 20 8 21 9 22 10 23 11
REMARK SMILES IDX 24 12 25 13 26 14 12 15 11 16 10 17 9 18 8 19 7 20 6 21 5 22
REMARK SMILES IDX 4 23 3 24 2 25 1 26
REMARK H PARENT
REMARK Flexibility Score: inf
ROOT
ATOM      1  C   UNL     1      27.423  29.876  24.897  1.00  0.00     0.000 C 
ENDROOT
BRANCH   1   2
ATOM      2  C   UNL     1      27.991  28.487  25.243  1.00  0.00     0.000 C 
BRANCH   2   3
ATOM      3  C   UNL     1      27.219  27.347  24.558  1.00  0.00     0.000 C 
BRANCH   3   4
ATOM      4  C   UNL     1      27.686  25.958  25.019  1.00  0.00     0.000 C 
BRANCH   4   5
ATOM      5  C   UNL     1      27.868  25.015  23.824  1.00  0.00     0.000 C 
BRANCH   5   6
ATOM      6  C   UNL     1      27.006  23.753  23.986  1.00  0.00     0.000 C 
BRANCH   6   7
ATOM      7  C   UNL     1      27.529  22.558  23.168  1.00  0.00     0.000 C 
BRANCH   7   8
ATOM      8  C   UNL     1      26.561  22.040  22.089  1.00  0.00     0.000 C 
BRANCH   8   9
ATOM      9  C   UNL     1      25.093  22.046  22.549  1.00  0.00     0.000 C 
BRANCH   9  10
ATOM     10  C   UNL     1      24.424  23.422  22.381  1.00  0.00     0.006 C 
BRANCH  10  11
ATOM     11  C   UNL     1      24.748  24.122  21.052  1.00  0.00     0.053 C 
BRANCH  11  12
ATOM     12  C   UNL     1      25.572  25.356  21.253  1.00  0.00     0.041 C 
ATOM     13  O   UNL     1      26.728  25.434  20.759  1.00  0.00    -0.550 OA
ATOM     14  O   UNL     1      25.074  26.411  22.007  1.00  0.00    -0.550 OA
ENDBRANCH  11  12
ENDBRANCH  10  11
ENDBRANCH   9  10
ENDBRANCH   8   9
ENDBRANCH   7   8
ENDBRANCH   6   7
ENDBRANCH   5   6
ENDBRANCH   4   5
ENDBRANCH   3   4
ENDBRANCH   2   3
ENDBRANCH   1   2
BRANCH   1  15
ATOM     15  C   UNL     1      27.914  30.968  25.869  1.00  0.00     0.000 C 
BRANCH  15  16
ATOM     16  C   UNL     1      27.044  32.236  25.870  1.00  0.00     0.000 C 
BRANCH  16  17
ATOM     17  C   UNL     1      26.828  32.813  24.461  1.00  0.00     0.000 C 
BRANCH  17  18
ATOM     18  C   UNL     1      27.921  33.813  24.055  1.00  0.00    -0.000 C 
BRANCH  18  19
ATOM     19  C   UNL     1      28.123  34.926  25.101  1.00  0.00    -0.000 C 
BRANCH  19  20
ATOM     20  C   UNL     1      28.121  36.328  24.472  1.00  0.00    -0.000 C 
BRANCH  20  21
ATOM     21  C   UNL     1      28.054  36.288  22.936  1.00  0.00    -0.000 C 
BRANCH  21  22
ATOM     22  C   UNL     1      27.296  37.490  22.342  1.00  0.00    -0.000 C 
BRANCH  22  23
ATOM     23  C   UNL     1      28.085  38.814  22.330  1.00  0.00    -0.000 C 
BRANCH  23  24
ATOM     24  C   UNL     1      27.910  39.672  21.061  1.00  0.00    -0.000 C 
BRANCH  24  25
ATOM     25  C   UNL     1      27.854  41.190  21.310  1.00  0.00    -0.003 C 
ATOM     26  C   UNL     1      27.494  41.542  22.754  1.00  0.00     0.004 C 
ENDBRANCH  24  25
ENDBRANCH  23  24
ENDBRANCH  22  23
ENDBRANCH  21  22
ENDBRANCH  20  21
ENDBRANCH  19  20
ENDBRANCH  18  19
ENDBRANCH  17  18
ENDBRANCH  16  17
ENDBRANCH  15  16
ENDBRANCH   1  15
TORSDOF 22
ENDMDL
MODEL 6
REMARK VINA RESULT:    -1.332      3.968      9.863
REMARK INTER + INTRA:          -4.444
REMARK INTER:                  -4.462
REMARK INTRA:                   0.018
REMARK UNBOUND:                -1.400
REMARK SMILES CCCCCCCCCCCCCCCCCCCCCCCC(=O)[O-]
REMARK SMILES IDX 13 1 14 2 15 3 16 4 17 5 18 6 19 7 20 8 21 9 22 10 23 11
REMARK SMILES IDX 24 12 25 13 26 14 12 15 11 16 10 17 9 18 8 19 7 20 6 21 5 22
REMARK SMILES IDX 4 23 3 24 2 25 1 26
REMARK H PARENT
REMARK Flexibility Score: inf
ROOT
ATOM      1  C   UNL     1      23.287  26.806  21.920  1.00  0.00     0.000 C 
ENDROOT
BRANCH   1   2
ATOM      2  C   UNL     1      24.627  26.662  22.665  1.00  0.00     0.000 C 
BRANCH   2   3
ATOM      3  C   UNL     1      25.692  25.933  21.830  1.00  0.00     0.000 C 
BRANCH   3   4
ATOM      4  C   UNL     1      26.955  26.780  21.615  1.00  0.00     0.000 C 
BRANCH   4   5
ATOM      5  C   UNL     1      27.972  26.545  22.739  1.00  0.00     0.000 C 
BRANCH   5   6
ATOM      6  C   UNL     1      28.078  27.777  23.650  1.00  0.00     0.000 C 
BRANCH   6   7
ATOM      7  C   UNL     1      27.753  27.467  25.122  1.00  0.00     0.000 C 
BRANCH   7   8
ATOM      8  C   UNL     1      28.125  28.582  26.116  1.00  0.00     0.000 C 
BRANCH   8   9
ATOM      9  C   UNL     1      27.972  29.991  25.518  1.00  0.00     0.000 C 
BRANCH   9  10
ATOM     10  C   UNL     1      26.569  30.240  24.935  1.00  0.00     0.006 C 
BRANCH  10  11
ATOM     11  C   UNL     1      25.900  31.531  25.433  1.00  0.00     0.053 C 
BRANCH  11  12
ATOM     12  C   UNL     1      26.905  32.580  25.797  1.00  0.00     0.041 C 
ATOM     13  O   UNL     1      27.803  32.908  24.978  1.00  0.00    -0.550 OA
ATOM     14  O   UNL     1      26.864  33.178  27.050  1.00  0.00    -0.550 OA
ENDBRANCH  11  12
ENDBRANCH  10  11
ENDBRANCH   9  10
ENDBRANCH   8   9
ENDBRANCH   7   8
ENDBRANCH   6   7
ENDBRANCH   5   6
ENDBRANCH   4   5
ENDBRANCH   3   4
ENDBRANCH   2   3
ENDBRANCH   1   2
BRANCH   1  15
ATOM     15  C   UNL     1      22.952  25.561  21.073  1.00  0.00     0.000 C 
BRANCH  15  16
ATOM     16  C   UNL     1      23.737  24.302  21.482  1.00  0.00     0.000 C 
BRANCH  16  17
ATOM     17  C   UNL     1      24.250  23.500  20.274  1.00  0.00     0.000 C 
BRANCH  17  18
ATOM     18  C   UNL     1      25.286  24.275  19.445  1.00  0.00    -0.000 C 
BRANCH  18  19
ATOM     19  C   UNL     1      26.713  23.722  19.612  1.00  0.00    -0.000 C 
BRANCH  19  20
ATOM     20  C   UNL     1      26.741  22.393  20.385  1.00  0.00    -0.000 C 
BRANCH  20  21
ATOM     21  C   UNL     1      28.125  22.085  20.983  1.00  0.00    -0.000 C 
BRANCH  21  22
ATOM     22  C   UNL     1      28.093  21.951  22.516  1.00  0.00    -0.000 C 
BRANCH  22  23
ATOM     23  C   UNL     1      27.294  23.048  23.247  1.00  0.00    -0.000 C 
BRANCH  23  24
ATOM     24  C   UNL     1      27.913  23.541  24.571  1.00  0.00    -0.000 C 
BRANCH  24  25
ATOM     25  C   UNL     1      27.039  23.313  25.817  1.00  0.00    -0.003 C 
ATOM     26  C   UNL     1      27.141  21.888  26.361  1.00  0.00     0.004 C 
ENDBRANCH  24  25
ENDBRANCH  23  24
ENDBRANCH  22  23
ENDBRANCH  21  22
ENDBRANCH  20  21
ENDBRANCH  19  20
ENDBRANCH  18  19
ENDBRANCH  17  18
ENDBRANCH  16  17
ENDBRANCH  15  16
ENDBRANCH   1  15
TORSDOF 22
ENDMDL
MODEL 7
REMARK VINA RESULT:    -1.279      4.019      7.289
REMARK INTER + INTRA:          -4.323
REMARK INTER:                  -2.437
REMARK INTRA:                  -1.886
REMARK UNBOUND:                -1.400
REMARK SMILES CCCCCCCCCCCCCCCCCCCCCCCC(=O)[O-]
REMARK SMILES IDX 13 1 14 2 15 3 16 4 17 5 18 6 19 7 20 8 21 9 22 10 23 11
REMARK SMILES IDX 24 12 25 13 26 14 12 15 11 16 10 17 9 18 8 19 7 20 6 21 5 22
REMARK SMILES IDX 4 23 3 24 2 25 1 26
REMARK H PARENT
REMARK Flexibility Score: inf
ROOT
ATOM      1  C   UNL     1      23.570  27.677  22.152  1.00  0.00     0.000 C 
ENDROOT
BRANCH   1   2
ATOM      2  C   UNL     1      24.269  26.456  21.528  1.00  0.00     0.000 C 
BRANCH   2   3
ATOM      3  C   UNL     1      23.293  25.537  20.775  1.00  0.00     0.000 C 
BRANCH   3   4
ATOM      4  C   UNL     1      23.652  24.051  20.919  1.00  0.00     0.000 C 
BRANCH   4   5
ATOM      5  C   UNL     1      24.193  23.749  22.322  1.00  0.00     0.000 C 
BRANCH   5   6
ATOM      6  C   UNL     1      24.341  22.235  22.538  1.00  0.00     0.000 C 
BRANCH   6   7
ATOM      7  C   UNL     1      25.469  21.876  23.522  1.00  0.00     0.000 C 
BRANCH   7   8
ATOM      8  C   UNL     1      26.883  21.875  22.913  1.00  0.00     0.000 C 
BRANCH   8   9
ATOM      9  C   UNL     1      26.871  21.876  21.374  1.00  0.00     0.000 C 
BRANCH   9  10
ATOM     10  C   UNL     1      28.119  22.545  20.771  1.00  0.00     0.006 C 
BRANCH  10  11
ATOM     11  C   UNL     1      27.912  24.012  20.365  1.00  0.00     0.053 C 
BRANCH  11  12
ATOM     12  C   UNL     1      27.072  24.141  19.133  1.00  0.00     0.041 C 
ATOM     13  O   UNL     1      26.213  23.264  18.856  1.00  0.00    -0.550 OA
ATOM     14  O   UNL     1      27.255  25.219  18.275  1.00  0.00    -0.550 OA
ENDBRANCH  11  12
ENDBRANCH  10  11
ENDBRANCH   9  10
ENDBRANCH   8   9
ENDBRANCH   7   8
ENDBRANCH   6   7
ENDBRANCH   5   6
ENDBRANCH   4   5
ENDBRANCH   3   4
ENDBRANCH   2   3
ENDBRANCH   1   2
BRANCH   1  15
ATOM     15  C   UNL     1      24.189  28.077  23.507  1.00  0.00     0.000 C 
BRANCH  15  16
ATOM     16  C   UNL     1      24.839  29.472  23.504  1.00  0.00     0.000 C 
BRANCH  16  17
ATOM     17  C   UNL     1      25.955  29.613  24.553  1.00  0.00     0.000 C 
BRANCH  17  18
ATOM     18  C   UNL     1      27.335  29.849  23.922  1.00  0.00    -0.000 C 
BRANCH  18  19
ATOM     19  C   UNL     1      27.947  28.563  23.336  1.00  0.00    -0.000 C 
BRANCH  19  20
ATOM     20  C   UNL     1      27.489  27.301  24.085  1.00  0.00    -0.000 C 
BRANCH  20  21
ATOM     21  C   UNL     1      27.404  26.068  23.168  1.00  0.00    -0.000 C 
BRANCH  21  22
ATOM     22  C   UNL     1      28.022  24.811  23.805  1.00  0.00    -0.000 C 
BRANCH  22  23
ATOM     23  C   UNL     1      27.219  24.215  24.978  1.00  0.00    -0.000 C 
BRANCH  23  24
ATOM     24  C   UNL     1      27.799  24.491  26.380  1.00  0.00    -0.000 C 
BRANCH  24  25
ATOM     25  C   UNL     1      26.828  24.228  27.545  1.00  0.00    -0.003 C 
ATOM     26  C   UNL     1      26.365  22.773  27.615  1.00  0.00     0.004 C 
ENDBRANCH  24  25
ENDBRANCH  23  24
ENDBRANCH  22  23
ENDBRANCH  21  22
ENDBRANCH  20  21
ENDBRANCH  19  20
ENDBRANCH  18  19
ENDBRANCH  17  18
ENDBRANCH  16  17
ENDBRANCH  15  16
ENDBRANCH   1  15
TORSDOF 22
ENDMDL
MODEL 8
REMARK VINA RESULT:    -0.738      3.961      6.575
REMARK INTER + INTRA:          -3.087
REMARK INTER:                  -3.878
REMARK INTRA:                   0.791
REMARK UNBOUND:                -1.400
REMARK SMILES CCCCCCCCCCCCCCCCCCCCCCCC(=O)[O-]
REMARK SMILES IDX 13 1 14 2 15 3 16 4 17 5 18 6 19 7 20 8 21 9 22 10 23 11
REMARK SMILES IDX 24 12 25 13 26 14 12 15 11 16 10 17 9 18 8 19 7 20 6 21 5 22
REMARK SMILES IDX 4 23 3 24 2 25 1 26
REMARK H PARENT
REMARK Flexibility Score: inf
ROOT
ATOM      1  C   UNL     1      25.005  23.827  19.392  1.00  0.00     0.000 C 
ENDROOT
BRANCH   1   2
ATOM      2  C   UNL     1      25.321  23.282  20.797  1.00  0.00     0.000 C 
BRANCH   2   3
ATOM      3  C   UNL     1      24.563  24.031  21.905  1.00  0.00     0.000 C 
BRANCH   3   4
ATOM      4  C   UNL     1      24.111  23.103  23.042  1.00  0.00     0.000 C 
BRANCH   4   5
ATOM      5  C   UNL     1      25.029  21.879  23.150  1.00  0.00     0.000 C 
BRANCH   5   6
ATOM      6  C   UNL     1      25.798  21.886  24.480  1.00  0.00     0.000 C 
BRANCH   6   7
ATOM      7  C   UNL     1      27.325  21.875  24.291  1.00  0.00     0.000 C 
BRANCH   7   8
ATOM      8  C   UNL     1      28.030  23.199  24.639  1.00  0.00     0.000 C 
BRANCH   8   9
ATOM      9  C   UNL     1      27.095  24.417  24.546  1.00  0.00     0.000 C 
BRANCH   9  10
ATOM     10  C   UNL     1      27.290  25.405  25.710  1.00  0.00     0.006 C 
BRANCH  10  11
ATOM     11  C   UNL     1      27.875  24.772  26.982  1.00  0.00     0.053 C 
BRANCH  11  12
ATOM     12  C   UNL     1      26.811  24.417  27.974  1.00  0.00     0.041 C 
ATOM     13  O   UNL     1      26.350  25.294  28.751  1.00  0.00    -0.550 OA
ATOM     14  O   UNL     1      26.346  23.110  28.059  1.00  0.00    -0.550 OA
ENDBRANCH  11  12
ENDBRANCH  10  11
ENDBRANCH   9  10
ENDBRANCH   8   9
ENDBRANCH   7   8
ENDBRANCH   6   7
ENDBRANCH   5   6
ENDBRANCH   4   5
ENDBRANCH   3   4
ENDBRANCH   2   3
ENDBRANCH   1   2
BRANCH   1  15
ATOM     15  C   UNL     1      26.281  24.109  18.572  1.00  0.00     0.000 C 
BRANCH  15  16
ATOM     16  C   UNL     1      27.572  24.096  19.410  1.00  0.00     0.000 C 
BRANCH  16  17
ATOM     17  C   UNL     1      27.313  23.826  20.901  1.00  0.00     0.000 C 
BRANCH  17  18
ATOM     18  C   UNL     1      28.098  24.773  21.821  1.00  0.00    -0.000 C 
BRANCH  18  19
ATOM     19  C   UNL     1      28.047  26.237  21.346  1.00  0.00    -0.000 C 
BRANCH  19  20
ATOM     20  C   UNL     1      27.418  27.172  22.392  1.00  0.00    -0.000 C 
BRANCH  20  21
ATOM     21  C   UNL     1      28.121  28.538  22.463  1.00  0.00    -0.000 C 
BRANCH  21  22
ATOM     22  C   UNL     1      28.081  29.155  23.873  1.00  0.00    -0.000 C 
BRANCH  22  23
ATOM     23  C   UNL     1      26.678  29.233  24.507  1.00  0.00    -0.000 C 
BRANCH  23  24
ATOM     24  C   UNL     1      26.350  30.564  25.215  1.00  0.00    -0.000 C 
BRANCH  24  25
ATOM     25  C   UNL     1      27.513  31.171  26.020  1.00  0.00    -0.003 C 
ATOM     26  C   UNL     1      27.218  32.587  26.514  1.00  0.00     0.004 C 
ENDBRANCH  24  25
ENDBRANCH  23  24
ENDBRANCH  22  23
ENDBRANCH  21  22
ENDBRANCH  20  21
ENDBRANCH  19  20
ENDBRANCH  18  19
ENDBRANCH  17  18
ENDBRANCH  16  17
ENDBRANCH  15  16
ENDBRANCH   1  15
TORSDOF 22
ENDMDL
