MODEL 1
REMARK VINA RESULT:    -4.775      0.000      0.000
REMARK INTER + INTRA:          -8.854
REMARK INTER:                  -8.125
REMARK INTRA:                  -0.729
REMARK UNBOUND:                -0.729
REMARK SMILES CCCCCCCCCCCCCC(=O)[O-]
REMARK SMILES IDX 8 1 9 2 10 3 11 4 12 5 13 6 14 7 15 8 16 9 7 10 6 11 5 12
REMARK SMILES IDX 4 13 3 14 2 15 1 16
REMARK H PARENT
REMARK Flexibility Score: inf
ROOT
ATOM      1  C   UNL     1     113.485 102.029 112.088  1.00  0.00     0.000 C 
ENDROOT
BRANCH   1   2
ATOM      2  C   UNL     1     114.219 103.062 111.218  1.00  0.00     0.000 C 
BRANCH   2   3
ATOM      3  C   UNL     1     114.345 104.433 111.901  1.00  0.00     0.000 C 
BRANCH   3   4
ATOM      4  C   UNL     1     114.869 104.283 113.337  1.00  0.00     0.000 C 
BRANCH   4   5
ATOM      5  C   UNL     1     116.124 105.128 113.602  1.00  0.00     0.006 C 
BRANCH   5   6
ATOM      6  C   UNL     1     117.265 104.812 112.626  1.00  0.00     0.053 C 
BRANCH   6   7
ATOM      7  C   UNL     1     118.578 105.234 113.205  1.00  0.00     0.041 C 
ATOM      8  O   UNL     1     118.990 104.724 114.280  1.00  0.00    -0.550 OA
ATOM      9  O   UNL     1     119.325 106.227 112.585  1.00  0.00    -0.550 OA
ENDBRANCH   6   7
ENDBRANCH   5   6
ENDBRANCH   4   5
ENDBRANCH   3   4
ENDBRANCH   2   3
ENDBRANCH   1   2
BRANCH   1  10
ATOM     10  C   UNL     1     112.008 102.395 112.318  1.00  0.00     0.000 C 
BRANCH  10  11
ATOM     11  C   UNL     1     111.084 101.892 111.194  1.00  0.00    -0.000 C 
BRANCH  11  12
ATOM     12  C   UNL     1     110.338 102.994 110.419  1.00  0.00    -0.000 C 
BRANCH  12  13
ATOM     13  C   UNL     1     110.003 104.217 111.286  1.00  0.00    -0.000 C 
BRANCH  13  14
ATOM     14  C   UNL     1     108.829 105.007 110.689  1.00  0.00    -0.000 C 
BRANCH  14  15
ATOM     15  C   UNL     1     108.682 106.405 111.310  1.00  0.00    -0.003 C 
ATOM     16  C   UNL     1     107.817 106.404 112.570  1.00  0.00     0.004 C 
ENDBRANCH  14  15
ENDBRANCH  13  14
ENDBRANCH  12  13
ENDBRANCH  11  12
ENDBRANCH  10  11
ENDBRANCH   1  10
TORSDOF 12
ENDMDL
MODEL 2
REMARK VINA RESULT:    -4.664      0.576      1.104
REMARK INTER + INTRA:          -8.665
REMARK INTER:                  -8.055
REMARK INTRA:                  -0.610
REMARK UNBOUND:                -0.729
REMARK SMILES CCCCCCCCCCCCCC(=O)[O-]
REMARK SMILES IDX 8 1 9 2 10 3 11 4 12 5 13 6 14 7 15 8 16 9 7 10 6 11 5 12
REMARK SMILES IDX 4 13 3 14 2 15 1 16
REMARK H PARENT
REMARK Flexibility Score: inf
ROOT
ATOM      1  C   UNL     1     112.941 102.504 112.036  1.00  0.00     0.000 C 
ENDROOT
BRANCH   1   2
ATOM      2  C   UNL     1     114.161 102.828 111.159  1.00  0.00     0.000 C 
BRANCH   2   3
ATOM      3  C   UNL     1     114.843 104.147 111.554  1.00  0.00     0.000 C 
BRANCH   3   4
ATOM      4  C   UNL     1     114.874 104.312 113.081  1.00  0.00     0.000 C 
BRANCH   4   5
ATOM      5  C   UNL     1     116.201 104.896 113.589  1.00  0.00     0.006 C 
BRANCH   5   6
ATOM      6  C   UNL     1     117.373 104.612 112.639  1.00  0.00     0.053 C 
BRANCH   6   7
ATOM      7  C   UNL     1     118.614 105.291 113.125  1.00  0.00     0.041 C 
ATOM      8  O   UNL     1     119.117 106.239 112.466  1.00  0.00    -0.550 OA
ATOM      9  O   UNL     1     119.244 104.846 114.279  1.00  0.00    -0.550 OA
ENDBRANCH   6   7
ENDBRANCH   5   6
ENDBRANCH   4   5
ENDBRANCH   3   4
ENDBRANCH   2   3
ENDBRANCH   1   2
BRANCH   1  10
ATOM     10  C   UNL     1     111.736 102.016 111.212  1.00  0.00     0.000 C 
BRANCH  10  11
ATOM     11  C   UNL     1     110.432 102.757 111.561  1.00  0.00    -0.000 C 
BRANCH  11  12
ATOM     12  C   UNL     1     110.183 104.052 110.765  1.00  0.00    -0.000 C 
BRANCH  12  13
ATOM     13  C   UNL     1     108.792 104.653 111.014  1.00  0.00    -0.000 C 
BRANCH  13  14
ATOM     14  C   UNL     1     108.754 106.133 110.609  1.00  0.00    -0.000 C 
BRANCH  14  15
ATOM     15  C   UNL     1     108.455 107.062 111.796  1.00  0.00    -0.003 C 
ATOM     16  C   UNL     1     107.590 106.395 112.866  1.00  0.00     0.004 C 
ENDBRANCH  14  15
ENDBRANCH  13  14
ENDBRANCH  12  13
ENDBRANCH  11  12
ENDBRANCH  10  11
ENDBRANCH   1  10
TORSDOF 12
ENDMDL
MODEL 3
REMARK VINA RESULT:    -4.621      3.931      7.700
REMARK INTER + INTRA:          -8.591
REMARK INTER:                  -7.954
REMARK INTRA:                  -0.638
REMARK UNBOUND:                -0.729
REMARK SMILES CCCCCCCCCCCCCC(=O)[O-]
REMARK SMILES IDX 8 1 9 2 10 3 11 4 12 5 13 6 14 7 15 8 16 9 7 10 6 11 5 12
REMARK SMILES IDX 4 13 3 14 2 15 1 16
REMARK H PARENT
REMARK Flexibility Score: inf
ROOT
ATOM      1  C   UNL     1     113.592 102.054 111.966  1.00  0.00     0.000 C 
ENDROOT
BRANCH   1   2
ATOM      2  C   UNL     1     112.173 102.506 112.348  1.00  0.00     0.000 C 
BRANCH   2   3
ATOM      3  C   UNL     1     111.106 102.017 111.356  1.00  0.00     0.000 C 
BRANCH   3   4
ATOM      4  C   UNL     1     110.507 103.194 110.572  1.00  0.00     0.000 C 
BRANCH   4   5
ATOM      5  C   UNL     1     109.670 104.131 111.456  1.00  0.00     0.006 C 
BRANCH   5   6
ATOM      6  C   UNL     1     108.813 105.106 110.637  1.00  0.00     0.053 C 
BRANCH   6   7
ATOM      7  C   UNL     1     108.452 106.301 111.461  1.00  0.00     0.041 C 
ATOM      8  O   UNL     1     108.613 107.462 111.000  1.00  0.00    -0.550 OA
ATOM      9  O   UNL     1     107.984 106.136 112.758  1.00  0.00    -0.550 OA
ENDBRANCH   6   7
ENDBRANCH   5   6
ENDBRANCH   4   5
ENDBRANCH   3   4
ENDBRANCH   2   3
ENDBRANCH   1   2
BRANCH   1  10
ATOM     10  C   UNL     1     114.337 103.102 111.119  1.00  0.00     0.000 C 
BRANCH  10  11
ATOM     11  C   UNL     1     114.487 104.456 111.836  1.00  0.00    -0.000 C 
BRANCH  11  12
ATOM     12  C   UNL     1     114.894 104.369 113.319  1.00  0.00    -0.000 C 
BRANCH  12  13
ATOM     13  C   UNL     1     116.172 105.158 113.639  1.00  0.00    -0.000 C 
BRANCH  13  14
ATOM     14  C   UNL     1     117.409 104.458 113.056  1.00  0.00    -0.000 C 
BRANCH  14  15
ATOM     15  C   UNL     1     118.711 105.216 113.354  1.00  0.00    -0.003 C 
ATOM     16  C   UNL     1     119.087 106.203 112.248  1.00  0.00     0.004 C 
ENDBRANCH  14  15
ENDBRANCH  13  14
ENDBRANCH  12  13
ENDBRANCH  11  12
ENDBRANCH  10  11
ENDBRANCH   1  10
TORSDOF 12
ENDMDL
MODEL 4
REMARK VINA RESULT:    -3.917      1.425      2.956
REMARK INTER + INTRA:          -7.394
REMARK INTER:                  -6.876
REMARK INTRA:                  -0.518
REMARK UNBOUND:                -0.729
REMARK SMILES CCCCCCCCCCCCCC(=O)[O-]
REMARK SMILES IDX 8 1 9 2 10 3 11 4 12 5 13 6 14 7 15 8 16 9 7 10 6 11 5 12
REMARK SMILES IDX 4 13 3 14 2 15 1 16
REMARK H PARENT
REMARK Flexibility Score: inf
ROOT
ATOM      1  C   UNL     1     110.754 103.144 110.882  1.00  0.00     0.000 C 
ENDROOT
BRANCH   1   2
ATOM      2  C   UNL     1     111.469 102.173 111.836  1.00  0.00     0.000 C 
BRANCH   2   3
ATOM      3  C   UNL     1     112.954 101.985 111.490  1.00  0.00     0.000 C 
BRANCH   3   4
ATOM      4  C   UNL     1     113.850 102.688 112.521  1.00  0.00     0.000 C 
BRANCH   4   5
ATOM      5  C   UNL     1     114.452 103.998 111.989  1.00  0.00     0.006 C 
BRANCH   5   6
ATOM      6  C   UNL     1     115.985 104.011 112.052  1.00  0.00     0.053 C 
BRANCH   6   7
ATOM      7  C   UNL     1     116.451 104.774 113.251  1.00  0.00     0.041 C 
ATOM      8  O   UNL     1     115.696 105.622 113.795  1.00  0.00    -0.550 OA
ATOM      9  O   UNL     1     117.738 104.585 113.739  1.00  0.00    -0.550 OA
ENDBRANCH   6   7
ENDBRANCH   5   6
ENDBRANCH   4   5
ENDBRANCH   3   4
ENDBRANCH   2   3
ENDBRANCH   1   2
BRANCH   1  10
ATOM     10  C   UNL     1     109.859 104.151 111.626  1.00  0.00     0.000 C 
BRANCH  10  11
ATOM     11  C   UNL     1     108.913 104.921 110.686  1.00  0.00    -0.000 C 
BRANCH  11  12
ATOM     12  C   UNL     1     108.991 106.455 110.794  1.00  0.00    -0.000 C 
BRANCH  12  13
ATOM     13  C   UNL     1     107.786 107.068 111.524  1.00  0.00    -0.000 C 
BRANCH  13  14
ATOM     14  C   UNL     1     107.670 106.515 112.951  1.00  0.00    -0.000 C 
BRANCH  14  15
ATOM     15  C   UNL     1     106.250 106.031 113.284  1.00  0.00    -0.003 C 
ATOM     16  C   UNL     1     105.310 107.175 113.665  1.00  0.00     0.004 C 
ENDBRANCH  14  15
ENDBRANCH  13  14
ENDBRANCH  12  13
ENDBRANCH  11  12
ENDBRANCH  10  11
ENDBRANCH   1  10
TORSDOF 12
ENDMDL
MODEL 5
REMARK VINA RESULT:    -3.735      1.002      1.448
REMARK INTER + INTRA:          -7.084
REMARK INTER:                  -6.732
REMARK INTRA:                  -0.352
REMARK UNBOUND:                -0.729
REMARK SMILES CCCCCCCCCCCCCC(=O)[O-]
REMARK SMILES IDX 8 1 9 2 10 3 11 4 12 5 13 6 14 7 15 8 16 9 7 10 6 11 5 12
REMARK SMILES IDX 4 13 3 14 2 15 1 16
REMARK H PARENT
REMARK Flexibility Score: inf
ROOT
ATOM      1  C   UNL     1     113.196 103.384 111.764  1.00  0.00     0.000 C 
ENDROOT
BRANCH   1   2
ATOM      2  C   UNL     1     114.714 103.428 112.003  1.00  0.00     0.000 C 
BRANCH   2   3
ATOM      3  C   UNL     1     115.083 103.998 113.382  1.00  0.00     0.000 C 
BRANCH   3   4
ATOM      4  C   UNL     1     116.089 105.151 113.247  1.00  0.00     0.000 C 
BRANCH   4   5
ATOM      5  C   UNL     1     117.348 104.750 112.463  1.00  0.00     0.006 C 
BRANCH   5   6
ATOM      6  C   UNL     1     118.585 105.556 112.881  1.00  0.00     0.053 C 
BRANCH   6   7
ATOM      7  C   UNL     1     119.226 104.940 114.084  1.00  0.00     0.041 C 
ATOM      8  O   UNL     1     120.058 105.597 114.765  1.00  0.00    -0.550 OA
ATOM      9  O   UNL     1     118.944 103.624 114.426  1.00  0.00    -0.550 OA
ENDBRANCH   6   7
ENDBRANCH   5   6
ENDBRANCH   4   5
ENDBRANCH   3   4
ENDBRANCH   2   3
ENDBRANCH   1   2
BRANCH   1  10
ATOM     10  C   UNL     1     112.667 101.949 111.593  1.00  0.00     0.000 C 
BRANCH  10  11
ATOM     11  C   UNL     1     111.190 101.903 111.161  1.00  0.00    -0.000 C 
BRANCH  11  12
ATOM     12  C   UNL     1     110.323 103.069 111.669  1.00  0.00    -0.000 C 
BRANCH  12  13
ATOM     13  C   UNL     1     110.085 104.150 110.604  1.00  0.00    -0.000 C 
BRANCH  13  14
ATOM     14  C   UNL     1     108.728 104.837 110.814  1.00  0.00    -0.000 C 
BRANCH  14  15
ATOM     15  C   UNL     1     108.860 106.217 111.475  1.00  0.00    -0.003 C 
ATOM     16  C   UNL     1     107.761 107.188 111.043  1.00  0.00     0.004 C 
ENDBRANCH  14  15
ENDBRANCH  13  14
ENDBRANCH  12  13
ENDBRANCH  11  12
ENDBRANCH  10  11
ENDBRANCH   1  10
TORSDOF 12
ENDMDL
MODEL 6
REMARK VINA RESULT:    -3.674      1.917      3.952
REMARK INTER + INTRA:          -6.980
REMARK INTER:                  -6.445
REMARK INTRA:                  -0.534
REMARK UNBOUND:                -0.729
REMARK SMILES CCCCCCCCCCCCCC(=O)[O-]
REMARK SMILES IDX 8 1 9 2 10 3 11 4 12 5 13 6 14 7 15 8 16 9 7 10 6 11 5 12
REMARK SMILES IDX 4 13 3 14 2 15 1 16
REMARK H PARENT
REMARK Flexibility Score: inf
ROOT
ATOM      1  C   UNL     1     109.678 103.817 110.440  1.00  0.00     0.000 C 
ENDROOT
BRANCH   1   2
ATOM      2  C   UNL     1     110.562 103.262 111.568  1.00  0.00     0.000 C 
BRANCH   2   3
ATOM      3  C   UNL     1     111.702 102.373 111.047  1.00  0.00     0.000 C 
BRANCH   3   4
ATOM      4  C   UNL     1     112.744 102.118 112.147  1.00  0.00     0.000 C 
BRANCH   4   5
ATOM      5  C   UNL     1     114.148 102.607 111.759  1.00  0.00     0.006 C 
BRANCH   5   6
ATOM      6  C   UNL     1     114.312 104.124 111.927  1.00  0.00     0.053 C 
BRANCH   6   7
ATOM      7  C   UNL     1     115.617 104.437 112.589  1.00  0.00     0.041 C 
ATOM      8  O   UNL     1     116.696 104.027 112.086  1.00  0.00    -0.550 OA
ATOM      9  O   UNL     1     115.639 105.138 113.787  1.00  0.00    -0.550 OA
ENDBRANCH   6   7
ENDBRANCH   5   6
ENDBRANCH   4   5
ENDBRANCH   3   4
ENDBRANCH   2   3
ENDBRANCH   1   2
BRANCH   1  10
ATOM     10  C   UNL     1     108.610 104.798 110.955  1.00  0.00     0.000 C 
BRANCH  10  11
ATOM     11  C   UNL     1     109.058 106.269 110.874  1.00  0.00    -0.000 C 
BRANCH  11  12
ATOM     12  C   UNL     1     108.404 107.209 111.903  1.00  0.00    -0.000 C 
BRANCH  12  13
ATOM     13  C   UNL     1     107.459 106.479 112.870  1.00  0.00    -0.000 C 
BRANCH  13  14
ATOM     14  C   UNL     1     106.054 107.098 112.836  1.00  0.00    -0.000 C 
BRANCH  14  15
ATOM     15  C   UNL     1     105.192 106.673 114.034  1.00  0.00    -0.003 C 
ATOM     16  C   UNL     1     103.877 106.018 113.614  1.00  0.00     0.004 C 
ENDBRANCH  14  15
ENDBRANCH  13  14
ENDBRANCH  12  13
ENDBRANCH  11  12
ENDBRANCH  10  11
ENDBRANCH   1  10
TORSDOF 12
ENDMDL
MODEL 7
REMARK VINA RESULT:    -3.439      5.176      8.389
REMARK INTER + INTRA:          -6.581
REMARK INTER:                  -6.001
REMARK INTRA:                  -0.580
REMARK UNBOUND:                -0.729
REMARK SMILES CCCCCCCCCCCCCC(=O)[O-]
REMARK SMILES IDX 8 1 9 2 10 3 11 4 12 5 13 6 14 7 15 8 16 9 7 10 6 11 5 12
REMARK SMILES IDX 4 13 3 14 2 15 1 16
REMARK H PARENT
REMARK Flexibility Score: inf
ROOT
ATOM      1  C   UNL     1     110.050 103.775 110.588  1.00  0.00     0.000 C 
ENDROOT
BRANCH   1   2
ATOM      2  C   UNL     1     108.850 104.651 110.980  1.00  0.00     0.000 C 
BRANCH   2   3
ATOM      3  C   UNL     1     109.165 106.154 110.919  1.00  0.00     0.000 C 
BRANCH   3   4
ATOM      4  C   UNL     1     108.020 106.979 111.526  1.00  0.00     0.000 C 
BRANCH   4   5
ATOM      5  C   UNL     1     107.695 106.570 112.971  1.00  0.00     0.006 C 
BRANCH   5   6
ATOM      6  C   UNL     1     106.283 105.988 113.115  1.00  0.00     0.053 C 
BRANCH   6   7
ATOM      7  C   UNL     1     105.351 107.014 113.679  1.00  0.00     0.041 C 
ATOM      8  O   UNL     1     104.604 107.680 112.913  1.00  0.00    -0.550 OA
ATOM      9  O   UNL     1     105.343 107.272 115.043  1.00  0.00    -0.550 OA
ENDBRANCH   6   7
ENDBRANCH   5   6
ENDBRANCH   4   5
ENDBRANCH   3   4
ENDBRANCH   2   3
ENDBRANCH   1   2
BRANCH   1  10
ATOM     10  C   UNL     1     110.747 103.148 111.808  1.00  0.00     0.000 C 
BRANCH  10  11
ATOM     11  C   UNL     1     111.937 102.250 111.423  1.00  0.00    -0.000 C 
BRANCH  11  12
ATOM     12  C   UNL     1     113.265 102.587 112.127  1.00  0.00    -0.000 C 
BRANCH  12  13
ATOM     13  C   UNL     1     114.427 102.804 111.147  1.00  0.00    -0.000 C 
BRANCH  13  14
ATOM     14  C   UNL     1     115.373 103.902 111.654  1.00  0.00    -0.000 C 
BRANCH  14  15
ATOM     15  C   UNL     1     114.859 104.580 112.933  1.00  0.00    -0.003 C 
ATOM     16  C   UNL     1     115.976 105.247 113.738  1.00  0.00     0.004 C 
ENDBRANCH  14  15
ENDBRANCH  13  14
ENDBRANCH  12  13
ENDBRANCH  11  12
ENDBRANCH  10  11
ENDBRANCH   1  10
TORSDOF 12
ENDMDL
MODEL 8
REMARK VINA RESULT:    -3.187      5.486      8.785
REMARK INTER + INTRA:          -6.152
REMARK INTER:                  -5.678
REMARK INTRA:                  -0.473
REMARK UNBOUND:                -0.729
REMARK SMILES CCCCCCCCCCCCCC(=O)[O-]
REMARK SMILES IDX 8 1 9 2 10 3 11 4 12 5 13 6 14 7 15 8 16 9 7 10 6 11 5 12
REMARK SMILES IDX 4 13 3 14 2 15 1 16
REMARK H PARENT
REMARK Flexibility Score: inf
ROOT
ATOM      1  C   UNL     1     108.923 104.516 110.865  1.00  0.00     0.000 C 
ENDROOT
BRANCH   1   2
ATOM      2  C   UNL     1     109.274 105.993 110.622  1.00  0.00     0.000 C 
BRANCH   2   3
ATOM      3  C   UNL     1     108.245 106.957 111.235  1.00  0.00     0.000 C 
BRANCH   3   4
ATOM      4  C   UNL     1     108.083 106.699 112.741  1.00  0.00     0.000 C 
BRANCH   4   5
ATOM      5  C   UNL     1     106.719 106.088 113.095  1.00  0.00     0.006 C 
BRANCH   5   6
ATOM      6  C   UNL     1     105.608 107.142 113.195  1.00  0.00     0.053 C 
BRANCH   6   7
ATOM      7  C   UNL     1     104.536 106.682 114.132  1.00  0.00     0.041 C 
ATOM      8  O   UNL     1     103.560 106.015 113.699  1.00  0.00    -0.550 OA
ATOM      9  O   UNL     1     104.588 107.032 115.475  1.00  0.00    -0.550 OA
ENDBRANCH   6   7
ENDBRANCH   5   6
ENDBRANCH   4   5
ENDBRANCH   3   4
ENDBRANCH   2   3
ENDBRANCH   1   2
BRANCH   1  10
ATOM     10  C   UNL     1     110.062 103.565 110.458  1.00  0.00     0.000 C 
BRANCH  10  11
ATOM     11  C   UNL     1     110.881 103.061 111.660  1.00  0.00    -0.000 C 
BRANCH  11  12
ATOM     12  C   UNL     1     111.882 101.935 111.344  1.00  0.00    -0.000 C 
BRANCH  12  13
ATOM     13  C   UNL     1     113.210 102.079 112.103  1.00  0.00    -0.000 C 
BRANCH  13  14
ATOM     14  C   UNL     1     114.151 103.054 111.380  1.00  0.00    -0.000 C 
BRANCH  14  15
ATOM     15  C   UNL     1     114.656 104.177 112.299  1.00  0.00    -0.003 C 
ATOM     16  C   UNL     1     116.182 104.243 112.368  1.00  0.00     0.004 C 
ENDBRANCH  14  15
ENDBRANCH  13  14
ENDBRANCH  12  13
ENDBRANCH  11  12
ENDBRANCH  10  11
ENDBRANCH   1  10
TORSDOF 12
ENDMDL
MODEL 9
REMARK VINA RESULT:    -3.112      1.545      3.022
REMARK INTER + INTRA:          -6.024
REMARK INTER:                  -5.123
REMARK INTRA:                  -0.902
REMARK UNBOUND:                -0.729
REMARK SMILES CCCCCCCCCCCCCC(=O)[O-]
REMARK SMILES IDX 8 1 9 2 10 3 11 4 12 5 13 6 14 7 15 8 16 9 7 10 6 11 5 12
REMARK SMILES IDX 4 13 3 14 2 15 1 16
REMARK H PARENT
REMARK Flexibility Score: inf
ROOT
ATOM      1  C   UNL     1     114.390 104.248 112.998  1.00  0.00     0.000 C 
ENDROOT
BRANCH   1   2
ATOM      2  C   UNL     1     115.829 104.331 113.532  1.00  0.00     0.000 C 
BRANCH   2   3
ATOM      3  C   UNL     1     116.295 105.778 113.760  1.00  0.00     0.000 C 
BRANCH   3   4
ATOM      4  C   UNL     1     117.553 106.084 112.933  1.00  0.00     0.000 C 
BRANCH   4   5
ATOM      5  C   UNL     1     118.625 104.990 113.055  1.00  0.00     0.006 C 
BRANCH   5   6
ATOM      6  C   UNL     1     119.665 105.302 114.139  1.00  0.00     0.053 C 
BRANCH   6   7
ATOM      7  C   UNL     1     119.442 104.438 115.340  1.00  0.00     0.041 C 
ATOM      8  O   UNL     1     119.630 104.900 116.496  1.00  0.00    -0.550 OA
ATOM      9  O   UNL     1     119.073 103.109 115.182  1.00  0.00    -0.550 OA
ENDBRANCH   6   7
ENDBRANCH   5   6
ENDBRANCH   4   5
ENDBRANCH   3   4
ENDBRANCH   2   3
ENDBRANCH   1   2
BRANCH   1  10
ATOM     10  C   UNL     1     114.335 104.136 111.464  1.00  0.00     0.000 C 
BRANCH  10  11
ATOM     11  C   UNL     1     114.054 102.702 110.977  1.00  0.00    -0.000 C 
BRANCH  11  12
ATOM     12  C   UNL     1     113.125 101.874 111.883  1.00  0.00    -0.000 C 
BRANCH  12  13
ATOM     13  C   UNL     1     111.716 101.697 111.297  1.00  0.00    -0.000 C 
BRANCH  13  14
ATOM     14  C   UNL     1     110.803 102.864 111.699  1.00  0.00    -0.000 C 
BRANCH  14  15
ATOM     15  C   UNL     1     110.050 103.464 110.502  1.00  0.00    -0.003 C 
ATOM     16  C   UNL     1     109.209 104.682 110.884  1.00  0.00     0.004 C 
ENDBRANCH  14  15
ENDBRANCH  13  14
ENDBRANCH  12  13
ENDBRANCH  11  12
ENDBRANCH  10  11
ENDBRANCH   1  10
TORSDOF 12
ENDMDL
