MODEL 1
REMARK VINA RESULT:    -3.229      0.000      0.000
REMARK INTER + INTRA:          -4.688
REMARK INTER:                  -4.455
REMARK INTRA:                  -0.232
REMARK UNBOUND:                -0.232
REMARK SMILES CCCCCCCCO
REMARK SMILES IDX 5 1 4 2 3 3 2 4 1 5 6 6 7 7 8 8 9 9
REMARK H PARENT 9 10
REMARK Flexibility Score: inf
ROOT
ATOM      1  C   UNL     1     -29.078  24.506 -20.984  1.00  0.00     0.000 C 
ENDROOT
BRANCH   1   2
ATOM      2  C   UNL     1     -30.416  24.160 -21.653  1.00  0.00    -0.000 C 
BRANCH   2   3
ATOM      3  C   UNL     1     -30.921  25.331 -22.510  1.00  0.00    -0.000 C 
BRANCH   3   4
ATOM      4  C   UNL     1     -30.082  26.604 -22.321  1.00  0.00    -0.003 C 
ATOM      5  C   UNL     1     -30.907  27.883 -22.469  1.00  0.00     0.004 C 
ENDBRANCH   3   4
ENDBRANCH   2   3
ENDBRANCH   1   2
BRANCH   1   6
ATOM      6  C   UNL     1     -29.115  24.355 -19.452  1.00  0.00     0.002 C 
BRANCH   6   7
ATOM      7  C   UNL     1     -28.198  23.255 -18.884  1.00  0.00     0.028 C 
BRANCH   7   8
ATOM      8  C   UNL     1     -28.338  21.902 -19.594  1.00  0.00     0.156 C 
BRANCH   8   9
ATOM      9  O   UNL     1     -29.041  20.984 -18.801  1.00  0.00    -0.396 OA
ATOM     10  H   UNL     1     -28.418  20.693 -18.086  1.00  0.00     0.210 HD
ENDBRANCH   8   9
ENDBRANCH   7   8
ENDBRANCH   6   7
ENDBRANCH   1   6
TORSDOF 7
ENDMDL
MODEL 2
REMARK VINA RESULT:    -3.068     18.535     20.375
REMARK INTER + INTRA:          -4.467
REMARK INTER:                  -4.348
REMARK INTRA:                  -0.119
REMARK UNBOUND:                -0.232
REMARK SMILES CCCCCCCCO
REMARK SMILES IDX 5 1 4 2 3 3 2 4 1 5 6 6 7 7 8 8 9 9
REMARK H PARENT 9 10
REMARK Flexibility Score: inf
ROOT
ATOM      1  C   UNL     1     -15.719   8.137 -20.674  1.00  0.00     0.000 C 
ENDROOT
BRANCH   1   2
ATOM      2  C   UNL     1     -16.238   8.597 -22.044  1.00  0.00    -0.000 C 
BRANCH   2   3
ATOM      3  C   UNL     1     -15.104   8.625 -23.080  1.00  0.00    -0.000 C 
BRANCH   3   4
ATOM      4  C   UNL     1     -15.073   9.933 -23.885  1.00  0.00    -0.003 C 
ATOM      5  C   UNL     1     -14.613   9.728 -25.328  1.00  0.00     0.004 C 
ENDBRANCH   3   4
ENDBRANCH   2   3
ENDBRANCH   1   2
BRANCH   1   6
ATOM      6  C   UNL     1     -16.646   8.541 -19.513  1.00  0.00     0.002 C 
BRANCH   6   7
ATOM      7  C   UNL     1     -16.387   9.945 -18.932  1.00  0.00     0.028 C 
BRANCH   7   8
ATOM      8  C   UNL     1     -17.641  10.626 -18.368  1.00  0.00     0.156 C 
BRANCH   8   9
ATOM      9  O   UNL     1     -18.270   9.817 -17.412  1.00  0.00    -0.396 OA
ATOM     10  H   UNL     1     -18.579  10.422 -16.688  1.00  0.00     0.210 HD
ENDBRANCH   8   9
ENDBRANCH   7   8
ENDBRANCH   6   7
ENDBRANCH   1   6
TORSDOF 7
ENDMDL
MODEL 3
REMARK VINA RESULT:    -3.038     17.139     17.973
REMARK INTER + INTRA:          -4.426
REMARK INTER:                  -3.979
REMARK INTRA:                  -0.446
REMARK UNBOUND:                -0.232
REMARK SMILES CCCCCCCCO
REMARK SMILES IDX 5 1 4 2 3 3 2 4 1 5 6 6 7 7 8 8 9 9
REMARK H PARENT 9 10
REMARK Flexibility Score: inf
ROOT
ATOM      1  C   UNL     1     -26.507  13.709 -32.834  1.00  0.00     0.000 C 
ENDROOT
BRANCH   1   2
ATOM      2  C   UNL     1     -27.081  12.377 -33.338  1.00  0.00    -0.000 C 
BRANCH   2   3
ATOM      3  C   UNL     1     -27.747  12.550 -34.711  1.00  0.00    -0.000 C 
BRANCH   3   4
ATOM      4  C   UNL     1     -27.100  11.674 -35.795  1.00  0.00    -0.003 C 
ATOM      5  C   UNL     1     -25.933  12.366 -36.498  1.00  0.00     0.004 C 
ENDBRANCH   3   4
ENDBRANCH   2   3
ENDBRANCH   1   2
BRANCH   1   6
ATOM      6  C   UNL     1     -24.969  13.752 -32.867  1.00  0.00     0.002 C 
BRANCH   6   7
ATOM      7  C   UNL     1     -24.280  12.374 -32.872  1.00  0.00     0.028 C 
BRANCH   7   8
ATOM      8  C   UNL     1     -23.079  12.276 -31.921  1.00  0.00     0.156 C 
BRANCH   8   9
ATOM      9  O   UNL     1     -23.497  12.131 -30.591  1.00  0.00    -0.396 OA
ATOM     10  H   UNL     1     -23.693  11.166 -30.460  1.00  0.00     0.210 HD
ENDBRANCH   8   9
ENDBRANCH   7   8
ENDBRANCH   6   7
ENDBRANCH   1   6
TORSDOF 7
ENDMDL
MODEL 4
REMARK VINA RESULT:    -3.033      1.128      1.369
REMARK INTER + INTRA:          -4.418
REMARK INTER:                  -3.954
REMARK INTRA:                  -0.463
REMARK UNBOUND:                -0.232
REMARK SMILES CCCCCCCCO
REMARK SMILES IDX 5 1 4 2 3 3 2 4 1 5 6 6 7 7 8 8 9 9
REMARK H PARENT 9 10
REMARK Flexibility Score: inf
ROOT
ATOM      1  C   UNL     1     -29.274  23.346 -22.252  1.00  0.00     0.000 C 
ENDROOT
BRANCH   1   2
ATOM      2  C   UNL     1     -30.510  24.103 -21.744  1.00  0.00    -0.000 C 
BRANCH   2   3
ATOM      3  C   UNL     1     -30.683  25.435 -22.490  1.00  0.00    -0.000 C 
BRANCH   3   4
ATOM      4  C   UNL     1     -29.424  26.312 -22.431  1.00  0.00    -0.003 C 
ATOM      5  C   UNL     1     -29.216  26.959 -21.062  1.00  0.00     0.004 C 
ENDBRANCH   3   4
ENDBRANCH   2   3
ENDBRANCH   1   2
BRANCH   1   6
ATOM      6  C   UNL     1     -28.318  22.929 -21.120  1.00  0.00     0.002 C 
BRANCH   6   7
ATOM      7  C   UNL     1     -28.779  23.319 -19.702  1.00  0.00     0.028 C 
BRANCH   7   8
ATOM      8  C   UNL     1     -28.415  22.287 -18.625  1.00  0.00     0.156 C 
BRANCH   8   9
ATOM      9  O   UNL     1     -28.998  21.042 -18.899  1.00  0.00    -0.396 OA
ATOM     10  H   UNL     1     -29.665  20.878 -18.182  1.00  0.00     0.210 HD
ENDBRANCH   8   9
ENDBRANCH   7   8
ENDBRANCH   6   7
ENDBRANCH   1   6
TORSDOF 7
ENDMDL
MODEL 5
REMARK VINA RESULT:    -3.004      3.699      4.391
REMARK INTER + INTRA:          -4.378
REMARK INTER:                  -3.764
REMARK INTRA:                  -0.615
REMARK UNBOUND:                -0.232
REMARK SMILES CCCCCCCCO
REMARK SMILES IDX 5 1 4 2 3 3 2 4 1 5 6 6 7 7 8 8 9 9
REMARK H PARENT 9 10
REMARK Flexibility Score: inf
ROOT
ATOM      1  C   UNL     1     -29.355  25.650 -21.817  1.00  0.00     0.000 C 
ENDROOT
BRANCH   1   2
ATOM      2  C   UNL     1     -30.628  26.050 -22.575  1.00  0.00    -0.000 C 
BRANCH   2   3
ATOM      3  C   UNL     1     -30.758  27.578 -22.662  1.00  0.00    -0.000 C 
BRANCH   3   4
ATOM      4  C   UNL     1     -30.379  28.125 -24.047  1.00  0.00    -0.003 C 
ATOM      5  C   UNL     1     -30.257  27.027 -25.103  1.00  0.00     0.004 C 
ENDBRANCH   3   4
ENDBRANCH   2   3
ENDBRANCH   1   2
BRANCH   1   6
ATOM      6  C   UNL     1     -28.437  24.720 -22.631  1.00  0.00     0.002 C 
BRANCH   6   7
ATOM      7  C   UNL     1     -27.236  25.414 -23.301  1.00  0.00     0.028 C 
BRANCH   7   8
ATOM      8  C   UNL     1     -26.981  26.840 -22.795  1.00  0.00     0.156 C 
BRANCH   8   9
ATOM      9  O   UNL     1     -26.828  27.736 -23.863  1.00  0.00    -0.396 OA
ATOM     10  H   UNL     1     -26.053  28.314 -23.637  1.00  0.00     0.210 HD
ENDBRANCH   8   9
ENDBRANCH   7   8
ENDBRANCH   6   7
ENDBRANCH   1   6
TORSDOF 7
ENDMDL
MODEL 6
REMARK VINA RESULT:    -2.941      3.096      4.887
REMARK INTER + INTRA:          -4.291
REMARK INTER:                  -3.886
REMARK INTRA:                  -0.404
REMARK UNBOUND:                -0.232
REMARK SMILES CCCCCCCCO
REMARK SMILES IDX 5 1 4 2 3 3 2 4 1 5 6 6 7 7 8 8 9 9
REMARK H PARENT 9 10
REMARK Flexibility Score: inf
ROOT
ATOM      1  C   UNL     1     -30.682  25.554 -22.938  1.00  0.00     0.000 C 
ENDROOT
BRANCH   1   2
ATOM      2  C   UNL     1     -30.679  24.330 -22.011  1.00  0.00    -0.000 C 
BRANCH   2   3
ATOM      3  C   UNL     1     -29.279  24.090 -21.424  1.00  0.00    -0.000 C 
BRANCH   3   4
ATOM      4  C   UNL     1     -29.288  24.020 -19.889  1.00  0.00    -0.003 C 
ATOM      5  C   UNL     1     -28.600  25.219 -19.238  1.00  0.00     0.004 C 
ENDBRANCH   3   4
ENDBRANCH   2   3
ENDBRANCH   1   2
BRANCH   1   6
ATOM      6  C   UNL     1     -30.108  26.816 -22.269  1.00  0.00     0.002 C 
BRANCH   6   7
ATOM      7  C   UNL     1     -29.065  27.580 -23.108  1.00  0.00     0.028 C 
BRANCH   7   8
ATOM      8  C   UNL     1     -27.612  27.208 -22.783  1.00  0.00     0.156 C 
BRANCH   8   9
ATOM      9  O   UNL     1     -26.739  27.651 -23.786  1.00  0.00    -0.396 OA
ATOM     10  H   UNL     1     -26.708  28.641 -23.716  1.00  0.00     0.210 HD
ENDBRANCH   8   9
ENDBRANCH   7   8
ENDBRANCH   6   7
ENDBRANCH   1   6
TORSDOF 7
ENDMDL
MODEL 7
REMARK VINA RESULT:    -2.922      5.144      6.298
REMARK INTER + INTRA:          -4.264
REMARK INTER:                  -3.981
REMARK INTRA:                  -0.283
REMARK UNBOUND:                -0.232
REMARK SMILES CCCCCCCCO
REMARK SMILES IDX 5 1 4 2 3 3 2 4 1 5 6 6 7 7 8 8 9 9
REMARK H PARENT 9 10
REMARK Flexibility Score: inf
ROOT
ATOM      1  C   UNL     1     -27.996  25.013 -24.755  1.00  0.00     0.000 C 
ENDROOT
BRANCH   1   2
ATOM      2  C   UNL     1     -29.308  25.531 -24.148  1.00  0.00    -0.000 C 
BRANCH   2   3
ATOM      3  C   UNL     1     -29.902  26.658 -25.007  1.00  0.00    -0.000 C 
BRANCH   3   4
ATOM      4  C   UNL     1     -30.264  27.901 -24.180  1.00  0.00    -0.003 C 
ATOM      5  C   UNL     1     -30.588  27.570 -22.724  1.00  0.00     0.004 C 
ENDBRANCH   3   4
ENDBRANCH   2   3
ENDBRANCH   1   2
BRANCH   1   6
ATOM      6  C   UNL     1     -27.347  26.014 -25.727  1.00  0.00     0.002 C 
BRANCH   6   7
ATOM      7  C   UNL     1     -27.098  25.472 -27.148  1.00  0.00     0.028 C 
BRANCH   7   8
ATOM      8  C   UNL     1     -25.789  25.965 -27.780  1.00  0.00     0.156 C 
BRANCH   8   9
ATOM      9  O   UNL     1     -24.675  25.489 -27.075  1.00  0.00    -0.396 OA
ATOM     10  H   UNL     1     -23.980  25.279 -27.753  1.00  0.00     0.210 HD
ENDBRANCH   8   9
ENDBRANCH   7   8
ENDBRANCH   6   7
ENDBRANCH   1   6
TORSDOF 7
ENDMDL
MODEL 8
REMARK VINA RESULT:    -2.870      4.712      5.922
REMARK INTER + INTRA:          -4.193
REMARK INTER:                  -3.993
REMARK INTRA:                  -0.200
REMARK UNBOUND:                -0.232
REMARK SMILES CCCCCCCCO
REMARK SMILES IDX 5 1 4 2 3 3 2 4 1 5 6 6 7 7 8 8 9 9
REMARK H PARENT 9 10
REMARK Flexibility Score: inf
ROOT
ATOM      1  C   UNL     1     -28.440  26.556 -24.287  1.00  0.00     0.000 C 
ENDROOT
BRANCH   1   2
ATOM      2  C   UNL     1     -28.717  26.438 -22.781  1.00  0.00    -0.000 C 
BRANCH   2   3
ATOM      3  C   UNL     1     -30.223  26.533 -22.490  1.00  0.00    -0.000 C 
BRANCH   3   4
ATOM      4  C   UNL     1     -30.917  25.163 -22.524  1.00  0.00    -0.003 C 
ATOM      5  C   UNL     1     -30.215  24.122 -21.652  1.00  0.00     0.004 C 
ENDBRANCH   3   4
ENDBRANCH   2   3
ENDBRANCH   1   2
BRANCH   1   6
ATOM      6  C   UNL     1     -27.257  25.688 -24.750  1.00  0.00     0.002 C 
BRANCH   6   7
ATOM      7  C   UNL     1     -26.942  25.766 -26.256  1.00  0.00     0.028 C 
BRANCH   7   8
ATOM      8  C   UNL     1     -25.797  24.847 -26.701  1.00  0.00     0.156 C 
BRANCH   8   9
ATOM      9  O   UNL     1     -24.691  25.589 -27.137  1.00  0.00    -0.396 OA
ATOM     10  H   UNL     1     -24.641  26.391 -26.553  1.00  0.00     0.210 HD
ENDBRANCH   8   9
ENDBRANCH   7   8
ENDBRANCH   6   7
ENDBRANCH   1   6
TORSDOF 7
ENDMDL
MODEL 9
REMARK VINA RESULT:    -2.835     19.193     20.259
REMARK INTER + INTRA:          -4.144
REMARK INTER:                  -3.750
REMARK INTRA:                  -0.394
REMARK UNBOUND:                -0.232
REMARK SMILES CCCCCCCCO
REMARK SMILES IDX 5 1 4 2 3 3 2 4 1 5 6 6 7 7 8 8 9 9
REMARK H PARENT 9 10
REMARK Flexibility Score: inf
ROOT
ATOM      1  C   UNL     1     -15.399   8.642 -18.996  1.00  0.00     0.000 C 
ENDROOT
BRANCH   1   2
ATOM      2  C   UNL     1     -16.050   7.875 -20.156  1.00  0.00    -0.000 C 
BRANCH   2   3
ATOM      3  C   UNL     1     -16.749   8.839 -21.127  1.00  0.00    -0.000 C 
BRANCH   3   4
ATOM      4  C   UNL     1     -16.346   8.597 -22.590  1.00  0.00    -0.003 C 
ATOM      5  C   UNL     1     -15.232   9.533 -23.059  1.00  0.00     0.004 C 
ENDBRANCH   3   4
ENDBRANCH   2   3
ENDBRANCH   1   2
BRANCH   1   6
ATOM      6  C   UNL     1     -15.463  10.170 -19.174  1.00  0.00     0.002 C 
BRANCH   6   7
ATOM      7  C   UNL     1     -16.287  10.915 -18.107  1.00  0.00     0.028 C 
BRANCH   7   8
ATOM      8  C   UNL     1     -16.892   9.998 -17.036  1.00  0.00     0.156 C 
BRANCH   8   9
ATOM      9  O   UNL     1     -18.248   9.748 -17.290  1.00  0.00    -0.396 OA
ATOM     10  H   UNL     1     -18.407   9.991 -18.239  1.00  0.00     0.210 HD
ENDBRANCH   8   9
ENDBRANCH   7   8
ENDBRANCH   6   7
ENDBRANCH   1   6
TORSDOF 7
ENDMDL
