MODEL 1
REMARK VINA RESULT:    -4.605      0.000      0.000
REMARK INTER + INTRA:          -5.417
REMARK INTER:                  -5.278
REMARK INTRA:                  -0.139
REMARK UNBOUND:                -0.139
REMARK SMILES O=C([O-])C=Cc1ccc(O)cc1
REMARK SMILES IDX 6 1 7 2 12 3 8 4 11 5 9 6 5 7 4 8 2 9 1 10 3 11 10 12
REMARK H PARENT 10 13
REMARK Flexibility Score: inf
ROOT
ATOM      1  C   UNL     1      -5.279 -17.131 -22.295  1.00  0.00    -0.025 A 
ATOM      2  C   UNL     1      -6.395 -17.684 -22.946  1.00  0.00     0.012 A 
ATOM      3  C   UNL     1      -5.395 -15.849 -21.717  1.00  0.00     0.012 A 
ATOM      4  C   UNL     1      -7.591 -16.967 -23.041  1.00  0.00     0.047 A 
ATOM      5  C   UNL     1      -6.595 -15.137 -21.814  1.00  0.00     0.047 A 
ATOM      6  C   UNL     1      -7.693 -15.690 -22.477  1.00  0.00     0.115 A 
ENDROOT
BRANCH   1   7
ATOM      7  C   UNL     1      -4.034 -17.934 -22.213  1.00  0.00     0.010 C 
ATOM      8  C   UNL     1      -3.418 -18.238 -21.063  1.00  0.00     0.025 C 
BRANCH   8   9
ATOM      9  C   UNL     1      -2.179 -19.030 -21.031  1.00  0.00     0.064 C 
ATOM     10  O   UNL     1      -1.955 -19.871 -21.940  1.00  0.00    -0.545 OA
ATOM     11  O   UNL     1      -1.246 -18.863 -20.013  1.00  0.00    -0.545 OA
ENDBRANCH   8   9
ENDBRANCH   1   7
BRANCH   6  12
ATOM     12  O   UNL     1      -8.880 -14.967 -22.565  1.00  0.00    -0.508 OA
ATOM     13  H   UNL     1      -9.638 -15.264 -23.167  1.00  0.00     0.293 HD
ENDBRANCH   6  12
TORSDOF 3
ENDMDL
MODEL 2
REMARK VINA RESULT:    -4.096     15.264     15.713
REMARK INTER + INTRA:          -4.833
REMARK INTER:                  -4.699
REMARK INTRA:                  -0.134
REMARK UNBOUND:                -0.139
REMARK SMILES O=C([O-])C=Cc1ccc(O)cc1
REMARK SMILES IDX 6 1 7 2 12 3 8 4 11 5 9 6 5 7 4 8 2 9 1 10 3 11 10 12
REMARK H PARENT 10 13
REMARK Flexibility Score: inf
ROOT
ATOM      1  C   UNL     1      10.339 -15.981 -19.598  1.00  0.00    -0.025 A 
ATOM      2  C   UNL     1       9.819 -14.677 -19.533  1.00  0.00     0.012 A 
ATOM      3  C   UNL     1      10.725 -16.497 -20.852  1.00  0.00     0.012 A 
ATOM      4  C   UNL     1       9.663 -13.915 -20.694  1.00  0.00     0.047 A 
ATOM      5  C   UNL     1      10.568 -15.730 -22.011  1.00  0.00     0.047 A 
ATOM      6  C   UNL     1      10.035 -14.441 -21.937  1.00  0.00     0.115 A 
ENDROOT
BRANCH   1   7
ATOM      7  C   UNL     1      10.494 -16.747 -18.337  1.00  0.00     0.010 C 
ATOM      8  C   UNL     1       9.535 -17.521 -17.811  1.00  0.00     0.025 C 
BRANCH   8   9
ATOM      9  C   UNL     1       9.730 -18.254 -16.552  1.00  0.00     0.064 C 
ATOM     10  O   UNL     1       8.807 -18.274 -15.695  1.00  0.00    -0.545 OA
ATOM     11  O   UNL     1      10.916 -18.931 -16.291  1.00  0.00    -0.545 OA
ENDBRANCH   8   9
ENDBRANCH   1   7
BRANCH   6  12
ATOM     12  O   UNL     1       9.884 -13.691 -23.101  1.00  0.00    -0.508 OA
ATOM     13  H   UNL     1      10.651 -13.151 -23.486  1.00  0.00     0.293 HD
ENDBRANCH   6  12
TORSDOF 3
ENDMDL
MODEL 3
REMARK VINA RESULT:    -3.921     12.421     13.261
REMARK INTER + INTRA:          -4.633
REMARK INTER:                  -4.491
REMARK INTRA:                  -0.142
REMARK UNBOUND:                -0.139
REMARK SMILES O=C([O-])C=Cc1ccc(O)cc1
REMARK SMILES IDX 6 1 7 2 12 3 8 4 11 5 9 6 5 7 4 8 2 9 1 10 3 11 10 12
REMARK H PARENT 10 13
REMARK Flexibility Score: inf
ROOT
ATOM      1  C   UNL     1      -6.151 -18.713  -9.329  1.00  0.00    -0.025 A 
ATOM      2  C   UNL     1      -7.470 -18.231  -9.393  1.00  0.00     0.012 A 
ATOM      3  C   UNL     1      -5.669 -19.516 -10.383  1.00  0.00     0.012 A 
ATOM      4  C   UNL     1      -8.297 -18.563 -10.469  1.00  0.00     0.047 A 
ATOM      5  C   UNL     1      -6.500 -19.844 -11.459  1.00  0.00     0.047 A 
ATOM      6  C   UNL     1      -7.814 -19.373 -11.504  1.00  0.00     0.115 A 
ENDROOT
BRANCH   1   7
ATOM      7  C   UNL     1      -5.309 -18.326  -8.170  1.00  0.00     0.010 C 
ATOM      8  C   UNL     1      -5.051 -17.057  -7.826  1.00  0.00     0.025 C 
BRANCH   8   9
ATOM      9  C   UNL     1      -4.201 -16.720  -6.674  1.00  0.00     0.064 C 
ATOM     10  O   UNL     1      -4.049 -15.514  -6.346  1.00  0.00    -0.545 OA
ATOM     11  O   UNL     1      -3.564 -17.713  -5.938  1.00  0.00    -0.545 OA
ENDBRANCH   8   9
ENDBRANCH   1   7
BRANCH   6  12
ATOM     12  O   UNL     1      -8.629 -19.710 -12.582  1.00  0.00    -0.508 OA
ATOM     13  H   UNL     1      -9.177 -19.011 -13.071  1.00  0.00     0.293 HD
ENDBRANCH   6  12
TORSDOF 3
ENDMDL
MODEL 4
REMARK VINA RESULT:    -3.874     13.895     15.037
REMARK INTER + INTRA:          -4.580
REMARK INTER:                  -4.442
REMARK INTRA:                  -0.138
REMARK UNBOUND:                -0.139
REMARK SMILES O=C([O-])C=Cc1ccc(O)cc1
REMARK SMILES IDX 6 1 7 2 12 3 8 4 11 5 9 6 5 7 4 8 2 9 1 10 3 11 10 12
REMARK H PARENT 10 13
REMARK Flexibility Score: inf
ROOT
ATOM      1  C   UNL     1      -4.787 -17.461  -7.826  1.00  0.00    -0.025 A 
ATOM      2  C   UNL     1      -3.911 -18.383  -8.424  1.00  0.00     0.012 A 
ATOM      3  C   UNL     1      -6.138 -17.445  -8.231  1.00  0.00     0.012 A 
ATOM      4  C   UNL     1      -4.364 -19.252  -9.421  1.00  0.00     0.047 A 
ATOM      5  C   UNL     1      -6.587 -18.318  -9.227  1.00  0.00     0.047 A 
ATOM      6  C   UNL     1      -5.704 -19.220  -9.826  1.00  0.00     0.115 A 
ENDROOT
BRANCH   1   7
ATOM      7  C   UNL     1      -4.260 -16.565  -6.767  1.00  0.00     0.010 C 
ATOM      8  C   UNL     1      -4.047 -16.951  -5.502  1.00  0.00     0.025 C 
BRANCH   8   9
ATOM      9  C   UNL     1      -3.533 -16.025  -4.482  1.00  0.00     0.064 C 
ATOM     10  O   UNL     1      -4.023 -14.869  -4.389  1.00  0.00    -0.545 OA
ATOM     11  O   UNL     1      -2.514 -16.405  -3.614  1.00  0.00    -0.545 OA
ENDBRANCH   8   9
ENDBRANCH   1   7
BRANCH   6  12
ATOM     12  O   UNL     1      -6.167 -20.081 -10.818  1.00  0.00    -0.508 OA
ATOM     13  H   UNL     1      -5.758 -20.998 -10.956  1.00  0.00     0.293 HD
ENDBRANCH   6  12
TORSDOF 3
ENDMDL
MODEL 5
REMARK VINA RESULT:    -3.864     14.900     16.174
REMARK INTER + INTRA:          -4.567
REMARK INTER:                  -4.428
REMARK INTRA:                  -0.139
REMARK UNBOUND:                -0.139
REMARK SMILES O=C([O-])C=Cc1ccc(O)cc1
REMARK SMILES IDX 6 1 7 2 12 3 8 4 11 5 9 6 5 7 4 8 2 9 1 10 3 11 10 12
REMARK H PARENT 10 13
REMARK Flexibility Score: inf
ROOT
ATOM      1  C   UNL     1      -3.853 -17.246  -5.896  1.00  0.00    -0.025 A 
ATOM      2  C   UNL     1      -3.129 -17.542  -4.728  1.00  0.00     0.012 A 
ATOM      3  C   UNL     1      -4.404 -15.956  -6.045  1.00  0.00     0.012 A 
ATOM      4  C   UNL     1      -2.979 -16.584  -3.722  1.00  0.00     0.047 A 
ATOM      5  C   UNL     1      -4.250 -15.001  -5.035  1.00  0.00     0.047 A 
ATOM      6  C   UNL     1      -3.542 -15.311  -3.872  1.00  0.00     0.115 A 
ENDROOT
BRANCH   1   7
ATOM      7  C   UNL     1      -3.977 -18.293  -6.939  1.00  0.00     0.010 C 
ATOM      8  C   UNL     1      -4.019 -18.035  -8.254  1.00  0.00     0.025 C 
BRANCH   8   9
ATOM      9  C   UNL     1      -4.153 -19.106  -9.253  1.00  0.00     0.064 C 
ATOM     10  O   UNL     1      -3.131 -19.740  -9.625  1.00  0.00    -0.545 OA
ATOM     11  O   UNL     1      -5.393 -19.435  -9.792  1.00  0.00    -0.545 OA
ENDBRANCH   8   9
ENDBRANCH   1   7
BRANCH   6  12
ATOM     12  O   UNL     1      -3.399 -14.348  -2.876  1.00  0.00    -0.508 OA
ATOM     13  H   UNL     1      -4.051 -14.285  -2.103  1.00  0.00     0.293 HD
ENDBRANCH   6  12
TORSDOF 3
ENDMDL
MODEL 6
REMARK VINA RESULT:    -3.859     14.821     15.768
REMARK INTER + INTRA:          -4.561
REMARK INTER:                  -4.407
REMARK INTRA:                  -0.154
REMARK UNBOUND:                -0.139
REMARK SMILES O=C([O-])C=Cc1ccc(O)cc1
REMARK SMILES IDX 6 1 7 2 12 3 8 4 11 5 9 6 5 7 4 8 2 9 1 10 3 11 10 12
REMARK H PARENT 10 13
REMARK Flexibility Score: inf
ROOT
ATOM      1  C   UNL     1      -4.825 -16.659  -6.299  1.00  0.00    -0.025 A 
ATOM      2  C   UNL     1      -6.203 -16.622  -6.028  1.00  0.00     0.012 A 
ATOM      3  C   UNL     1      -3.943 -15.978  -5.435  1.00  0.00     0.012 A 
ATOM      4  C   UNL     1      -6.694 -15.902  -4.935  1.00  0.00     0.047 A 
ATOM      5  C   UNL     1      -4.439 -15.259  -4.342  1.00  0.00     0.047 A 
ATOM      6  C   UNL     1      -5.813 -15.216  -4.091  1.00  0.00     0.115 A 
ENDROOT
BRANCH   1   7
ATOM      7  C   UNL     1      -4.352 -17.444  -7.466  1.00  0.00     0.010 C 
ATOM      8  C   UNL     1      -5.135 -18.263  -8.181  1.00  0.00     0.025 C 
BRANCH   8   9
ATOM      9  C   UNL     1      -4.620 -19.031  -9.325  1.00  0.00     0.064 C 
ATOM     10  O   UNL     1      -3.382 -19.239  -9.425  1.00  0.00    -0.545 OA
ATOM     11  O   UNL     1      -5.477 -19.534 -10.297  1.00  0.00    -0.545 OA
ENDBRANCH   8   9
ENDBRANCH   1   7
BRANCH   6  12
ATOM     12  O   UNL     1      -6.290 -14.496  -2.999  1.00  0.00    -0.508 OA
ATOM     13  H   UNL     1      -6.462 -14.941  -2.105  1.00  0.00     0.293 HD
ENDBRANCH   6  12
TORSDOF 3
ENDMDL
MODEL 7
REMARK VINA RESULT:    -3.855     21.233     22.077
REMARK INTER + INTRA:          -4.557
REMARK INTER:                  -4.419
REMARK INTRA:                  -0.138
REMARK UNBOUND:                -0.139
REMARK SMILES O=C([O-])C=Cc1ccc(O)cc1
REMARK SMILES IDX 6 1 7 2 12 3 8 4 11 5 9 6 5 7 4 8 2 9 1 10 3 11 10 12
REMARK H PARENT 10 13
REMARK Flexibility Score: inf
ROOT
ATOM      1  C   UNL     1      -5.697  -2.840  -5.813  1.00  0.00    -0.025 A 
ATOM      2  C   UNL     1      -5.421  -3.853  -4.879  1.00  0.00     0.012 A 
ATOM      3  C   UNL     1      -6.938  -2.174  -5.747  1.00  0.00     0.012 A 
ATOM      4  C   UNL     1      -6.370  -4.212  -3.918  1.00  0.00     0.047 A 
ATOM      5  C   UNL     1      -7.884  -2.536  -4.783  1.00  0.00     0.047 A 
ATOM      6  C   UNL     1      -7.606  -3.556  -3.870  1.00  0.00     0.115 A 
ENDROOT
BRANCH   1   7
ATOM      7  C   UNL     1      -4.653  -2.488  -6.808  1.00  0.00     0.010 C 
ATOM      8  C   UNL     1      -3.467  -1.954  -6.487  1.00  0.00     0.025 C 
BRANCH   8   9
ATOM      9  C   UNL     1      -2.466  -1.612  -7.509  1.00  0.00     0.064 C 
ATOM     10  O   UNL     1      -1.578  -2.451  -7.814  1.00  0.00    -0.545 OA
ATOM     11  O   UNL     1      -2.486  -0.378  -8.149  1.00  0.00    -0.545 OA
ENDBRANCH   8   9
ENDBRANCH   1   7
BRANCH   6  12
ATOM     12  O   UNL     1      -8.560  -3.904  -2.916  1.00  0.00    -0.508 OA
ATOM     13  H   UNL     1      -9.164  -3.209  -2.492  1.00  0.00     0.293 HD
ENDBRANCH   6  12
TORSDOF 3
ENDMDL
MODEL 8
REMARK VINA RESULT:    -3.780     14.673     15.718
REMARK INTER + INTRA:          -4.472
REMARK INTER:                  -4.330
REMARK INTRA:                  -0.142
REMARK UNBOUND:                -0.139
REMARK SMILES O=C([O-])C=Cc1ccc(O)cc1
REMARK SMILES IDX 6 1 7 2 12 3 8 4 11 5 9 6 5 7 4 8 2 9 1 10 3 11 10 12
REMARK H PARENT 10 13
REMARK Flexibility Score: inf
ROOT
ATOM      1  C   UNL     1      -5.485 -16.580  -6.706  1.00  0.00    -0.025 A 
ATOM      2  C   UNL     1      -4.216 -16.130  -6.303  1.00  0.00     0.012 A 
ATOM      3  C   UNL     1      -6.583 -16.381  -5.843  1.00  0.00     0.012 A 
ATOM      4  C   UNL     1      -4.040 -15.518  -5.059  1.00  0.00     0.047 A 
ATOM      5  C   UNL     1      -6.402 -15.766  -4.600  1.00  0.00     0.047 A 
ATOM      6  C   UNL     1      -5.133 -15.337  -4.203  1.00  0.00     0.115 A 
ENDROOT
BRANCH   1   7
ATOM      7  C   UNL     1      -5.622 -17.216  -8.040  1.00  0.00     0.010 C 
ATOM      8  C   UNL     1      -6.736 -17.829  -8.462  1.00  0.00     0.025 C 
BRANCH   8   9
ATOM      9  C   UNL     1      -6.823 -18.455  -9.790  1.00  0.00     0.064 C 
ATOM     10  O   UNL     1      -6.240 -19.552 -10.000  1.00  0.00    -0.545 OA
ATOM     11  O   UNL     1      -7.542 -17.859 -10.820  1.00  0.00    -0.545 OA
ENDBRANCH   8   9
ENDBRANCH   1   7
BRANCH   6  12
ATOM     12  O   UNL     1      -4.970 -14.728  -2.961  1.00  0.00    -0.508 OA
ATOM     13  H   UNL     1      -5.733 -14.669  -2.296  1.00  0.00     0.293 HD
ENDBRANCH   6  12
TORSDOF 3
ENDMDL
MODEL 9
REMARK VINA RESULT:    -3.759     20.136     21.895
REMARK INTER + INTRA:          -4.447
REMARK INTER:                  -4.307
REMARK INTRA:                  -0.141
REMARK UNBOUND:                -0.139
REMARK SMILES O=C([O-])C=Cc1ccc(O)cc1
REMARK SMILES IDX 6 1 7 2 12 3 8 4 11 5 9 6 5 7 4 8 2 9 1 10 3 11 10 12
REMARK H PARENT 10 13
REMARK Flexibility Score: inf
ROOT
ATOM      1  C   UNL     1      -5.655  -2.753  -6.598  1.00  0.00    -0.025 A 
ATOM      2  C   UNL     1      -4.424  -2.095  -6.760  1.00  0.00     0.012 A 
ATOM      3  C   UNL     1      -5.983  -3.280  -5.331  1.00  0.00     0.012 A 
ATOM      4  C   UNL     1      -3.528  -1.987  -5.692  1.00  0.00     0.047 A 
ATOM      5  C   UNL     1      -5.084  -3.168  -4.265  1.00  0.00     0.047 A 
ATOM      6  C   UNL     1      -3.856  -2.526  -4.442  1.00  0.00     0.115 A 
ENDROOT
BRANCH   1   7
ATOM      7  C   UNL     1      -6.575  -2.834  -7.759  1.00  0.00     0.010 C 
ATOM      8  C   UNL     1      -7.094  -1.764  -8.375  1.00  0.00     0.025 C 
BRANCH   8   9
ATOM      9  C   UNL     1      -8.011  -1.893  -9.518  1.00  0.00     0.064 C 
ATOM     10  O   UNL     1      -9.044  -2.605  -9.408  1.00  0.00    -0.545 OA
ATOM     11  O   UNL     1      -7.759  -1.239 -10.719  1.00  0.00    -0.545 OA
ENDBRANCH   8   9
ENDBRANCH   1   7
BRANCH   6  12
ATOM     12  O   UNL     1      -2.972  -2.424  -3.370  1.00  0.00    -0.508 OA
ATOM     13  H   UNL     1      -3.304  -2.358  -2.415  1.00  0.00     0.293 HD
ENDBRANCH   6  12
TORSDOF 3
ENDMDL
