MODEL 1
REMARK VINA RESULT:    -3.793      0.000      0.000
REMARK INTER + INTRA:          -6.887
REMARK INTER:                  -5.789
REMARK INTRA:                  -1.099
REMARK UNBOUND:                -1.099
REMARK SMILES CCCCCCCCCC=CC(=O)[O-]
REMARK SMILES IDX 7 1 8 2 9 3 10 4 11 5 12 6 13 7 14 8 6 9 5 10 4 11 3 12 2 13
REMARK SMILES IDX 1 14
REMARK H PARENT
REMARK Flexibility Score: inf
ROOT
ATOM      1  C   UNL     1      16.925  12.960  31.207  1.00  0.00     0.000 C 
ENDROOT
BRANCH   1   2
ATOM      2  C   UNL     1      15.478  12.709  31.646  1.00  0.00     0.004 C 
BRANCH   2   3
ATOM      3  C   UNL     1      14.521  12.781  30.449  1.00  0.00     0.027 C 
BRANCH   3   4
ATOM      4  C   UNL     1      13.359  13.689  30.737  1.00  0.00    -0.025 C 
ATOM      5  C   UNL     1      12.452  13.983  29.798  1.00  0.00     0.020 C 
BRANCH   5   6
ATOM      6  C   UNL     1      11.314  14.880  30.054  1.00  0.00     0.064 C 
ATOM      7  O   UNL     1      10.699  15.437  29.106  1.00  0.00    -0.545 OA
ATOM      8  O   UNL     1      10.912  15.115  31.361  1.00  0.00    -0.545 OA
ENDBRANCH   5   6
ENDBRANCH   3   4
ENDBRANCH   2   3
ENDBRANCH   1   2
BRANCH   1   9
ATOM      9  C   UNL     1      17.317  14.430  31.417  1.00  0.00     0.000 C 
BRANCH   9  10
ATOM     10  C   UNL     1      17.476  15.194  30.093  1.00  0.00     0.000 C 
BRANCH  10  11
ATOM     11  C   UNL     1      16.200  15.954  29.692  1.00  0.00    -0.000 C 
BRANCH  11  12
ATOM     12  C   UNL     1      15.633  15.495  28.336  1.00  0.00    -0.000 C 
BRANCH  12  13
ATOM     13  C   UNL     1      16.694  15.080  27.301  1.00  0.00    -0.003 C 
ATOM     14  C   UNL     1      16.652  15.928  26.030  1.00  0.00     0.004 C 
ENDBRANCH  12  13
ENDBRANCH  11  12
ENDBRANCH  10  11
ENDBRANCH   9  10
ENDBRANCH   1   9
TORSDOF 9
ENDMDL
MODEL 2
REMARK VINA RESULT:    -3.686      3.333      4.763
REMARK INTER + INTRA:          -6.724
REMARK INTER:                  -5.500
REMARK INTRA:                  -1.225
REMARK UNBOUND:                -1.099
REMARK SMILES CCCCCCCCCC=CC(=O)[O-]
REMARK SMILES IDX 7 1 8 2 9 3 10 4 11 5 12 6 13 7 14 8 6 9 5 10 4 11 3 12 2 13
REMARK SMILES IDX 1 14
REMARK H PARENT
REMARK Flexibility Score: inf
ROOT
ATOM      1  C   UNL     1      16.710  13.414  31.498  1.00  0.00     0.000 C 
ENDROOT
BRANCH   1   2
ATOM      2  C   UNL     1      15.774  14.158  30.539  1.00  0.00     0.004 C 
BRANCH   2   3
ATOM      3  C   UNL     1      16.422  15.453  30.033  1.00  0.00     0.027 C 
BRANCH   3   4
ATOM      4  C   UNL     1      16.800  15.342  28.583  1.00  0.00    -0.025 C 
ATOM      5  C   UNL     1      15.947  15.683  27.610  1.00  0.00     0.020 C 
BRANCH   5   6
ATOM      6  C   UNL     1      16.291  15.568  26.184  1.00  0.00     0.064 C 
ATOM      7  O   UNL     1      16.017  16.493  25.373  1.00  0.00    -0.545 OA
ATOM      8  O   UNL     1      16.928  14.424  25.726  1.00  0.00    -0.545 OA
ENDBRANCH   5   6
ENDBRANCH   3   4
ENDBRANCH   2   3
ENDBRANCH   1   2
BRANCH   1   9
ATOM      9  C   UNL     1      17.841  14.331  31.985  1.00  0.00     0.000 C 
BRANCH   9  10
ATOM     10  C   UNL     1      19.015  13.548  32.595  1.00  0.00     0.000 C 
BRANCH  10  11
ATOM     11  C   UNL     1      20.344  13.811  31.865  1.00  0.00    -0.000 C 
BRANCH  11  12
ATOM     12  C   UNL     1      20.143  14.307  30.420  1.00  0.00    -0.000 C 
BRANCH  12  13
ATOM     13  C   UNL     1      20.417  13.252  29.334  1.00  0.00    -0.003 C 
ATOM     14  C   UNL     1      19.155  12.518  28.883  1.00  0.00     0.004 C 
ENDBRANCH  12  13
ENDBRANCH  11  12
ENDBRANCH  10  11
ENDBRANCH   9  10
ENDBRANCH   1   9
TORSDOF 9
ENDMDL
MODEL 3
REMARK VINA RESULT:    -3.654      3.522      5.109
REMARK INTER + INTRA:          -6.675
REMARK INTER:                  -5.058
REMARK INTRA:                  -1.617
REMARK UNBOUND:                -1.099
REMARK SMILES CCCCCCCCCC=CC(=O)[O-]
REMARK SMILES IDX 7 1 8 2 9 3 10 4 11 5 12 6 13 7 14 8 6 9 5 10 4 11 3 12 2 13
REMARK SMILES IDX 1 14
REMARK H PARENT
REMARK Flexibility Score: inf
ROOT
ATOM      1  C   UNL     1      15.143  14.676  27.836  1.00  0.00     0.000 C 
ENDROOT
BRANCH   1   2
ATOM      2  C   UNL     1      15.178  14.891  29.354  1.00  0.00     0.004 C 
BRANCH   2   3
ATOM      3  C   UNL     1      16.255  15.913  29.740  1.00  0.00     0.027 C 
BRANCH   3   4
ATOM      4  C   UNL     1      17.233  15.330  30.718  1.00  0.00    -0.025 C 
ATOM      5  C   UNL     1      16.995  14.167  31.337  1.00  0.00     0.020 C 
BRANCH   5   6
ATOM      6  C   UNL     1      17.933  13.584  32.309  1.00  0.00     0.064 C 
ATOM      7  O   UNL     1      18.987  14.190  32.640  1.00  0.00    -0.545 OA
ATOM      8  O   UNL     1      17.651  12.346  32.870  1.00  0.00    -0.545 OA
ENDBRANCH   5   6
ENDBRANCH   3   4
ENDBRANCH   2   3
ENDBRANCH   1   2
BRANCH   1   9
ATOM      9  C   UNL     1      15.978  15.741  27.111  1.00  0.00     0.000 C 
BRANCH   9  10
ATOM     10  C   UNL     1      17.029  15.129  26.171  1.00  0.00     0.000 C 
BRANCH  10  11
ATOM     11  C   UNL     1      18.465  15.312  26.693  1.00  0.00    -0.000 C 
BRANCH  11  12
ATOM     12  C   UNL     1      18.921  14.157  27.604  1.00  0.00    -0.000 C 
BRANCH  12  13
ATOM     13  C   UNL     1      18.305  12.789  27.266  1.00  0.00    -0.003 C 
ATOM     14  C   UNL     1      17.722  12.078  28.487  1.00  0.00     0.004 C 
ENDBRANCH  12  13
ENDBRANCH  11  12
ENDBRANCH  10  11
ENDBRANCH   9  10
ENDBRANCH   1   9
TORSDOF 9
ENDMDL
MODEL 4
REMARK VINA RESULT:    -3.614      0.833      1.289
REMARK INTER + INTRA:          -6.613
REMARK INTER:                  -5.575
REMARK INTRA:                  -1.039
REMARK UNBOUND:                -1.099
REMARK SMILES CCCCCCCCCC=CC(=O)[O-]
REMARK SMILES IDX 7 1 8 2 9 3 10 4 11 5 12 6 13 7 14 8 6 9 5 10 4 11 3 12 2 13
REMARK SMILES IDX 1 14
REMARK H PARENT
REMARK Flexibility Score: inf
ROOT
ATOM      1  C   UNL     1      17.002  13.874  31.632  1.00  0.00     0.000 C 
ENDROOT
BRANCH   1   2
ATOM      2  C   UNL     1      16.533  12.416  31.553  1.00  0.00     0.004 C 
BRANCH   2   3
ATOM      3  C   UNL     1      15.025  12.309  31.810  1.00  0.00     0.027 C 
BRANCH   3   4
ATOM      4  C   UNL     1      14.253  13.226  30.904  1.00  0.00    -0.025 C 
ATOM      5  C   UNL     1      12.972  13.529  31.143  1.00  0.00     0.020 C 
BRANCH   5   6
ATOM      6  C   UNL     1      12.193  14.413  30.262  1.00  0.00     0.064 C 
ATOM      7  O   UNL     1      11.351  15.224  30.733  1.00  0.00    -0.545 OA
ATOM      8  O   UNL     1      12.389  14.352  28.889  1.00  0.00    -0.545 OA
ENDBRANCH   5   6
ENDBRANCH   3   4
ENDBRANCH   2   3
ENDBRANCH   1   2
BRANCH   1   9
ATOM      9  C   UNL     1      18.222  14.109  30.730  1.00  0.00     0.000 C 
BRANCH   9  10
ATOM     10  C   UNL     1      17.986  15.223  29.697  1.00  0.00     0.000 C 
BRANCH  10  11
ATOM     11  C   UNL     1      16.607  15.888  29.848  1.00  0.00    -0.000 C 
BRANCH  11  12
ATOM     12  C   UNL     1      15.689  15.641  28.637  1.00  0.00    -0.000 C 
BRANCH  12  13
ATOM     13  C   UNL     1      16.400  15.074  27.396  1.00  0.00    -0.003 C 
ATOM     14  C   UNL     1      16.357  16.020  26.197  1.00  0.00     0.004 C 
ENDBRANCH  12  13
ENDBRANCH  11  12
ENDBRANCH  10  11
ENDBRANCH   9  10
ENDBRANCH   1   9
TORSDOF 9
ENDMDL
MODEL 5
REMARK VINA RESULT:    -3.605      2.482      4.884
REMARK INTER + INTRA:          -6.600
REMARK INTER:                  -5.687
REMARK INTRA:                  -0.913
REMARK UNBOUND:                -1.099
REMARK SMILES CCCCCCCCCC=CC(=O)[O-]
REMARK SMILES IDX 7 1 8 2 9 3 10 4 11 5 12 6 13 7 14 8 6 9 5 10 4 11 3 12 2 13
REMARK SMILES IDX 1 14
REMARK H PARENT
REMARK Flexibility Score: inf
ROOT
ATOM      1  C   UNL     1      16.923  13.104  30.919  1.00  0.00     0.000 C 
ENDROOT
BRANCH   1   2
ATOM      2  C   UNL     1      17.481  14.460  31.366  1.00  0.00     0.004 C 
BRANCH   2   3
ATOM      3  C   UNL     1      16.840  15.606  30.574  1.00  0.00     0.027 C 
BRANCH   3   4
ATOM      4  C   UNL     1      16.885  15.337  29.096  1.00  0.00    -0.025 C 
ATOM      5  C   UNL     1      15.862  15.658  28.296  1.00  0.00     0.020 C 
BRANCH   5   6
ATOM      6  C   UNL     1      15.879  15.391  26.849  1.00  0.00     0.064 C 
ATOM      7  O   UNL     1      16.143  16.305  26.022  1.00  0.00    -0.545 OA
ATOM      8  O   UNL     1      15.600  14.112  26.388  1.00  0.00    -0.545 OA
ENDBRANCH   5   6
ENDBRANCH   3   4
ENDBRANCH   2   3
ENDBRANCH   1   2
BRANCH   1   9
ATOM      9  C   UNL     1      15.594  12.797  31.623  1.00  0.00     0.000 C 
BRANCH   9  10
ATOM     10  C   UNL     1      14.412  12.711  30.644  1.00  0.00     0.000 C 
BRANCH  10  11
ATOM     11  C   UNL     1      13.195  13.527  31.112  1.00  0.00    -0.000 C 
BRANCH  11  12
ATOM     12  C   UNL     1      12.496  14.271  29.960  1.00  0.00    -0.000 C 
BRANCH  12  13
ATOM     13  C   UNL     1      11.333  15.181  30.393  1.00  0.00    -0.003 C 
ATOM     14  C   UNL     1      10.714  14.766  31.727  1.00  0.00     0.004 C 
ENDBRANCH  12  13
ENDBRANCH  11  12
ENDBRANCH  10  11
ENDBRANCH   9  10
ENDBRANCH   1   9
TORSDOF 9
ENDMDL
MODEL 6
REMARK VINA RESULT:    -3.525      1.553      3.340
REMARK INTER + INTRA:          -6.478
REMARK INTER:                  -5.211
REMARK INTRA:                  -1.267
REMARK UNBOUND:                -1.099
REMARK SMILES CCCCCCCCCC=CC(=O)[O-]
REMARK SMILES IDX 7 1 8 2 9 3 10 4 11 5 12 6 13 7 14 8 6 9 5 10 4 11 3 12 2 13
REMARK SMILES IDX 1 14
REMARK H PARENT
REMARK Flexibility Score: inf
ROOT
ATOM      1  C   UNL     1      15.805  13.215  27.464  1.00  0.00     0.000 C 
ENDROOT
BRANCH   1   2
ATOM      2  C   UNL     1      14.740  13.484  26.394  1.00  0.00     0.004 C 
BRANCH   2   3
ATOM      3  C   UNL     1      13.345  13.095  26.897  1.00  0.00     0.027 C 
BRANCH   3   4
ATOM      4  C   UNL     1      13.206  13.356  28.370  1.00  0.00    -0.025 C 
ATOM      5  C   UNL     1      12.261  14.173  28.849  1.00  0.00     0.020 C 
BRANCH   5   6
ATOM      6  C   UNL     1      12.116  14.454  30.286  1.00  0.00     0.064 C 
ATOM      7  O   UNL     1      12.837  13.872  31.139  1.00  0.00    -0.545 OA
ATOM      8  O   UNL     1      11.168  15.377  30.709  1.00  0.00    -0.545 OA
ENDBRANCH   5   6
ENDBRANCH   3   4
ENDBRANCH   2   3
ENDBRANCH   1   2
BRANCH   1   9
ATOM      9  C   UNL     1      16.757  14.410  27.606  1.00  0.00     0.000 C 
BRANCH   9  10
ATOM     10  C   UNL     1      16.046  15.676  28.110  1.00  0.00     0.000 C 
BRANCH  10  11
ATOM     11  C   UNL     1      15.896  15.700  29.641  1.00  0.00    -0.000 C 
BRANCH  11  12
ATOM     12  C   UNL     1      17.244  15.569  30.374  1.00  0.00    -0.000 C 
BRANCH  12  13
ATOM     13  C   UNL     1      17.318  14.412  31.385  1.00  0.00    -0.003 C 
ATOM     14  C   UNL     1      16.226  13.363  31.174  1.00  0.00     0.004 C 
ENDBRANCH  12  13
ENDBRANCH  11  12
ENDBRANCH  10  11
ENDBRANCH   9  10
ENDBRANCH   1   9
TORSDOF 9
ENDMDL
MODEL 7
REMARK VINA RESULT:    -3.488      3.401      5.086
REMARK INTER + INTRA:          -6.421
REMARK INTER:                  -5.752
REMARK INTRA:                  -0.669
REMARK UNBOUND:                -1.099
REMARK SMILES CCCCCCCCCC=CC(=O)[O-]
REMARK SMILES IDX 7 1 8 2 9 3 10 4 11 5 12 6 13 7 14 8 6 9 5 10 4 11 3 12 2 13
REMARK SMILES IDX 1 14
REMARK H PARENT
REMARK Flexibility Score: inf
ROOT
ATOM      1  C   UNL     1      15.875  15.624  27.794  1.00  0.00     0.000 C 
ENDROOT
BRANCH   1   2
ATOM      2  C   UNL     1      15.705  15.255  29.273  1.00  0.00     0.004 C 
BRANCH   2   3
ATOM      3  C   UNL     1      16.819  15.877  30.125  1.00  0.00     0.027 C 
BRANCH   3   4
ATOM      4  C   UNL     1      17.374  14.882  31.104  1.00  0.00    -0.025 C 
ATOM      5  C   UNL     1      16.739  13.735  31.371  1.00  0.00     0.020 C 
BRANCH   5   6
ATOM      6  C   UNL     1      17.258  12.752  32.336  1.00  0.00     0.064 C 
ATOM      7  O   UNL     1      18.369  12.923  32.905  1.00  0.00    -0.545 OA
ATOM      8  O   UNL     1      16.509  11.619  32.624  1.00  0.00    -0.545 OA
ENDBRANCH   5   6
ENDBRANCH   3   4
ENDBRANCH   2   3
ENDBRANCH   1   2
BRANCH   1   9
ATOM      9  C   UNL     1      17.217  15.114  27.251  1.00  0.00     0.000 C 
BRANCH   9  10
ATOM     10  C   UNL     1      17.594  15.760  25.908  1.00  0.00     0.000 C 
BRANCH  10  11
ATOM     11  C   UNL     1      16.378  16.352  25.174  1.00  0.00    -0.000 C 
BRANCH  11  12
ATOM     12  C   UNL     1      15.910  15.481  23.994  1.00  0.00    -0.000 C 
BRANCH  12  13
ATOM     13  C   UNL     1      14.807  14.466  24.340  1.00  0.00    -0.003 C 
ATOM     14  C   UNL     1      14.372  13.624  23.141  1.00  0.00     0.004 C 
ENDBRANCH  12  13
ENDBRANCH  11  12
ENDBRANCH  10  11
ENDBRANCH   9  10
ENDBRANCH   1   9
TORSDOF 9
ENDMDL
MODEL 8
REMARK VINA RESULT:    -3.485      3.903      5.486
REMARK INTER + INTRA:          -6.417
REMARK INTER:                  -5.462
REMARK INTRA:                  -0.955
REMARK UNBOUND:                -1.099
REMARK SMILES CCCCCCCCCC=CC(=O)[O-]
REMARK SMILES IDX 7 1 8 2 9 3 10 4 11 5 12 6 13 7 14 8 6 9 5 10 4 11 3 12 2 13
REMARK SMILES IDX 1 14
REMARK H PARENT
REMARK Flexibility Score: inf
ROOT
ATOM      1  C   UNL     1      17.194  14.846  27.579  1.00  0.00     0.000 C 
ENDROOT
BRANCH   1   2
ATOM      2  C   UNL     1      15.933  15.520  28.134  1.00  0.00     0.004 C 
BRANCH   2   3
ATOM      3  C   UNL     1      16.141  15.963  29.587  1.00  0.00     0.027 C 
BRANCH   3   4
ATOM      4  C   UNL     1      17.329  15.277  30.200  1.00  0.00    -0.025 C 
ATOM      5  C   UNL     1      17.206  14.496  31.279  1.00  0.00     0.020 C 
BRANCH   5   6
ATOM      6  C   UNL     1      18.357  13.826  31.903  1.00  0.00     0.064 C 
ATOM      7  O   UNL     1      19.517  13.945  31.425  1.00  0.00    -0.545 OA
ATOM      8  O   UNL     1      18.162  13.051  33.039  1.00  0.00    -0.545 OA
ENDBRANCH   5   6
ENDBRANCH   3   4
ENDBRANCH   2   3
ENDBRANCH   1   2
BRANCH   1   9
ATOM      9  C   UNL     1      17.468  15.295  26.137  1.00  0.00     0.000 C 
BRANCH   9  10
ATOM     10  C   UNL     1      16.496  16.387  25.663  1.00  0.00     0.000 C 
BRANCH  10  11
ATOM     11  C   UNL     1      15.737  15.988  24.385  1.00  0.00    -0.000 C 
BRANCH  11  12
ATOM     12  C   UNL     1      15.946  14.511  24.003  1.00  0.00    -0.000 C 
BRANCH  12  13
ATOM     13  C   UNL     1      14.680  13.640  24.083  1.00  0.00    -0.003 C 
ATOM     14  C   UNL     1      14.177  13.446  25.513  1.00  0.00     0.004 C 
ENDBRANCH  12  13
ENDBRANCH  11  12
ENDBRANCH  10  11
ENDBRANCH   9  10
ENDBRANCH   1   9
TORSDOF 9
ENDMDL
MODEL 9
REMARK VINA RESULT:    -3.462      1.736      3.684
REMARK INTER + INTRA:          -6.382
REMARK INTER:                  -5.461
REMARK INTRA:                  -0.921
REMARK UNBOUND:                -1.099
REMARK SMILES CCCCCCCCCC=CC(=O)[O-]
REMARK SMILES IDX 7 1 8 2 9 3 10 4 11 5 12 6 13 7 14 8 6 9 5 10 4 11 3 12 2 13
REMARK SMILES IDX 1 14
REMARK H PARENT
REMARK Flexibility Score: inf
ROOT
ATOM      1  C   UNL     1      17.148  15.038  29.413  1.00  0.00     0.000 C 
ENDROOT
BRANCH   1   2
ATOM      2  C   UNL     1      15.814  15.554  28.862  1.00  0.00     0.004 C 
BRANCH   2   3
ATOM      3  C   UNL     1      14.929  14.395  28.389  1.00  0.00     0.027 C 
BRANCH   3   4
ATOM      4  C   UNL     1      13.574  14.446  29.036  1.00  0.00    -0.025 C 
ATOM      5  C   UNL     1      13.392  14.068  30.307  1.00  0.00     0.020 C 
BRANCH   5   6
ATOM      6  C   UNL     1      12.072  14.096  30.957  1.00  0.00     0.064 C 
ATOM      7  O   UNL     1      11.736  13.208  31.785  1.00  0.00    -0.545 OA
ATOM      8  O   UNL     1      11.183  15.118  30.652  1.00  0.00    -0.545 OA
ENDBRANCH   5   6
ENDBRANCH   3   4
ENDBRANCH   2   3
ENDBRANCH   1   2
BRANCH   1   9
ATOM      9  C   UNL     1      17.134  15.007  30.948  1.00  0.00     0.000 C 
BRANCH   9  10
ATOM     10  C   UNL     1      16.838  13.606  31.508  1.00  0.00     0.000 C 
BRANCH  10  11
ATOM     11  C   UNL     1      18.065  12.966  32.179  1.00  0.00    -0.000 C 
BRANCH  11  12
ATOM     12  C   UNL     1      19.058  14.008  32.726  1.00  0.00    -0.000 C 
BRANCH  12  13
ATOM     13  C   UNL     1      20.473  13.923  32.128  1.00  0.00    -0.003 C 
ATOM     14  C   UNL     1      20.485  13.407  30.690  1.00  0.00     0.004 C 
ENDBRANCH  12  13
ENDBRANCH  11  12
ENDBRANCH  10  11
ENDBRANCH   9  10
ENDBRANCH   1   9
TORSDOF 9
ENDMDL
