MODEL 1
REMARK VINA RESULT:    -4.034      0.000      0.000
REMARK INTER + INTRA:          -5.279
REMARK INTER:                  -5.685
REMARK INTRA:                   0.407
REMARK UNBOUND:                 0.407
REMARK SMILES CC1=CCC(=C(C)C)C(=O)CC(C)=CCC1
REMARK SMILES IDX 12 1 14 2 13 3 15 4 16 5 2 6 1 7 3 8 11 10 9 11 10 12 5 13
REMARK SMILES IDX 6 14 7 15 8 16 4 17
REMARK H PARENT
REMARK Flexibility Score: 60.00
ROOT
ATOM      1  C   UNL     1       8.726  21.643  74.236  1.00  0.00    -0.070 C 
ATOM      2  C   UNL     1       7.776  20.952  73.568  1.00  0.00    -0.027 C 
ATOM      3  C   UNL     1       9.934  20.887  74.731  1.00  0.00     0.039 C 
ENDROOT
BRANCH   2   4
ATOM      4  C   UNL     1       6.548  21.545  72.913  1.00  0.00     0.032 C 
BRANCH   4   5
ATOM      5  C   UNL     1       6.839  22.477  71.718  1.00  0.00     0.034 C 
BRANCH   5   6
ATOM      6  C   UNL     1       6.172  23.835  71.844  1.00  0.00    -0.077 C 
ATOM      7  C   UNL     1       4.682  23.866  72.080  1.00  0.00     0.039 C 
ATOM      8  C   UNL     1       6.837  25.016  71.826  1.00  0.00    -0.023 CG0
ATOM      9  G   UNL     1       8.318  25.229  71.587  1.00  0.00     0.000 G0
ENDBRANCH   5   6
ENDBRANCH   4   5
ENDBRANCH   2   4
BRANCH   1  10
ATOM     10  C   UNL     1       8.681  23.146  74.427  1.00  0.00     0.111 C 
BRANCH  10  11
ATOM     11  C   UNL     1       9.513  23.862  73.397  1.00  0.00     0.163 C 
ATOM     12  O   UNL     1      10.534  23.276  72.945  1.00  0.00    -0.294 OA
BRANCH  11  13
ATOM     13  C   UNL     1       9.137  25.202  72.854  1.00  0.00    -0.002 C 
ATOM     14  C   UNL     1       9.587  26.348  73.448  1.00  0.00    -0.069 C 
ATOM     15  C   UNL     1       9.358  27.712  72.834  1.00  0.00     0.039 C 
ATOM     16  C   UNL     1      10.346  26.308  74.757  1.00  0.00     0.039 C 
BRANCH  13  17
ATOM     17  C   UNL     1       8.321  25.229  71.572  1.00  0.00     0.066 CG0
ATOM     18  G   UNL     1       6.840  25.029  71.827  1.00  0.00     0.000 G0
ENDBRANCH  13  17
ENDBRANCH  11  13
ENDBRANCH  10  11
ENDBRANCH   1  10
TORSDOF 0
ENDMDL
MODEL 2
REMARK VINA RESULT:    -3.324     11.947     13.136
REMARK INTER + INTRA:          -4.278
REMARK INTER:                  -4.752
REMARK INTRA:                   0.475
REMARK UNBOUND:                 0.407
REMARK SMILES CC1=CCC(=C(C)C)C(=O)CC(C)=CCC1
REMARK SMILES IDX 12 1 14 2 13 3 15 4 16 5 2 6 1 7 3 8 11 10 9 11 10 12 5 13
REMARK SMILES IDX 6 14 7 15 8 16 4 17
REMARK H PARENT
REMARK Flexibility Score: 60.00
ROOT
ATOM      1  C   UNL     1       6.667  36.690  69.212  1.00  0.00    -0.070 C 
ATOM      2  C   UNL     1       5.538  36.622  69.952  1.00  0.00    -0.027 C 
ATOM      3  C   UNL     1       7.990  36.671  69.937  1.00  0.00     0.039 C 
ENDROOT
BRANCH   2   4
ATOM      4  C   UNL     1       4.129  36.530  69.408  1.00  0.00     0.032 C 
BRANCH   4   5
ATOM      5  C   UNL     1       3.636  35.096  69.129  1.00  0.00     0.034 C 
BRANCH   5   6
ATOM      6  C   UNL     1       3.344  34.839  67.661  1.00  0.00    -0.077 C 
ATOM      7  C   UNL     1       2.031  35.338  67.109  1.00  0.00     0.039 C 
ATOM      8  C   UNL     1       4.212  34.254  66.801  1.00  0.00    -0.023 CG0
ATOM      9  G   UNL     1       5.569  33.664  67.130  1.00  0.00     0.000 G0
ENDBRANCH   5   6
ENDBRANCH   4   5
ENDBRANCH   2   4
BRANCH   1  10
ATOM     10  C   UNL     1       6.669  36.691  67.696  1.00  0.00     0.111 C 
BRANCH  10  11
ATOM     11  C   UNL     1       7.404  35.500  67.141  1.00  0.00     0.163 C 
ATOM     12  O   UNL     1       8.640  35.404  67.372  1.00  0.00    -0.294 OA
BRANCH  11  13
ATOM     13  C   UNL     1       6.713  34.411  66.389  1.00  0.00    -0.002 C 
ATOM     14  C   UNL     1       7.131  34.051  65.138  1.00  0.00    -0.069 C 
ATOM     15  C   UNL     1       6.558  32.851  64.416  1.00  0.00     0.039 C 
ATOM     16  C   UNL     1       8.198  34.839  64.411  1.00  0.00     0.039 C 
BRANCH  13  17
ATOM     17  C   UNL     1       5.599  33.668  67.108  1.00  0.00     0.066 CG0
ATOM     18  G   UNL     1       4.230  34.239  66.796  1.00  0.00     0.000 G0
ENDBRANCH  13  17
ENDBRANCH  11  13
ENDBRANCH  10  11
ENDBRANCH   1  10
TORSDOF 0
ENDMDL
MODEL 3
REMARK VINA RESULT:    -3.307      9.376     11.434
REMARK INTER + INTRA:          -4.253
REMARK INTER:                  -4.615
REMARK INTRA:                   0.362
REMARK UNBOUND:                 0.407
REMARK SMILES CC1=CCC(=C(C)C)C(=O)CC(C)=CCC1
REMARK SMILES IDX 12 1 14 2 13 3 15 4 16 5 2 6 1 7 3 8 11 10 9 11 10 12 5 13
REMARK SMILES IDX 6 14 7 15 8 16 4 17
REMARK H PARENT
REMARK Flexibility Score: 60.00
ROOT
ATOM      1  C   UNL     1       5.884  32.574  66.497  1.00  0.00    -0.070 C 
ATOM      2  C   UNL     1       6.047  31.263  66.777  1.00  0.00    -0.027 C 
ATOM      3  C   UNL     1       6.622  33.577  67.348  1.00  0.00     0.039 C 
ENDROOT
BRANCH   2   4
ATOM      4  C   UNL     1       5.473  30.111  65.982  1.00  0.00     0.032 C 
BRANCH   4   5
ATOM      5  C   UNL     1       4.229  29.448  66.610  1.00  0.00     0.034 C 
BRANCH   5   6
ATOM      6  C   UNL     1       3.948  29.924  68.024  1.00  0.00    -0.077 C 
ATOM      7  C   UNL     1       4.712  29.270  69.149  1.00  0.00     0.039 C 
ATOM      8  C   UNL     1       3.109  30.942  68.334  1.00  0.00    -0.023 CG0
ATOM      9  G   UNL     1       2.231  31.727  67.381  1.00  0.00     0.000 G0
ENDBRANCH   5   6
ENDBRANCH   4   5
ENDBRANCH   2   4
BRANCH   1  10
ATOM     10  C   UNL     1       5.074  33.078  65.319  1.00  0.00     0.111 C 
BRANCH  10  11
ATOM     11  C   UNL     1       3.605  32.797  65.493  1.00  0.00     0.163 C 
ATOM     12  O   UNL     1       2.961  32.364  64.500  1.00  0.00    -0.294 OA
BRANCH  11  13
ATOM     13  C   UNL     1       2.910  32.954  66.805  1.00  0.00    -0.002 C 
ATOM     14  C   UNL     1       2.827  34.177  67.411  1.00  0.00    -0.069 C 
ATOM     15  C   UNL     1       1.997  34.400  68.656  1.00  0.00     0.039 C 
ATOM     16  C   UNL     1       3.565  35.377  66.859  1.00  0.00     0.039 C 
BRANCH  13  17
ATOM     17  C   UNL     1       2.225  31.725  67.381  1.00  0.00     0.066 CG0
ATOM     18  G   UNL     1       3.122  30.957  68.331  1.00  0.00     0.000 G0
ENDBRANCH  13  17
ENDBRANCH  11  13
ENDBRANCH  10  11
ENDBRANCH   1  10
TORSDOF 0
ENDMDL
MODEL 4
REMARK VINA RESULT:    -3.299      4.778      6.520
REMARK INTER + INTRA:          -4.243
REMARK INTER:                  -4.493
REMARK INTRA:                   0.250
REMARK UNBOUND:                 0.407
REMARK SMILES CC1=CCC(=C(C)C)C(=O)CC(C)=CCC1
REMARK SMILES IDX 12 1 14 2 13 3 15 4 16 5 2 6 1 7 3 8 11 10 9 11 10 12 5 13
REMARK SMILES IDX 6 14 7 15 8 16 4 17
REMARK H PARENT
REMARK Flexibility Score: 60.00
ROOT
ATOM      1  C   UNL     1       6.575  23.499  69.177  1.00  0.00    -0.070 C 
ATOM      2  C   UNL     1       7.129  23.437  67.946  1.00  0.00    -0.027 C 
ATOM      3  C   UNL     1       7.490  23.378  70.371  1.00  0.00     0.039 C 
ENDROOT
BRANCH   2   4
ATOM      4  C   UNL     1       6.396  23.634  66.637  1.00  0.00     0.032 C 
BRANCH   4   5
ATOM      5  C   UNL     1       6.277  25.102  66.176  1.00  0.00     0.034 C 
BRANCH   5   6
ATOM      6  C   UNL     1       4.845  25.531  65.915  1.00  0.00    -0.077 C 
ATOM      7  C   UNL     1       4.188  25.048  64.646  1.00  0.00     0.039 C 
ATOM      8  C   UNL     1       4.098  26.262  66.777  1.00  0.00    -0.023 CG0
ATOM      9  G   UNL     1       4.548  26.868  68.092  1.00  0.00     0.000 G0
ENDBRANCH   5   6
ENDBRANCH   4   5
ENDBRANCH   2   4
BRANCH   1  10
ATOM     10  C   UNL     1       5.104  23.775  69.414  1.00  0.00     0.111 C 
BRANCH  10  11
ATOM     11  C   UNL     1       4.880  25.157  69.968  1.00  0.00     0.163 C 
ATOM     12  O   UNL     1       5.518  25.493  71.003  1.00  0.00    -0.294 OA
BRANCH  11  13
ATOM     13  C   UNL     1       3.986  26.151  69.304  1.00  0.00    -0.002 C 
ATOM     14  C   UNL     1       2.756  26.444  69.825  1.00  0.00    -0.069 C 
ATOM     15  C   UNL     1       1.895  27.557  69.269  1.00  0.00     0.039 C 
ATOM     16  C   UNL     1       2.195  25.665  70.994  1.00  0.00     0.039 C 
BRANCH  13  17
ATOM     17  C   UNL     1       4.539  26.882  68.091  1.00  0.00     0.066 CG0
ATOM     18  G   UNL     1       4.081  26.263  66.786  1.00  0.00     0.000 G0
ENDBRANCH  13  17
ENDBRANCH  11  13
ENDBRANCH  10  11
ENDBRANCH   1  10
TORSDOF 0
ENDMDL
MODEL 5
REMARK VINA RESULT:    -3.240      3.435      5.546
REMARK INTER + INTRA:          -4.160
REMARK INTER:                  -4.744
REMARK INTRA:                   0.584
REMARK UNBOUND:                 0.407
REMARK SMILES CC1=CCC(=C(C)C)C(=O)CC(C)=CCC1
REMARK SMILES IDX 12 1 14 2 13 3 15 4 16 5 2 6 1 7 3 8 11 10 9 11 10 12 5 13
REMARK SMILES IDX 6 14 7 15 8 16 4 17
REMARK H PARENT
REMARK Flexibility Score: 60.00
ROOT
ATOM      1  C   UNL     1      13.062  27.098  74.000  1.00  0.00    -0.070 C 
ATOM      2  C   UNL     1      12.176  26.232  74.539  1.00  0.00    -0.027 C 
ATOM      3  C   UNL     1      14.245  26.529  73.256  1.00  0.00     0.039 C 
ENDROOT
BRANCH   2   4
ATOM      4  C   UNL     1      10.885  26.606  75.233  1.00  0.00     0.032 C 
BRANCH   4   5
ATOM      5  C   UNL     1       9.618  25.960  74.634  1.00  0.00     0.034 C 
BRANCH   5   6
ATOM      6  C   UNL     1       9.292  26.464  73.240  1.00  0.00    -0.077 C 
ATOM      7  C   UNL     1       8.994  25.438  72.175  1.00  0.00     0.039 C 
ATOM      8  C   UNL     1       9.184  27.773  72.908  1.00  0.00    -0.023 CG0
ATOM      9  G   UNL     1       9.452  28.969  73.800  1.00  0.00     0.000 G0
ENDBRANCH   5   6
ENDBRANCH   4   5
ENDBRANCH   2   4
BRANCH   1  10
ATOM     10  C   UNL     1      12.876  28.602  74.027  1.00  0.00     0.111 C 
BRANCH  10  11
ATOM     11  C   UNL     1      11.888  29.058  72.986  1.00  0.00     0.163 C 
ATOM     12  O   UNL     1      12.110  28.755  71.782  1.00  0.00    -0.294 OA
BRANCH  11  13
ATOM     13  C   UNL     1      10.638  29.795  73.338  1.00  0.00    -0.002 C 
ATOM     14  C   UNL     1      10.552  31.149  73.166  1.00  0.00    -0.069 C 
ATOM     15  C   UNL     1       9.253  31.900  73.361  1.00  0.00     0.039 C 
ATOM     16  C   UNL     1      11.760  31.967  72.767  1.00  0.00     0.039 C 
BRANCH  13  17
ATOM     17  C   UNL     1       9.449  28.967  73.798  1.00  0.00     0.066 CG0
ATOM     18  G   UNL     1       9.195  27.773  72.900  1.00  0.00     0.000 G0
ENDBRANCH  13  17
ENDBRANCH  11  13
ENDBRANCH  10  11
ENDBRANCH   1  10
TORSDOF 0
ENDMDL
MODEL 6
REMARK VINA RESULT:    -3.189     12.546     14.144
REMARK INTER + INTRA:          -4.087
REMARK INTER:                  -4.281
REMARK INTRA:                   0.194
REMARK UNBOUND:                 0.407
REMARK SMILES CC1=CCC(=C(C)C)C(=O)CC(C)=CCC1
REMARK SMILES IDX 12 1 14 2 13 3 15 4 16 5 2 6 1 7 3 8 11 10 9 11 10 12 5 13
REMARK SMILES IDX 6 14 7 15 8 16 4 17
REMARK H PARENT
REMARK Flexibility Score: 60.00
ROOT
ATOM      1  C   UNL     1       7.638  36.230  69.236  1.00  0.00    -0.070 C 
ATOM      2  C   UNL     1       7.922  35.224  68.381  1.00  0.00    -0.027 C 
ATOM      3  C   UNL     1       8.791  37.019  69.808  1.00  0.00     0.039 C 
ENDROOT
BRANCH   2   4
ATOM      4  C   UNL     1       6.907  34.387  67.633  1.00  0.00     0.032 C 
BRANCH   4   5
ATOM      5  C   UNL     1       6.548  34.911  66.226  1.00  0.00     0.034 C 
BRANCH   5   6
ATOM      6  C   UNL     1       5.072  34.776  65.898  1.00  0.00    -0.077 C 
ATOM      7  C   UNL     1       4.566  33.416  65.485  1.00  0.00     0.039 C 
ATOM      8  C   UNL     1       4.169  35.780  66.016  1.00  0.00    -0.023 CG0
ATOM      9  G   UNL     1       4.447  37.222  66.393  1.00  0.00     0.000 G0
ENDBRANCH   5   6
ENDBRANCH   4   5
ENDBRANCH   2   4
BRANCH   1  10
ATOM     10  C   UNL     1       6.225  36.662  69.573  1.00  0.00     0.111 C 
BRANCH  10  11
ATOM     11  C   UNL     1       5.700  37.667  68.582  1.00  0.00     0.163 C 
ATOM     12  O   UNL     1       6.425  38.659  68.300  1.00  0.00    -0.294 OA
BRANCH  11  13
ATOM     13  C   UNL     1       4.391  37.495  67.884  1.00  0.00    -0.002 C 
ATOM     14  C   UNL     1       3.213  37.650  68.560  1.00  0.00    -0.069 C 
ATOM     15  C   UNL     1       1.876  37.640  67.852  1.00  0.00     0.039 C 
ATOM     16  C   UNL     1       3.189  37.845  70.060  1.00  0.00     0.039 C 
BRANCH  13  17
ATOM     17  C   UNL     1       4.430  37.237  66.387  1.00  0.00     0.066 CG0
ATOM     18  G   UNL     1       4.180  35.781  66.045  1.00  0.00     0.000 G0
ENDBRANCH  13  17
ENDBRANCH  11  13
ENDBRANCH  10  11
ENDBRANCH   1  10
TORSDOF 0
ENDMDL
MODEL 7
REMARK VINA RESULT:    -3.111     10.821     13.473
REMARK INTER + INTRA:          -3.978
REMARK INTER:                  -4.374
REMARK INTRA:                   0.396
REMARK UNBOUND:                 0.407
REMARK SMILES CC1=CCC(=C(C)C)C(=O)CC(C)=CCC1
REMARK SMILES IDX 12 1 14 2 13 3 15 4 16 5 2 6 1 7 3 8 11 10 9 11 10 12 5 13
REMARK SMILES IDX 6 14 7 15 8 16 4 17
REMARK H PARENT
REMARK Flexibility Score: 60.00
ROOT
ATOM      1  C   UNL     1       7.627  36.222  68.536  1.00  0.00    -0.070 C 
ATOM      2  C   UNL     1       6.830  37.130  69.140  1.00  0.00    -0.027 C 
ATOM      3  C   UNL     1       8.973  36.686  68.035  1.00  0.00     0.039 C 
ENDROOT
BRANCH   2   4
ATOM      4  C   UNL     1       5.495  36.839  69.791  1.00  0.00     0.032 C 
BRANCH   4   5
ATOM      5  C   UNL     1       4.290  37.552  69.141  1.00  0.00     0.034 C 
BRANCH   5   6
ATOM      6  C   UNL     1       4.259  37.416  67.630  1.00  0.00    -0.077 C 
ATOM      7  C   UNL     1       4.452  38.668  66.809  1.00  0.00     0.039 C 
ATOM      8  C   UNL     1       4.138  36.238  66.971  1.00  0.00    -0.023 CG0
ATOM      9  G   UNL     1       3.917  34.868  67.581  1.00  0.00     0.000 G0
ENDBRANCH   5   6
ENDBRANCH   4   5
ENDBRANCH   2   4
BRANCH   1  10
ATOM     10  C   UNL     1       7.276  34.753  68.421  1.00  0.00     0.111 C 
BRANCH  10  11
ATOM     11  C   UNL     1       6.435  34.475  67.203  1.00  0.00     0.163 C 
ATOM     12  O   UNL     1       6.939  34.699  66.069  1.00  0.00    -0.294 OA
BRANCH  11  13
ATOM     13  C   UNL     1       5.064  33.892  67.293  1.00  0.00    -0.002 C 
ATOM     14  C   UNL     1       4.872  32.541  67.201  1.00  0.00    -0.069 C 
ATOM     15  C   UNL     1       3.520  31.906  67.446  1.00  0.00     0.039 C 
ATOM     16  C   UNL     1       6.011  31.609  66.850  1.00  0.00     0.039 C 
BRANCH  13  17
ATOM     17  C   UNL     1       3.919  34.848  67.583  1.00  0.00     0.066 CG0
ATOM     18  G   UNL     1       4.146  36.220  66.980  1.00  0.00     0.000 G0
ENDBRANCH  13  17
ENDBRANCH  11  13
ENDBRANCH  10  11
ENDBRANCH   1  10
TORSDOF 0
ENDMDL
MODEL 8
REMARK VINA RESULT:    -3.063     12.309     13.756
REMARK INTER + INTRA:          -3.910
REMARK INTER:                  -4.305
REMARK INTRA:                   0.395
REMARK UNBOUND:                 0.407
REMARK SMILES CC1=CCC(=C(C)C)C(=O)CC(C)=CCC1
REMARK SMILES IDX 12 1 14 2 13 3 15 4 16 5 2 6 1 7 3 8 11 10 9 11 10 12 5 13
REMARK SMILES IDX 6 14 7 15 8 16 4 17
REMARK H PARENT
REMARK Flexibility Score: 60.00
ROOT
ATOM      1  C   UNL     1       7.367  34.779  65.934  1.00  0.00    -0.070 C 
ATOM      2  C   UNL     1       7.996  35.524  66.869  1.00  0.00    -0.027 C 
ATOM      3  C   UNL     1       7.875  34.850  64.515  1.00  0.00     0.039 C 
ENDROOT
BRANCH   2   4
ATOM      4  C   UNL     1       7.699  35.514  68.353  1.00  0.00     0.032 C 
BRANCH   4   5
ATOM      5  C   UNL     1       7.289  36.881  68.940  1.00  0.00     0.034 C 
BRANCH   5   6
ATOM      6  C   UNL     1       6.104  37.506  68.226  1.00  0.00    -0.077 C 
ATOM      7  C   UNL     1       6.299  38.866  67.602  1.00  0.00     0.039 C 
ATOM      8  C   UNL     1       4.907  36.895  68.054  1.00  0.00    -0.023 CG0
ATOM      9  G   UNL     1       4.480  35.548  68.602  1.00  0.00     0.000 G0
ENDBRANCH   5   6
ENDBRANCH   4   5
ENDBRANCH   2   4
BRANCH   1  10
ATOM     10  C   UNL     1       6.245  33.813  66.256  1.00  0.00     0.111 C 
BRANCH  10  11
ATOM     11  C   UNL     1       4.908  34.506  66.295  1.00  0.00     0.163 C 
ATOM     12  O   UNL     1       4.474  35.020  65.229  1.00  0.00    -0.294 OA
BRANCH  11  13
ATOM     13  C   UNL     1       4.064  34.549  67.526  1.00  0.00    -0.002 C 
ATOM     14  C   UNL     1       3.031  33.669  67.696  1.00  0.00    -0.069 C 
ATOM     15  C   UNL     1       2.259  33.580  68.994  1.00  0.00     0.039 C 
ATOM     16  C   UNL     1       2.608  32.731  66.586  1.00  0.00     0.039 C 
BRANCH  13  17
ATOM     17  C   UNL     1       4.461  35.539  68.608  1.00  0.00     0.066 CG0
ATOM     18  G   UNL     1       4.909  36.869  68.037  1.00  0.00     0.000 G0
ENDBRANCH  13  17
ENDBRANCH  11  13
ENDBRANCH  10  11
ENDBRANCH   1  10
TORSDOF 0
ENDMDL
MODEL 9
REMARK VINA RESULT:    -3.006     11.728     13.384
REMARK INTER + INTRA:          -3.830
REMARK INTER:                  -4.266
REMARK INTRA:                   0.437
REMARK UNBOUND:                 0.407
REMARK SMILES CC1=CCC(=C(C)C)C(=O)CC(C)=CCC1
REMARK SMILES IDX 12 1 14 2 13 3 15 4 16 5 2 6 1 7 3 8 11 10 9 11 10 12 5 13
REMARK SMILES IDX 6 14 7 15 8 16 4 17
REMARK H PARENT
REMARK Flexibility Score: 60.00
ROOT
ATOM      1  C   UNL     1       6.680  34.735  67.187  1.00  0.00    -0.070 C 
ATOM      2  C   UNL     1       6.378  33.427  67.343  1.00  0.00    -0.027 C 
ATOM      3  C   UNL     1       7.789  35.310  68.033  1.00  0.00     0.039 C 
ENDROOT
BRANCH   2   4
ATOM      4  C   UNL     1       5.372  32.648  66.524  1.00  0.00     0.032 C 
BRANCH   4   5
ATOM      5  C   UNL     1       4.070  33.412  66.202  1.00  0.00     0.034 C 
BRANCH   5   6
ATOM      6  C   UNL     1       3.172  33.598  67.412  1.00  0.00    -0.077 C 
ATOM      7  C   UNL     1       2.774  32.366  68.186  1.00  0.00     0.039 C 
ATOM      8  C   UNL     1       2.761  34.802  67.879  1.00  0.00    -0.023 CG0
ATOM      9  G   UNL     1       3.020  36.161  67.260  1.00  0.00     0.000 G0
ENDBRANCH   5   6
ENDBRANCH   4   5
ENDBRANCH   2   4
BRANCH   1  10
ATOM     10  C   UNL     1       6.027  35.620  66.145  1.00  0.00     0.111 C 
BRANCH  10  11
ATOM     11  C   UNL     1       5.428  36.856  66.762  1.00  0.00     0.163 C 
ATOM     12  O   UNL     1       5.867  37.978  66.390  1.00  0.00    -0.294 OA
BRANCH  11  13
ATOM     13  C   UNL     1       4.303  36.798  67.743  1.00  0.00    -0.002 C 
ATOM     14  C   UNL     1       4.427  37.362  68.983  1.00  0.00    -0.069 C 
ATOM     15  C   UNL     1       3.257  37.460  69.937  1.00  0.00     0.039 C 
ATOM     16  C   UNL     1       5.748  37.921  69.462  1.00  0.00     0.039 C 
BRANCH  13  17
ATOM     17  C   UNL     1       3.000  36.176  67.269  1.00  0.00     0.066 CG0
ATOM     18  G   UNL     1       2.761  34.807  67.874  1.00  0.00     0.000 G0
ENDBRANCH  13  17
ENDBRANCH  11  13
ENDBRANCH  10  11
ENDBRANCH   1  10
TORSDOF 0
ENDMDL
