MODEL 1
REMARK VINA RESULT:    -4.173      0.000      0.000
REMARK INTER + INTRA:          -8.389
REMARK INTER:                  -6.491
REMARK INTRA:                  -1.898
REMARK UNBOUND:                -1.898
REMARK SMILES COc1cc(CNC(=O)CCCCC=CC(C)C)ccc1O
REMARK SMILES IDX 11 1 12 2 13 3 14 4 15 5 16 6 17 7 18 8 10 9 8 10 9 11 7 12
REMARK SMILES IDX 6 14 5 15 4 16 19 17 3 18 20 19 21 20 2 21 1 22 22 23
REMARK H PARENT 7 13 22 24
REMARK Flexibility Score: inf
ROOT
ATOM      1  C   UNL     1     112.953   9.943 -37.827  1.00  0.00     0.010 C 
ENDROOT
BRANCH   1   2
ATOM      2  C   UNL     1     111.418   9.918 -37.814  1.00  0.00     0.005 C 
BRANCH   2   3
ATOM      3  C   UNL     1     110.895   8.738 -36.987  1.00  0.00     0.027 C 
BRANCH   3   4
ATOM      4  C   UNL     1     109.707   8.097 -37.650  1.00  0.00    -0.031 C 
ATOM      5  C   UNL     1     109.076   8.683 -38.682  1.00  0.00    -0.028 C 
BRANCH   5   6
ATOM      6  C   UNL     1     107.880   8.064 -39.367  1.00  0.00     0.005 C 
ATOM      7  C   UNL     1     106.725   9.066 -39.484  1.00  0.00     0.012 C 
ATOM      8  C   UNL     1     107.432   6.779 -38.661  1.00  0.00     0.012 C 
ENDBRANCH   5   6
ENDBRANCH   3   4
ENDBRANCH   2   3
ENDBRANCH   1   2
BRANCH   1   9
ATOM      9  C   UNL     1     113.513  10.742 -39.012  1.00  0.00     0.100 C 
BRANCH   9  10
ATOM     10  C   UNL     1     112.886  10.325 -40.310  1.00  0.00     0.220 C 
ATOM     11  O   UNL     1     112.196  11.156 -40.960  1.00  0.00    -0.275 OA
ATOM     12  N   UNL     1     113.037   8.979 -40.785  1.00  0.00    -0.352 N 
ATOM     13  H   UNL     1     113.586   8.296 -40.214  1.00  0.00     0.163 HD
BRANCH  12  14
ATOM     14  C   UNL     1     112.430   8.514 -42.030  1.00  0.00     0.151 C 
BRANCH  14  15
ATOM     15  C   UNL     1     111.449   7.408 -41.752  1.00  0.00    -0.025 A 
ATOM     16  C   UNL     1     111.511   6.705 -40.538  1.00  0.00     0.056 A 
ATOM     17  C   UNL     1     110.487   7.052 -42.707  1.00  0.00     0.009 A 
ATOM     18  C   UNL     1     110.610   5.654 -40.273  1.00  0.00     0.160 A 
ATOM     19  C   UNL     1     109.592   6.011 -42.450  1.00  0.00     0.050 A 
ATOM     20  C   UNL     1     109.649   5.313 -41.237  1.00  0.00     0.157 A 
BRANCH  18  21
ATOM     21  O   UNL     1     110.638   4.930 -39.071  1.00  0.00    -0.493 OA
ATOM     22  C   UNL     1     111.308   3.686 -38.895  1.00  0.00     0.278 C 
ENDBRANCH  18  21
BRANCH  20  23
ATOM     23  O   UNL     1     108.754   4.276 -40.980  1.00  0.00    -0.504 OA
ATOM     24  H   UNL     1     109.051   3.306 -40.987  1.00  0.00     0.293 HD
ENDBRANCH  20  23
ENDBRANCH  14  15
ENDBRANCH  12  14
ENDBRANCH   9  10
ENDBRANCH   1   9
TORSDOF 10
ENDMDL
MODEL 2
REMARK VINA RESULT:    -4.085     13.176     15.363
REMARK INTER + INTRA:          -8.251
REMARK INTER:                  -7.477
REMARK INTRA:                  -0.775
REMARK UNBOUND:                -1.898
REMARK SMILES COc1cc(CNC(=O)CCCCC=CC(C)C)ccc1O
REMARK SMILES IDX 11 1 12 2 13 3 14 4 15 5 16 6 17 7 18 8 10 9 8 10 9 11 7 12
REMARK SMILES IDX 6 14 5 15 4 16 19 17 3 18 20 19 21 20 2 21 1 22 22 23
REMARK H PARENT 7 13 22 24
REMARK Flexibility Score: inf
ROOT
ATOM      1  C   UNL     1     112.647   8.072 -23.969  1.00  0.00     0.010 C 
ENDROOT
BRANCH   1   2
ATOM      2  C   UNL     1     113.073   9.445 -23.429  1.00  0.00     0.005 C 
BRANCH   2   3
ATOM      3  C   UNL     1     113.958  10.183 -24.441  1.00  0.00     0.027 C 
BRANCH   3   4
ATOM      4  C   UNL     1     113.207  10.460 -25.714  1.00  0.00    -0.031 C 
ATOM      5  C   UNL     1     112.101  11.225 -25.726  1.00  0.00    -0.028 C 
BRANCH   5   6
ATOM      6  C   UNL     1     111.325  11.520 -26.989  1.00  0.00     0.005 C 
ATOM      7  C   UNL     1     112.041  10.963 -28.226  1.00  0.00     0.012 C 
ATOM      8  C   UNL     1     111.046  13.021 -27.138  1.00  0.00     0.012 C 
ENDBRANCH   5   6
ENDBRANCH   3   4
ENDBRANCH   2   3
ENDBRANCH   1   2
BRANCH   1   9
ATOM      9  C   UNL     1     111.130   7.855 -23.876  1.00  0.00     0.100 C 
BRANCH   9  10
ATOM     10  C   UNL     1     110.609   7.063 -25.039  1.00  0.00     0.220 C 
ATOM     11  O   UNL     1     110.904   7.418 -26.212  1.00  0.00    -0.275 OA
ATOM     12  N   UNL     1     109.746   5.937 -24.818  1.00  0.00    -0.352 N 
ATOM     13  H   UNL     1     109.487   5.680 -23.838  1.00  0.00     0.163 HD
BRANCH  12  14
ATOM     14  C   UNL     1     109.193   5.146 -25.914  1.00  0.00     0.151 C 
BRANCH  14  15
ATOM     15  C   UNL     1     108.854   3.760 -25.438  1.00  0.00    -0.025 A 
ATOM     16  C   UNL     1     109.695   2.683 -25.759  1.00  0.00     0.056 A 
ATOM     17  C   UNL     1     107.687   3.526 -24.697  1.00  0.00     0.009 A 
ATOM     18  C   UNL     1     109.379   1.377 -25.335  1.00  0.00     0.160 A 
ATOM     19  C   UNL     1     107.369   2.234 -24.275  1.00  0.00     0.050 A 
ATOM     20  C   UNL     1     108.211   1.160 -24.590  1.00  0.00     0.157 A 
BRANCH  18  21
ATOM     21  O   UNL     1     110.196   0.275 -25.634  1.00  0.00    -0.493 OA
ATOM     22  C   UNL     1     111.387  -0.060 -24.929  1.00  0.00     0.278 C 
ENDBRANCH  18  21
BRANCH  20  23
ATOM     23  O   UNL     1     107.892  -0.130 -24.166  1.00  0.00    -0.504 OA
ATOM     24  H   UNL     1     108.356  -0.944 -24.554  1.00  0.00     0.293 HD
ENDBRANCH  20  23
ENDBRANCH  14  15
ENDBRANCH  12  14
ENDBRANCH   9  10
ENDBRANCH   1   9
TORSDOF 10
ENDMDL
MODEL 3
REMARK VINA RESULT:    -4.029      1.958      5.293
REMARK INTER + INTRA:          -8.164
REMARK INTER:                  -6.885
REMARK INTRA:                  -1.279
REMARK UNBOUND:                -1.898
REMARK SMILES COc1cc(CNC(=O)CCCCC=CC(C)C)ccc1O
REMARK SMILES IDX 11 1 12 2 13 3 14 4 15 5 16 6 17 7 18 8 10 9 8 10 9 11 7 12
REMARK SMILES IDX 6 14 5 15 4 16 19 17 3 18 20 19 21 20 2 21 1 22 22 23
REMARK H PARENT 7 13 22 24
REMARK Flexibility Score: inf
ROOT
ATOM      1  C   UNL     1     109.606   4.568 -39.735  1.00  0.00     0.010 C 
ENDROOT
BRANCH   1   2
ATOM      2  C   UNL     1     108.601   3.954 -38.749  1.00  0.00     0.005 C 
BRANCH   2   3
ATOM      3  C   UNL     1     108.223   4.958 -37.654  1.00  0.00     0.027 C 
BRANCH   3   4
ATOM      4  C   UNL     1     108.390   6.373 -38.135  1.00  0.00    -0.031 C 
ATOM      5  C   UNL     1     107.341   7.101 -38.555  1.00  0.00    -0.028 C 
BRANCH   5   6
ATOM      6  C   UNL     1     107.478   8.524 -39.046  1.00  0.00     0.005 C 
ATOM      7  C   UNL     1     107.906   9.465 -37.913  1.00  0.00     0.012 C 
ATOM      8  C   UNL     1     106.188   9.013 -39.716  1.00  0.00     0.012 C 
ENDBRANCH   5   6
ENDBRANCH   3   4
ENDBRANCH   2   3
ENDBRANCH   1   2
BRANCH   1   9
ATOM      9  C   UNL     1     109.111   4.506 -41.186  1.00  0.00     0.100 C 
BRANCH   9  10
ATOM     10  C   UNL     1     109.700   5.604 -42.023  1.00  0.00     0.220 C 
ATOM     11  O   UNL     1     109.164   5.899 -43.125  1.00  0.00    -0.275 OA
ATOM     12  N   UNL     1     110.890   6.282 -41.591  1.00  0.00    -0.352 N 
ATOM     13  H   UNL     1     111.338   5.999 -40.689  1.00  0.00     0.163 HD
BRANCH  12  14
ATOM     14  C   UNL     1     111.517   7.342 -42.377  1.00  0.00     0.151 C 
BRANCH  14  15
ATOM     15  C   UNL     1     111.860   8.512 -41.496  1.00  0.00    -0.025 A 
ATOM     16  C   UNL     1     112.971   9.316 -41.799  1.00  0.00     0.056 A 
ATOM     17  C   UNL     1     111.096   8.794 -40.355  1.00  0.00     0.009 A 
ATOM     18  C   UNL     1     113.314  10.403 -40.971  1.00  0.00     0.160 A 
ATOM     19  C   UNL     1     111.432   9.870 -39.531  1.00  0.00     0.050 A 
ATOM     20  C   UNL     1     112.536  10.675 -39.836  1.00  0.00     0.157 A 
BRANCH  18  21
ATOM     21  O   UNL     1     114.415  11.231 -41.243  1.00  0.00    -0.493 OA
ATOM     22  C   UNL     1     115.732  11.007 -40.750  1.00  0.00     0.278 C 
ENDBRANCH  18  21
BRANCH  20  23
ATOM     23  O   UNL     1     112.870  11.751 -39.014  1.00  0.00    -0.504 OA
ATOM     24  H   UNL     1     112.169  12.410 -38.694  1.00  0.00     0.293 HD
ENDBRANCH  20  23
ENDBRANCH  14  15
ENDBRANCH  12  14
ENDBRANCH   9  10
ENDBRANCH   1   9
TORSDOF 10
ENDMDL
MODEL 4
REMARK VINA RESULT:    -3.979      1.708      3.823
REMARK INTER + INTRA:          -8.087
REMARK INTER:                  -5.662
REMARK INTRA:                  -2.425
REMARK UNBOUND:                -1.898
REMARK SMILES COc1cc(CNC(=O)CCCCC=CC(C)C)ccc1O
REMARK SMILES IDX 11 1 12 2 13 3 14 4 15 5 16 6 17 7 18 8 10 9 8 10 9 11 7 12
REMARK SMILES IDX 6 14 5 15 4 16 19 17 3 18 20 19 21 20 2 21 1 22 22 23
REMARK H PARENT 7 13 22 24
REMARK Flexibility Score: inf
ROOT
ATOM      1  C   UNL     1     112.027   7.514 -42.301  1.00  0.00     0.010 C 
ENDROOT
BRANCH   1   2
ATOM      2  C   UNL     1     110.559   7.147 -42.564  1.00  0.00     0.005 C 
BRANCH   2   3
ATOM      3  C   UNL     1     110.136   5.938 -41.722  1.00  0.00     0.027 C 
BRANCH   3   4
ATOM      4  C   UNL     1     109.213   6.352 -40.608  1.00  0.00    -0.031 C 
ATOM      5  C   UNL     1     108.760   7.612 -40.502  1.00  0.00    -0.028 C 
BRANCH   5   6
ATOM      6  C   UNL     1     107.833   8.058 -39.394  1.00  0.00     0.005 C 
ATOM      7  C   UNL     1     108.442   9.213 -38.590  1.00  0.00     0.012 C 
ATOM      8  C   UNL     1     107.449   6.888 -38.481  1.00  0.00     0.012 C 
ENDBRANCH   5   6
ENDBRANCH   3   4
ENDBRANCH   2   3
ENDBRANCH   1   2
BRANCH   1   9
ATOM      9  C   UNL     1     112.206   9.003 -41.976  1.00  0.00     0.100 C 
BRANCH   9  10
ATOM     10  C   UNL     1     111.990   9.284 -40.518  1.00  0.00     0.220 C 
ATOM     11  O   UNL     1     111.600  10.428 -40.159  1.00  0.00    -0.275 OA
ATOM     12  N   UNL     1     112.269   8.273 -39.538  1.00  0.00    -0.352 N 
ATOM     13  H   UNL     1     112.624   7.342 -39.855  1.00  0.00     0.163 HD
BRANCH  12  14
ATOM     14  C   UNL     1     112.098   8.501 -38.106  1.00  0.00     0.151 C 
BRANCH  14  15
ATOM     15  C   UNL     1     111.436   7.313 -37.463  1.00  0.00    -0.025 A 
ATOM     16  C   UNL     1     111.615   6.031 -38.007  1.00  0.00     0.056 A 
ATOM     17  C   UNL     1     110.617   7.475 -36.337  1.00  0.00     0.009 A 
ATOM     18  C   UNL     1     110.986   4.912 -37.425  1.00  0.00     0.160 A 
ATOM     19  C   UNL     1     109.991   6.370 -35.756  1.00  0.00     0.050 A 
ATOM     20  C   UNL     1     110.174   5.091 -36.296  1.00  0.00     0.157 A 
BRANCH  18  21
ATOM     21  O   UNL     1     111.142   3.615 -37.939  1.00  0.00    -0.493 OA
ATOM     22  C   UNL     1     110.456   3.112 -39.080  1.00  0.00     0.278 C 
ENDBRANCH  18  21
BRANCH  20  23
ATOM     23  O   UNL     1     109.549   3.988 -35.715  1.00  0.00    -0.504 OA
ATOM     24  H   UNL     1     109.996   3.453 -34.978  1.00  0.00     0.293 HD
ENDBRANCH  20  23
ENDBRANCH  14  15
ENDBRANCH  12  14
ENDBRANCH   9  10
ENDBRANCH   1   9
TORSDOF 10
ENDMDL
MODEL 5
REMARK VINA RESULT:    -3.944      2.243      4.879
REMARK INTER + INTRA:          -8.032
REMARK INTER:                  -6.116
REMARK INTRA:                  -1.916
REMARK UNBOUND:                -1.898
REMARK SMILES COc1cc(CNC(=O)CCCCC=CC(C)C)ccc1O
REMARK SMILES IDX 11 1 12 2 13 3 14 4 15 5 16 6 17 7 18 8 10 9 8 10 9 11 7 12
REMARK SMILES IDX 6 14 5 15 4 16 19 17 3 18 20 19 21 20 2 21 1 22 22 23
REMARK H PARENT 7 13 22 24
REMARK Flexibility Score: inf
ROOT
ATOM      1  C   UNL     1     111.626   7.048 -42.310  1.00  0.00     0.010 C 
ENDROOT
BRANCH   1   2
ATOM      2  C   UNL     1     110.147   7.123 -42.716  1.00  0.00     0.005 C 
BRANCH   2   3
ATOM      3  C   UNL     1     109.561   5.720 -42.917  1.00  0.00     0.027 C 
BRANCH   3   4
ATOM      4  C   UNL     1     109.296   5.051 -41.597  1.00  0.00    -0.031 C 
ATOM      5  C   UNL     1     108.855   5.744 -40.533  1.00  0.00    -0.028 C 
BRANCH   5   6
ATOM      6  C   UNL     1     108.581   5.099 -39.194  1.00  0.00     0.005 C 
ATOM      7  C   UNL     1     109.265   3.731 -39.083  1.00  0.00     0.012 C 
ATOM      8  C   UNL     1     107.076   4.990 -38.921  1.00  0.00     0.012 C 
ENDBRANCH   5   6
ENDBRANCH   3   4
ENDBRANCH   2   3
ENDBRANCH   1   2
BRANCH   1   9
ATOM      9  C   UNL     1     112.232   8.436 -42.059  1.00  0.00     0.100 C 
BRANCH   9  10
ATOM     10  C   UNL     1     112.136   8.832 -40.614  1.00  0.00     0.220 C 
ATOM     11  O   UNL     1     112.277  10.043 -40.293  1.00  0.00    -0.275 OA
ATOM     12  N   UNL     1     111.927   7.834 -39.604  1.00  0.00    -0.352 N 
ATOM     13  H   UNL     1     111.846   6.831 -39.889  1.00  0.00     0.163 HD
BRANCH  12  14
ATOM     14  C   UNL     1     111.848   8.162 -38.183  1.00  0.00     0.151 C 
BRANCH  14  15
ATOM     15  C   UNL     1     110.426   8.063 -37.702  1.00  0.00    -0.025 A 
ATOM     16  C   UNL     1     109.416   8.797 -38.344  1.00  0.00     0.056 A 
ATOM     17  C   UNL     1     110.101   7.262 -36.598  1.00  0.00     0.009 A 
ATOM     18  C   UNL     1     108.084   8.727 -37.891  1.00  0.00     0.160 A 
ATOM     19  C   UNL     1     108.783   7.189 -36.145  1.00  0.00     0.050 A 
ATOM     20  C   UNL     1     107.773   7.917 -36.789  1.00  0.00     0.157 A 
BRANCH  18  21
ATOM     21  O   UNL     1     107.046   9.444 -38.508  1.00  0.00    -0.493 OA
ATOM     22  C   UNL     1     106.356   9.017 -39.677  1.00  0.00     0.278 C 
ENDBRANCH  18  21
BRANCH  20  23
ATOM     23  O   UNL     1     106.457   7.843 -36.337  1.00  0.00    -0.504 OA
ATOM     24  H   UNL     1     106.088   8.510 -35.668  1.00  0.00     0.293 HD
ENDBRANCH  20  23
ENDBRANCH  14  15
ENDBRANCH  12  14
ENDBRANCH   9  10
ENDBRANCH   1   9
TORSDOF 10
ENDMDL
MODEL 6
REMARK VINA RESULT:    -3.927      2.178      4.373
REMARK INTER + INTRA:          -8.005
REMARK INTER:                  -5.865
REMARK INTRA:                  -2.140
REMARK UNBOUND:                -1.898
REMARK SMILES COc1cc(CNC(=O)CCCCC=CC(C)C)ccc1O
REMARK SMILES IDX 11 1 12 2 13 3 14 4 15 5 16 6 17 7 18 8 10 9 8 10 9 11 7 12
REMARK SMILES IDX 6 14 5 15 4 16 19 17 3 18 20 19 21 20 2 21 1 22 22 23
REMARK H PARENT 7 13 22 24
REMARK Flexibility Score: inf
ROOT
ATOM      1  C   UNL     1     111.953   7.421 -42.300  1.00  0.00     0.010 C 
ENDROOT
BRANCH   1   2
ATOM      2  C   UNL     1     110.480   7.124 -42.617  1.00  0.00     0.005 C 
BRANCH   2   3
ATOM      3  C   UNL     1     109.960   5.959 -41.766  1.00  0.00     0.027 C 
BRANCH   3   4
ATOM      4  C   UNL     1     109.271   6.460 -40.526  1.00  0.00    -0.031 C 
ATOM      5  C   UNL     1     108.806   7.718 -40.441  1.00  0.00    -0.028 C 
BRANCH   5   6
ATOM      6  C   UNL     1     108.110   8.250 -39.209  1.00  0.00     0.005 C 
ATOM      7  C   UNL     1     107.938   7.155 -38.150  1.00  0.00     0.012 C 
ATOM      8  C   UNL     1     106.766   8.900 -39.559  1.00  0.00     0.012 C 
ENDBRANCH   5   6
ENDBRANCH   3   4
ENDBRANCH   2   3
ENDBRANCH   1   2
BRANCH   1   9
ATOM      9  C   UNL     1     112.231   8.926 -42.182  1.00  0.00     0.100 C 
BRANCH   9  10
ATOM     10  C   UNL     1     112.096   9.407 -40.767  1.00  0.00     0.220 C 
ATOM     11  O   UNL     1     111.859  10.626 -40.547  1.00  0.00    -0.275 OA
ATOM     12  N   UNL     1     112.278   8.496 -39.673  1.00  0.00    -0.352 N 
ATOM     13  H   UNL     1     112.507   7.496 -39.877  1.00  0.00     0.163 HD
BRANCH  12  14
ATOM     14  C   UNL     1     112.180   8.916 -38.278  1.00  0.00     0.151 C 
BRANCH  14  15
ATOM     15  C   UNL     1     111.605   7.808 -37.438  1.00  0.00    -0.025 A 
ATOM     16  C   UNL     1     110.981   8.106 -36.216  1.00  0.00     0.056 A 
ATOM     17  C   UNL     1     111.710   6.472 -37.851  1.00  0.00     0.009 A 
ATOM     18  C   UNL     1     110.455   7.076 -35.411  1.00  0.00     0.160 A 
ATOM     19  C   UNL     1     111.191   5.448 -37.058  1.00  0.00     0.050 A 
ATOM     20  C   UNL     1     110.563   5.745 -35.841  1.00  0.00     0.157 A 
BRANCH  18  21
ATOM     21  O   UNL     1     109.822   7.334 -34.185  1.00  0.00    -0.493 OA
ATOM     22  C   UNL     1     108.487   7.809 -34.052  1.00  0.00     0.278 C 
ENDBRANCH  18  21
BRANCH  20  23
ATOM     23  O   UNL     1     110.044   4.721 -35.050  1.00  0.00    -0.504 OA
ATOM     24  H   UNL     1     109.167   4.267 -35.280  1.00  0.00     0.293 HD
ENDBRANCH  20  23
ENDBRANCH  14  15
ENDBRANCH  12  14
ENDBRANCH   9  10
ENDBRANCH   1   9
TORSDOF 10
ENDMDL
MODEL 7
REMARK VINA RESULT:    -3.875      1.843      3.953
REMARK INTER + INTRA:          -7.924
REMARK INTER:                  -6.325
REMARK INTRA:                  -1.600
REMARK UNBOUND:                -1.898
REMARK SMILES COc1cc(CNC(=O)CCCCC=CC(C)C)ccc1O
REMARK SMILES IDX 11 1 12 2 13 3 14 4 15 5 16 6 17 7 18 8 10 9 8 10 9 11 7 12
REMARK SMILES IDX 6 14 5 15 4 16 19 17 3 18 20 19 21 20 2 21 1 22 22 23
REMARK H PARENT 7 13 22 24
REMARK Flexibility Score: inf
ROOT
ATOM      1  C   UNL     1     113.788  10.422 -40.765  1.00  0.00     0.010 C 
ENDROOT
BRANCH   1   2
ATOM      2  C   UNL     1     112.487  10.102 -41.516  1.00  0.00     0.005 C 
BRANCH   2   3
ATOM      3  C   UNL     1     112.646   8.844 -42.379  1.00  0.00     0.027 C 
BRANCH   3   4
ATOM      4  C   UNL     1     111.784   7.724 -41.865  1.00  0.00    -0.031 C 
ATOM      5  C   UNL     1     110.580   7.461 -42.403  1.00  0.00    -0.028 C 
BRANCH   5   6
ATOM      6  C   UNL     1     109.691   6.343 -41.908  1.00  0.00     0.005 C 
ATOM      7  C   UNL     1     110.311   5.632 -40.699  1.00  0.00     0.012 C 
ATOM      8  C   UNL     1     109.361   5.350 -43.028  1.00  0.00     0.012 C 
ENDBRANCH   5   6
ENDBRANCH   3   4
ENDBRANCH   2   3
ENDBRANCH   1   2
BRANCH   1   9
ATOM      9  C   UNL     1     113.544  11.285 -39.520  1.00  0.00     0.100 C 
BRANCH   9  10
ATOM     10  C   UNL     1     112.816  10.525 -38.449  1.00  0.00     0.220 C 
ATOM     11  O   UNL     1     112.409  11.136 -37.424  1.00  0.00    -0.275 OA
ATOM     12  N   UNL     1     112.626   9.108 -38.573  1.00  0.00    -0.352 N 
ATOM     13  H   UNL     1     113.001   8.615 -39.415  1.00  0.00     0.163 HD
BRANCH  12  14
ATOM     14  C   UNL     1     111.945   8.317 -37.550  1.00  0.00     0.151 C 
BRANCH  14  15
ATOM     15  C   UNL     1     110.507   8.097 -37.931  1.00  0.00    -0.025 A 
ATOM     16  C   UNL     1     109.780   7.045 -37.351  1.00  0.00     0.056 A 
ATOM     17  C   UNL     1     109.888   8.918 -38.884  1.00  0.00     0.009 A 
ATOM     18  C   UNL     1     108.438   6.817 -37.714  1.00  0.00     0.160 A 
ATOM     19  C   UNL     1     108.558   8.697 -39.247  1.00  0.00     0.050 A 
ATOM     20  C   UNL     1     107.831   7.651 -38.665  1.00  0.00     0.157 A 
BRANCH  18  21
ATOM     21  O   UNL     1     107.678   5.777 -37.154  1.00  0.00    -0.493 OA
ATOM     22  C   UNL     1     107.655   4.441 -37.646  1.00  0.00     0.278 C 
ENDBRANCH  18  21
BRANCH  20  23
ATOM     23  O   UNL     1     106.503   7.432 -39.027  1.00  0.00    -0.504 OA
ATOM     24  H   UNL     1     106.211   7.436 -39.998  1.00  0.00     0.293 HD
ENDBRANCH  20  23
ENDBRANCH  14  15
ENDBRANCH  12  14
ENDBRANCH   9  10
ENDBRANCH   1   9
TORSDOF 10
ENDMDL
MODEL 8
REMARK VINA RESULT:    -3.856      3.779      6.715
REMARK INTER + INTRA:          -7.896
REMARK INTER:                  -7.050
REMARK INTRA:                  -0.845
REMARK UNBOUND:                -1.898
REMARK SMILES COc1cc(CNC(=O)CCCCC=CC(C)C)ccc1O
REMARK SMILES IDX 11 1 12 2 13 3 14 4 15 5 16 6 17 7 18 8 10 9 8 10 9 11 7 12
REMARK SMILES IDX 6 14 5 15 4 16 19 17 3 18 20 19 21 20 2 21 1 22 22 23
REMARK H PARENT 7 13 22 24
REMARK Flexibility Score: inf
ROOT
ATOM      1  C   UNL     1     111.883   7.334 -41.973  1.00  0.00     0.010 C 
ENDROOT
BRANCH   1   2
ATOM      2  C   UNL     1     110.575   6.781 -42.558  1.00  0.00     0.005 C 
BRANCH   2   3
ATOM      3  C   UNL     1     109.663   6.241 -41.450  1.00  0.00     0.027 C 
BRANCH   3   4
ATOM      4  C   UNL     1     109.604   7.191 -40.287  1.00  0.00    -0.031 C 
ATOM      5  C   UNL     1     108.592   8.064 -40.143  1.00  0.00    -0.028 C 
BRANCH   5   6
ATOM      6  C   UNL     1     108.505   9.032 -38.985  1.00  0.00     0.005 C 
ATOM      7  C   UNL     1     109.678   8.845 -38.015  1.00  0.00     0.012 C 
ATOM      8  C   UNL     1     107.160   8.920 -38.259  1.00  0.00     0.012 C 
ENDBRANCH   5   6
ENDBRANCH   3   4
ENDBRANCH   2   3
ENDBRANCH   1   2
BRANCH   1   9
ATOM      9  C   UNL     1     112.118   8.801 -42.355  1.00  0.00     0.100 C 
BRANCH   9  10
ATOM     10  C   UNL     1     112.849   9.547 -41.277  1.00  0.00     0.220 C 
ATOM     11  O   UNL     1     112.628   9.264 -40.069  1.00  0.00    -0.275 OA
ATOM     12  N   UNL     1     113.760  10.603 -41.620  1.00  0.00    -0.352 N 
ATOM     13  H   UNL     1     113.904  10.844 -42.627  1.00  0.00     0.163 HD
BRANCH  12  14
ATOM     14  C   UNL     1     114.480  11.374 -40.610  1.00  0.00     0.151 C 
BRANCH  14  15
ATOM     15  C   UNL     1     115.933  11.492 -40.980  1.00  0.00    -0.025 A 
ATOM     16  C   UNL     1     116.838  10.489 -40.599  1.00  0.00     0.056 A 
ATOM     17  C   UNL     1     116.401  12.611 -41.683  1.00  0.00     0.009 A 
ATOM     18  C   UNL     1     118.205  10.596 -40.923  1.00  0.00     0.160 A 
ATOM     19  C   UNL     1     117.754  12.723 -42.008  1.00  0.00     0.050 A 
ATOM     20  C   UNL     1     118.657  11.720 -41.632  1.00  0.00     0.157 A 
BRANCH  18  21
ATOM     21  O   UNL     1     119.139   9.613 -40.561  1.00  0.00    -0.493 OA
ATOM     22  C   UNL     1     119.337   8.392 -41.265  1.00  0.00     0.278 C 
ENDBRANCH  18  21
BRANCH  20  23
ATOM     23  O   UNL     1     120.007  11.832 -41.957  1.00  0.00    -0.504 OA
ATOM     24  H   UNL     1     120.343  11.650 -42.897  1.00  0.00     0.293 HD
ENDBRANCH  20  23
ENDBRANCH  14  15
ENDBRANCH  12  14
ENDBRANCH   9  10
ENDBRANCH   1   9
TORSDOF 10
ENDMDL
MODEL 9
REMARK VINA RESULT:    -3.848      2.480      4.821
REMARK INTER + INTRA:          -7.883
REMARK INTER:                  -6.168
REMARK INTRA:                  -1.715
REMARK UNBOUND:                -1.898
REMARK SMILES COc1cc(CNC(=O)CCCCC=CC(C)C)ccc1O
REMARK SMILES IDX 11 1 12 2 13 3 14 4 15 5 16 6 17 7 18 8 10 9 8 10 9 11 7 12
REMARK SMILES IDX 6 14 5 15 4 16 19 17 3 18 20 19 21 20 2 21 1 22 22 23
REMARK H PARENT 7 13 22 24
REMARK Flexibility Score: inf
ROOT
ATOM      1  C   UNL     1     111.657   7.075 -42.359  1.00  0.00     0.010 C 
ENDROOT
BRANCH   1   2
ATOM      2  C   UNL     1     110.169   7.122 -42.736  1.00  0.00     0.005 C 
BRANCH   2   3
ATOM      3  C   UNL     1     109.622   5.712 -42.988  1.00  0.00     0.027 C 
BRANCH   3   4
ATOM      4  C   UNL     1     109.399   4.979 -41.694  1.00  0.00    -0.031 C 
ATOM      5  C   UNL     1     108.851   5.586 -40.628  1.00  0.00    -0.028 C 
BRANCH   5   6
ATOM      6  C   UNL     1     108.616   4.876 -39.314  1.00  0.00     0.005 C 
ATOM      7  C   UNL     1     107.218   5.175 -38.761  1.00  0.00     0.012 C 
ATOM      8  C   UNL     1     109.704   5.219 -38.289  1.00  0.00     0.012 C 
ENDBRANCH   5   6
ENDBRANCH   3   4
ENDBRANCH   2   3
ENDBRANCH   1   2
BRANCH   1   9
ATOM      9  C   UNL     1     112.282   8.474 -42.281  1.00  0.00     0.100 C 
BRANCH   9  10
ATOM     10  C   UNL     1     111.992   9.140 -40.967  1.00  0.00     0.220 C 
ATOM     11  O   UNL     1     111.997  10.399 -40.897  1.00  0.00    -0.275 OA
ATOM     12  N   UNL     1     111.755   8.350 -39.793  1.00  0.00    -0.352 N 
ATOM     13  H   UNL     1     111.789   7.307 -39.867  1.00  0.00     0.163 HD
BRANCH  12  14
ATOM     14  C   UNL     1     111.491   8.946 -38.486  1.00  0.00     0.151 C 
BRANCH  14  15
ATOM     15  C   UNL     1     110.010   9.004 -38.229  1.00  0.00    -0.025 A 
ATOM     16  C   UNL     1     109.533   9.217 -36.926  1.00  0.00     0.056 A 
ATOM     17  C   UNL     1     109.096   8.820 -39.276  1.00  0.00     0.009 A 
ATOM     18  C   UNL     1     108.148   9.254 -36.668  1.00  0.00     0.160 A 
ATOM     19  C   UNL     1     107.723   8.855 -39.026  1.00  0.00     0.050 A 
ATOM     20  C   UNL     1     107.246   9.073 -37.727  1.00  0.00     0.157 A 
BRANCH  18  21
ATOM     21  O   UNL     1     107.632   9.467 -35.380  1.00  0.00    -0.493 OA
ATOM     22  C   UNL     1     107.725   8.532 -34.310  1.00  0.00     0.278 C 
ENDBRANCH  18  21
BRANCH  20  23
ATOM     23  O   UNL     1     105.875   9.110 -37.479  1.00  0.00    -0.504 OA
ATOM     24  H   UNL     1     105.463   8.605 -36.702  1.00  0.00     0.293 HD
ENDBRANCH  20  23
ENDBRANCH  14  15
ENDBRANCH  12  14
ENDBRANCH   9  10
ENDBRANCH   1   9
TORSDOF 10
ENDMDL
