MODEL 1
REMARK VINA RESULT:    -3.485      0.000      0.000
REMARK INTER + INTRA:          -6.748
REMARK INTER:                  -5.319
REMARK INTRA:                  -1.429
REMARK UNBOUND:                -1.429
REMARK SMILES CCCCCCCCCCC(=O)[O-]
REMARK SMILES IDX 7 1 8 2 9 3 10 4 11 5 12 6 13 7 6 8 5 9 4 10 3 11 2 12 1 13
REMARK H PARENT
REMARK Flexibility Score: inf
ROOT
ATOM      1  C   UNL     1      26.078  -2.755  52.512  1.00  0.00     0.000 C 
ENDROOT
BRANCH   1   2
ATOM      2  C   UNL     1      25.712  -4.102  51.870  1.00  0.00     0.000 C 
BRANCH   2   3
ATOM      3  C   UNL     1      26.971  -4.936  51.587  1.00  0.00     0.006 C 
BRANCH   3   4
ATOM      4  C   UNL     1      28.261  -4.141  51.829  1.00  0.00     0.053 C 
BRANCH   4   5
ATOM      5  C   UNL     1      29.477  -5.012  51.732  1.00  0.00     0.041 C 
ATOM      6  O   UNL     1      29.534  -5.928  50.870  1.00  0.00    -0.550 OA
ATOM      7  O   UNL     1      30.560  -4.789  52.572  1.00  0.00    -0.550 OA
ENDBRANCH   4   5
ENDBRANCH   3   4
ENDBRANCH   2   3
ENDBRANCH   1   2
BRANCH   1   8
ATOM      8  C   UNL     1      25.229  -2.443  53.754  1.00  0.00     0.000 C 
BRANCH   8   9
ATOM      9  C   UNL     1      24.626  -3.708  54.392  1.00  0.00    -0.000 C 
BRANCH   9  10
ATOM     10  C   UNL     1      25.446  -4.217  55.588  1.00  0.00    -0.000 C 
BRANCH  10  11
ATOM     11  C   UNL     1      26.122  -5.570  55.307  1.00  0.00    -0.000 C 
BRANCH  11  12
ATOM     12  C   UNL     1      27.653  -5.457  55.222  1.00  0.00    -0.003 C 
ATOM     13  C   UNL     1      28.163  -4.054  55.552  1.00  0.00     0.004 C 
ENDBRANCH  11  12
ENDBRANCH  10  11
ENDBRANCH   9  10
ENDBRANCH   8   9
ENDBRANCH   1   8
TORSDOF 9
ENDMDL
MODEL 2
REMARK VINA RESULT:    -3.485      1.490      2.811
REMARK INTER + INTRA:          -6.747
REMARK INTER:                  -5.509
REMARK INTRA:                  -1.239
REMARK UNBOUND:                -1.429
REMARK SMILES CCCCCCCCCCC(=O)[O-]
REMARK SMILES IDX 7 1 8 2 9 3 10 4 11 5 12 6 13 7 6 8 5 9 4 10 3 11 2 12 1 13
REMARK H PARENT
REMARK Flexibility Score: inf
ROOT
ATOM      1  C   UNL     1      28.350  -1.858  52.310  1.00  0.00     0.000 C 
ENDROOT
BRANCH   1   2
ATOM      2  C   UNL     1      28.549  -2.466  53.705  1.00  0.00     0.000 C 
BRANCH   2   3
ATOM      3  C   UNL     1      29.576  -3.609  53.666  1.00  0.00     0.006 C 
BRANCH   3   4
ATOM      4  C   UNL     1      29.902  -4.047  52.232  1.00  0.00     0.053 C 
BRANCH   4   5
ATOM      5  C   UNL     1      29.334  -5.398  51.921  1.00  0.00     0.041 C 
ATOM      6  O   UNL     1      29.492  -5.906  50.780  1.00  0.00    -0.550 OA
ATOM      7  O   UNL     1      28.658  -6.110  52.904  1.00  0.00    -0.550 OA
ENDBRANCH   4   5
ENDBRANCH   3   4
ENDBRANCH   2   3
ENDBRANCH   1   2
BRANCH   1   8
ATOM      8  C   UNL     1      26.883  -1.891  51.854  1.00  0.00     0.000 C 
BRANCH   8   9
ATOM      9  C   UNL     1      26.483  -3.248  51.244  1.00  0.00    -0.000 C 
BRANCH   9  10
ATOM     10  C   UNL     1      25.533  -4.047  52.149  1.00  0.00    -0.000 C 
BRANCH  10  11
ATOM     11  C   UNL     1      24.879  -3.174  53.235  1.00  0.00    -0.000 C 
BRANCH  11  12
ATOM     12  C   UNL     1      24.784  -3.892  54.590  1.00  0.00    -0.003 C 
ATOM     13  C   UNL     1      25.894  -4.924  54.793  1.00  0.00     0.004 C 
ENDBRANCH  11  12
ENDBRANCH  10  11
ENDBRANCH   9  10
ENDBRANCH   8   9
ENDBRANCH   1   8
TORSDOF 9
ENDMDL
MODEL 3
REMARK VINA RESULT:    -3.413      1.071      1.852
REMARK INTER + INTRA:          -6.637
REMARK INTER:                  -5.524
REMARK INTRA:                  -1.114
REMARK UNBOUND:                -1.429
REMARK SMILES CCCCCCCCCCC(=O)[O-]
REMARK SMILES IDX 7 1 8 2 9 3 10 4 11 5 12 6 13 7 6 8 5 9 4 10 3 11 2 12 1 13
REMARK H PARENT
REMARK Flexibility Score: inf
ROOT
ATOM      1  C   UNL     1      26.828  -2.758  51.529  1.00  0.00     0.000 C 
ENDROOT
BRANCH   1   2
ATOM      2  C   UNL     1      26.070  -4.084  51.370  1.00  0.00     0.000 C 
BRANCH   2   3
ATOM      3  C   UNL     1      26.945  -5.272  51.800  1.00  0.00     0.006 C 
BRANCH   3   4
ATOM      4  C   UNL     1      28.210  -4.823  52.543  1.00  0.00     0.053 C 
BRANCH   4   5
ATOM      5  C   UNL     1      29.438  -5.490  52.002  1.00  0.00     0.041 C 
ATOM      6  O   UNL     1      29.472  -5.881  50.806  1.00  0.00    -0.550 OA
ATOM      7  O   UNL     1      30.556  -5.649  52.811  1.00  0.00    -0.550 OA
ENDBRANCH   4   5
ENDBRANCH   3   4
ENDBRANCH   2   3
ENDBRANCH   1   2
BRANCH   1   8
ATOM      8  C   UNL     1      26.056  -1.734  52.375  1.00  0.00     0.000 C 
BRANCH   8   9
ATOM      9  C   UNL     1      26.477  -1.754  53.857  1.00  0.00    -0.000 C 
BRANCH   9  10
ATOM     10  C   UNL     1      25.293  -2.001  54.805  1.00  0.00    -0.000 C 
BRANCH  10  11
ATOM     11  C   UNL     1      24.557  -3.317  54.498  1.00  0.00    -0.000 C 
BRANCH  11  12
ATOM     12  C   UNL     1      24.712  -4.354  55.623  1.00  0.00    -0.003 C 
ATOM     13  C   UNL     1      25.980  -5.197  55.481  1.00  0.00     0.004 C 
ENDBRANCH  11  12
ENDBRANCH  10  11
ENDBRANCH   9  10
ENDBRANCH   8   9
ENDBRANCH   1   8
TORSDOF 9
ENDMDL
MODEL 4
REMARK VINA RESULT:    -3.393      1.025      3.196
REMARK INTER + INTRA:          -6.607
REMARK INTER:                  -5.512
REMARK INTRA:                  -1.096
REMARK UNBOUND:                -1.429
REMARK SMILES CCCCCCCCCCC(=O)[O-]
REMARK SMILES IDX 7 1 8 2 9 3 10 4 11 5 12 6 13 7 6 8 5 9 4 10 3 11 2 12 1 13
REMARK H PARENT
REMARK Flexibility Score: inf
ROOT
ATOM      1  C   UNL     1      26.821  -5.349  55.961  1.00  0.00     0.000 C 
ENDROOT
BRANCH   1   2
ATOM      2  C   UNL     1      28.191  -5.787  55.425  1.00  0.00     0.000 C 
BRANCH   2   3
ATOM      3  C   UNL     1      28.534  -5.047  54.123  1.00  0.00     0.006 C 
BRANCH   3   4
ATOM      4  C   UNL     1      28.630  -5.998  52.922  1.00  0.00     0.053 C 
BRANCH   4   5
ATOM      5  C   UNL     1      29.364  -5.372  51.775  1.00  0.00     0.041 C 
ATOM      6  O   UNL     1      29.530  -6.011  50.704  1.00  0.00    -0.550 OA
ATOM      7  O   UNL     1      29.836  -4.070  51.880  1.00  0.00    -0.550 OA
ENDBRANCH   4   5
ENDBRANCH   3   4
ENDBRANCH   2   3
ENDBRANCH   1   2
BRANCH   1   8
ATOM      8  C   UNL     1      25.750  -5.283  54.860  1.00  0.00     0.000 C 
BRANCH   8   9
ATOM      9  C   UNL     1      25.031  -3.922  54.814  1.00  0.00    -0.000 C 
BRANCH   9  10
ATOM     10  C   UNL     1      24.748  -3.450  53.379  1.00  0.00    -0.000 C 
BRANCH  10  11
ATOM     11  C   UNL     1      25.936  -2.693  52.762  1.00  0.00    -0.000 C 
BRANCH  11  12
ATOM     12  C   UNL     1      26.421  -3.329  51.449  1.00  0.00    -0.003 C 
ATOM     13  C   UNL     1      25.736  -4.662  51.148  1.00  0.00     0.004 C 
ENDBRANCH  11  12
ENDBRANCH  10  11
ENDBRANCH   9  10
ENDBRANCH   8   9
ENDBRANCH   1   8
TORSDOF 9
ENDMDL
MODEL 5
REMARK VINA RESULT:    -3.378      1.193      1.648
REMARK INTER + INTRA:          -6.583
REMARK INTER:                  -5.347
REMARK INTRA:                  -1.236
REMARK UNBOUND:                -1.429
REMARK SMILES CCCCCCCCCCC(=O)[O-]
REMARK SMILES IDX 7 1 8 2 9 3 10 4 11 5 12 6 13 7 6 8 5 9 4 10 3 11 2 12 1 13
REMARK H PARENT
REMARK Flexibility Score: inf
ROOT
ATOM      1  C   UNL     1      26.440  -3.528  51.537  1.00  0.00     0.000 C 
ENDROOT
BRANCH   1   2
ATOM      2  C   UNL     1      26.496  -5.050  51.739  1.00  0.00     0.000 C 
BRANCH   2   3
ATOM      3  C   UNL     1      27.941  -5.523  51.957  1.00  0.00     0.006 C 
BRANCH   3   4
ATOM      4  C   UNL     1      28.965  -4.424  51.645  1.00  0.00     0.053 C 
BRANCH   4   5
ATOM      5  C   UNL     1      29.829  -4.117  52.831  1.00  0.00     0.041 C 
ATOM      6  O   UNL     1      29.347  -3.523  53.831  1.00  0.00    -0.550 OA
ATOM      7  O   UNL     1      31.159  -4.517  52.844  1.00  0.00    -0.550 OA
ENDBRANCH   4   5
ENDBRANCH   3   4
ENDBRANCH   2   3
ENDBRANCH   1   2
BRANCH   1   8
ATOM      8  C   UNL     1      25.834  -2.794  52.744  1.00  0.00     0.000 C 
BRANCH   8   9
ATOM      9  C   UNL     1      24.635  -3.546  53.353  1.00  0.00    -0.000 C 
BRANCH   9  10
ATOM     10  C   UNL     1      24.674  -3.576  54.889  1.00  0.00    -0.000 C 
BRANCH  10  11
ATOM     11  C   UNL     1      26.029  -4.057  55.436  1.00  0.00    -0.000 C 
BRANCH  11  12
ATOM     12  C   UNL     1      26.189  -5.583  55.357  1.00  0.00    -0.003 C 
ATOM     13  C   UNL     1      27.628  -6.042  55.593  1.00  0.00     0.004 C 
ENDBRANCH  11  12
ENDBRANCH  10  11
ENDBRANCH   9  10
ENDBRANCH   8   9
ENDBRANCH   1   8
TORSDOF 9
ENDMDL
MODEL 6
REMARK VINA RESULT:    -3.374      2.306      4.173
REMARK INTER + INTRA:          -6.578
REMARK INTER:                  -5.710
REMARK INTRA:                  -0.869
REMARK UNBOUND:                -1.429
REMARK SMILES CCCCCCCCCCC(=O)[O-]
REMARK SMILES IDX 7 1 8 2 9 3 10 4 11 5 12 6 13 7 6 8 5 9 4 10 3 11 2 12 1 13
REMARK H PARENT
REMARK Flexibility Score: inf
ROOT
ATOM      1  C   UNL     1      24.770  -3.063  53.517  1.00  0.00     0.000 C 
ENDROOT
BRANCH   1   2
ATOM      2  C   UNL     1      24.662  -2.663  54.995  1.00  0.00     0.000 C 
BRANCH   2   3
ATOM      3  C   UNL     1      25.088  -3.821  55.910  1.00  0.00     0.006 C 
BRANCH   3   4
ATOM      4  C   UNL     1      25.786  -4.947  55.136  1.00  0.00     0.053 C 
BRANCH   4   5
ATOM      5  C   UNL     1      26.663  -5.773  56.027  1.00  0.00     0.041 C 
ATOM      6  O   UNL     1      27.648  -6.394  55.549  1.00  0.00    -0.550 OA
ATOM      7  O   UNL     1      26.410  -5.829  57.392  1.00  0.00    -0.550 OA
ENDBRANCH   4   5
ENDBRANCH   3   4
ENDBRANCH   2   3
ENDBRANCH   1   2
BRANCH   1   8
ATOM      8  C   UNL     1      25.716  -2.148  52.724  1.00  0.00     0.000 C 
BRANCH   8   9
ATOM      9  C   UNL     1      26.592  -2.925  51.723  1.00  0.00    -0.000 C 
BRANCH   9  10
ATOM     10  C   UNL     1      25.974  -4.273  51.319  1.00  0.00    -0.000 C 
BRANCH  10  11
ATOM     11  C   UNL     1      26.800  -5.473  51.815  1.00  0.00    -0.000 C 
BRANCH  11  12
ATOM     12  C   UNL     1      28.219  -5.072  52.247  1.00  0.00    -0.003 C 
ATOM     13  C   UNL     1      29.296  -5.577  51.285  1.00  0.00     0.004 C 
ENDBRANCH  11  12
ENDBRANCH  10  11
ENDBRANCH   9  10
ENDBRANCH   8   9
ENDBRANCH   1   8
TORSDOF 9
ENDMDL
MODEL 7
REMARK VINA RESULT:    -3.369      2.485      4.133
REMARK INTER + INTRA:          -6.571
REMARK INTER:                  -5.437
REMARK INTRA:                  -1.134
REMARK UNBOUND:                -1.429
REMARK SMILES CCCCCCCCCCC(=O)[O-]
REMARK SMILES IDX 7 1 8 2 9 3 10 4 11 5 12 6 13 7 6 8 5 9 4 10 3 11 2 12 1 13
REMARK H PARENT
REMARK Flexibility Score: inf
ROOT
ATOM      1  C   UNL     1      26.014  -2.792  52.937  1.00  0.00     0.000 C 
ENDROOT
BRANCH   1   2
ATOM      2  C   UNL     1      24.608  -3.232  53.368  1.00  0.00     0.000 C 
BRANCH   2   3
ATOM      3  C   UNL     1      24.645  -3.919  54.742  1.00  0.00     0.006 C 
BRANCH   3   4
ATOM      4  C   UNL     1      26.073  -4.055  55.285  1.00  0.00     0.053 C 
BRANCH   4   5
ATOM      5  C   UNL     1      26.249  -5.316  56.076  1.00  0.00     0.041 C 
ATOM      6  O   UNL     1      25.470  -5.581  57.029  1.00  0.00    -0.550 OA
ATOM      7  O   UNL     1      27.253  -6.214  55.738  1.00  0.00    -0.550 OA
ENDBRANCH   4   5
ENDBRANCH   3   4
ENDBRANCH   2   3
ENDBRANCH   1   2
BRANCH   1   8
ATOM      8  C   UNL     1      26.394  -3.312  51.541  1.00  0.00     0.000 C 
BRANCH   8   9
ATOM      9  C   UNL     1      26.338  -4.849  51.447  1.00  0.00    -0.000 C 
BRANCH   9  10
ATOM     10  C   UNL     1      27.445  -5.533  52.264  1.00  0.00    -0.000 C 
BRANCH  10  11
ATOM     11  C   UNL     1      28.794  -5.557  51.526  1.00  0.00    -0.000 C 
BRANCH  11  12
ATOM     12  C   UNL     1      29.892  -4.789  52.279  1.00  0.00    -0.003 C 
ATOM     13  C   UNL     1      29.424  -4.266  53.637  1.00  0.00     0.004 C 
ENDBRANCH  11  12
ENDBRANCH  10  11
ENDBRANCH   9  10
ENDBRANCH   8   9
ENDBRANCH   1   8
TORSDOF 9
ENDMDL
MODEL 8
REMARK VINA RESULT:    -3.320      1.264      1.817
REMARK INTER + INTRA:          -6.496
REMARK INTER:                  -5.436
REMARK INTRA:                  -1.059
REMARK UNBOUND:                -1.429
REMARK SMILES CCCCCCCCCCC(=O)[O-]
REMARK SMILES IDX 7 1 8 2 9 3 10 4 11 5 12 6 13 7 6 8 5 9 4 10 3 11 2 12 1 13
REMARK H PARENT
REMARK Flexibility Score: inf
ROOT
ATOM      1  C   UNL     1      25.827  -1.859  53.475  1.00  0.00     0.000 C 
ENDROOT
BRANCH   1   2
ATOM      2  C   UNL     1      26.612  -1.546  52.193  1.00  0.00     0.000 C 
BRANCH   2   3
ATOM      3  C   UNL     1      26.857  -2.823  51.374  1.00  0.00     0.006 C 
BRANCH   3   4
ATOM      4  C   UNL     1      28.119  -3.569  51.825  1.00  0.00     0.053 C 
BRANCH   4   5
ATOM      5  C   UNL     1      27.954  -5.055  51.719  1.00  0.00     0.041 C 
ATOM      6  O   UNL     1      28.949  -5.789  51.484  1.00  0.00    -0.550 OA
ATOM      7  O   UNL     1      26.705  -5.630  51.914  1.00  0.00    -0.550 OA
ENDBRANCH   4   5
ENDBRANCH   3   4
ENDBRANCH   2   3
ENDBRANCH   1   2
BRANCH   1   8
ATOM      8  C   UNL     1      24.768  -2.953  53.268  1.00  0.00     0.000 C 
BRANCH   8   9
ATOM      9  C   UNL     1      24.768  -3.998  54.400  1.00  0.00    -0.000 C 
BRANCH   9  10
ATOM     10  C   UNL     1      26.137  -4.128  55.085  1.00  0.00    -0.000 C 
BRANCH  10  11
ATOM     11  C   UNL     1      26.488  -5.586  55.431  1.00  0.00    -0.000 C 
BRANCH  11  12
ATOM     12  C   UNL     1      27.943  -5.747  55.897  1.00  0.00    -0.003 C 
ATOM     13  C   UNL     1      28.764  -6.650  54.976  1.00  0.00     0.004 C 
ENDBRANCH  11  12
ENDBRANCH  10  11
ENDBRANCH   9  10
ENDBRANCH   8   9
ENDBRANCH   1   8
TORSDOF 9
ENDMDL
MODEL 9
REMARK VINA RESULT:    -3.261      3.328      4.903
REMARK INTER + INTRA:          -6.406
REMARK INTER:                  -5.493
REMARK INTRA:                  -0.913
REMARK UNBOUND:                -1.429
REMARK SMILES CCCCCCCCCCC(=O)[O-]
REMARK SMILES IDX 7 1 8 2 9 3 10 4 11 5 12 6 13 7 6 8 5 9 4 10 3 11 2 12 1 13
REMARK H PARENT
REMARK Flexibility Score: inf
ROOT
ATOM      1  C   UNL     1      24.592  -3.265  53.604  1.00  0.00     0.000 C 
ENDROOT
BRANCH   1   2
ATOM      2  C   UNL     1      24.620  -3.882  55.010  1.00  0.00     0.000 C 
BRANCH   2   3
ATOM      3  C   UNL     1      25.892  -4.719  55.217  1.00  0.00     0.006 C 
BRANCH   3   4
ATOM      4  C   UNL     1      25.852  -5.523  56.524  1.00  0.00     0.053 C 
BRANCH   4   5
ATOM      5  C   UNL     1      25.186  -4.757  57.627  1.00  0.00     0.041 C 
ATOM      6  O   UNL     1      24.057  -5.115  58.054  1.00  0.00    -0.550 OA
ATOM      7  O   UNL     1      25.828  -3.669  58.203  1.00  0.00    -0.550 OA
ENDBRANCH   4   5
ENDBRANCH   3   4
ENDBRANCH   2   3
ENDBRANCH   1   2
BRANCH   1   8
ATOM      8  C   UNL     1      25.886  -2.508  53.266  1.00  0.00     0.000 C 
BRANCH   8   9
ATOM      9  C   UNL     1      26.497  -2.952  51.924  1.00  0.00    -0.000 C 
BRANCH   9  10
ATOM     10  C   UNL     1      25.857  -4.238  51.378  1.00  0.00    -0.000 C 
BRANCH  10  11
ATOM     11  C   UNL     1      26.668  -5.497  51.732  1.00  0.00    -0.000 C 
BRANCH  11  12
ATOM     12  C   UNL     1      28.168  -5.205  51.897  1.00  0.00    -0.003 C 
ATOM     13  C   UNL     1      28.769  -5.873  53.133  1.00  0.00     0.004 C 
ENDBRANCH  11  12
ENDBRANCH  10  11
ENDBRANCH   9  10
ENDBRANCH   8   9
ENDBRANCH   1   8
TORSDOF 9
ENDMDL
