MODEL 1
REMARK VINA RESULT:    -4.771      0.000      0.000
REMARK INTER + INTRA:          -8.102
REMARK INTER:                  -7.281
REMARK INTRA:                  -0.820
REMARK UNBOUND:                -0.820
REMARK SMILES O=C([O-])CCCCCCCCC(=O)[O-]
REMARK SMILES IDX 7 1 6 2 5 3 4 4 2 5 1 6 3 7 8 8 9 9 10 10 11 11 12 12 13 13
REMARK SMILES IDX 14 14
REMARK H PARENT
REMARK Flexibility Score: inf
ROOT
ATOM      1  C   UNL     1      20.311   5.808  -9.414  1.00  0.00     0.000 C 
ENDROOT
BRANCH   1   2
ATOM      2  C   UNL     1      19.431   6.894 -10.042  1.00  0.00     0.000 C 
BRANCH   2   3
ATOM      3  C   UNL     1      18.166   6.285 -10.665  1.00  0.00     0.006 C 
BRANCH   3   4
ATOM      4  C   UNL     1      18.243   4.756 -10.759  1.00  0.00     0.053 C 
BRANCH   4   5
ATOM      5  C   UNL     1      16.886   4.125 -10.678  1.00  0.00     0.041 C 
ATOM      6  O   UNL     1      16.713   2.941 -11.071  1.00  0.00    -0.550 OA
ATOM      7  O   UNL     1      15.808   4.856 -10.198  1.00  0.00    -0.550 OA
ENDBRANCH   4   5
ENDBRANCH   3   4
ENDBRANCH   2   3
ENDBRANCH   1   2
BRANCH   1   8
ATOM      8  C   UNL     1      21.770   5.948  -9.869  1.00  0.00     0.000 C 
BRANCH   8   9
ATOM      9  C   UNL     1      21.931   7.124 -10.843  1.00  0.00     0.000 C 
BRANCH   9  10
ATOM     10  C   UNL     1      22.298   6.672 -12.268  1.00  0.00     0.006 C 
BRANCH  10  11
ATOM     11  C   UNL     1      21.911   5.220 -12.590  1.00  0.00     0.053 C 
BRANCH  11  12
ATOM     12  C   UNL     1      20.586   5.133 -13.283  1.00  0.00     0.041 C 
ATOM     13  O   UNL     1      19.917   6.177 -13.504  1.00  0.00    -0.550 OA
ATOM     14  O   UNL     1      20.106   3.903 -13.713  1.00  0.00    -0.550 OA
ENDBRANCH  11  12
ENDBRANCH  10  11
ENDBRANCH   9  10
ENDBRANCH   8   9
ENDBRANCH   1   8
TORSDOF 9
ENDMDL
MODEL 2
REMARK VINA RESULT:    -4.753      0.132      4.204
REMARK INTER + INTRA:          -8.074
REMARK INTER:                  -7.253
REMARK INTRA:                  -0.821
REMARK UNBOUND:                -0.820
REMARK SMILES O=C([O-])CCCCCCCCC(=O)[O-]
REMARK SMILES IDX 7 1 6 2 5 3 4 4 2 5 1 6 3 7 8 8 9 9 10 10 11 11 12 12 13 13
REMARK SMILES IDX 14 14
REMARK H PARENT
REMARK Flexibility Score: inf
ROOT
ATOM      1  C   UNL     1      21.718   5.918  -9.987  1.00  0.00     0.000 C 
ENDROOT
BRANCH   1   2
ATOM      2  C   UNL     1      21.893   7.125 -10.916  1.00  0.00     0.000 C 
BRANCH   2   3
ATOM      3  C   UNL     1      22.144   6.675 -12.362  1.00  0.00     0.006 C 
BRANCH   3   4
ATOM      4  C   UNL     1      21.786   5.199 -12.582  1.00  0.00     0.053 C 
BRANCH   4   5
ATOM      5  C   UNL     1      20.528   5.046 -13.382  1.00  0.00     0.041 C 
ATOM      6  O   UNL     1      19.833   6.055 -13.670  1.00  0.00    -0.550 OA
ATOM      7  O   UNL     1      20.107   3.783 -13.780  1.00  0.00    -0.550 OA
ENDBRANCH   4   5
ENDBRANCH   3   4
ENDBRANCH   2   3
ENDBRANCH   1   2
BRANCH   1   8
ATOM      8  C   UNL     1      20.334   5.926  -9.326  1.00  0.00     0.000 C 
BRANCH   8   9
ATOM      9  C   UNL     1      19.405   6.942 -10.006  1.00  0.00     0.000 C 
BRANCH   9  10
ATOM     10  C   UNL     1      18.205   6.278 -10.705  1.00  0.00     0.006 C 
BRANCH  10  11
ATOM     11  C   UNL     1      18.310   4.750 -10.827  1.00  0.00     0.053 C 
BRANCH  11  12
ATOM     12  C   UNL     1      16.974   4.084 -10.705  1.00  0.00     0.041 C 
ATOM     13  O   UNL     1      16.822   2.894 -11.086  1.00  0.00    -0.550 OA
ATOM     14  O   UNL     1      15.905   4.769 -10.140  1.00  0.00    -0.550 OA
ENDBRANCH  11  12
ENDBRANCH  10  11
ENDBRANCH   9  10
ENDBRANCH   8   9
ENDBRANCH   1   8
TORSDOF 9
ENDMDL
MODEL 3
REMARK VINA RESULT:    -3.829      2.171      5.693
REMARK INTER + INTRA:          -6.664
REMARK INTER:                  -6.589
REMARK INTRA:                  -0.075
REMARK UNBOUND:                -0.820
REMARK SMILES O=C([O-])CCCCCCCCC(=O)[O-]
REMARK SMILES IDX 7 1 6 2 5 3 4 4 2 5 1 6 3 7 8 8 9 9 10 10 11 11 12 12 13 13
REMARK SMILES IDX 14 14
REMARK H PARENT
REMARK Flexibility Score: inf
ROOT
ATOM      1  C   UNL     1      21.460   5.882 -10.518  1.00  0.00     0.000 C 
ENDROOT
BRANCH   1   2
ATOM      2  C   UNL     1      21.320   6.553 -11.889  1.00  0.00     0.000 C 
BRANCH   2   3
ATOM      3  C   UNL     1      22.687   6.698 -12.574  1.00  0.00     0.006 C 
BRANCH   3   4
ATOM      4  C   UNL     1      23.217   5.359 -13.101  1.00  0.00     0.053 C 
BRANCH   4   5
ATOM      5  C   UNL     1      24.525   5.521 -13.815  1.00  0.00     0.041 C 
ATOM      6  O   UNL     1      24.926   6.667 -14.149  1.00  0.00    -0.550 OA
ATOM      7  O   UNL     1      25.283   4.404 -14.139  1.00  0.00    -0.550 OA
ENDBRANCH   4   5
ENDBRANCH   3   4
ENDBRANCH   2   3
ENDBRANCH   1   2
BRANCH   1   8
ATOM      8  C   UNL     1      20.243   6.176  -9.632  1.00  0.00     0.000 C 
BRANCH   8   9
ATOM      9  C   UNL     1      19.224   7.055 -10.372  1.00  0.00     0.000 C 
BRANCH   9  10
ATOM     10  C   UNL     1      18.183   6.234 -11.153  1.00  0.00     0.006 C 
BRANCH  10  11
ATOM     11  C   UNL     1      18.285   4.715 -10.939  1.00  0.00     0.053 C 
BRANCH  11  12
ATOM     12  C   UNL     1      16.940   4.083 -10.754  1.00  0.00     0.041 C 
ATOM     13  O   UNL     1      16.742   2.896 -11.124  1.00  0.00    -0.550 OA
ATOM     14  O   UNL     1      15.916   4.795 -10.141  1.00  0.00    -0.550 OA
ENDBRANCH  11  12
ENDBRANCH  10  11
ENDBRANCH   9  10
ENDBRANCH   8   9
ENDBRANCH   1   8
TORSDOF 9
ENDMDL
MODEL 4
REMARK VINA RESULT:    -3.455      2.034      4.798
REMARK INTER + INTRA:          -6.093
REMARK INTER:                  -5.957
REMARK INTRA:                  -0.136
REMARK UNBOUND:                -0.820
REMARK SMILES O=C([O-])CCCCCCCCC(=O)[O-]
REMARK SMILES IDX 7 1 6 2 5 3 4 4 2 5 1 6 3 7 8 8 9 9 10 10 11 11 12 12 13 13
REMARK SMILES IDX 14 14
REMARK H PARENT
REMARK Flexibility Score: inf
ROOT
ATOM      1  C   UNL     1      20.114   5.370 -12.665  1.00  0.00     0.000 C 
ENDROOT
BRANCH   1   2
ATOM      2  C   UNL     1      21.582   5.535 -12.257  1.00  0.00     0.000 C 
BRANCH   2   3
ATOM      3  C   UNL     1      21.886   6.989 -11.868  1.00  0.00     0.006 C 
BRANCH   3   4
ATOM      4  C   UNL     1      22.272   7.125 -10.389  1.00  0.00     0.053 C 
BRANCH   4   5
ATOM      5  C   UNL     1      21.582   6.103  -9.538  1.00  0.00     0.041 C 
ATOM      6  O   UNL     1      20.405   6.302  -9.137  1.00  0.00    -0.550 OA
ATOM      7  O   UNL     1      22.251   4.946  -9.161  1.00  0.00    -0.550 OA
ENDBRANCH   4   5
ENDBRANCH   3   4
ENDBRANCH   2   3
ENDBRANCH   1   2
BRANCH   1   8
ATOM      8  C   UNL     1      19.410   6.730 -12.755  1.00  0.00     0.000 C 
BRANCH   8   9
ATOM      9  C   UNL     1      18.225   6.802 -11.781  1.00  0.00     0.000 C 
BRANCH   9  10
ATOM     10  C   UNL     1      18.200   5.629 -10.785  1.00  0.00     0.006 C 
BRANCH  10  11
ATOM     11  C   UNL     1      16.801   5.282 -10.251  1.00  0.00     0.053 C 
BRANCH  11  12
ATOM     12  C   UNL     1      16.238   4.060 -10.908  1.00  0.00     0.041 C 
ATOM     13  O   UNL     1      16.987   3.088 -11.188  1.00  0.00    -0.550 OA
ATOM     14  O   UNL     1      14.878   3.982 -11.182  1.00  0.00    -0.550 OA
ENDBRANCH  11  12
ENDBRANCH  10  11
ENDBRANCH   9  10
ENDBRANCH   8   9
ENDBRANCH   1   8
TORSDOF 9
ENDMDL
MODEL 5
REMARK VINA RESULT:    -3.123      2.069      3.227
REMARK INTER + INTRA:          -5.586
REMARK INTER:                  -4.899
REMARK INTRA:                  -0.687
REMARK UNBOUND:                -0.820
REMARK SMILES O=C([O-])CCCCCCCCC(=O)[O-]
REMARK SMILES IDX 7 1 6 2 5 3 4 4 2 5 1 6 3 7 8 8 9 9 10 10 11 11 12 12 13 13
REMARK SMILES IDX 14 14
REMARK H PARENT
REMARK Flexibility Score: inf
ROOT
ATOM      1  C   UNL     1      20.220   3.692 -13.317  1.00  0.00     0.000 C 
ENDROOT
BRANCH   1   2
ATOM      2  C   UNL     1      18.784   3.365 -12.894  1.00  0.00     0.000 C 
BRANCH   2   3
ATOM      3  C   UNL     1      18.334   4.264 -11.733  1.00  0.00     0.006 C 
BRANCH   3   4
ATOM      4  C   UNL     1      17.371   3.543 -10.780  1.00  0.00     0.053 C 
BRANCH   4   5
ATOM      5  C   UNL     1      16.094   4.306 -10.599  1.00  0.00     0.041 C 
ATOM      6  O   UNL     1      15.084   4.026 -11.295  1.00  0.00    -0.550 OA
ATOM      7  O   UNL     1      16.032   5.349  -9.684  1.00  0.00    -0.550 OA
ENDBRANCH   4   5
ENDBRANCH   3   4
ENDBRANCH   2   3
ENDBRANCH   1   2
BRANCH   1   8
ATOM      8  C   UNL     1      20.478   5.204 -13.270  1.00  0.00     0.000 C 
BRANCH   8   9
ATOM      9  C   UNL     1      21.916   5.502 -12.819  1.00  0.00     0.000 C 
BRANCH   9  10
ATOM     10  C   UNL     1      22.004   5.906 -11.337  1.00  0.00     0.006 C 
BRANCH  10  11
ATOM     11  C   UNL     1      21.025   7.016 -10.923  1.00  0.00     0.053 C 
BRANCH  11  12
ATOM     12  C   UNL     1      20.127   6.584  -9.806  1.00  0.00     0.041 C 
ATOM     13  O   UNL     1      20.533   5.753  -8.951  1.00  0.00    -0.550 OA
ATOM     14  O   UNL     1      18.852   7.124  -9.690  1.00  0.00    -0.550 OA
ENDBRANCH  11  12
ENDBRANCH  10  11
ENDBRANCH   9  10
ENDBRANCH   8   9
ENDBRANCH   1   8
TORSDOF 9
ENDMDL
MODEL 6
REMARK VINA RESULT:    -2.968      4.452      7.525
REMARK INTER + INTRA:          -5.349
REMARK INTER:                  -5.129
REMARK INTRA:                  -0.221
REMARK UNBOUND:                -0.820
REMARK SMILES O=C([O-])CCCCCCCCC(=O)[O-]
REMARK SMILES IDX 7 1 6 2 5 3 4 4 2 5 1 6 3 7 8 8 9 9 10 10 11 11 12 12 13 13
REMARK SMILES IDX 14 14
REMARK H PARENT
REMARK Flexibility Score: inf
ROOT
ATOM      1  C   UNL     1      23.572   5.016 -13.229  1.00  0.00     0.000 C 
ENDROOT
BRANCH   1   2
ATOM      2  C   UNL     1      24.682   5.557 -14.136  1.00  0.00     0.000 C 
BRANCH   2   3
ATOM      3  C   UNL     1      25.748   4.485 -14.402  1.00  0.00     0.006 C 
BRANCH   3   4
ATOM      4  C   UNL     1      27.063   5.087 -14.916  1.00  0.00     0.053 C 
BRANCH   4   5
ATOM      5  C   UNL     1      28.172   4.080 -14.917  1.00  0.00     0.041 C 
ATOM      6  O   UNL     1      28.895   3.933 -15.937  1.00  0.00    -0.550 OA
ATOM      7  O   UNL     1      28.386   3.281 -13.801  1.00  0.00    -0.550 OA
ENDBRANCH   4   5
ENDBRANCH   3   4
ENDBRANCH   2   3
ENDBRANCH   1   2
BRANCH   1   8
ATOM      8  C   UNL     1      22.626   6.139 -12.784  1.00  0.00     0.000 C 
BRANCH   8   9
ATOM      9  C   UNL     1      21.604   5.624 -11.760  1.00  0.00     0.000 C 
BRANCH   9  10
ATOM     10  C   UNL     1      21.340   6.629 -10.624  1.00  0.00     0.006 C 
BRANCH  10  11
ATOM     11  C   UNL     1      20.037   6.379  -9.849  1.00  0.00     0.053 C 
BRANCH  11  12
ATOM     12  C   UNL     1      18.868   6.185 -10.765  1.00  0.00     0.041 C 
ATOM     13  O   UNL     1      18.484   7.125 -11.510  1.00  0.00    -0.550 OA
ATOM     14  O   UNL     1      18.224   4.955 -10.820  1.00  0.00    -0.550 OA
ENDBRANCH  11  12
ENDBRANCH  10  11
ENDBRANCH   9  10
ENDBRANCH   8   9
ENDBRANCH   1   8
TORSDOF 9
ENDMDL
MODEL 7
REMARK VINA RESULT:    -2.654      2.075      3.207
REMARK INTER + INTRA:          -4.870
REMARK INTER:                  -4.022
REMARK INTRA:                  -0.848
REMARK UNBOUND:                -0.820
REMARK SMILES O=C([O-])CCCCCCCCC(=O)[O-]
REMARK SMILES IDX 7 1 6 2 5 3 4 4 2 5 1 6 3 7 8 8 9 9 10 10 11 11 12 12 13 13
REMARK SMILES IDX 14 14
REMARK H PARENT
REMARK Flexibility Score: inf
ROOT
ATOM      1  C   UNL     1      18.200   6.373 -11.169  1.00  0.00     0.000 C 
ENDROOT
BRANCH   1   2
ATOM      2  C   UNL     1      17.587   5.037 -10.736  1.00  0.00     0.000 C 
BRANCH   2   3
ATOM      3  C   UNL     1      17.907   3.930 -11.752  1.00  0.00     0.006 C 
BRANCH   3   4
ATOM      4  C   UNL     1      19.378   3.951 -12.190  1.00  0.00     0.053 C 
BRANCH   4   5
ATOM      5  C   UNL     1      19.556   3.383 -13.565  1.00  0.00     0.041 C 
ATOM      6  O   UNL     1      20.173   4.038 -14.446  1.00  0.00    -0.550 OA
ATOM      7  O   UNL     1      19.011   2.146 -13.882  1.00  0.00    -0.550 OA
ENDBRANCH   4   5
ENDBRANCH   3   4
ENDBRANCH   2   3
ENDBRANCH   1   2
BRANCH   1   8
ATOM      8  C   UNL     1      18.788   7.125  -9.968  1.00  0.00     0.000 C 
BRANCH   8   9
ATOM      9  C   UNL     1      19.946   6.337  -9.339  1.00  0.00     0.000 C 
BRANCH   9  10
ATOM     10  C   UNL     1      21.319   6.736  -9.910  1.00  0.00     0.006 C 
BRANCH  10  11
ATOM     11  C   UNL     1      22.011   5.631 -10.723  1.00  0.00     0.053 C 
BRANCH  11  12
ATOM     12  C   UNL     1      22.145   5.999 -12.168  1.00  0.00     0.041 C 
ATOM     13  O   UNL     1      21.551   7.012 -12.622  1.00  0.00    -0.550 OA
ATOM     14  O   UNL     1      22.952   5.240 -13.007  1.00  0.00    -0.550 OA
ENDBRANCH  11  12
ENDBRANCH  10  11
ENDBRANCH   9  10
ENDBRANCH   8   9
ENDBRANCH   1   8
TORSDOF 9
ENDMDL
MODEL 8
REMARK VINA RESULT:    -2.614      3.563      4.783
REMARK INTER + INTRA:          -4.810
REMARK INTER:                  -4.567
REMARK INTRA:                  -0.243
REMARK UNBOUND:                -0.820
REMARK SMILES O=C([O-])CCCCCCCCC(=O)[O-]
REMARK SMILES IDX 7 1 6 2 5 3 4 4 2 5 1 6 3 7 8 8 9 9 10 10 11 11 12 12 13 13
REMARK SMILES IDX 14 14
REMARK H PARENT
REMARK Flexibility Score: inf
ROOT
ATOM      1  C   UNL     1      20.289   4.781 -13.228  1.00  0.00     0.000 C 
ENDROOT
BRANCH   1   2
ATOM      2  C   UNL     1      19.923   5.813 -12.156  1.00  0.00     0.000 C 
BRANCH   2   3
ATOM      3  C   UNL     1      19.157   5.156 -10.998  1.00  0.00     0.006 C 
BRANCH   3   4
ATOM      4  C   UNL     1      17.715   5.669 -10.891  1.00  0.00     0.053 C 
BRANCH   4   5
ATOM      5  C   UNL     1      16.751   4.561 -10.596  1.00  0.00     0.041 C 
ATOM      6  O   UNL     1      17.029   3.376 -10.919  1.00  0.00    -0.550 OA
ATOM      7  O   UNL     1      15.531   4.842  -9.994  1.00  0.00    -0.550 OA
ENDBRANCH   4   5
ENDBRANCH   3   4
ENDBRANCH   2   3
ENDBRANCH   1   2
BRANCH   1   8
ATOM      8  C   UNL     1      19.402   3.533 -13.119  1.00  0.00     0.000 C 
BRANCH   8   9
ATOM      9  C   UNL     1      19.559   2.637 -14.355  1.00  0.00     0.000 C 
BRANCH   9  10
ATOM     10  C   UNL     1      18.556   1.470 -14.377  1.00  0.00     0.006 C 
BRANCH  10  11
ATOM     11  C   UNL     1      18.093   1.059 -15.784  1.00  0.00     0.053 C 
BRANCH  11  12
ATOM     12  C   UNL     1      17.367  -0.250 -15.775  1.00  0.00     0.041 C 
ATOM     13  O   UNL     1      17.201  -0.890 -16.847  1.00  0.00    -0.550 OA
ATOM     14  O   UNL     1      16.903  -0.780 -14.578  1.00  0.00    -0.550 OA
ENDBRANCH  11  12
ENDBRANCH  10  11
ENDBRANCH   9  10
ENDBRANCH   8   9
ENDBRANCH   1   8
TORSDOF 9
ENDMDL
