MODEL 1
REMARK VINA RESULT:    -4.642      0.000      0.000
REMARK INTER + INTRA:         -10.396
REMARK INTER:                  -8.441
REMARK INTRA:                  -1.955
REMARK UNBOUND:                -1.955
REMARK SMILES CCCCCCCCCCCCCC[C@H](C)C(=O)[O-]
REMARK SMILES IDX 9 1 10 2 11 3 12 4 13 5 14 6 15 7 16 8 17 9 18 10 19 11 8 12
REMARK SMILES IDX 7 13 6 14 5 15 4 16 3 17 2 18 1 19
REMARK H PARENT
REMARK Flexibility Score: inf
ROOT
ATOM      1  C   UNL     1     189.706 194.300 194.295  1.00  0.00     0.000 C 
ENDROOT
BRANCH   1   2
ATOM      2  C   UNL     1     188.388 194.269 195.089  1.00  0.00     0.000 C 
BRANCH   2   3
ATOM      3  C   UNL     1     187.265 195.068 194.409  1.00  0.00     0.000 C 
BRANCH   3   4
ATOM      4  C   UNL     1     186.683 196.162 195.321  1.00  0.00     0.000 C 
BRANCH   4   5
ATOM      5  C   UNL     1     187.561 196.434 196.553  1.00  0.00     0.001 C 
BRANCH   5   6
ATOM      6  C   UNL     1     188.527 197.604 196.285  1.00  0.00     0.009 C 
BRANCH   6   7
ATOM      7  C   UNL     1     189.940 197.411 196.881  1.00  0.00     0.032 C 
ATOM      8  C   UNL     1     190.008 196.249 197.880  1.00  0.00     0.014 C 
BRANCH   7   9
ATOM      9  C   UNL     1     190.472 198.688 197.477  1.00  0.00     0.044 C 
ATOM     10  O   UNL     1     189.814 199.285 198.368  1.00  0.00    -0.550 OA
ATOM     11  O   UNL     1     191.710 199.191 197.092  1.00  0.00    -0.550 OA
ENDBRANCH   7   9
ENDBRANCH   6   7
ENDBRANCH   5   6
ENDBRANCH   4   5
ENDBRANCH   3   4
ENDBRANCH   2   3
ENDBRANCH   1   2
BRANCH   1  12
ATOM     12  C   UNL     1     189.999 195.660 193.626  1.00  0.00     0.000 C 
BRANCH  12  13
ATOM     13  C   UNL     1     191.347 195.664 192.884  1.00  0.00    -0.000 C 
BRANCH  13  14
ATOM     14  C   UNL     1     191.296 194.912 191.540  1.00  0.00    -0.000 C 
BRANCH  14  15
ATOM     15  C   UNL     1     192.437 193.902 191.317  1.00  0.00    -0.000 C 
BRANCH  15  16
ATOM     16  C   UNL     1     192.030 192.457 191.639  1.00  0.00    -0.000 C 
BRANCH  16  17
ATOM     17  C   UNL     1     190.961 191.955 190.660  1.00  0.00    -0.000 C 
BRANCH  17  18
ATOM     18  C   UNL     1     189.627 191.720 191.377  1.00  0.00    -0.003 C 
ATOM     19  C   UNL     1     189.834 190.998 192.706  1.00  0.00     0.004 C 
ENDBRANCH  17  18
ENDBRANCH  16  17
ENDBRANCH  15  16
ENDBRANCH  14  15
ENDBRANCH  13  14
ENDBRANCH  12  13
ENDBRANCH   1  12
TORSDOF 14
ENDMDL
MODEL 2
REMARK VINA RESULT:    -4.635      3.551      7.265
REMARK INTER + INTRA:         -10.384
REMARK INTER:                  -8.466
REMARK INTRA:                  -1.919
REMARK UNBOUND:                -1.955
REMARK SMILES CCCCCCCCCCCCCC[C@H](C)C(=O)[O-]
REMARK SMILES IDX 9 1 10 2 11 3 12 4 13 5 14 6 15 7 16 8 17 9 18 10 19 11 8 12
REMARK SMILES IDX 7 13 6 14 5 15 4 16 3 17 2 18 1 19
REMARK H PARENT
REMARK Flexibility Score: inf
ROOT
ATOM      1  C   UNL     1     189.775 194.391 194.206  1.00  0.00     0.000 C 
ENDROOT
BRANCH   1   2
ATOM      2  C   UNL     1     190.342 195.521 193.329  1.00  0.00     0.000 C 
BRANCH   2   3
ATOM      3  C   UNL     1     191.486 195.051 192.418  1.00  0.00     0.000 C 
BRANCH   3   4
ATOM      4  C   UNL     1     191.060 193.915 191.474  1.00  0.00     0.000 C 
BRANCH   4   5
ATOM      5  C   UNL     1     192.087 192.772 191.422  1.00  0.00     0.001 C 
BRANCH   5   6
ATOM      6  C   UNL     1     191.382 191.404 191.456  1.00  0.00     0.009 C 
BRANCH   6   7
ATOM      7  C   UNL     1     190.435 191.206 192.663  1.00  0.00     0.032 C 
ATOM      8  C   UNL     1     191.023 190.272 193.730  1.00  0.00     0.014 C 
BRANCH   7   9
ATOM      9  C   UNL     1     189.064 190.757 192.227  1.00  0.00     0.044 C 
ATOM     10  O   UNL     1     188.444 191.407 191.346  1.00  0.00    -0.550 OA
ATOM     11  O   UNL     1     188.495 189.602 192.750  1.00  0.00    -0.550 OA
ENDBRANCH   7   9
ENDBRANCH   6   7
ENDBRANCH   5   6
ENDBRANCH   4   5
ENDBRANCH   3   4
ENDBRANCH   2   3
ENDBRANCH   1   2
BRANCH   1  12
ATOM     12  C   UNL     1     188.344 193.960 193.819  1.00  0.00     0.000 C 
BRANCH  12  13
ATOM     13  C   UNL     1     187.352 194.131 194.982  1.00  0.00    -0.000 C 
BRANCH  13  14
ATOM     14  C   UNL     1     186.155 195.034 194.624  1.00  0.00    -0.000 C 
BRANCH  14  15
ATOM     15  C   UNL     1     186.151 196.412 195.311  1.00  0.00    -0.000 C 
BRANCH  15  16
ATOM     16  C   UNL     1     187.497 197.141 195.202  1.00  0.00    -0.000 C 
BRANCH  16  17
ATOM     17  C   UNL     1     188.102 197.390 196.589  1.00  0.00    -0.000 C 
BRANCH  17  18
ATOM     18  C   UNL     1     189.621 197.183 196.571  1.00  0.00    -0.003 C 
ATOM     19  C   UNL     1     190.084 196.395 197.794  1.00  0.00     0.004 C 
ENDBRANCH  17  18
ENDBRANCH  16  17
ENDBRANCH  15  16
ENDBRANCH  14  15
ENDBRANCH  13  14
ENDBRANCH  12  13
ENDBRANCH   1  12
TORSDOF 14
ENDMDL
MODEL 3
REMARK VINA RESULT:    -4.560      3.331      4.225
REMARK INTER + INTRA:         -10.247
REMARK INTER:                  -8.470
REMARK INTRA:                  -1.777
REMARK UNBOUND:                -1.955
REMARK SMILES CCCCCCCCCCCCCC[C@H](C)C(=O)[O-]
REMARK SMILES IDX 9 1 10 2 11 3 12 4 13 5 14 6 15 7 16 8 17 9 18 10 19 11 8 12
REMARK SMILES IDX 7 13 6 14 5 15 4 16 3 17 2 18 1 19
REMARK H PARENT
REMARK Flexibility Score: inf
ROOT
ATOM      1  C   UNL     1     190.389 196.146 193.672  1.00  0.00     0.000 C 
ENDROOT
BRANCH   1   2
ATOM      2  C   UNL     1     189.960 194.685 193.898  1.00  0.00     0.000 C 
BRANCH   2   3
ATOM      3  C   UNL     1     188.451 194.540 194.149  1.00  0.00     0.000 C 
BRANCH   3   4
ATOM      4  C   UNL     1     188.111 194.408 195.643  1.00  0.00     0.000 C 
BRANCH   4   5
ATOM      5  C   UNL     1     187.185 195.529 196.141  1.00  0.00     0.001 C 
BRANCH   5   6
ATOM      6  C   UNL     1     186.355 196.106 194.979  1.00  0.00     0.009 C 
BRANCH   6   7
ATOM      7  C   UNL     1     184.845 195.786 195.056  1.00  0.00     0.032 C 
ATOM      8  C   UNL     1     184.460 195.051 196.346  1.00  0.00     0.014 C 
BRANCH   7   9
ATOM      9  C   UNL     1     184.370 195.045 193.832  1.00  0.00     0.044 C 
ATOM     10  O   UNL     1     183.142 194.814 193.678  1.00  0.00    -0.550 OA
ATOM     11  O   UNL     1     185.266 194.659 192.843  1.00  0.00    -0.550 OA
ENDBRANCH   7   9
ENDBRANCH   6   7
ENDBRANCH   5   6
ENDBRANCH   4   5
ENDBRANCH   3   4
ENDBRANCH   2   3
ENDBRANCH   1   2
BRANCH   1  12
ATOM     12  C   UNL     1     191.523 196.309 192.637  1.00  0.00     0.000 C 
BRANCH  12  13
ATOM     13  C   UNL     1     191.406 195.299 191.483  1.00  0.00    -0.000 C 
BRANCH  13  14
ATOM     14  C   UNL     1     192.753 194.650 191.111  1.00  0.00    -0.000 C 
BRANCH  14  15
ATOM     15  C   UNL     1     192.684 193.147 190.783  1.00  0.00    -0.000 C 
BRANCH  15  16
ATOM     16  C   UNL     1     191.310 192.531 191.082  1.00  0.00    -0.000 C 
BRANCH  16  17
ATOM     17  C   UNL     1     191.394 191.542 192.251  1.00  0.00    -0.000 C 
BRANCH  17  18
ATOM     18  C   UNL     1     190.005 191.014 192.626  1.00  0.00    -0.003 C 
ATOM     19  C   UNL     1     188.917 191.686 191.792  1.00  0.00     0.004 C 
ENDBRANCH  17  18
ENDBRANCH  16  17
ENDBRANCH  15  16
ENDBRANCH  14  15
ENDBRANCH  13  14
ENDBRANCH  12  13
ENDBRANCH   1  12
TORSDOF 14
ENDMDL
MODEL 4
REMARK VINA RESULT:    -4.549      1.473      3.197
REMARK INTER + INTRA:         -10.227
REMARK INTER:                  -8.270
REMARK INTRA:                  -1.958
REMARK UNBOUND:                -1.955
REMARK SMILES CCCCCCCCCCCCCC[C@H](C)C(=O)[O-]
REMARK SMILES IDX 9 1 10 2 11 3 12 4 13 5 14 6 15 7 16 8 17 9 18 10 19 11 8 12
REMARK SMILES IDX 7 13 6 14 5 15 4 16 3 17 2 18 1 19
REMARK H PARENT
REMARK Flexibility Score: inf
ROOT
ATOM      1  C   UNL     1     187.376 193.000 192.227  1.00  0.00     0.000 C 
ENDROOT
BRANCH   1   2
ATOM      2  C   UNL     1     187.443 193.794 193.543  1.00  0.00     0.000 C 
BRANCH   2   3
ATOM      3  C   UNL     1     188.869 194.251 193.889  1.00  0.00     0.000 C 
BRANCH   3   4
ATOM      4  C   UNL     1     189.213 194.040 195.374  1.00  0.00     0.000 C 
BRANCH   4   5
ATOM      5  C   UNL     1     188.131 194.592 196.316  1.00  0.00     0.001 C 
BRANCH   5   6
ATOM      6  C   UNL     1     188.691 195.743 197.172  1.00  0.00     0.009 C 
BRANCH   6   7
ATOM      7  C   UNL     1     188.527 197.144 196.540  1.00  0.00     0.032 C 
ATOM      8  C   UNL     1     187.382 197.204 195.520  1.00  0.00     0.014 C 
BRANCH   7   9
ATOM      9  C   UNL     1     189.822 197.644 195.951  1.00  0.00     0.044 C 
ATOM     10  O   UNL     1     190.054 197.486 194.724  1.00  0.00    -0.550 OA
ATOM     11  O   UNL     1     190.743 198.326 196.737  1.00  0.00    -0.550 OA
ENDBRANCH   7   9
ENDBRANCH   6   7
ENDBRANCH   5   6
ENDBRANCH   4   5
ENDBRANCH   3   4
ENDBRANCH   2   3
ENDBRANCH   1   2
BRANCH   1  12
ATOM     12  C   UNL     1     187.646 191.489 192.397  1.00  0.00     0.000 C 
BRANCH  12  13
ATOM     13  C   UNL     1     188.991 191.067 191.781  1.00  0.00    -0.000 C 
BRANCH  13  14
ATOM     14  C   UNL     1     190.131 190.997 192.816  1.00  0.00    -0.000 C 
BRANCH  14  15
ATOM     15  C   UNL     1     191.527 191.353 192.272  1.00  0.00    -0.000 C 
BRANCH  15  16
ATOM     16  C   UNL     1     191.482 192.000 190.881  1.00  0.00    -0.000 C 
BRANCH  16  17
ATOM     17  C   UNL     1     192.182 193.365 190.886  1.00  0.00    -0.000 C 
BRANCH  17  18
ATOM     18  C   UNL     1     191.247 194.459 191.413  1.00  0.00    -0.003 C 
ATOM     19  C   UNL     1     192.021 195.513 192.201  1.00  0.00     0.004 C 
ENDBRANCH  17  18
ENDBRANCH  16  17
ENDBRANCH  15  16
ENDBRANCH  14  15
ENDBRANCH  13  14
ENDBRANCH  12  13
ENDBRANCH   1  12
TORSDOF 14
ENDMDL
MODEL 5
REMARK VINA RESULT:    -4.521      2.267      6.181
REMARK INTER + INTRA:         -10.177
REMARK INTER:                  -8.517
REMARK INTRA:                  -1.659
REMARK UNBOUND:                -1.955
REMARK SMILES CCCCCCCCCCCCCC[C@H](C)C(=O)[O-]
REMARK SMILES IDX 9 1 10 2 11 3 12 4 13 5 14 6 15 7 16 8 17 9 18 10 19 11 8 12
REMARK SMILES IDX 7 13 6 14 5 15 4 16 3 17 2 18 1 19
REMARK H PARENT
REMARK Flexibility Score: inf
ROOT
ATOM      1  C   UNL     1     189.021 191.963 192.053  1.00  0.00     0.000 C 
ENDROOT
BRANCH   1   2
ATOM      2  C   UNL     1     190.213 191.402 192.849  1.00  0.00     0.000 C 
BRANCH   2   3
ATOM      3  C   UNL     1     191.493 191.295 192.005  1.00  0.00     0.000 C 
BRANCH   3   4
ATOM      4  C   UNL     1     191.527 192.312 190.852  1.00  0.00     0.000 C 
BRANCH   4   5
ATOM      5  C   UNL     1     192.381 193.549 191.179  1.00  0.00     0.001 C 
BRANCH   5   6
ATOM      6  C   UNL     1     191.524 194.827 191.141  1.00  0.00     0.009 C 
BRANCH   6   7
ATOM      7  C   UNL     1     191.541 195.644 192.453  1.00  0.00     0.032 C 
ATOM      8  C   UNL     1     190.433 195.223 193.428  1.00  0.00     0.014 C 
BRANCH   7   9
ATOM      9  C   UNL     1     191.512 197.127 192.186  1.00  0.00     0.044 C 
ATOM     10  O   UNL     1     191.739 197.937 193.123  1.00  0.00    -0.550 OA
ATOM     11  O   UNL     1     191.288 197.614 190.904  1.00  0.00    -0.550 OA
ENDBRANCH   7   9
ENDBRANCH   6   7
ENDBRANCH   5   6
ENDBRANCH   4   5
ENDBRANCH   3   4
ENDBRANCH   2   3
ENDBRANCH   1   2
BRANCH   1  12
ATOM     12  C   UNL     1     188.030 192.780 192.910  1.00  0.00     0.000 C 
BRANCH  12  13
ATOM     13  C   UNL     1     186.693 193.014 192.186  1.00  0.00    -0.000 C 
BRANCH  13  14
ATOM     14  C   UNL     1     185.529 193.313 193.151  1.00  0.00    -0.000 C 
BRANCH  14  15
ATOM     15  C   UNL     1     185.402 194.786 193.581  1.00  0.00    -0.000 C 
BRANCH  15  16
ATOM     16  C   UNL     1     185.613 194.991 195.088  1.00  0.00    -0.000 C 
BRANCH  16  17
ATOM     17  C   UNL     1     187.032 195.493 195.381  1.00  0.00    -0.000 C 
BRANCH  17  18
ATOM     18  C   UNL     1     187.104 197.021 195.291  1.00  0.00    -0.003 C 
ATOM     19  C   UNL     1     188.541 197.515 195.437  1.00  0.00     0.004 C 
ENDBRANCH  17  18
ENDBRANCH  16  17
ENDBRANCH  15  16
ENDBRANCH  14  15
ENDBRANCH  13  14
ENDBRANCH  12  13
ENDBRANCH   1  12
TORSDOF 14
ENDMDL
MODEL 6
REMARK VINA RESULT:    -4.516      3.146      4.683
REMARK INTER + INTRA:         -10.168
REMARK INTER:                  -8.149
REMARK INTRA:                  -2.019
REMARK UNBOUND:                -1.955
REMARK SMILES CCCCCCCCCCCCCC[C@H](C)C(=O)[O-]
REMARK SMILES IDX 9 1 10 2 11 3 12 4 13 5 14 6 15 7 16 8 17 9 18 10 19 11 8 12
REMARK SMILES IDX 7 13 6 14 5 15 4 16 3 17 2 18 1 19
REMARK H PARENT
REMARK Flexibility Score: inf
ROOT
ATOM      1  C   UNL     1     191.129 194.518 191.424  1.00  0.00     0.000 C 
ENDROOT
BRANCH   1   2
ATOM      2  C   UNL     1     191.625 195.620 192.376  1.00  0.00     0.000 C 
BRANCH   2   3
ATOM      3  C   UNL     1     190.630 195.920 193.508  1.00  0.00     0.000 C 
BRANCH   3   4
ATOM      4  C   UNL     1     189.539 194.844 193.637  1.00  0.00     0.000 C 
BRANCH   4   5
ATOM      5  C   UNL     1     189.553 194.149 195.007  1.00  0.00     0.001 C 
BRANCH   5   6
ATOM      6  C   UNL     1     188.300 194.523 195.821  1.00  0.00     0.009 C 
BRANCH   6   7
ATOM      7  C   UNL     1     187.138 195.092 194.974  1.00  0.00     0.032 C 
ATOM      8  C   UNL     1     186.743 196.515 195.390  1.00  0.00     0.014 C 
BRANCH   7   9
ATOM      9  C   UNL     1     185.950 194.166 194.966  1.00  0.00     0.044 C 
ATOM     10  O   UNL     1     186.085 192.978 194.573  1.00  0.00    -0.550 OA
ATOM     11  O   UNL     1     184.714 194.591 195.436  1.00  0.00    -0.550 OA
ENDBRANCH   7   9
ENDBRANCH   6   7
ENDBRANCH   5   6
ENDBRANCH   4   5
ENDBRANCH   3   4
ENDBRANCH   2   3
ENDBRANCH   1   2
BRANCH   1  12
ATOM     12  C   UNL     1     192.154 193.388 191.191  1.00  0.00     0.000 C 
BRANCH  12  13
ATOM     13  C   UNL     1     191.485 192.005 191.111  1.00  0.00    -0.000 C 
BRANCH  13  14
ATOM     14  C   UNL     1     190.894 191.544 192.457  1.00  0.00    -0.000 C 
BRANCH  14  15
ATOM     15  C   UNL     1     189.478 190.943 192.375  1.00  0.00    -0.000 C 
BRANCH  15  16
ATOM     16  C   UNL     1     188.393 191.998 192.113  1.00  0.00    -0.000 C 
BRANCH  16  17
ATOM     17  C   UNL     1     187.172 191.373 191.428  1.00  0.00    -0.000 C 
BRANCH  17  18
ATOM     18  C   UNL     1     187.396 191.244 189.917  1.00  0.00    -0.003 C 
ATOM     19  C   UNL     1     187.797 192.582 189.302  1.00  0.00     0.004 C 
ENDBRANCH  17  18
ENDBRANCH  16  17
ENDBRANCH  15  16
ENDBRANCH  14  15
ENDBRANCH  13  14
ENDBRANCH  12  13
ENDBRANCH   1  12
TORSDOF 14
ENDMDL
MODEL 7
REMARK VINA RESULT:    -4.509      3.322      7.360
REMARK INTER + INTRA:         -10.155
REMARK INTER:                  -8.663
REMARK INTRA:                  -1.492
REMARK UNBOUND:                -1.955
REMARK SMILES CCCCCCCCCCCCCC[C@H](C)C(=O)[O-]
REMARK SMILES IDX 9 1 10 2 11 3 12 4 13 5 14 6 15 7 16 8 17 9 18 10 19 11 8 12
REMARK SMILES IDX 7 13 6 14 5 15 4 16 3 17 2 18 1 19
REMARK H PARENT
REMARK Flexibility Score: inf
ROOT
ATOM      1  C   UNL     1     190.129 195.125 193.858  1.00  0.00     0.000 C 
ENDROOT
BRANCH   1   2
ATOM      2  C   UNL     1     190.779 196.198 192.967  1.00  0.00     0.000 C 
BRANCH   2   3
ATOM      3  C   UNL     1     191.923 195.642 192.105  1.00  0.00     0.000 C 
BRANCH   3   4
ATOM      4  C   UNL     1     191.485 194.445 191.243  1.00  0.00     0.000 C 
BRANCH   4   5
ATOM      5  C   UNL     1     192.304 193.176 191.534  1.00  0.00     0.001 C 
BRANCH   5   6
ATOM      6  C   UNL     1     191.420 191.921 191.422  1.00  0.00     0.009 C 
BRANCH   6   7
ATOM      7  C   UNL     1     190.566 191.629 192.678  1.00  0.00     0.032 C 
ATOM      8  C   UNL     1     191.030 190.376 193.432  1.00  0.00     0.014 C 
BRANCH   7   9
ATOM      9  C   UNL     1     189.097 191.569 192.351  1.00  0.00     0.044 C 
ATOM     10  O   UNL     1     188.490 192.614 191.998  1.00  0.00    -0.550 OA
ATOM     11  O   UNL     1     188.411 190.360 192.382  1.00  0.00    -0.550 OA
ENDBRANCH   7   9
ENDBRANCH   6   7
ENDBRANCH   5   6
ENDBRANCH   4   5
ENDBRANCH   3   4
ENDBRANCH   2   3
ENDBRANCH   1   2
BRANCH   1  12
ATOM     12  C   UNL     1     188.885 195.623 194.625  1.00  0.00     0.000 C 
BRANCH  12  13
ATOM     13  C   UNL     1     188.357 194.572 195.618  1.00  0.00    -0.000 C 
BRANCH  13  14
ATOM     14  C   UNL     1     188.344 195.074 197.075  1.00  0.00    -0.000 C 
BRANCH  14  15
ATOM     15  C   UNL     1     189.729 195.180 197.740  1.00  0.00    -0.000 C 
BRANCH  15  16
ATOM     16  C   UNL     1     190.008 196.570 198.328  1.00  0.00    -0.000 C 
BRANCH  16  17
ATOM     17  C   UNL     1     190.352 197.576 197.223  1.00  0.00    -0.000 C 
BRANCH  17  18
ATOM     18  C   UNL     1     189.279 198.665 197.117  1.00  0.00    -0.003 C 
ATOM     19  C   UNL     1     189.564 199.814 198.081  1.00  0.00     0.004 C 
ENDBRANCH  17  18
ENDBRANCH  16  17
ENDBRANCH  15  16
ENDBRANCH  14  15
ENDBRANCH  13  14
ENDBRANCH  12  13
ENDBRANCH   1  12
TORSDOF 14
ENDMDL
MODEL 8
REMARK VINA RESULT:    -4.493      3.040      4.774
REMARK INTER + INTRA:         -10.125
REMARK INTER:                  -8.150
REMARK INTRA:                  -1.975
REMARK UNBOUND:                -1.955
REMARK SMILES CCCCCCCCCCCCCC[C@H](C)C(=O)[O-]
REMARK SMILES IDX 9 1 10 2 11 3 12 4 13 5 14 6 15 7 16 8 17 9 18 10 19 11 8 12
REMARK SMILES IDX 7 13 6 14 5 15 4 16 3 17 2 18 1 19
REMARK H PARENT
REMARK Flexibility Score: inf
ROOT
ATOM      1  C   UNL     1     189.314 194.062 194.064  1.00  0.00     0.000 C 
ENDROOT
BRANCH   1   2
ATOM      2  C   UNL     1     189.205 194.274 195.584  1.00  0.00     0.000 C 
BRANCH   2   3
ATOM      3  C   UNL     1     189.255 195.757 195.983  1.00  0.00     0.000 C 
BRANCH   3   4
ATOM      4  C   UNL     1     187.888 196.291 196.445  1.00  0.00     0.000 C 
BRANCH   4   5
ATOM      5  C   UNL     1     186.996 196.726 195.271  1.00  0.00     0.001 C 
BRANCH   5   6
ATOM      6  C   UNL     1     185.664 195.953 195.283  1.00  0.00     0.009 C 
BRANCH   6   7
ATOM      7  C   UNL     1     185.560 194.847 194.209  1.00  0.00     0.032 C 
ATOM      8  C   UNL     1     184.274 194.947 193.378  1.00  0.00     0.014 C 
BRANCH   7   9
ATOM      9  C   UNL     1     185.730 193.474 194.805  1.00  0.00     0.044 C 
ATOM     10  O   UNL     1     185.465 193.282 196.020  1.00  0.00    -0.550 OA
ATOM     11  O   UNL     1     186.129 192.400 194.017  1.00  0.00    -0.550 OA
ENDBRANCH   7   9
ENDBRANCH   6   7
ENDBRANCH   5   6
ENDBRANCH   4   5
ENDBRANCH   3   4
ENDBRANCH   2   3
ENDBRANCH   1   2
BRANCH   1  12
ATOM     12  C   UNL     1     190.011 192.743 193.667  1.00  0.00     0.000 C 
BRANCH  12  13
ATOM     13  C   UNL     1     189.628 192.288 192.248  1.00  0.00    -0.000 C 
BRANCH  13  14
ATOM     14  C   UNL     1     190.467 192.969 191.150  1.00  0.00    -0.000 C 
BRANCH  14  15
ATOM     15  C   UNL     1     191.984 192.996 191.413  1.00  0.00    -0.000 C 
BRANCH  15  16
ATOM     16  C   UNL     1     192.603 194.387 191.212  1.00  0.00    -0.000 C 
BRANCH  16  17
ATOM     17  C   UNL     1     191.551 195.488 191.390  1.00  0.00    -0.000 C 
BRANCH  17  18
ATOM     18  C   UNL     1     192.013 196.529 192.417  1.00  0.00    -0.003 C 
ATOM     19  C   UNL     1     190.822 197.238 193.057  1.00  0.00     0.004 C 
ENDBRANCH  17  18
ENDBRANCH  16  17
ENDBRANCH  15  16
ENDBRANCH  14  15
ENDBRANCH  13  14
ENDBRANCH  12  13
ENDBRANCH   1  12
TORSDOF 14
ENDMDL
MODEL 9
REMARK VINA RESULT:    -4.447      2.084      6.043
REMARK INTER + INTRA:         -10.041
REMARK INTER:                  -8.338
REMARK INTRA:                  -1.704
REMARK UNBOUND:                -1.955
REMARK SMILES CCCCCCCCCCCCCC[C@H](C)C(=O)[O-]
REMARK SMILES IDX 9 1 10 2 11 3 12 4 13 5 14 6 15 7 16 8 17 9 18 10 19 11 8 12
REMARK SMILES IDX 7 13 6 14 5 15 4 16 3 17 2 18 1 19
REMARK H PARENT
REMARK Flexibility Score: inf
ROOT
ATOM      1  C   UNL     1     189.599 192.321 191.831  1.00  0.00     0.000 C 
ENDROOT
BRANCH   1   2
ATOM      2  C   UNL     1     190.636 192.881 190.842  1.00  0.00     0.000 C 
BRANCH   2   3
ATOM      3  C   UNL     1     192.081 192.716 191.339  1.00  0.00     0.000 C 
BRANCH   3   4
ATOM      4  C   UNL     1     192.815 194.060 191.477  1.00  0.00     0.000 C 
BRANCH   4   5
ATOM      5  C   UNL     1     191.889 195.266 191.250  1.00  0.00     0.001 C 
BRANCH   5   6
ATOM      6  C   UNL     1     191.887 196.190 192.482  1.00  0.00     0.009 C 
BRANCH   6   7
ATOM      7  C   UNL     1     191.528 197.662 192.173  1.00  0.00     0.032 C 
ATOM      8  C   UNL     1     191.136 197.880 190.705  1.00  0.00     0.014 C 
BRANCH   7   9
ATOM      9  C   UNL     1     192.623 198.603 192.601  1.00  0.00     0.044 C 
ATOM     10  O   UNL     1     192.716 199.740 192.069  1.00  0.00    -0.550 OA
ATOM     11  O   UNL     1     193.505 198.252 193.617  1.00  0.00    -0.550 OA
ENDBRANCH   7   9
ENDBRANCH   6   7
ENDBRANCH   5   6
ENDBRANCH   4   5
ENDBRANCH   3   4
ENDBRANCH   2   3
ENDBRANCH   1   2
BRANCH   1  12
ATOM     12  C   UNL     1     189.066 193.368 192.833  1.00  0.00     0.000 C 
BRANCH  12  13
ATOM     13  C   UNL     1     189.912 193.427 194.117  1.00  0.00    -0.000 C 
BRANCH  13  14
ATOM     14  C   UNL     1     189.208 194.169 195.269  1.00  0.00    -0.000 C 
BRANCH  14  15
ATOM     15  C   UNL     1     188.658 195.562 194.908  1.00  0.00    -0.000 C 
BRANCH  15  16
ATOM     16  C   UNL     1     189.596 196.704 195.326  1.00  0.00    -0.000 C 
BRANCH  16  17
ATOM     17  C   UNL     1     188.801 197.896 195.870  1.00  0.00    -0.000 C 
BRANCH  17  18
ATOM     18  C   UNL     1     189.455 198.461 197.136  1.00  0.00    -0.003 C 
ATOM     19  C   UNL     1     190.315 197.408 197.829  1.00  0.00     0.004 C 
ENDBRANCH  17  18
ENDBRANCH  16  17
ENDBRANCH  15  16
ENDBRANCH  14  15
ENDBRANCH  13  14
ENDBRANCH  12  13
ENDBRANCH   1  12
TORSDOF 14
ENDMDL
