MODEL 1
REMARK VINA RESULT:    -4.239      0.000      0.000
REMARK INTER + INTRA:          -9.439
REMARK INTER:                  -7.337
REMARK INTRA:                  -2.102
REMARK UNBOUND:                -2.102
REMARK SMILES CCCCCCCCCCCCCCO
REMARK SMILES IDX 8 1 7 2 6 3 5 4 4 5 3 6 2 7 1 8 9 9 10 10 11 11 12 12 13 13
REMARK SMILES IDX 14 14 15 15
REMARK H PARENT 15 16
REMARK Flexibility Score: inf
ROOT
ATOM      1  C   UNL     1     119.354 119.275 117.407  1.00  0.00     0.000 C 
ENDROOT
BRANCH   1   2
ATOM      2  C   UNL     1     119.878 117.885 117.815  1.00  0.00    -0.000 C 
BRANCH   2   3
ATOM      3  C   UNL     1     120.971 117.948 118.893  1.00  0.00    -0.000 C 
BRANCH   3   4
ATOM      4  C   UNL     1     120.504 117.268 120.189  1.00  0.00    -0.000 C 
BRANCH   4   5
ATOM      5  C   UNL     1     119.240 116.412 119.993  1.00  0.00    -0.000 C 
BRANCH   5   6
ATOM      6  C   UNL     1     118.025 116.835 120.844  1.00  0.00    -0.000 C 
BRANCH   6   7
ATOM      7  C   UNL     1     116.659 116.657 120.158  1.00  0.00    -0.003 C 
ATOM      8  C   UNL     1     116.733 115.790 118.901  1.00  0.00     0.004 C 
ENDBRANCH   6   7
ENDBRANCH   5   6
ENDBRANCH   4   5
ENDBRANCH   3   4
ENDBRANCH   2   3
ENDBRANCH   1   2
BRANCH   1   9
ATOM      9  C   UNL     1     117.874 119.539 117.740  1.00  0.00     0.000 C 
BRANCH   9  10
ATOM     10  C   UNL     1     117.673 120.143 119.140  1.00  0.00     0.000 C 
BRANCH  10  11
ATOM     11  C   UNL     1     118.822 121.080 119.547  1.00  0.00     0.000 C 
BRANCH  11  12
ATOM     12  C   UNL     1     119.388 120.757 120.941  1.00  0.00     0.002 C 
BRANCH  12  13
ATOM     13  C   UNL     1     120.903 121.008 121.037  1.00  0.00     0.028 C 
BRANCH  13  14
ATOM     14  C   UNL     1     121.337 121.636 122.369  1.00  0.00     0.156 C 
BRANCH  14  15
ATOM     15  O   UNL     1     122.728 121.815 122.413  1.00  0.00    -0.396 OA
ATOM     16  H   UNL     1     123.120 121.135 121.805  1.00  0.00     0.210 HD
ENDBRANCH  14  15
ENDBRANCH  13  14
ENDBRANCH  12  13
ENDBRANCH  11  12
ENDBRANCH  10  11
ENDBRANCH   9  10
ENDBRANCH   1   9
TORSDOF 13
ENDMDL
MODEL 2
REMARK VINA RESULT:    -4.166      0.986      2.563
REMARK INTER + INTRA:          -9.312
REMARK INTER:                  -7.122
REMARK INTRA:                  -2.190
REMARK UNBOUND:                -2.102
REMARK SMILES CCCCCCCCCCCCCCO
REMARK SMILES IDX 8 1 7 2 6 3 5 4 4 5 3 6 2 7 1 8 9 9 10 10 11 11 12 12 13 13
REMARK SMILES IDX 14 14 15 15
REMARK H PARENT 15 16
REMARK Flexibility Score: inf
ROOT
ATOM      1  C   UNL     1     119.723 118.103 117.499  1.00  0.00     0.000 C 
ENDROOT
BRANCH   1   2
ATOM      2  C   UNL     1     119.289 119.561 117.739  1.00  0.00    -0.000 C 
BRANCH   2   3
ATOM      3  C   UNL     1     117.770 119.716 117.909  1.00  0.00    -0.000 C 
BRANCH   3   4
ATOM      4  C   UNL     1     117.390 119.799 119.395  1.00  0.00    -0.000 C 
BRANCH   4   5
ATOM      5  C   UNL     1     116.485 118.641 119.847  1.00  0.00    -0.000 C 
BRANCH   5   6
ATOM      6  C   UNL     1     117.123 117.669 120.860  1.00  0.00    -0.000 C 
BRANCH   6   7
ATOM      7  C   UNL     1     117.677 116.368 120.251  1.00  0.00    -0.003 C 
ATOM      8  C   UNL     1     117.031 116.017 118.911  1.00  0.00     0.004 C 
ENDBRANCH   6   7
ENDBRANCH   5   6
ENDBRANCH   4   5
ENDBRANCH   3   4
ENDBRANCH   2   3
ENDBRANCH   1   2
BRANCH   1   9
ATOM      9  C   UNL     1     120.741 117.548 118.514  1.00  0.00     0.000 C 
BRANCH   9  10
ATOM     10  C   UNL     1     121.133 118.574 119.591  1.00  0.00     0.000 C 
BRANCH  10  11
ATOM     11  C   UNL     1     120.820 118.083 121.013  1.00  0.00     0.000 C 
BRANCH  11  12
ATOM     12  C   UNL     1     120.407 119.223 121.960  1.00  0.00     0.002 C 
BRANCH  12  13
ATOM     13  C   UNL     1     120.632 120.615 121.344  1.00  0.00     0.028 C 
BRANCH  13  14
ATOM     14  C   UNL     1     121.240 121.628 122.324  1.00  0.00     0.156 C 
BRANCH  14  15
ATOM     15  O   UNL     1     122.598 121.846 122.047  1.00  0.00    -0.396 OA
ATOM     16  H   UNL     1     122.647 122.180 121.114  1.00  0.00     0.210 HD
ENDBRANCH  14  15
ENDBRANCH  13  14
ENDBRANCH  12  13
ENDBRANCH  11  12
ENDBRANCH  10  11
ENDBRANCH   9  10
ENDBRANCH   1   9
TORSDOF 13
ENDMDL
MODEL 3
REMARK VINA RESULT:    -4.085      2.748      5.251
REMARK INTER + INTRA:          -9.173
REMARK INTER:                  -7.076
REMARK INTRA:                  -2.098
REMARK UNBOUND:                -2.102
REMARK SMILES CCCCCCCCCCCCCCO
REMARK SMILES IDX 8 1 7 2 6 3 5 4 4 5 3 6 2 7 1 8 9 9 10 10 11 11 12 12 13 13
REMARK SMILES IDX 14 14 15 15
REMARK H PARENT 15 16
REMARK Flexibility Score: inf
ROOT
ATOM      1  C   UNL     1     118.595 118.307 117.440  1.00  0.00     0.000 C 
ENDROOT
BRANCH   1   2
ATOM      2  C   UNL     1     118.124 119.744 117.729  1.00  0.00    -0.000 C 
BRANCH   2   3
ATOM      3  C   UNL     1     116.792 119.797 118.493  1.00  0.00    -0.000 C 
BRANCH   3   4
ATOM      4  C   UNL     1     116.922 120.650 119.764  1.00  0.00    -0.000 C 
BRANCH   4   5
ATOM      5  C   UNL     1     118.381 121.000 120.103  1.00  0.00    -0.000 C 
BRANCH   5   6
ATOM      6  C   UNL     1     118.967 120.252 121.319  1.00  0.00    -0.000 C 
BRANCH   6   7
ATOM      7  C   UNL     1     120.494 120.059 121.288  1.00  0.00    -0.003 C 
ATOM      8  C   UNL     1     121.164 120.804 120.133  1.00  0.00     0.004 C 
ENDBRANCH   6   7
ENDBRANCH   5   6
ENDBRANCH   4   5
ENDBRANCH   3   4
ENDBRANCH   2   3
ENDBRANCH   1   2
BRANCH   1   9
ATOM      9  C   UNL     1     119.696 117.778 118.379  1.00  0.00     0.000 C 
BRANCH   9  10
ATOM     10  C   UNL     1     119.135 116.984 119.572  1.00  0.00     0.000 C 
BRANCH  10  11
ATOM     11  C   UNL     1     117.808 116.283 119.241  1.00  0.00     0.000 C 
BRANCH  11  12
ATOM     12  C   UNL     1     116.678 116.655 120.217  1.00  0.00     0.002 C 
BRANCH  12  13
ATOM     13  C   UNL     1     117.176 116.820 121.662  1.00  0.00     0.028 C 
BRANCH  13  14
ATOM     14  C   UNL     1     116.380 115.993 122.683  1.00  0.00     0.156 C 
BRANCH  14  15
ATOM     15  O   UNL     1     115.075 115.750 122.228  1.00  0.00    -0.396 OA
ATOM     16  H   UNL     1     114.568 115.392 123.003  1.00  0.00     0.210 HD
ENDBRANCH  14  15
ENDBRANCH  13  14
ENDBRANCH  12  13
ENDBRANCH  11  12
ENDBRANCH  10  11
ENDBRANCH   9  10
ENDBRANCH   1   9
TORSDOF 13
ENDMDL
MODEL 4
REMARK VINA RESULT:    -4.076      1.906      3.903
REMARK INTER + INTRA:          -9.157
REMARK INTER:                  -6.942
REMARK INTRA:                  -2.214
REMARK UNBOUND:                -2.102
REMARK SMILES CCCCCCCCCCCCCCO
REMARK SMILES IDX 8 1 7 2 6 3 5 4 4 5 3 6 2 7 1 8 9 9 10 10 11 11 12 12 13 13
REMARK SMILES IDX 14 14 15 15
REMARK H PARENT 15 16
REMARK Flexibility Score: inf
ROOT
ATOM      1  C   UNL     1     119.390 117.131 120.464  1.00  0.00     0.000 C 
ENDROOT
BRANCH   1   2
ATOM      2  C   UNL     1     120.814 117.156 119.878  1.00  0.00    -0.000 C 
BRANCH   2   3
ATOM      3  C   UNL     1     121.365 118.578 119.698  1.00  0.00    -0.000 C 
BRANCH   3   4
ATOM      4  C   UNL     1     120.442 119.612 120.360  1.00  0.00    -0.000 C 
BRANCH   4   5
ATOM      5  C   UNL     1     119.911 120.661 119.368  1.00  0.00    -0.000 C 
BRANCH   5   6
ATOM      6  C   UNL     1     119.959 120.243 117.884  1.00  0.00    -0.000 C 
BRANCH   6   7
ATOM      7  C   UNL     1     118.664 119.609 117.346  1.00  0.00    -0.003 C 
ATOM      8  C   UNL     1     118.914 118.335 116.539  1.00  0.00     0.004 C 
ENDBRANCH   6   7
ENDBRANCH   5   6
ENDBRANCH   4   5
ENDBRANCH   3   4
ENDBRANCH   2   3
ENDBRANCH   1   2
BRANCH   1   9
ATOM      9  C   UNL     1     118.374 116.280 119.679  1.00  0.00     0.000 C 
BRANCH   9  10
ATOM     10  C   UNL     1     117.029 116.997 119.468  1.00  0.00     0.000 C 
BRANCH  10  11
ATOM     11  C   UNL     1     116.885 118.248 120.350  1.00  0.00     0.000 C 
BRANCH  11  12
ATOM     12  C   UNL     1     116.122 119.385 119.649  1.00  0.00     0.002 C 
BRANCH  12  13
ATOM     13  C   UNL     1     116.423 120.764 120.260  1.00  0.00     0.028 C 
BRANCH  13  14
ATOM     14  C   UNL     1     116.519 120.748 121.792  1.00  0.00     0.156 C 
BRANCH  14  15
ATOM     15  O   UNL     1     117.777 121.194 122.224  1.00  0.00    -0.396 OA
ATOM     16  H   UNL     1     118.415 120.453 122.051  1.00  0.00     0.210 HD
ENDBRANCH  14  15
ENDBRANCH  13  14
ENDBRANCH  12  13
ENDBRANCH  11  12
ENDBRANCH  10  11
ENDBRANCH   9  10
ENDBRANCH   1   9
TORSDOF 13
ENDMDL
MODEL 5
REMARK VINA RESULT:    -4.027      1.026      2.765
REMARK INTER + INTRA:          -9.072
REMARK INTER:                  -7.213
REMARK INTRA:                  -1.859
REMARK UNBOUND:                -2.102
REMARK SMILES CCCCCCCCCCCCCCO
REMARK SMILES IDX 8 1 7 2 6 3 5 4 4 5 3 6 2 7 1 8 9 9 10 10 11 11 12 12 13 13
REMARK SMILES IDX 14 14 15 15
REMARK H PARENT 15 16
REMARK Flexibility Score: inf
ROOT
ATOM      1  C   UNL     1     117.398 120.056 119.244  1.00  0.00     0.000 C 
ENDROOT
BRANCH   1   2
ATOM      2  C   UNL     1     116.316 119.030 119.629  1.00  0.00    -0.000 C 
BRANCH   2   3
ATOM      3  C   UNL     1     116.824 117.961 120.608  1.00  0.00    -0.000 C 
BRANCH   3   4
ATOM      4  C   UNL     1     117.105 116.639 119.879  1.00  0.00    -0.000 C 
BRANCH   4   5
ATOM      5  C   UNL     1     118.605 116.395 119.638  1.00  0.00    -0.000 C 
BRANCH   5   6
ATOM      6  C   UNL     1     119.549 117.081 120.647  1.00  0.00    -0.000 C 
BRANCH   6   7
ATOM      7  C   UNL     1     121.049 116.837 120.401  1.00  0.00    -0.003 C 
ATOM      8  C   UNL     1     121.484 117.195 118.980  1.00  0.00     0.004 C 
ENDBRANCH   6   7
ENDBRANCH   5   6
ENDBRANCH   4   5
ENDBRANCH   3   4
ENDBRANCH   2   3
ENDBRANCH   1   2
BRANCH   1   9
ATOM      9  C   UNL     1     118.216 119.702 117.987  1.00  0.00     0.000 C 
BRANCH   9  10
ATOM     10  C   UNL     1     119.672 120.195 118.062  1.00  0.00     0.000 C 
BRANCH  10  11
ATOM     11  C   UNL     1     119.907 121.156 119.238  1.00  0.00     0.000 C 
BRANCH  11  12
ATOM     12  C   UNL     1     120.899 120.598 120.274  1.00  0.00     0.002 C 
BRANCH  12  13
ATOM     13  C   UNL     1     120.366 120.690 121.713  1.00  0.00     0.028 C 
BRANCH  13  14
ATOM     14  C   UNL     1     121.238 121.555 122.635  1.00  0.00     0.156 C 
BRANCH  14  15
ATOM     15  O   UNL     1     122.457 121.878 122.021  1.00  0.00    -0.396 OA
ATOM     16  H   UNL     1     122.630 121.170 121.346  1.00  0.00     0.210 HD
ENDBRANCH  14  15
ENDBRANCH  13  14
ENDBRANCH  12  13
ENDBRANCH  11  12
ENDBRANCH  10  11
ENDBRANCH   9  10
ENDBRANCH   1   9
TORSDOF 13
ENDMDL
MODEL 6
REMARK VINA RESULT:    -3.992      2.338      4.746
REMARK INTER + INTRA:          -9.011
REMARK INTER:                  -7.089
REMARK INTRA:                  -1.922
REMARK UNBOUND:                -2.102
REMARK SMILES CCCCCCCCCCCCCCO
REMARK SMILES IDX 8 1 7 2 6 3 5 4 4 5 3 6 2 7 1 8 9 9 10 10 11 11 12 12 13 13
REMARK SMILES IDX 14 14 15 15
REMARK H PARENT 15 16
REMARK Flexibility Score: inf
ROOT
ATOM      1  C   UNL     1     120.706 120.764 119.668  1.00  0.00     0.000 C 
ENDROOT
BRANCH   1   2
ATOM      2  C   UNL     1     119.280 121.262 119.366  1.00  0.00    -0.000 C 
BRANCH   2   3
ATOM      3  C   UNL     1     118.214 120.607 120.257  1.00  0.00    -0.000 C 
BRANCH   3   4
ATOM      4  C   UNL     1     117.078 120.016 119.410  1.00  0.00    -0.000 C 
BRANCH   4   5
ATOM      5  C   UNL     1     117.467 119.832 117.933  1.00  0.00    -0.000 C 
BRANCH   5   6
ATOM      6  C   UNL     1     117.973 118.424 117.559  1.00  0.00    -0.000 C 
BRANCH   6   7
ATOM      7  C   UNL     1     119.167 118.400 116.589  1.00  0.00    -0.003 C 
ATOM      8  C   UNL     1     118.802 118.877 115.184  1.00  0.00     0.004 C 
ENDBRANCH   6   7
ENDBRANCH   5   6
ENDBRANCH   4   5
ENDBRANCH   3   4
ENDBRANCH   2   3
ENDBRANCH   1   2
BRANCH   1   9
ATOM      9  C   UNL     1     120.784 119.459 120.483  1.00  0.00     0.000 C 
BRANCH   9  10
ATOM     10  C   UNL     1     121.097 118.228 119.614  1.00  0.00     0.000 C 
BRANCH  10  11
ATOM     11  C   UNL     1     120.566 116.923 120.229  1.00  0.00     0.000 C 
BRANCH  11  12
ATOM     12  C   UNL     1     119.341 117.147 121.133  1.00  0.00     0.002 C 
BRANCH  12  13
ATOM     13  C   UNL     1     118.052 116.554 120.540  1.00  0.00     0.028 C 
BRANCH  13  14
ATOM     14  C   UNL     1     116.897 116.466 121.548  1.00  0.00     0.156 C 
BRANCH  14  15
ATOM     15  O   UNL     1     116.520 117.741 121.996  1.00  0.00    -0.396 OA
ATOM     16  H   UNL     1     115.847 118.081 121.350  1.00  0.00     0.210 HD
ENDBRANCH  14  15
ENDBRANCH  13  14
ENDBRANCH  12  13
ENDBRANCH  11  12
ENDBRANCH  10  11
ENDBRANCH   9  10
ENDBRANCH   1   9
TORSDOF 13
ENDMDL
MODEL 7
REMARK VINA RESULT:    -3.987      2.832      4.355
REMARK INTER + INTRA:          -9.003
REMARK INTER:                  -6.759
REMARK INTRA:                  -2.244
REMARK UNBOUND:                -2.102
REMARK SMILES CCCCCCCCCCCCCCO
REMARK SMILES IDX 8 1 7 2 6 3 5 4 4 5 3 6 2 7 1 8 9 9 10 10 11 11 12 12 13 13
REMARK SMILES IDX 14 14 15 15
REMARK H PARENT 15 16
REMARK Flexibility Score: inf
ROOT
ATOM      1  C   UNL     1     119.389 121.366 119.317  1.00  0.00     0.000 C 
ENDROOT
BRANCH   1   2
ATOM      2  C   UNL     1     120.803 120.973 119.782  1.00  0.00    -0.000 C 
BRANCH   2   3
ATOM      3  C   UNL     1     120.827 119.671 120.597  1.00  0.00    -0.000 C 
BRANCH   3   4
ATOM      4  C   UNL     1     121.135 118.465 119.696  1.00  0.00    -0.000 C 
BRANCH   4   5
ATOM      5  C   UNL     1     119.997 117.430 119.672  1.00  0.00    -0.000 C 
BRANCH   5   6
ATOM      6  C   UNL     1     119.209 117.355 118.348  1.00  0.00    -0.000 C 
BRANCH   6   7
ATOM      7  C   UNL     1     119.714 118.295 117.239  1.00  0.00    -0.003 C 
ATOM      8  C   UNL     1     118.582 118.900 116.409  1.00  0.00     0.004 C 
ENDBRANCH   6   7
ENDBRANCH   5   6
ENDBRANCH   4   5
ENDBRANCH   3   4
ENDBRANCH   2   3
ENDBRANCH   1   2
BRANCH   1   9
ATOM      9  C   UNL     1     118.243 120.875 120.222  1.00  0.00     0.000 C 
BRANCH   9  10
ATOM     10  C   UNL     1     117.072 120.267 119.430  1.00  0.00     0.000 C 
BRANCH  10  11
ATOM     11  C   UNL     1     116.487 119.019 120.109  1.00  0.00     0.000 C 
BRANCH  11  12
ATOM     12  C   UNL     1     117.033 118.804 121.531  1.00  0.00     0.002 C 
BRANCH  12  13
ATOM     13  C   UNL     1     117.115 117.317 121.915  1.00  0.00     0.028 C 
BRANCH  13  14
ATOM     14  C   UNL     1     116.248 116.407 121.032  1.00  0.00     0.156 C 
BRANCH  14  15
ATOM     15  O   UNL     1     115.259 115.763 121.789  1.00  0.00    -0.396 OA
ATOM     16  H   UNL     1     114.385 116.077 121.439  1.00  0.00     0.210 HD
ENDBRANCH  14  15
ENDBRANCH  13  14
ENDBRANCH  12  13
ENDBRANCH  11  12
ENDBRANCH  10  11
ENDBRANCH   9  10
ENDBRANCH   1   9
TORSDOF 13
ENDMDL
MODEL 8
REMARK VINA RESULT:    -3.980      2.231      3.979
REMARK INTER + INTRA:          -8.991
REMARK INTER:                  -6.832
REMARK INTRA:                  -2.159
REMARK UNBOUND:                -2.102
REMARK SMILES CCCCCCCCCCCCCCO
REMARK SMILES IDX 8 1 7 2 6 3 5 4 4 5 3 6 2 7 1 8 9 9 10 10 11 11 12 12 13 13
REMARK SMILES IDX 14 14 15 15
REMARK H PARENT 15 16
REMARK Flexibility Score: inf
ROOT
ATOM      1  C   UNL     1     119.278 118.040 117.797  1.00  0.00     0.000 C 
ENDROOT
BRANCH   1   2
ATOM      2  C   UNL     1     119.422 119.430 117.150  1.00  0.00    -0.000 C 
BRANCH   2   3
ATOM      3  C   UNL     1     119.865 120.512 118.146  1.00  0.00    -0.000 C 
BRANCH   3   4
ATOM      4  C   UNL     1     120.094 119.914 119.542  1.00  0.00    -0.000 C 
BRANCH   4   5
ATOM      5  C   UNL     1     119.309 120.647 120.643  1.00  0.00    -0.000 C 
BRANCH   5   6
ATOM      6  C   UNL     1     117.860 120.158 120.849  1.00  0.00    -0.000 C 
BRANCH   6   7
ATOM      7  C   UNL     1     116.777 121.064 120.237  1.00  0.00    -0.003 C 
ATOM      8  C   UNL     1     116.086 120.433 119.028  1.00  0.00     0.004 C 
ENDBRANCH   6   7
ENDBRANCH   5   6
ENDBRANCH   4   5
ENDBRANCH   3   4
ENDBRANCH   2   3
ENDBRANCH   1   2
BRANCH   1   9
ATOM      9  C   UNL     1     117.842 117.485 117.843  1.00  0.00     0.000 C 
BRANCH   9  10
ATOM     10  C   UNL     1     117.496 116.829 119.191  1.00  0.00     0.000 C 
BRANCH  10  11
ATOM     11  C   UNL     1     118.741 116.313 119.930  1.00  0.00     0.000 C 
BRANCH  11  12
ATOM     12  C   UNL     1     118.730 116.661 121.429  1.00  0.00     0.002 C 
BRANCH  12  13
ATOM     13  C   UNL     1     120.112 117.096 121.945  1.00  0.00     0.028 C 
BRANCH  13  14
ATOM     14  C   UNL     1     121.281 116.445 121.191  1.00  0.00     0.156 C 
BRANCH  14  15
ATOM     15  O   UNL     1     121.621 115.208 121.759  1.00  0.00    -0.396 OA
ATOM     16  H   UNL     1     122.612 115.188 121.822  1.00  0.00     0.210 HD
ENDBRANCH  14  15
ENDBRANCH  13  14
ENDBRANCH  12  13
ENDBRANCH  11  12
ENDBRANCH  10  11
ENDBRANCH   9  10
ENDBRANCH   1   9
TORSDOF 13
ENDMDL
MODEL 9
REMARK VINA RESULT:    -3.956      1.128      1.455
REMARK INTER + INTRA:          -8.949
REMARK INTER:                  -6.738
REMARK INTRA:                  -2.211
REMARK UNBOUND:                -2.102
REMARK SMILES CCCCCCCCCCCCCCO
REMARK SMILES IDX 8 1 7 2 6 3 5 4 4 5 3 6 2 7 1 8 9 9 10 10 11 11 12 12 13 13
REMARK SMILES IDX 14 14 15 15
REMARK H PARENT 15 16
REMARK Flexibility Score: inf
ROOT
ATOM      1  C   UNL     1     118.039 119.764 118.044  1.00  0.00     0.000 C 
ENDROOT
BRANCH   1   2
ATOM      2  C   UNL     1     118.368 118.594 117.098  1.00  0.00    -0.000 C 
BRANCH   2   3
ATOM      3  C   UNL     1     119.727 117.944 117.397  1.00  0.00    -0.000 C 
BRANCH   3   4
ATOM      4  C   UNL     1     120.044 118.000 118.899  1.00  0.00    -0.000 C 
BRANCH   4   5
ATOM      5  C   UNL     1     119.595 116.735 119.652  1.00  0.00    -0.000 C 
BRANCH   5   6
ATOM      6  C   UNL     1     118.592 116.979 120.798  1.00  0.00    -0.000 C 
BRANCH   6   7
ATOM      7  C   UNL     1     117.142 116.563 120.491  1.00  0.00    -0.003 C 
ATOM      8  C   UNL     1     116.989 115.909 119.118  1.00  0.00     0.004 C 
ENDBRANCH   6   7
ENDBRANCH   5   6
ENDBRANCH   4   5
ENDBRANCH   3   4
ENDBRANCH   2   3
ENDBRANCH   1   2
BRANCH   1   9
ATOM      9  C   UNL     1     116.634 119.720 118.674  1.00  0.00     0.000 C 
BRANCH   9  10
ATOM     10  C   UNL     1     116.598 120.299 120.099  1.00  0.00     0.000 C 
BRANCH  10  11
ATOM     11  C   UNL     1     117.922 120.973 120.493  1.00  0.00     0.000 C 
BRANCH  11  12
ATOM     12  C   UNL     1     118.499 120.427 121.811  1.00  0.00     0.002 C 
BRANCH  12  13
ATOM     13  C   UNL     1     120.037 120.391 121.814  1.00  0.00     0.028 C 
BRANCH  13  14
ATOM     14  C   UNL     1     120.670 121.165 120.649  1.00  0.00     0.156 C 
BRANCH  14  15
ATOM     15  O   UNL     1     122.003 120.776 120.450  1.00  0.00    -0.396 OA
ATOM     16  H   UNL     1     122.547 121.606 120.475  1.00  0.00     0.210 HD
ENDBRANCH  14  15
ENDBRANCH  13  14
ENDBRANCH  12  13
ENDBRANCH  11  12
ENDBRANCH  10  11
ENDBRANCH   9  10
ENDBRANCH   1   9
TORSDOF 13
ENDMDL
