MODEL 1
REMARK VINA RESULT:    -4.247      0.000      0.000
REMARK INTER + INTRA:          -4.614
REMARK INTER:                  -5.241
REMARK INTRA:                   0.627
REMARK UNBOUND:                 0.627
REMARK SMILES C=C1[C@@H]2CC[C@H]3[C@@H]2C(C)(C)CCC[C@@]13C
REMARK SMILES IDX 14 1 6 2 7 3 3 4 2 5 1 6 4 7 5 8 15 9 8 10 9 11 10 12 11 13
REMARK SMILES IDX 13 15 12 16
REMARK H PARENT
REMARK Flexibility Score: 80.00
ROOT
ATOM      1  C   UNL     1       3.188  13.986   4.160  1.00  0.00    -0.008 C 
ATOM      2  C   UNL     1       1.907  14.762   3.656  1.00  0.00     0.003 C 
ATOM      3  C   UNL     1       0.757  13.744   3.793  1.00  0.00     0.006 C 
ATOM      4  C   UNL     1       1.493  12.657   3.011  1.00  0.00     0.019 C 
ATOM      5  C   UNL     1       2.812  12.591   3.728  1.00  0.00    -0.068 C 
ATOM      6  C   UNL     1       3.557  11.488   3.869  1.00  0.00     0.009 C 
ATOM      7  C   UNL     1       1.755  13.385   1.671  1.00  0.00     0.008 C 
ATOM      8  C   UNL     1       1.939  14.860   2.106  1.00  0.00     0.005 C 
ATOM      9  C   UNL     1       4.501  14.439   3.465  1.00  0.00     0.016 C 
ENDROOT
BRANCH   3  10
ATOM     10  C   UNL     1       0.155  13.417   5.228  1.00  0.00    -0.032 C 
ATOM     11  C   UNL     1      -1.225  14.124   5.337  1.00  0.00     0.011 C 
ATOM     12  C   UNL     1      -0.124  11.901   5.395  1.00  0.00     0.011 C 
BRANCH  10  13
ATOM     13  C   UNL     1       0.987  13.954   6.427  1.00  0.00     0.007 CG0
ATOM     14  G   UNL     1       2.394  13.381   6.570  1.00  0.00     0.000 G0
ENDBRANCH  10  13
ENDBRANCH   3  10
BRANCH   1  15
ATOM     15  C   UNL     1       3.406  14.116   5.691  1.00  0.00     0.011 C 
BRANCH  15  16
ATOM     16  C   UNL     1       2.395  13.390   6.574  1.00  0.00     0.001 CG0
ATOM     17  G   UNL     1       0.984  13.952   6.428  1.00  0.00     0.000 G0
ENDBRANCH  15  16
ENDBRANCH   1  15
TORSDOF 0
ENDMDL
MODEL 2
REMARK VINA RESULT:    -3.582      4.219      6.620
REMARK INTER + INTRA:          -3.793
REMARK INTER:                  -4.425
REMARK INTRA:                   0.632
REMARK UNBOUND:                 0.627
REMARK SMILES C=C1[C@@H]2CC[C@H]3[C@@H]2C(C)(C)CCC[C@@]13C
REMARK SMILES IDX 14 1 6 2 7 3 3 4 2 5 1 6 4 7 5 8 15 9 8 10 9 11 10 12 11 13
REMARK SMILES IDX 13 15 12 16
REMARK H PARENT
REMARK Flexibility Score: 80.00
ROOT
ATOM      1  C   UNL     1      -0.508  14.540   0.199  1.00  0.00    -0.008 C 
ATOM      2  C   UNL     1       0.565  15.347   1.031  1.00  0.00     0.003 C 
ATOM      3  C   UNL     1       1.896  15.100   0.292  1.00  0.00     0.006 C 
ATOM      4  C   UNL     1       1.734  13.580   0.302  1.00  0.00     0.019 C 
ATOM      5  C   UNL     1       0.361  13.406  -0.283  1.00  0.00    -0.068 C 
ATOM      6  C   UNL     1      -0.032  12.366  -1.028  1.00  0.00     0.009 C 
ATOM      7  C   UNL     1       1.604  13.308   1.820  1.00  0.00     0.008 C 
ATOM      8  C   UNL     1       0.888  14.578   2.342  1.00  0.00     0.005 C 
ATOM      9  C   UNL     1      -1.684  14.001   1.060  1.00  0.00     0.016 C 
ENDROOT
BRANCH   3  10
ATOM     10  C   UNL     1       2.196  15.855  -1.073  1.00  0.00    -0.032 C 
ATOM     11  C   UNL     1       3.224  16.983  -0.778  1.00  0.00     0.011 C 
ATOM     12  C   UNL     1       2.873  14.917  -2.105  1.00  0.00     0.011 C 
BRANCH  10  13
ATOM     13  C   UNL     1       0.972  16.573  -1.709  1.00  0.00     0.007 CG0
ATOM     14  G   UNL     1      -0.195  15.673  -2.107  1.00  0.00     0.000 G0
ENDBRANCH  10  13
ENDBRANCH   3  10
BRANCH   1  15
ATOM     15  C   UNL     1      -1.124  15.374  -0.956  1.00  0.00     0.011 C 
BRANCH  15  16
ATOM     16  C   UNL     1      -0.194  15.690  -2.123  1.00  0.00     0.001 CG0
ATOM     17  G   UNL     1       0.985  16.566  -1.707  1.00  0.00     0.000 G0
ENDBRANCH  15  16
ENDBRANCH   1  15
TORSDOF 0
ENDMDL
MODEL 3
REMARK VINA RESULT:    -3.389      4.085      5.888
REMARK INTER + INTRA:          -3.554
REMARK INTER:                  -4.187
REMARK INTRA:                   0.632
REMARK UNBOUND:                 0.627
REMARK SMILES C=C1[C@@H]2CC[C@H]3[C@@H]2C(C)(C)CCC[C@@]13C
REMARK SMILES IDX 14 1 6 2 7 3 3 4 2 5 1 6 4 7 5 8 15 9 8 10 9 11 10 12 11 13
REMARK SMILES IDX 13 15 12 16
REMARK H PARENT
REMARK Flexibility Score: 80.00
ROOT
ATOM      1  C   UNL     1      -0.062  13.571  -0.134  1.00  0.00    -0.008 C 
ATOM      2  C   UNL     1      -0.054  13.783   1.431  1.00  0.00     0.003 C 
ATOM      3  C   UNL     1      -0.603  15.211   1.633  1.00  0.00     0.006 C 
ATOM      4  C   UNL     1       0.389  15.837   0.654  1.00  0.00     0.019 C 
ATOM      5  C   UNL     1       0.199  14.990  -0.573  1.00  0.00    -0.068 C 
ATOM      6  C   UNL     1       0.334  15.420  -1.833  1.00  0.00     0.009 C 
ATOM      7  C   UNL     1       1.735  15.406   1.283  1.00  0.00     0.008 C 
ATOM      8  C   UNL     1       1.402  14.031   1.912  1.00  0.00     0.005 C 
ATOM      9  C   UNL     1       1.063  12.626  -0.638  1.00  0.00     0.016 C 
ENDROOT
BRANCH   3  10
ATOM     10  C   UNL     1      -2.159  15.492   1.472  1.00  0.00    -0.032 C 
ATOM     11  C   UNL     1      -2.758  15.681   2.893  1.00  0.00     0.011 C 
ATOM     12  C   UNL     1      -2.421  16.819   0.715  1.00  0.00     0.011 C 
BRANCH  10  13
ATOM     13  C   UNL     1      -2.973  14.330   0.834  1.00  0.00     0.007 CG0
ATOM     14  G   UNL     1      -2.597  13.962  -0.598  1.00  0.00     0.000 G0
ENDBRANCH  10  13
ENDBRANCH   3  10
BRANCH   1  15
ATOM     15  C   UNL     1      -1.410  13.006  -0.657  1.00  0.00     0.011 C 
BRANCH  15  16
ATOM     16  C   UNL     1      -2.601  13.958  -0.599  1.00  0.00     0.001 CG0
ATOM     17  G   UNL     1      -2.972  14.342   0.831  1.00  0.00     0.000 G0
ENDBRANCH  15  16
ENDBRANCH   1  15
TORSDOF 0
ENDMDL
MODEL 4
REMARK VINA RESULT:    -3.364      4.203      6.289
REMARK INTER + INTRA:          -3.524
REMARK INTER:                  -4.150
REMARK INTRA:                   0.627
REMARK UNBOUND:                 0.627
REMARK SMILES C=C1[C@@H]2CC[C@H]3[C@@H]2C(C)(C)CCC[C@@]13C
REMARK SMILES IDX 14 1 6 2 7 3 3 4 2 5 1 6 4 7 5 8 15 9 8 10 9 11 10 12 11 13
REMARK SMILES IDX 13 15 12 16
REMARK H PARENT
REMARK Flexibility Score: 80.00
ROOT
ATOM      1  C   UNL     1      -0.984  15.169  -1.081  1.00  0.00    -0.008 C 
ATOM      2  C   UNL     1      -0.617  16.158   0.095  1.00  0.00     0.003 C 
ATOM      3  C   UNL     1       0.080  15.269   1.146  1.00  0.00     0.006 C 
ATOM      4  C   UNL     1      -1.055  14.246   1.178  1.00  0.00     0.019 C 
ATOM      5  C   UNL     1      -1.221  13.914  -0.279  1.00  0.00    -0.068 C 
ATOM      6  C   UNL     1      -1.604  12.725  -0.759  1.00  0.00     0.009 C 
ATOM      7  C   UNL     1      -2.252  15.146   1.564  1.00  0.00     0.008 C 
ATOM      8  C   UNL     1      -1.899  16.501   0.902  1.00  0.00     0.005 C 
ATOM      9  C   UNL     1      -2.269  15.575  -1.854  1.00  0.00     0.016 C 
ENDROOT
BRANCH   3  10
ATOM     10  C   UNL     1       1.576  14.786   0.910  1.00  0.00    -0.032 C 
ATOM     11  C   UNL     1       2.498  15.619   1.843  1.00  0.00     0.011 C 
ATOM     12  C   UNL     1       1.767  13.305   1.327  1.00  0.00     0.011 C 
BRANCH  10  13
ATOM     13  C   UNL     1       2.123  15.024  -0.527  1.00  0.00     0.007 CG0
ATOM     14  G   UNL     1       1.403  14.276  -1.645  1.00  0.00     0.000 G0
ENDBRANCH  10  13
ENDBRANCH   3  10
BRANCH   1  15
ATOM     15  C   UNL     1       0.157  15.024  -2.124  1.00  0.00     0.011 C 
BRANCH  15  16
ATOM     16  C   UNL     1       1.405  14.285  -1.650  1.00  0.00     0.001 CG0
ATOM     17  G   UNL     1       2.130  15.025  -0.530  1.00  0.00     0.000 G0
ENDBRANCH  15  16
ENDBRANCH   1  15
TORSDOF 0
ENDMDL
MODEL 5
REMARK VINA RESULT:    -3.314      3.354      5.153
REMARK INTER + INTRA:          -3.462
REMARK INTER:                  -4.097
REMARK INTRA:                   0.635
REMARK UNBOUND:                 0.627
REMARK SMILES C=C1[C@@H]2CC[C@H]3[C@@H]2C(C)(C)CCC[C@@]13C
REMARK SMILES IDX 14 1 6 2 7 3 3 4 2 5 1 6 4 7 5 8 15 9 8 10 9 11 10 12 11 13
REMARK SMILES IDX 13 15 12 16
REMARK H PARENT
REMARK Flexibility Score: 80.00
ROOT
ATOM      1  C   UNL     1       0.368  15.663  -0.687  1.00  0.00    -0.008 C 
ATOM      2  C   UNL     1      -0.572  15.475   0.568  1.00  0.00     0.003 C 
ATOM      3  C   UNL     1      -0.074  14.177   1.235  1.00  0.00     0.006 C 
ATOM      4  C   UNL     1      -0.156  13.364  -0.056  1.00  0.00     0.019 C 
ATOM      5  C   UNL     1       0.631  14.215  -1.014  1.00  0.00    -0.068 C 
ATOM      6  C   UNL     1       1.360  13.750  -2.035  1.00  0.00     0.009 C 
ATOM      7  C   UNL     1      -1.647  13.548  -0.425  1.00  0.00     0.008 C 
ATOM      8  C   UNL     1      -1.964  14.970   0.100  1.00  0.00     0.005 C 
ATOM      9  C   UNL     1      -0.325  16.376  -1.881  1.00  0.00     0.016 C 
ENDROOT
BRANCH   3  10
ATOM     10  C   UNL     1       1.272  14.187   2.081  1.00  0.00    -0.032 C 
ATOM     11  C   UNL     1       0.889  14.126   3.586  1.00  0.00     0.011 C 
ATOM     12  C   UNL     1       2.126  12.923   1.804  1.00  0.00     0.011 C 
BRANCH  10  13
ATOM     13  C   UNL     1       2.134  15.472   1.929  1.00  0.00     0.007 CG0
ATOM     14  G   UNL     1       2.679  15.747   0.530  1.00  0.00     0.000 G0
ENDBRANCH  10  13
ENDBRANCH   3  10
BRANCH   1  15
ATOM     15  C   UNL     1       1.659  16.461  -0.358  1.00  0.00     0.011 C 
BRANCH  15  16
ATOM     16  C   UNL     1       2.673  15.752   0.534  1.00  0.00     0.001 CG0
ATOM     17  G   UNL     1       2.124  15.469   1.930  1.00  0.00     0.000 G0
ENDBRANCH  15  16
ENDBRANCH   1  15
TORSDOF 0
ENDMDL
MODEL 6
REMARK VINA RESULT:    -3.240      5.371      7.456
REMARK INTER + INTRA:          -3.371
REMARK INTER:                  -4.006
REMARK INTRA:                   0.635
REMARK UNBOUND:                 0.627
REMARK SMILES C=C1[C@@H]2CC[C@H]3[C@@H]2C(C)(C)CCC[C@@]13C
REMARK SMILES IDX 14 1 6 2 7 3 3 4 2 5 1 6 4 7 5 8 15 9 8 10 9 11 10 12 11 13
REMARK SMILES IDX 13 15 12 16
REMARK H PARENT
REMARK Flexibility Score: 80.00
ROOT
ATOM      1  C   UNL     1      -3.659  13.672   0.349  1.00  0.00    -0.008 C 
ATOM      2  C   UNL     1      -2.927  12.324  -0.027  1.00  0.00     0.003 C 
ATOM      3  C   UNL     1      -2.003  12.699  -1.204  1.00  0.00     0.006 C 
ATOM      4  C   UNL     1      -3.129  13.344  -2.012  1.00  0.00     0.019 C 
ATOM      5  C   UNL     1      -3.717  14.306  -1.018  1.00  0.00    -0.068 C 
ATOM      6  C   UNL     1      -4.277  15.483  -1.324  1.00  0.00     0.009 C 
ATOM      7  C   UNL     1      -4.123  12.164  -2.125  1.00  0.00     0.008 C 
ATOM      8  C   UNL     1      -3.909  11.398  -0.796  1.00  0.00     0.005 C 
ATOM      9  C   UNL     1      -5.090  13.462   0.916  1.00  0.00     0.016 C 
ENDROOT
BRANCH   3  10
ATOM     10  C   UNL     1      -0.661  13.506  -0.933  1.00  0.00    -0.032 C 
ATOM     11  C   UNL     1       0.527  12.513  -1.072  1.00  0.00     0.011 C 
ATOM     12  C   UNL     1      -0.431  14.604  -2.002  1.00  0.00     0.011 C 
BRANCH  10  13
ATOM     13  C   UNL     1      -0.531  14.102   0.498  1.00  0.00     0.007 CG0
ATOM     14  G   UNL     1      -1.572  15.151   0.879  1.00  0.00     0.000 G0
ENDBRANCH  10  13
ENDBRANCH   3  10
BRANCH   1  15
ATOM     15  C   UNL     1      -2.870  14.517   1.384  1.00  0.00     0.011 C 
BRANCH  15  16
ATOM     16  C   UNL     1      -1.575  15.150   0.883  1.00  0.00     0.001 CG0
ATOM     17  G   UNL     1      -0.528  14.108   0.498  1.00  0.00     0.000 G0
ENDBRANCH  15  16
ENDBRANCH   1  15
TORSDOF 0
ENDMDL
MODEL 7
REMARK VINA RESULT:    -3.195      3.823      5.531
REMARK INTER + INTRA:          -3.316
REMARK INTER:                  -3.946
REMARK INTRA:                   0.631
REMARK UNBOUND:                 0.627
REMARK SMILES C=C1[C@@H]2CC[C@H]3[C@@H]2C(C)(C)CCC[C@@]13C
REMARK SMILES IDX 14 1 6 2 7 3 3 4 2 5 1 6 4 7 5 8 15 9 8 10 9 11 10 12 11 13
REMARK SMILES IDX 13 15 12 16
REMARK H PARENT
REMARK Flexibility Score: 80.00
ROOT
ATOM      1  C   UNL     1       1.123  14.808   1.176  1.00  0.00    -0.008 C 
ATOM      2  C   UNL     1       1.089  16.237   0.503  1.00  0.00     0.003 C 
ATOM      3  C   UNL     1       0.420  16.005  -0.867  1.00  0.00     0.006 C 
ATOM      4  C   UNL     1       1.370  14.872  -1.252  1.00  0.00     0.019 C 
ATOM      5  C   UNL     1       1.271  13.960  -0.062  1.00  0.00    -0.068 C 
ATOM      6  C   UNL     1       1.388  12.627  -0.102  1.00  0.00     0.009 C 
ATOM      7  C   UNL     1       2.738  15.588  -1.146  1.00  0.00     0.008 C 
ATOM      8  C   UNL     1       2.513  16.605  -0.000  1.00  0.00     0.005 C 
ATOM      9  C   UNL     1       2.331  14.600   2.130  1.00  0.00     0.016 C 
ENDROOT
BRANCH   3  10
ATOM     10  C   UNL     1      -1.152  15.784  -0.954  1.00  0.00    -0.032 C 
ATOM     11  C   UNL     1      -1.786  17.086  -1.516  1.00  0.00     0.011 C 
ATOM     12  C   UNL     1      -1.513  14.661  -1.959  1.00  0.00     0.011 C 
BRANCH  10  13
ATOM     13  C   UNL     1      -1.857  15.541   0.411  1.00  0.00     0.007 CG0
ATOM     14  G   UNL     1      -1.439  14.279   1.161  1.00  0.00     0.000 G0
ENDBRANCH  10  13
ENDBRANCH   3  10
BRANCH   1  15
ATOM     15  C   UNL     1      -0.164  14.494   1.984  1.00  0.00     0.011 C 
BRANCH  15  16
ATOM     16  C   UNL     1      -1.433  14.279   1.165  1.00  0.00     0.001 CG0
ATOM     17  G   UNL     1      -1.860  15.535   0.411  1.00  0.00     0.000 G0
ENDBRANCH  15  16
ENDBRANCH   1  15
TORSDOF 0
ENDMDL
MODEL 8
REMARK VINA RESULT:    -3.110      4.026      6.200
REMARK INTER + INTRA:          -3.210
REMARK INTER:                  -3.835
REMARK INTRA:                   0.624
REMARK UNBOUND:                 0.627
REMARK SMILES C=C1[C@@H]2CC[C@H]3[C@@H]2C(C)(C)CCC[C@@]13C
REMARK SMILES IDX 14 1 6 2 7 3 3 4 2 5 1 6 4 7 5 8 15 9 8 10 9 11 10 12 11 13
REMARK SMILES IDX 13 15 12 16
REMARK H PARENT
REMARK Flexibility Score: 80.00
ROOT
ATOM      1  C   UNL     1       1.398  15.703   0.495  1.00  0.00    -0.008 C 
ATOM      2  C   UNL     1       1.748  14.195   0.807  1.00  0.00     0.003 C 
ATOM      3  C   UNL     1       0.466  13.416   0.448  1.00  0.00     0.006 C 
ATOM      4  C   UNL     1      -0.434  14.307   1.304  1.00  0.00     0.019 C 
ATOM      5  C   UNL     1      -0.076  15.681   0.812  1.00  0.00    -0.068 C 
ATOM      6  C   UNL     1      -0.916  16.722   0.758  1.00  0.00     0.009 C 
ATOM      7  C   UNL     1       0.231  14.149   2.692  1.00  0.00     0.008 C 
ATOM      8  C   UNL     1       1.729  13.967   2.344  1.00  0.00     0.005 C 
ATOM      9  C   UNL     1       2.140  16.714   1.411  1.00  0.00     0.016 C 
ENDROOT
BRANCH   3  10
ATOM     10  C   UNL     1       0.099  13.151  -1.075  1.00  0.00    -0.032 C 
ATOM     11  C   UNL     1       0.417  11.663  -1.390  1.00  0.00     0.011 C 
ATOM     12  C   UNL     1      -1.419  13.330  -1.334  1.00  0.00     0.011 C 
BRANCH  10  13
ATOM     13  C   UNL     1       0.929  13.974  -2.102  1.00  0.00     0.007 CG0
ATOM     14  G   UNL     1       0.783  15.490  -2.013  1.00  0.00     0.000 G0
ENDBRANCH  10  13
ENDBRANCH   3  10
BRANCH   1  15
ATOM     15  C   UNL     1       1.703  16.099  -0.975  1.00  0.00     0.011 C 
BRANCH  15  16
ATOM     16  C   UNL     1       0.792  15.487  -2.035  1.00  0.00     0.001 CG0
ATOM     17  G   UNL     1       0.923  13.968  -2.109  1.00  0.00     0.000 G0
ENDBRANCH  15  16
ENDBRANCH   1  15
TORSDOF 0
ENDMDL
MODEL 9
REMARK VINA RESULT:    -3.055      4.417      6.591
REMARK INTER + INTRA:          -3.142
REMARK INTER:                  -3.772
REMARK INTRA:                   0.630
REMARK UNBOUND:                 0.627
REMARK SMILES C=C1[C@@H]2CC[C@H]3[C@@H]2C(C)(C)CCC[C@@]13C
REMARK SMILES IDX 14 1 6 2 7 3 3 4 2 5 1 6 4 7 5 8 15 9 8 10 9 11 10 12 11 13
REMARK SMILES IDX 13 15 12 16
REMARK H PARENT
REMARK Flexibility Score: 80.00
ROOT
ATOM      1  C   UNL     1      -1.343  14.073  -0.386  1.00  0.00    -0.008 C 
ATOM      2  C   UNL     1      -1.095  15.230  -1.432  1.00  0.00     0.003 C 
ATOM      3  C   UNL     1      -0.074  16.162  -0.746  1.00  0.00     0.006 C 
ATOM      4  C   UNL     1      -0.901  16.292   0.532  1.00  0.00     0.019 C 
ATOM      5  C   UNL     1      -1.155  14.854   0.890  1.00  0.00    -0.068 C 
ATOM      6  C   UNL     1      -1.283  14.383   2.137  1.00  0.00     0.009 C 
ATOM      7  C   UNL     1      -2.230  16.848  -0.033  1.00  0.00     0.008 C 
ATOM      8  C   UNL     1      -2.314  16.195  -1.435  1.00  0.00     0.005 C 
ATOM      9  C   UNL     1      -2.774  13.472  -0.454  1.00  0.00     0.016 C 
ENDROOT
BRANCH   3  10
ATOM     10  C   UNL     1       1.455  15.734  -0.661  1.00  0.00    -0.032 C 
ATOM     11  C   UNL     1       2.245  16.582  -1.696  1.00  0.00     0.011 C 
ATOM     12  C   UNL     1       2.062  16.072   0.725  1.00  0.00     0.011 C 
BRANCH  10  13
ATOM     13  C   UNL     1       1.745  14.253  -1.036  1.00  0.00     0.007 CG0
ATOM     14  G   UNL     1       1.102  13.200  -0.138  1.00  0.00     0.000 G0
ENDBRANCH  10  13
ENDBRANCH   3  10
BRANCH   1  15
ATOM     15  C   UNL     1      -0.339  12.899  -0.539  1.00  0.00     0.011 C 
BRANCH  15  16
ATOM     16  C   UNL     1       1.103  13.197  -0.141  1.00  0.00     0.001 CG0
ATOM     17  G   UNL     1       1.748  14.253  -1.034  1.00  0.00     0.000 G0
ENDBRANCH  15  16
ENDBRANCH   1  15
TORSDOF 0
ENDMDL
