MODEL 1
REMARK VINA RESULT:    -5.567      0.000      0.000
REMARK INTER + INTRA:          -6.058
REMARK INTER:                  -5.893
REMARK INTRA:                  -0.166
REMARK UNBOUND:                -0.166
REMARK SMILES C=C(C)[C@H]1CC=C(C)CC1
REMARK SMILES IDX 8 1 7 2 6 3 5 4 4 5 10 6 9 7 2 8 1 9 3 10
REMARK H PARENT
REMARK Flexibility Score: inf
ROOT
ATOM      1  C   UNL     1      21.807 -28.239   0.932  1.00  0.00     0.039 C 
ATOM      2  C   UNL     1      22.472 -29.568   0.699  1.00  0.00    -0.077 C 
ATOM      3  C   UNL     1      23.765 -29.624   0.344  1.00  0.00    -0.027 C 
ATOM      4  C   UNL     1      24.426 -30.963   0.166  1.00  0.00     0.035 C 
ATOM      5  C   UNL     1      24.070 -31.896   1.350  1.00  0.00     0.018 C 
ATOM      6  C   UNL     1      22.559 -31.845   1.751  1.00  0.00     0.013 C 
ATOM      7  C   UNL     1      21.723 -30.865   0.904  1.00  0.00     0.031 C 
ENDROOT
BRANCH   5   8
ATOM      8  C   UNL     1      24.536 -33.319   1.073  1.00  0.00    -0.077 C 
ATOM      9  C   UNL     1      24.053 -34.012   0.028  1.00  0.00     0.008 C 
ATOM     10  C   UNL     1      25.553 -33.975   1.972  1.00  0.00     0.039 C 
ENDBRANCH   5   8
TORSDOF 1
ENDMDL
MODEL 2
REMARK VINA RESULT:    -5.401      1.071      4.134
REMARK INTER + INTRA:          -5.883
REMARK INTER:                  -5.719
REMARK INTRA:                  -0.164
REMARK UNBOUND:                -0.166
REMARK SMILES C=C(C)[C@H]1CC=C(C)CC1
REMARK SMILES IDX 8 1 7 2 6 3 5 4 4 5 10 6 9 7 2 8 1 9 3 10
REMARK H PARENT
REMARK Flexibility Score: inf
ROOT
ATOM      1  C   UNL     1      25.421 -34.125   2.461  1.00  0.00     0.039 C 
ATOM      2  C   UNL     1      24.637 -32.939   1.971  1.00  0.00    -0.077 C 
ATOM      3  C   UNL     1      24.872 -32.432   0.750  1.00  0.00    -0.027 C 
ATOM      4  C   UNL     1      24.042 -31.278   0.258  1.00  0.00     0.035 C 
ATOM      5  C   UNL     1      22.542 -31.538   0.542  1.00  0.00     0.018 C 
ATOM      6  C   UNL     1      22.269 -32.111   1.971  1.00  0.00     0.013 C 
ATOM      7  C   UNL     1      23.543 -32.321   2.811  1.00  0.00     0.031 C 
ENDROOT
BRANCH   5   8
ATOM      8  C   UNL     1      21.717 -30.289   0.262  1.00  0.00    -0.077 C 
ATOM      9  C   UNL     1      20.701 -30.318  -0.618  1.00  0.00     0.008 C 
ATOM     10  C   UNL     1      22.028 -28.997   0.971  1.00  0.00     0.039 C 
ENDBRANCH   5   8
TORSDOF 1
ENDMDL
MODEL 3
REMARK VINA RESULT:    -5.239      1.202      2.207
REMARK INTER + INTRA:          -5.711
REMARK INTER:                  -5.557
REMARK INTRA:                  -0.155
REMARK UNBOUND:                -0.166
REMARK SMILES C=C(C)[C@H]1CC=C(C)CC1
REMARK SMILES IDX 8 1 7 2 6 3 5 4 4 5 10 6 9 7 2 8 1 9 3 10
REMARK H PARENT
REMARK Flexibility Score: inf
ROOT
ATOM      1  C   UNL     1      21.199 -29.932  -0.672  1.00  0.00     0.039 C 
ATOM      2  C   UNL     1      22.092 -30.642   0.309  1.00  0.00    -0.077 C 
ATOM      3  C   UNL     1      21.586 -31.574   1.131  1.00  0.00    -0.027 C 
ATOM      4  C   UNL     1      22.504 -32.309   2.069  1.00  0.00     0.035 C 
ATOM      5  C   UNL     1      23.776 -32.772   1.318  1.00  0.00     0.018 C 
ATOM      6  C   UNL     1      24.376 -31.679   0.374  1.00  0.00     0.013 C 
ATOM      7  C   UNL     1      23.577 -30.361   0.362  1.00  0.00     0.031 C 
ENDROOT
BRANCH   5   8
ATOM      8  C   UNL     1      24.813 -33.311   2.295  1.00  0.00    -0.077 C 
ATOM      9  C   UNL     1      25.874 -34.009   1.857  1.00  0.00     0.008 C 
ATOM     10  C   UNL     1      24.664 -33.066   3.774  1.00  0.00     0.039 C 
ENDBRANCH   5   8
TORSDOF 1
ENDMDL
MODEL 4
REMARK VINA RESULT:    -5.140     16.950     19.253
REMARK INTER + INTRA:          -5.607
REMARK INTER:                  -5.450
REMARK INTRA:                  -0.157
REMARK UNBOUND:                -0.166
REMARK SMILES C=C(C)[C@H]1CC=C(C)CC1
REMARK SMILES IDX 8 1 7 2 6 3 5 4 4 5 10 6 9 7 2 8 1 9 3 10
REMARK H PARENT
REMARK Flexibility Score: inf
ROOT
ATOM      1  C   UNL     1      20.198 -14.289 -13.538  1.00  0.00     0.039 C 
ATOM      2  C   UNL     1      20.972 -15.314 -12.756  1.00  0.00    -0.077 C 
ATOM      3  C   UNL     1      21.597 -14.966 -11.620  1.00  0.00    -0.027 C 
ATOM      4  C   UNL     1      22.323 -16.016 -10.825  1.00  0.00     0.035 C 
ATOM      5  C   UNL     1      21.443 -17.283 -10.683  1.00  0.00     0.018 C 
ATOM      6  C   UNL     1      20.730 -17.699 -12.012  1.00  0.00     0.013 C 
ATOM      7  C   UNL     1      21.027 -16.759 -13.197  1.00  0.00     0.031 C 
ENDROOT
BRANCH   5   8
ATOM      8  C   UNL     1      22.244 -18.432 -10.085  1.00  0.00    -0.077 C 
ATOM      9  C   UNL     1      22.408 -19.582 -10.760  1.00  0.00     0.008 C 
ATOM     10  C   UNL     1      22.869 -18.295  -8.721  1.00  0.00     0.039 C 
ENDBRANCH   5   8
TORSDOF 1
ENDMDL
MODEL 5
REMARK VINA RESULT:    -5.119     17.254     19.899
REMARK INTER + INTRA:          -5.585
REMARK INTER:                  -5.429
REMARK INTRA:                  -0.155
REMARK UNBOUND:                -0.166
REMARK SMILES C=C(C)[C@H]1CC=C(C)CC1
REMARK SMILES IDX 8 1 7 2 6 3 5 4 4 5 10 6 9 7 2 8 1 9 3 10
REMARK H PARENT
REMARK Flexibility Score: inf
ROOT
ATOM      1  C   UNL     1      20.778 -20.759 -11.861  1.00  0.00     0.039 C 
ATOM      2  C   UNL     1      20.697 -19.259 -11.795  1.00  0.00    -0.077 C 
ATOM      3  C   UNL     1      21.404 -18.584 -10.874  1.00  0.00    -0.027 C 
ATOM      4  C   UNL     1      21.348 -17.081 -10.856  1.00  0.00     0.035 C 
ATOM      5  C   UNL     1      21.510 -16.523 -12.292  1.00  0.00     0.018 C 
ATOM      6  C   UNL     1      20.670 -17.298 -13.360  1.00  0.00     0.013 C 
ATOM      7  C   UNL     1      19.862 -18.475 -12.781  1.00  0.00     0.031 C 
ENDROOT
BRANCH   5   8
ATOM      8  C   UNL     1      21.227 -15.027 -12.323  1.00  0.00    -0.077 C 
ATOM      9  C   UNL     1      20.564 -14.472 -13.352  1.00  0.00     0.008 C 
ATOM     10  C   UNL     1      21.688 -14.141 -11.195  1.00  0.00     0.039 C 
ENDBRANCH   5   8
TORSDOF 1
ENDMDL
MODEL 6
REMARK VINA RESULT:    -5.101     15.286     17.852
REMARK INTER + INTRA:          -5.565
REMARK INTER:                  -5.410
REMARK INTRA:                  -0.155
REMARK UNBOUND:                -0.166
REMARK SMILES C=C(C)[C@H]1CC=C(C)CC1
REMARK SMILES IDX 8 1 7 2 6 3 5 4 4 5 10 6 9 7 2 8 1 9 3 10
REMARK H PARENT
REMARK Flexibility Score: inf
ROOT
ATOM      1  C   UNL     1      21.688 -22.616 -11.008  1.00  0.00     0.039 C 
ATOM      2  C   UNL     1      21.720 -21.131 -11.245  1.00  0.00    -0.077 C 
ATOM      3  C   UNL     1      20.614 -20.487 -11.650  1.00  0.00    -0.027 C 
ATOM      4  C   UNL     1      20.653 -18.995 -11.832  1.00  0.00     0.035 C 
ATOM      5  C   UNL     1      21.349 -18.326 -10.621  1.00  0.00     0.018 C 
ATOM      6  C   UNL     1      22.648 -19.066 -10.162  1.00  0.00     0.013 C 
ATOM      7  C   UNL     1      22.973 -20.324 -10.991  1.00  0.00     0.031 C 
ENDROOT
BRANCH   5   8
ATOM      8  C   UNL     1      21.602 -16.849 -10.893  1.00  0.00    -0.077 C 
ATOM      9  C   UNL     1      21.351 -16.318 -12.101  1.00  0.00     0.008 C 
ATOM     10  C   UNL     1      22.141 -15.957  -9.805  1.00  0.00     0.039 C 
ENDBRANCH   5   8
TORSDOF 1
ENDMDL
MODEL 7
REMARK VINA RESULT:    -5.092     17.295     18.694
REMARK INTER + INTRA:          -5.556
REMARK INTER:                  -5.398
REMARK INTRA:                  -0.157
REMARK UNBOUND:                -0.166
REMARK SMILES C=C(C)[C@H]1CC=C(C)CC1
REMARK SMILES IDX 8 1 7 2 6 3 5 4 4 5 10 6 9 7 2 8 1 9 3 10
REMARK H PARENT
REMARK Flexibility Score: inf
ROOT
ATOM      1  C   UNL     1      23.653 -14.963  -8.957  1.00  0.00     0.039 C 
ATOM      2  C   UNL     1      23.079 -16.073  -9.794  1.00  0.00    -0.077 C 
ATOM      3  C   UNL     1      22.744 -17.243  -9.226  1.00  0.00    -0.027 C 
ATOM      4  C   UNL     1      22.124 -18.322 -10.070  1.00  0.00     0.035 C 
ATOM      5  C   UNL     1      21.009 -17.728 -10.965  1.00  0.00     0.018 C 
ATOM      6  C   UNL     1      21.407 -16.374 -11.641  1.00  0.00     0.013 C 
ATOM      7  C   UNL     1      22.822 -15.888 -11.272  1.00  0.00     0.031 C 
ENDROOT
BRANCH   5   8
ATOM      8  C   UNL     1      20.532 -18.753 -11.985  1.00  0.00    -0.077 C 
ATOM      9  C   UNL     1      20.662 -20.070 -11.751  1.00  0.00     0.008 C 
ATOM     10  C   UNL     1      19.904 -18.304 -13.279  1.00  0.00     0.039 C 
ENDBRANCH   5   8
TORSDOF 1
ENDMDL
MODEL 8
REMARK VINA RESULT:    -4.979     15.495     17.543
REMARK INTER + INTRA:          -5.436
REMARK INTER:                  -5.280
REMARK INTRA:                  -0.155
REMARK UNBOUND:                -0.166
REMARK SMILES C=C(C)[C@H]1CC=C(C)CC1
REMARK SMILES IDX 8 1 7 2 6 3 5 4 4 5 10 6 9 7 2 8 1 9 3 10
REMARK H PARENT
REMARK Flexibility Score: inf
ROOT
ATOM      1  C   UNL     1      21.872 -14.287  -9.697  1.00  0.00     0.039 C 
ATOM      2  C   UNL     1      22.433 -15.654  -9.976  1.00  0.00    -0.077 C 
ATOM      3  C   UNL     1      23.536 -16.075  -9.338  1.00  0.00    -0.027 C 
ATOM      4  C   UNL     1      24.052 -17.465  -9.593  1.00  0.00     0.035 C 
ATOM      5  C   UNL     1      22.887 -18.484  -9.551  1.00  0.00     0.018 C 
ATOM      6  C   UNL     1      21.608 -18.001 -10.311  1.00  0.00     0.013 C 
ATOM      7  C   UNL     1      21.749 -16.600 -10.937  1.00  0.00     0.031 C 
ENDROOT
BRANCH   5   8
ATOM      8  C   UNL     1      23.350 -19.853 -10.031  1.00  0.00    -0.077 C 
ATOM      9  C   UNL     1      22.566 -20.608 -10.820  1.00  0.00     0.008 C 
ATOM     10  C   UNL     1      24.701 -20.384  -9.629  1.00  0.00     0.039 C 
ENDBRANCH   5   8
TORSDOF 1
ENDMDL
MODEL 9
REMARK VINA RESULT:    -4.975     16.549     18.720
REMARK INTER + INTRA:          -5.431
REMARK INTER:                  -5.277
REMARK INTRA:                  -0.155
REMARK UNBOUND:                -0.166
REMARK SMILES C=C(C)[C@H]1CC=C(C)CC1
REMARK SMILES IDX 8 1 7 2 6 3 5 4 4 5 10 6 9 7 2 8 1 9 3 10
REMARK H PARENT
REMARK Flexibility Score: inf
ROOT
ATOM      1  C   UNL     1      20.623 -14.633 -12.847  1.00  0.00     0.039 C 
ATOM      2  C   UNL     1      21.056 -16.038 -12.528  1.00  0.00    -0.077 C 
ATOM      3  C   UNL     1      21.643 -16.313 -11.352  1.00  0.00    -0.027 C 
ATOM      4  C   UNL     1      22.022 -17.732 -11.031  1.00  0.00     0.035 C 
ATOM      5  C   UNL     1      20.856 -18.690 -11.379  1.00  0.00     0.018 C 
ATOM      6  C   UNL     1      20.185 -18.380 -12.758  1.00  0.00     0.013 C 
ATOM      7  C   UNL     1      20.802 -17.174 -13.492  1.00  0.00     0.031 C 
ENDROOT
BRANCH   5   8
ATOM      8  C   UNL     1      21.302 -20.142 -11.278  1.00  0.00    -0.077 C 
ATOM      9  C   UNL     1      20.496 -21.140 -11.678  1.00  0.00     0.008 C 
ATOM     10  C   UNL     1      22.661 -20.484 -10.725  1.00  0.00     0.039 C 
ENDBRANCH   5   8
TORSDOF 1
ENDMDL
