MODEL 1
REMARK VINA RESULT:    -3.833      0.000      0.000
REMARK INTER + INTRA:          -5.144
REMARK INTER:                  -4.729
REMARK INTRA:                  -0.414
REMARK UNBOUND:                -0.414
REMARK SMILES C=CC[C@@H](C)C(=O)CC
REMARK SMILES IDX 4 1 5 2 6 3 7 4 8 5 9 6 3 7 2 8 1 9
REMARK H PARENT
REMARK Flexibility Score: inf
ROOT
ATOM      1  C   UNL     1      12.900  21.930  59.969  1.00  0.00     0.057 C 
ATOM      2  C   UNL     1      11.655  22.826  59.950  1.00  0.00     0.016 C 
ENDROOT
BRANCH   1   3
ATOM      3  C   UNL     1      13.040  21.181  58.659  1.00  0.00     0.135 C 
ATOM      4  O   UNL     1      12.861  21.783  57.610  1.00  0.00    -0.299 OA
BRANCH   3   5
ATOM      5  C   UNL     1      13.366  19.709  58.608  1.00  0.00     0.072 C 
ATOM      6  C   UNL     1      14.814  19.485  58.187  1.00  0.00     0.012 C 
ENDBRANCH   3   5
ENDBRANCH   1   3
BRANCH   1   7
ATOM      7  C   UNL     1      14.162  22.750  60.306  1.00  0.00     0.038 C 
BRANCH   7   8
ATOM      8  C   UNL     1      14.994  22.073  61.361  1.00  0.00    -0.034 C 
ATOM      9  C   UNL     1      14.446  21.294  62.300  1.00  0.00     0.004 C 
ENDBRANCH   7   8
ENDBRANCH   1   7
TORSDOF 4
ENDMDL
MODEL 2
REMARK VINA RESULT:    -3.788      1.139      2.768
REMARK INTER + INTRA:          -5.088
REMARK INTER:                  -4.754
REMARK INTRA:                  -0.334
REMARK UNBOUND:                -0.414
REMARK SMILES C=CC[C@@H](C)C(=O)CC
REMARK SMILES IDX 4 1 5 2 6 3 7 4 8 5 9 6 3 7 2 8 1 9
REMARK H PARENT
REMARK Flexibility Score: inf
ROOT
ATOM      1  C   UNL     1      13.856  21.245  59.256  1.00  0.00     0.057 C 
ATOM      2  C   UNL     1      13.493  19.806  58.867  1.00  0.00     0.016 C 
ENDROOT
BRANCH   1   3
ATOM      3  C   UNL     1      12.766  22.207  58.827  1.00  0.00     0.135 C 
ATOM      4  O   UNL     1      12.886  22.803  57.765  1.00  0.00    -0.299 OA
BRANCH   3   5
ATOM      5  C   UNL     1      11.551  22.475  59.680  1.00  0.00     0.072 C 
ATOM      6  C   UNL     1      10.274  22.074  58.950  1.00  0.00     0.012 C 
ENDBRANCH   3   5
ENDBRANCH   1   3
BRANCH   1   7
ATOM      7  C   UNL     1      14.157  21.346  60.765  1.00  0.00     0.038 C 
BRANCH   7   8
ATOM      8  C   UNL     1      15.072  22.503  61.068  1.00  0.00    -0.034 C 
ATOM      9  C   UNL     1      16.213  22.693  60.399  1.00  0.00     0.004 C 
ENDBRANCH   7   8
ENDBRANCH   1   7
TORSDOF 4
ENDMDL
MODEL 3
REMARK VINA RESULT:    -3.740      2.092      3.096
REMARK INTER + INTRA:          -5.029
REMARK INTER:                  -4.830
REMARK INTRA:                  -0.199
REMARK UNBOUND:                -0.414
REMARK SMILES C=CC[C@@H](C)C(=O)CC
REMARK SMILES IDX 4 1 5 2 6 3 7 4 8 5 9 6 3 7 2 8 1 9
REMARK H PARENT
REMARK Flexibility Score: inf
ROOT
ATOM      1  C   UNL     1      12.232  22.135  58.906  1.00  0.00     0.057 C 
ATOM      2  C   UNL     1      12.574  20.657  58.682  1.00  0.00     0.016 C 
ENDROOT
BRANCH   1   3
ATOM      3  C   UNL     1      10.771  22.296  59.279  1.00  0.00     0.135 C 
ATOM      4  O   UNL     1      10.487  22.747  60.380  1.00  0.00    -0.299 OA
BRANCH   3   5
ATOM      5  C   UNL     1       9.656  21.892  58.347  1.00  0.00     0.072 C 
ATOM      6  C   UNL     1       9.938  22.362  56.924  1.00  0.00     0.012 C 
ENDBRANCH   3   5
ENDBRANCH   1   3
BRANCH   1   7
ATOM      7  C   UNL     1      13.170  22.763  59.957  1.00  0.00     0.038 C 
BRANCH   7   8
ATOM      8  C   UNL     1      14.185  21.769  60.453  1.00  0.00    -0.034 C 
ATOM      9  C   UNL     1      15.006  22.047  61.471  1.00  0.00     0.004 C 
ENDBRANCH   7   8
ENDBRANCH   1   7
TORSDOF 4
ENDMDL
MODEL 4
REMARK VINA RESULT:    -3.736     12.660     13.661
REMARK INTER + INTRA:          -5.023
REMARK INTER:                  -4.797
REMARK INTRA:                  -0.226
REMARK UNBOUND:                -0.414
REMARK SMILES C=CC[C@@H](C)C(=O)CC
REMARK SMILES IDX 4 1 5 2 6 3 7 4 8 5 9 6 3 7 2 8 1 9
REMARK H PARENT
REMARK Flexibility Score: inf
ROOT
ATOM      1  C   UNL     1       3.997  28.681  53.228  1.00  0.00     0.057 C 
ATOM      2  C   UNL     1       2.664  28.942  53.941  1.00  0.00     0.016 C 
ENDROOT
BRANCH   1   3
ATOM      3  C   UNL     1       5.059  29.651  53.707  1.00  0.00     0.135 C 
ATOM      4  O   UNL     1       6.231  29.302  53.690  1.00  0.00    -0.299 OA
BRANCH   3   5
ATOM      5  C   UNL     1       4.715  31.024  54.229  1.00  0.00     0.072 C 
ATOM      6  C   UNL     1       5.972  31.777  54.651  1.00  0.00     0.012 C 
ENDBRANCH   3   5
ENDBRANCH   1   3
BRANCH   1   7
ATOM      7  C   UNL     1       4.434  27.212  53.401  1.00  0.00     0.038 C 
BRANCH   7   8
ATOM      8  C   UNL     1       4.587  26.523  52.072  1.00  0.00    -0.034 C 
ATOM      9  C   UNL     1       5.415  26.985  51.129  1.00  0.00     0.004 C 
ENDBRANCH   7   8
ENDBRANCH   1   7
TORSDOF 4
ENDMDL
MODEL 5
REMARK VINA RESULT:    -3.734      1.283      3.542
REMARK INTER + INTRA:          -5.021
REMARK INTER:                  -4.608
REMARK INTRA:                  -0.413
REMARK UNBOUND:                -0.414
REMARK SMILES C=CC[C@@H](C)C(=O)CC
REMARK SMILES IDX 4 1 5 2 6 3 7 4 8 5 9 6 3 7 2 8 1 9
REMARK H PARENT
REMARK Flexibility Score: inf
ROOT
ATOM      1  C   UNL     1      13.660  21.260  59.255  1.00  0.00     0.057 C 
ATOM      2  C   UNL     1      14.280  20.026  58.587  1.00  0.00     0.016 C 
ENDROOT
BRANCH   1   3
ATOM      3  C   UNL     1      14.740  22.230  59.693  1.00  0.00     0.135 C 
ATOM      4  O   UNL     1      15.430  22.773  58.841  1.00  0.00    -0.299 OA
BRANCH   3   5
ATOM      5  C   UNL     1      15.009  22.528  61.147  1.00  0.00     0.072 C 
ATOM      6  C   UNL     1      14.419  21.446  62.044  1.00  0.00     0.012 C 
ENDBRANCH   3   5
ENDBRANCH   1   3
BRANCH   1   7
ATOM      7  C   UNL     1      12.624  21.926  58.327  1.00  0.00     0.038 C 
BRANCH   7   8
ATOM      8  C   UNL     1      11.275  22.024  58.987  1.00  0.00    -0.034 C 
ATOM      9  C   UNL     1      11.084  22.742  60.098  1.00  0.00     0.004 C 
ENDBRANCH   7   8
ENDBRANCH   1   7
TORSDOF 4
ENDMDL
MODEL 6
REMARK VINA RESULT:    -3.664      2.178      3.566
REMARK INTER + INTRA:          -4.935
REMARK INTER:                  -4.506
REMARK INTRA:                  -0.429
REMARK UNBOUND:                -0.414
REMARK SMILES C=CC[C@@H](C)C(=O)CC
REMARK SMILES IDX 4 1 5 2 6 3 7 4 8 5 9 6 3 7 2 8 1 9
REMARK H PARENT
REMARK Flexibility Score: inf
ROOT
ATOM      1  C   UNL     1      14.067  21.931  59.359  1.00  0.00     0.057 C 
ATOM      2  C   UNL     1      12.755  22.629  59.740  1.00  0.00     0.016 C 
ENDROOT
BRANCH   1   3
ATOM      3  C   UNL     1      15.229  22.515  60.138  1.00  0.00     0.135 C 
ATOM      4  O   UNL     1      15.089  22.741  61.332  1.00  0.00    -0.299 OA
BRANCH   3   5
ATOM      5  C   UNL     1      16.546  22.852  59.482  1.00  0.00     0.072 C 
ATOM      6  C   UNL     1      16.400  22.915  57.966  1.00  0.00     0.012 C 
ENDBRANCH   3   5
ENDBRANCH   1   3
BRANCH   1   7
ATOM      7  C   UNL     1      13.952  20.405  59.546  1.00  0.00     0.038 C 
BRANCH   7   8
ATOM      8  C   UNL     1      14.060  19.679  58.231  1.00  0.00    -0.034 C 
ATOM      9  C   UNL     1      15.212  19.143  57.815  1.00  0.00     0.004 C 
ENDBRANCH   7   8
ENDBRANCH   1   7
TORSDOF 4
ENDMDL
MODEL 7
REMARK VINA RESULT:    -3.631      1.784      2.692
REMARK INTER + INTRA:          -4.894
REMARK INTER:                  -4.488
REMARK INTRA:                  -0.407
REMARK UNBOUND:                -0.414
REMARK SMILES C=CC[C@@H](C)C(=O)CC
REMARK SMILES IDX 4 1 5 2 6 3 7 4 8 5 9 6 3 7 2 8 1 9
REMARK H PARENT
REMARK Flexibility Score: inf
ROOT
ATOM      1  C   UNL     1      14.616  21.629  60.508  1.00  0.00     0.057 C 
ATOM      2  C   UNL     1      14.299  21.335  61.980  1.00  0.00     0.016 C 
ENDROOT
BRANCH   1   3
ATOM      3  C   UNL     1      13.350  21.961  59.744  1.00  0.00     0.135 C 
ATOM      4  O   UNL     1      12.697  22.941  60.075  1.00  0.00    -0.299 OA
BRANCH   3   5
ATOM      5  C   UNL     1      12.853  21.106  58.604  1.00  0.00     0.072 C 
ATOM      6  C   UNL     1      13.465  19.711  58.663  1.00  0.00     0.012 C 
ENDBRANCH   3   5
ENDBRANCH   1   3
BRANCH   1   7
ATOM      7  C   UNL     1      15.676  22.743  60.386  1.00  0.00     0.038 C 
BRANCH   7   8
ATOM      8  C   UNL     1      16.624  22.478  59.248  1.00  0.00    -0.034 C 
ATOM      9  C   UNL     1      16.495  23.089  58.066  1.00  0.00     0.004 C 
ENDBRANCH   7   8
ENDBRANCH   1   7
TORSDOF 4
ENDMDL
MODEL 8
REMARK VINA RESULT:    -3.619      1.573      2.504
REMARK INTER + INTRA:          -4.879
REMARK INTER:                  -4.404
REMARK INTRA:                  -0.475
REMARK UNBOUND:                -0.414
REMARK SMILES C=CC[C@@H](C)C(=O)CC
REMARK SMILES IDX 4 1 5 2 6 3 7 4 8 5 9 6 3 7 2 8 1 9
REMARK H PARENT
REMARK Flexibility Score: inf
ROOT
ATOM      1  C   UNL     1      13.934  21.255  59.263  1.00  0.00     0.057 C 
ATOM      2  C   UNL     1      13.907  19.730  59.098  1.00  0.00     0.016 C 
ENDROOT
BRANCH   1   3
ATOM      3  C   UNL     1      12.776  21.894  58.523  1.00  0.00     0.135 C 
ATOM      4  O   UNL     1      11.633  21.592  58.837  1.00  0.00    -0.299 OA
BRANCH   3   5
ATOM      5  C   UNL     1      12.987  22.870  57.391  1.00  0.00     0.072 C 
ATOM      6  C   UNL     1      14.451  22.907  56.969  1.00  0.00     0.012 C 
ENDBRANCH   3   5
ENDBRANCH   1   3
BRANCH   1   7
ATOM      7  C   UNL     1      13.956  21.647  60.754  1.00  0.00     0.038 C 
BRANCH   7   8
ATOM      8  C   UNL     1      15.036  22.654  61.043  1.00  0.00    -0.034 C 
ATOM      9  C   UNL     1      16.206  22.639  60.397  1.00  0.00     0.004 C 
ENDBRANCH   7   8
ENDBRANCH   1   7
TORSDOF 4
ENDMDL
MODEL 9
REMARK VINA RESULT:    -3.592     12.996     14.282
REMARK INTER + INTRA:          -4.846
REMARK INTER:                  -4.501
REMARK INTRA:                  -0.345
REMARK UNBOUND:                -0.414
REMARK SMILES C=CC[C@@H](C)C(=O)CC
REMARK SMILES IDX 4 1 5 2 6 3 7 4 8 5 9 6 3 7 2 8 1 9
REMARK H PARENT
REMARK Flexibility Score: inf
ROOT
ATOM      1  C   UNL     1       3.248  30.966  53.648  1.00  0.00     0.057 C 
ATOM      2  C   UNL     1       3.518  31.555  52.257  1.00  0.00     0.016 C 
ENDROOT
BRANCH   1   3
ATOM      3  C   UNL     1       3.048  29.466  53.565  1.00  0.00     0.135 C 
ATOM      4  O   UNL     1       2.228  28.935  54.301  1.00  0.00    -0.299 OA
BRANCH   3   5
ATOM      5  C   UNL     1       3.848  28.601  52.622  1.00  0.00     0.072 C 
ATOM      6  C   UNL     1       4.216  27.275  53.278  1.00  0.00     0.012 C 
ENDBRANCH   3   5
ENDBRANCH   1   3
BRANCH   1   7
ATOM      7  C   UNL     1       4.372  31.347  54.633  1.00  0.00     0.038 C 
BRANCH   7   8
ATOM      8  C   UNL     1       5.692  31.506  53.928  1.00  0.00    -0.034 C 
ATOM      9  C   UNL     1       6.831  31.042  54.451  1.00  0.00     0.004 C 
ENDBRANCH   7   8
ENDBRANCH   1   7
TORSDOF 4
ENDMDL
