MODEL 1
REMARK VINA RESULT:    -3.118      0.000      0.000
REMARK INTER + INTRA:          -4.287
REMARK INTER:                  -4.758
REMARK INTRA:                   0.471
REMARK UNBOUND:                 0.471
REMARK SMILES CC1=CCC[C@@H](C)C(=O)C[C@@H](C(C)C)C(=O)C1
REMARK SMILES IDX 8 1 9 2 6 3 7 4 5 5 4 6 3 7 2 8 1 9 10 11 11 12 15 13 16 14
REMARK SMILES IDX 17 15 12 17 13 18 14 19
REMARK H PARENT
REMARK Flexibility Score: 70.00
ROOT
ATOM      1  C   UNL     1      86.625  33.715  64.298  1.00  0.00     0.136 C 
ATOM      2  O   UNL     1      86.413  34.573  63.454  1.00  0.00    -0.299 OA
ENDROOT
BRANCH   1   3
ATOM      3  C   UNL     1      87.894  33.799  65.131  1.00  0.00     0.053 C 
ATOM      4  C   UNL     1      88.325  35.267  65.240  1.00  0.00     0.016 C 
BRANCH   3   5
ATOM      5  C   UNL     1      89.050  32.928  64.571  1.00  0.00     0.015 C 
BRANCH   5   6
ATOM      6  C   UNL     1      88.640  31.823  63.576  1.00  0.00     0.028 C 
BRANCH   6   7
ATOM      7  C   UNL     1      89.124  30.424  63.874  1.00  0.00    -0.028 C 
ATOM      8  C   UNL     1      88.706  29.635  64.889  1.00  0.00    -0.070 CG0
ATOM      9  C   UNL     1      89.098  28.178  64.841  1.00  0.00     0.039 C 
ATOM     10  G   UNL     1      87.863  30.131  66.055  1.00  0.00     0.000 G0
ENDBRANCH   6   7
ENDBRANCH   5   6
ENDBRANCH   3   5
ENDBRANCH   1   3
BRANCH   1  11
ATOM     11  C   UNL     1      85.687  32.527  64.392  1.00  0.00     0.087 C 
BRANCH  11  12
ATOM     12  C   UNL     1      85.740  31.729  65.729  1.00  0.00     0.066 C 
BRANCH  12  13
ATOM     13  C   UNL     1      86.415  30.369  65.613  1.00  0.00     0.140 C 
ATOM     14  O   UNL     1      85.797  29.467  65.067  1.00  0.00    -0.299 OA
BRANCH  13  15
ATOM     15  C   UNL     1      87.838  30.111  66.062  1.00  0.00     0.106 CG0
ATOM     16  G   UNL     1      88.693  29.649  64.891  1.00  0.00     0.000 G0
ENDBRANCH  13  15
ENDBRANCH  12  13
BRANCH  12  17
ATOM     17  C   UNL     1      84.330  31.603  66.389  1.00  0.00    -0.006 C 
ATOM     18  C   UNL     1      83.230  32.203  65.493  1.00  0.00     0.008 C 
ATOM     19  C   UNL     1      84.276  32.289  67.766  1.00  0.00     0.008 C 
ENDBRANCH  12  17
ENDBRANCH  11  12
ENDBRANCH   1  11
TORSDOF 1
ENDMDL
MODEL 2
REMARK VINA RESULT:    -2.764      1.845      4.111
REMARK INTER + INTRA:          -3.748
REMARK INTER:                  -3.947
REMARK INTRA:                   0.199
REMARK UNBOUND:                 0.471
REMARK SMILES CC1=CCC[C@@H](C)C(=O)C[C@@H](C(C)C)C(=O)C1
REMARK SMILES IDX 8 1 9 2 6 3 7 4 5 5 4 6 3 7 2 8 1 9 10 11 11 12 15 13 16 14
REMARK SMILES IDX 17 15 12 17 13 18 14 19
REMARK H PARENT
REMARK Flexibility Score: 70.00
ROOT
ATOM      1  C   UNL     1      86.729  28.793  64.918  1.00  0.00     0.136 C 
ATOM      2  O   UNL     1      86.121  27.741  64.789  1.00  0.00    -0.299 OA
ENDROOT
BRANCH   1   3
ATOM      3  C   UNL     1      88.105  28.931  64.288  1.00  0.00     0.053 C 
ATOM      4  C   UNL     1      88.915  27.660  64.571  1.00  0.00     0.016 C 
BRANCH   3   5
ATOM      5  C   UNL     1      88.874  30.190  64.772  1.00  0.00     0.015 C 
BRANCH   5   6
ATOM      6  C   UNL     1      88.924  31.372  63.782  1.00  0.00     0.028 C 
BRANCH   6   7
ATOM      7  C   UNL     1      89.112  32.749  64.374  1.00  0.00    -0.028 C 
ATOM      8  C   UNL     1      88.128  33.586  64.772  1.00  0.00    -0.070 CG0
ATOM      9  C   UNL     1      88.531  34.785  65.596  1.00  0.00     0.039 C 
ATOM     10  G   UNL     1      86.656  33.377  64.449  1.00  0.00     0.000 G0
ENDBRANCH   6   7
ENDBRANCH   5   6
ENDBRANCH   3   5
ENDBRANCH   1   3
BRANCH   1  11
ATOM     11  C   UNL     1      86.150  29.873  65.813  1.00  0.00     0.087 C 
BRANCH  11  12
ATOM     12  C   UNL     1      85.472  31.068  65.078  1.00  0.00     0.066 C 
BRANCH  12  13
ATOM     13  C   UNL     1      86.024  32.431  65.470  1.00  0.00     0.140 C 
ATOM     14  O   UNL     1      86.032  32.727  66.656  1.00  0.00    -0.299 OA
BRANCH  13  15
ATOM     15  C   UNL     1      86.640  33.391  64.476  1.00  0.00     0.106 CG0
ATOM     16  G   UNL     1      88.125  33.572  64.754  1.00  0.00     0.000 G0
ENDBRANCH  13  15
ENDBRANCH  12  13
BRANCH  12  17
ATOM     17  C   UNL     1      83.916  31.029  65.217  1.00  0.00    -0.006 C 
ATOM     18  C   UNL     1      83.297  29.925  64.340  1.00  0.00     0.008 C 
ATOM     19  C   UNL     1      83.272  32.377  64.844  1.00  0.00     0.008 C 
ENDBRANCH  12  17
ENDBRANCH  11  12
ENDBRANCH   1  11
TORSDOF 1
ENDMDL
MODEL 3
REMARK VINA RESULT:    -2.526      1.902      4.414
REMARK INTER + INTRA:          -3.385
REMARK INTER:                  -3.471
REMARK INTRA:                   0.086
REMARK UNBOUND:                 0.471
REMARK SMILES CC1=CCC[C@@H](C)C(=O)C[C@@H](C(C)C)C(=O)C1
REMARK SMILES IDX 8 1 9 2 6 3 7 4 5 5 4 6 3 7 2 8 1 9 10 11 11 12 15 13 16 14
REMARK SMILES IDX 17 15 12 17 13 18 14 19
REMARK H PARENT
REMARK Flexibility Score: 70.00
ROOT
ATOM      1  C   UNL     1      85.305  30.526  64.791  1.00  0.00     0.136 C 
ATOM      2  O   UNL     1      84.445  29.661  64.863  1.00  0.00    -0.299 OA
ENDROOT
BRANCH   1   3
ATOM      3  C   UNL     1      84.930  31.965  65.106  1.00  0.00     0.053 C 
ATOM      4  C   UNL     1      83.424  32.041  65.382  1.00  0.00     0.016 C 
BRANCH   3   5
ATOM      5  C   UNL     1      85.333  32.959  63.983  1.00  0.00     0.015 C 
BRANCH   5   6
ATOM      6  C   UNL     1      86.756  33.544  64.079  1.00  0.00     0.028 C 
BRANCH   6   7
ATOM      7  C   UNL     1      87.269  33.867  65.463  1.00  0.00    -0.028 C 
ATOM      8  C   UNL     1      88.317  33.277  66.081  1.00  0.00    -0.070 CG0
ATOM      9  C   UNL     1      88.842  33.938  67.333  1.00  0.00     0.039 C 
ATOM     10  G   UNL     1      88.991  32.008  65.582  1.00  0.00     0.000 G0
ENDBRANCH   6   7
ENDBRANCH   5   6
ENDBRANCH   3   5
ENDBRANCH   1   3
BRANCH   1  11
ATOM     11  C   UNL     1      86.679  30.158  64.262  1.00  0.00     0.087 C 
BRANCH  11  12
ATOM     12  C   UNL     1      87.702  29.660  65.327  1.00  0.00     0.066 C 
BRANCH  12  13
ATOM     13  C   UNL     1      88.306  30.773  66.174  1.00  0.00     0.140 C 
ATOM     14  O   UNL     1      88.304  30.633  67.388  1.00  0.00    -0.299 OA
BRANCH  13  15
ATOM     15  C   UNL     1      88.980  31.991  65.580  1.00  0.00     0.106 CG0
ATOM     16  G   UNL     1      88.324  33.266  66.089  1.00  0.00     0.000 G0
ENDBRANCH  13  15
ENDBRANCH  12  13
BRANCH  12  17
ATOM     17  C   UNL     1      88.815  28.767  64.693  1.00  0.00    -0.006 C 
ATOM     18  C   UNL     1      89.124  29.191  63.245  1.00  0.00     0.008 C 
ATOM     19  C   UNL     1      88.431  27.277  64.701  1.00  0.00     0.008 C 
ENDBRANCH  12  17
ENDBRANCH  11  12
ENDBRANCH   1  11
TORSDOF 1
ENDMDL
MODEL 4
REMARK VINA RESULT:    -2.183      1.869      3.937
REMARK INTER + INTRA:          -2.861
REMARK INTER:                  -3.384
REMARK INTRA:                   0.523
REMARK UNBOUND:                 0.471
REMARK SMILES CC1=CCC[C@@H](C)C(=O)C[C@@H](C(C)C)C(=O)C1
REMARK SMILES IDX 8 1 9 2 6 3 7 4 5 5 4 6 3 7 2 8 1 9 10 11 11 12 15 13 16 14
REMARK SMILES IDX 17 15 12 17 13 18 14 19
REMARK H PARENT
REMARK Flexibility Score: 70.00
ROOT
ATOM      1  C   UNL     1      85.405  31.647  64.876  1.00  0.00     0.136 C 
ATOM      2  O   UNL     1      84.975  32.732  64.515  1.00  0.00    -0.299 OA
ENDROOT
BRANCH   1   3
ATOM      3  C   UNL     1      84.632  30.390  64.511  1.00  0.00     0.053 C 
ATOM      4  C   UNL     1      83.150  30.598  64.848  1.00  0.00     0.016 C 
BRANCH   3   5
ATOM      5  C   UNL     1      85.178  29.114  65.207  1.00  0.00     0.015 C 
BRANCH   5   6
ATOM      6  C   UNL     1      85.583  27.957  64.273  1.00  0.00     0.028 C 
BRANCH   6   7
ATOM      7  C   UNL     1      86.817  27.174  64.652  1.00  0.00    -0.028 C 
ATOM      8  C   UNL     1      88.081  27.653  64.702  1.00  0.00    -0.070 CG0
ATOM      9  C   UNL     1      89.121  26.792  65.378  1.00  0.00     0.039 C 
ATOM     10  G   UNL     1      88.499  29.000  64.130  1.00  0.00     0.000 G0
ENDBRANCH   6   7
ENDBRANCH   5   6
ENDBRANCH   3   5
ENDBRANCH   1   3
BRANCH   1  11
ATOM     11  C   UNL     1      86.616  31.600  65.789  1.00  0.00     0.087 C 
BRANCH  11  12
ATOM     12  C   UNL     1      87.993  31.443  65.076  1.00  0.00     0.066 C 
BRANCH  12  13
ATOM     13  C   UNL     1      88.610  30.058  65.217  1.00  0.00     0.140 C 
ATOM     14  O   UNL     1      89.124  29.766  66.287  1.00  0.00    -0.299 OA
BRANCH  13  15
ATOM     15  C   UNL     1      88.537  29.006  64.132  1.00  0.00     0.106 CG0
ATOM     16  G   UNL     1      88.070  27.676  64.705  1.00  0.00     0.000 G0
ENDBRANCH  13  15
ENDBRANCH  12  13
BRANCH  12  17
ATOM     17  C   UNL     1      89.002  32.556  65.506  1.00  0.00    -0.006 C 
ATOM     18  C   UNL     1      88.889  32.873  67.008  1.00  0.00     0.008 C 
ATOM     19  C   UNL     1      88.797  33.856  64.708  1.00  0.00     0.008 C 
ENDBRANCH  12  17
ENDBRANCH  11  12
ENDBRANCH   1  11
TORSDOF 1
ENDMDL
MODEL 5
REMARK VINA RESULT:    -1.807      1.703      4.202
REMARK INTER + INTRA:          -2.286
REMARK INTER:                  -3.160
REMARK INTRA:                   0.874
REMARK UNBOUND:                 0.471
REMARK SMILES CC1=CCC[C@@H](C)C(=O)C[C@@H](C(C)C)C(=O)C1
REMARK SMILES IDX 8 1 9 2 6 3 7 4 5 5 4 6 3 7 2 8 1 9 10 11 11 12 15 13 16 14
REMARK SMILES IDX 17 15 12 17 13 18 14 19
REMARK H PARENT
REMARK Flexibility Score: 70.00
ROOT
ATOM      1  C   UNL     1      85.747  28.395  64.596  1.00  0.00     0.136 C 
ATOM      2  O   UNL     1      84.683  27.827  64.399  1.00  0.00    -0.299 OA
ENDROOT
BRANCH   1   3
ATOM      3  C   UNL     1      87.039  27.695  64.206  1.00  0.00     0.053 C 
ATOM      4  C   UNL     1      86.747  26.211  63.951  1.00  0.00     0.016 C 
BRANCH   3   5
ATOM      5  C   UNL     1      88.164  27.859  65.263  1.00  0.00     0.015 C 
BRANCH   5   6
ATOM      6  C   UNL     1      89.070  29.096  65.096  1.00  0.00     0.028 C 
BRANCH   6   7
ATOM      7  C   UNL     1      88.878  30.221  66.085  1.00  0.00    -0.028 C 
ATOM      8  C   UNL     1      88.212  31.375  65.858  1.00  0.00    -0.070 CG0
ATOM      9  C   UNL     1      87.889  32.235  67.057  1.00  0.00     0.039 C 
ATOM     10  G   UNL     1      87.768  31.841  64.479  1.00  0.00     0.000 G0
ENDBRANCH   6   7
ENDBRANCH   5   6
ENDBRANCH   3   5
ENDBRANCH   1   3
BRANCH   1  11
ATOM     11  C   UNL     1      85.750  29.714  65.345  1.00  0.00     0.087 C 
BRANCH  11  12
ATOM     12  C   UNL     1      85.243  30.949  64.542  1.00  0.00     0.066 C 
BRANCH  12  13
ATOM     13  C   UNL     1      86.267  32.069  64.414  1.00  0.00     0.140 C 
ATOM     14  O   UNL     1      85.854  33.217  64.338  1.00  0.00    -0.299 OA
BRANCH  13  15
ATOM     15  C   UNL     1      87.761  31.833  64.466  1.00  0.00     0.106 CG0
ATOM     16  G   UNL     1      88.184  31.384  65.857  1.00  0.00     0.000 G0
ENDBRANCH  13  15
ENDBRANCH  12  13
BRANCH  12  17
ATOM     17  C   UNL     1      83.885  31.487  65.095  1.00  0.00    -0.006 C 
ATOM     18  C   UNL     1      83.978  31.822  66.595  1.00  0.00     0.008 C 
ATOM     19  C   UNL     1      82.739  30.482  64.882  1.00  0.00     0.008 C 
ENDBRANCH  12  17
ENDBRANCH  11  12
ENDBRANCH   1  11
TORSDOF 1
ENDMDL
MODEL 6
REMARK VINA RESULT:    -1.337      1.986      4.069
REMARK INTER + INTRA:          -1.570
REMARK INTER:                  -2.861
REMARK INTRA:                   1.291
REMARK UNBOUND:                 0.471
REMARK SMILES CC1=CCC[C@@H](C)C(=O)C[C@@H](C(C)C)C(=O)C1
REMARK SMILES IDX 8 1 9 2 6 3 7 4 5 5 4 6 3 7 2 8 1 9 10 11 11 12 15 13 16 14
REMARK SMILES IDX 17 15 12 17 13 18 14 19
REMARK H PARENT
REMARK Flexibility Score: 70.00
ROOT
ATOM      1  C   UNL     1      87.209  31.239  66.614  1.00  0.00     0.136 C 
ATOM      2  O   UNL     1      87.684  31.001  67.715  1.00  0.00    -0.299 OA
ENDROOT
BRANCH   1   3
ATOM      3  C   UNL     1      87.990  30.840  65.373  1.00  0.00     0.053 C 
ATOM      4  C   UNL     1      88.615  29.457  65.598  1.00  0.00     0.016 C 
BRANCH   3   5
ATOM      5  C   UNL     1      89.077  31.875  64.977  1.00  0.00     0.015 C 
BRANCH   5   6
ATOM      6  C   UNL     1      89.115  33.167  65.817  1.00  0.00     0.028 C 
BRANCH   6   7
ATOM      7  C   UNL     1      88.562  34.416  65.172  1.00  0.00    -0.028 C 
ATOM      8  C   UNL     1      87.512  34.477  64.323  1.00  0.00    -0.070 CG0
ATOM      9  C   UNL     1      86.943  35.843  64.021  1.00  0.00     0.039 C 
ATOM     10  G   UNL     1      86.874  33.256  63.676  1.00  0.00     0.000 G0
ENDBRANCH   6   7
ENDBRANCH   5   6
ENDBRANCH   3   5
ENDBRANCH   1   3
BRANCH   1  11
ATOM     11  C   UNL     1      85.926  32.044  66.524  1.00  0.00     0.087 C 
BRANCH  11  12
ATOM     12  C   UNL     1      85.137  31.910  65.186  1.00  0.00     0.066 C 
BRANCH  12  13
ATOM     13  C   UNL     1      85.481  32.976  64.155  1.00  0.00     0.140 C 
ATOM     14  O   UNL     1      84.583  33.709  63.768  1.00  0.00    -0.299 OA
BRANCH  13  15
ATOM     15  C   UNL     1      86.889  33.222  63.657  1.00  0.00     0.106 CG0
ATOM     16  G   UNL     1      87.485  34.453  64.323  1.00  0.00     0.000 G0
ENDBRANCH  13  15
ENDBRANCH  12  13
BRANCH  12  17
ATOM     17  C   UNL     1      83.596  31.832  65.425  1.00  0.00    -0.006 C 
ATOM     18  C   UNL     1      83.260  31.713  66.922  1.00  0.00     0.008 C 
ATOM     19  C   UNL     1      82.957  30.648  64.677  1.00  0.00     0.008 C 
ENDBRANCH  12  17
ENDBRANCH  11  12
ENDBRANCH   1  11
TORSDOF 1
ENDMDL
MODEL 7
REMARK VINA RESULT:    -1.321      1.743      2.499
REMARK INTER + INTRA:          -1.545
REMARK INTER:                  -2.364
REMARK INTRA:                   0.819
REMARK UNBOUND:                 0.471
REMARK SMILES CC1=CCC[C@@H](C)C(=O)C[C@@H](C(C)C)C(=O)C1
REMARK SMILES IDX 8 1 9 2 6 3 7 4 5 5 4 6 3 7 2 8 1 9 10 11 11 12 15 13 16 14
REMARK SMILES IDX 17 15 12 17 13 18 14 19
REMARK H PARENT
REMARK Flexibility Score: 70.00
ROOT
ATOM      1  C   UNL     1      86.574  32.945  66.435  1.00  0.00     0.136 C 
ATOM      2  O   UNL     1      86.638  33.865  65.633  1.00  0.00    -0.299 OA
ENDROOT
BRANCH   1   3
ATOM      3  C   UNL     1      87.627  32.844  67.526  1.00  0.00     0.053 C 
ATOM      4  C   UNL     1      88.857  33.662  67.112  1.00  0.00     0.016 C 
BRANCH   3   5
ATOM      5  C   UNL     1      88.027  31.380  67.854  1.00  0.00     0.015 C 
BRANCH   5   6
ATOM      6  C   UNL     1      89.125  30.765  66.963  1.00  0.00     0.028 C 
BRANCH   6   7
ATOM      7  C   UNL     1      88.722  29.598  66.093  1.00  0.00    -0.028 C 
ATOM      8  C   UNL     1      88.455  29.647  64.768  1.00  0.00    -0.070 CG0
ATOM      9  C   UNL     1      88.355  28.331  64.034  1.00  0.00     0.039 C 
ATOM     10  G   UNL     1      88.264  30.939  63.989  1.00  0.00     0.000 G0
ENDBRANCH   6   7
ENDBRANCH   5   6
ENDBRANCH   3   5
ENDBRANCH   1   3
BRANCH   1  11
ATOM     11  C   UNL     1      85.529  31.864  66.234  1.00  0.00     0.087 C 
BRANCH  11  12
ATOM     12  C   UNL     1      85.807  30.863  65.073  1.00  0.00     0.066 C 
BRANCH  12  13
ATOM     13  C   UNL     1      86.788  31.381  64.030  1.00  0.00     0.140 C 
ATOM     14  O   UNL     1      86.396  32.236  63.250  1.00  0.00    -0.299 OA
BRANCH  13  15
ATOM     15  C   UNL     1      88.238  30.952  63.973  1.00  0.00     0.106 CG0
ATOM     16  G   UNL     1      88.447  29.667  64.761  1.00  0.00     0.000 G0
ENDBRANCH  13  15
ENDBRANCH  12  13
BRANCH  12  17
ATOM     17  C   UNL     1      84.487  30.363  64.406  1.00  0.00    -0.006 C 
ATOM     18  C   UNL     1      83.244  30.935  65.112  1.00  0.00     0.008 C 
ATOM     19  C   UNL     1      84.391  28.826  64.401  1.00  0.00     0.008 C 
ENDBRANCH  12  17
ENDBRANCH  11  12
ENDBRANCH   1  11
TORSDOF 1
ENDMDL
MODEL 8
REMARK VINA RESULT:    -1.218      1.778      4.747
REMARK INTER + INTRA:          -1.388
REMARK INTER:                  -3.708
REMARK INTRA:                   2.320
REMARK UNBOUND:                 0.471
REMARK SMILES CC1=CCC[C@@H](C)C(=O)C[C@@H](C(C)C)C(=O)C1
REMARK SMILES IDX 8 1 9 2 6 3 7 4 5 5 4 6 3 7 2 8 1 9 10 11 11 12 15 13 16 14
REMARK SMILES IDX 17 15 12 17 13 18 14 19
REMARK H PARENT
REMARK Flexibility Score: 70.00
ROOT
ATOM      1  C   UNL     1      88.879  30.699  63.465  1.00  0.00     0.136 C 
ATOM      2  O   UNL     1      88.752  30.316  62.311  1.00  0.00    -0.299 OA
ENDROOT
BRANCH   1   3
ATOM      3  C   UNL     1      88.652  29.711  64.598  1.00  0.00     0.053 C 
ATOM      4  C   UNL     1      89.112  28.319  64.149  1.00  0.00     0.016 C 
BRANCH   3   5
ATOM      5  C   UNL     1      87.178  29.671  65.085  1.00  0.00     0.015 C 
BRANCH   5   6
ATOM      6  C   UNL     1      86.838  30.583  66.281  1.00  0.00     0.028 C 
BRANCH   6   7
ATOM      7  C   UNL     1      85.493  31.271  66.253  1.00  0.00    -0.028 C 
ATOM      8  C   UNL     1      84.984  31.984  65.223  1.00  0.00    -0.070 CG0
ATOM      9  C   UNL     1      83.518  32.341  65.288  1.00  0.00     0.039 C 
ATOM     10  G   UNL     1      85.797  32.428  64.016  1.00  0.00     0.000 G0
ENDBRANCH   6   7
ENDBRANCH   5   6
ENDBRANCH   3   5
ENDBRANCH   1   3
BRANCH   1  11
ATOM     11  C   UNL     1      89.125  32.173  63.729  1.00  0.00     0.087 C 
BRANCH  11  12
ATOM     12  C   UNL     1      88.279  32.803  64.876  1.00  0.00     0.066 C 
BRANCH  12  13
ATOM     13  C   UNL     1      86.927  33.339  64.426  1.00  0.00     0.140 C 
ATOM     14  O   UNL     1      86.794  34.550  64.328  1.00  0.00    -0.299 OA
BRANCH  13  15
ATOM     15  C   UNL     1      85.778  32.443  64.014  1.00  0.00     0.106 CG0
ATOM     16  G   UNL     1      84.984  31.997  65.233  1.00  0.00     0.000 G0
ENDBRANCH  13  15
ENDBRANCH  12  13
BRANCH  12  17
ATOM     17  C   UNL     1      89.081  33.888  65.663  1.00  0.00    -0.006 C 
ATOM     18  C   UNL     1      88.744  33.864  67.165  1.00  0.00     0.008 C 
ATOM     19  C   UNL     1      88.819  35.304  65.119  1.00  0.00     0.008 C 
ENDBRANCH  12  17
ENDBRANCH  11  12
ENDBRANCH   1  11
TORSDOF 1
ENDMDL
MODEL 9
REMARK VINA RESULT:    -0.738      2.156      5.112
REMARK INTER + INTRA:          -0.655
REMARK INTER:                  -0.854
REMARK INTRA:                   0.199
REMARK UNBOUND:                 0.471
REMARK SMILES CC1=CCC[C@@H](C)C(=O)C[C@@H](C(C)C)C(=O)C1
REMARK SMILES IDX 8 1 9 2 6 3 7 4 5 5 4 6 3 7 2 8 1 9 10 11 11 12 15 13 16 14
REMARK SMILES IDX 17 15 12 17 13 18 14 19
REMARK H PARENT
REMARK Flexibility Score: 70.00
ROOT
ATOM      1  C   UNL     1      87.391  29.634  65.288  1.00  0.00     0.136 C 
ATOM      2  O   UNL     1      88.338  29.429  66.033  1.00  0.00    -0.299 OA
ENDROOT
BRANCH   1   3
ATOM      3  C   UNL     1      86.355  28.538  65.095  1.00  0.00     0.053 C 
ATOM      4  C   UNL     1      87.069  27.241  64.693  1.00  0.00     0.016 C 
BRANCH   3   5
ATOM      5  C   UNL     1      85.263  28.907  64.056  1.00  0.00     0.015 C 
BRANCH   5   6
ATOM      6  C   UNL     1      83.874  29.249  64.631  1.00  0.00     0.028 C 
BRANCH   6   7
ATOM      7  C   UNL     1      83.835  30.221  65.786  1.00  0.00    -0.028 C 
ATOM      8  C   UNL     1      83.831  31.570  65.693  1.00  0.00    -0.070 CG0
ATOM      9  C   UNL     1      83.499  32.349  66.944  1.00  0.00     0.039 C 
ATOM     10  G   UNL     1      84.127  32.331  64.410  1.00  0.00     0.000 G0
ENDBRANCH   6   7
ENDBRANCH   5   6
ENDBRANCH   3   5
ENDBRANCH   1   3
BRANCH   1  11
ATOM     11  C   UNL     1      87.352  30.917  64.479  1.00  0.00     0.087 C 
BRANCH  11  12
ATOM     12  C   UNL     1      86.684  32.138  65.181  1.00  0.00     0.066 C 
BRANCH  12  13
ATOM     13  C   UNL     1      85.579  32.793  64.363  1.00  0.00     0.140 C 
ATOM     14  O   UNL     1      85.894  33.675  63.578  1.00  0.00    -0.299 OA
BRANCH  13  15
ATOM     15  C   UNL     1      84.134  32.345  64.417  1.00  0.00     0.106 CG0
ATOM     16  G   UNL     1      83.860  31.574  65.699  1.00  0.00     0.000 G0
ENDBRANCH  13  15
ENDBRANCH  12  13
BRANCH  12  17
ATOM     17  C   UNL     1      87.739  33.190  65.649  1.00  0.00    -0.006 C 
ATOM     18  C   UNL     1      88.988  33.179  64.749  1.00  0.00     0.008 C 
ATOM     19  C   UNL     1      88.176  32.957  67.106  1.00  0.00     0.008 C 
ENDBRANCH  12  17
ENDBRANCH  11  12
ENDBRANCH   1  11
TORSDOF 1
ENDMDL
