MODEL 1
REMARK VINA RESULT:    15.732      0.000      0.000
REMARK INTER + INTRA:          23.777
REMARK INTER:                  22.171
REMARK INTRA:                   1.607
REMARK UNBOUND:                 1.607
REMARK SMILES CC1=CCC(=C(C)C)C(=O)CC(C)=CCC1
REMARK SMILES IDX 12 1 14 2 13 3 15 4 16 5 2 6 1 7 3 8 11 10 9 11 10 12 5 13
REMARK SMILES IDX 6 14 7 15 8 16 4 17
REMARK H PARENT
REMARK Flexibility Score: 60.00
ROOT
ATOM      1  C   UNL     1     -28.613  33.925 -13.077  1.00  0.00    -0.070 C 
ATOM      2  C   UNL     1     -27.420  33.633 -13.641  1.00  0.00    -0.027 C 
ATOM      3  C   UNL     1     -29.853  33.750 -13.917  1.00  0.00     0.039 C 
ENDROOT
BRANCH   2   4
ATOM      4  C   UNL     1     -26.082  33.653 -12.936  1.00  0.00     0.032 C 
BRANCH   4   5
ATOM      5  C   UNL     1     -24.996  34.502 -13.631  1.00  0.00     0.034 C 
BRANCH   5   6
ATOM      6  C   UNL     1     -24.328  35.497 -12.699  1.00  0.00    -0.077 C 
ATOM      7  C   UNL     1     -23.330  36.457 -13.296  1.00  0.00     0.039 C 
ATOM      8  C   UNL     1     -24.620  35.625 -11.382  1.00  0.00    -0.023 CG0
ATOM      9  G   UNL     1     -25.569  34.765 -10.568  1.00  0.00     0.000 G0
ENDBRANCH   5   6
ENDBRANCH   4   5
ENDBRANCH   2   4
BRANCH   1  10
ATOM     10  C   UNL     1     -28.769  34.331 -11.625  1.00  0.00     0.111 C 
BRANCH  10  11
ATOM     11  C   UNL     1     -27.906  35.517 -11.283  1.00  0.00     0.163 C 
ATOM     12  O   UNL     1     -28.126  36.603 -11.883  1.00  0.00    -0.294 OA
BRANCH  11  13
ATOM     13  C   UNL     1     -26.853  35.464 -10.225  1.00  0.00    -0.002 C 
ATOM     14  C   UNL     1     -27.093  35.966  -8.976  1.00  0.00    -0.069 C 
ATOM     15  C   UNL     1     -28.363  36.726  -8.666  1.00  0.00     0.039 C 
ATOM     16  C   UNL     1     -26.110  35.786  -7.840  1.00  0.00     0.039 C 
BRANCH  13  17
ATOM     17  C   UNL     1     -25.556  34.751 -10.571  1.00  0.00     0.066 CG0
ATOM     18  G   UNL     1     -24.619  35.621 -11.385  1.00  0.00     0.000 G0
ENDBRANCH  13  17
ENDBRANCH  11  13
ENDBRANCH  10  11
ENDBRANCH   1  10
TORSDOF 0
ENDMDL
MODEL 2
REMARK VINA RESULT:    15.987      1.650      3.783
REMARK INTER + INTRA:          24.135
REMARK INTER:                  23.121
REMARK INTRA:                   1.014
REMARK UNBOUND:                 1.607
REMARK SMILES CC1=CCC(=C(C)C)C(=O)CC(C)=CCC1
REMARK SMILES IDX 12 1 14 2 13 3 15 4 16 5 2 6 1 7 3 8 11 10 9 11 10 12 5 13
REMARK SMILES IDX 6 14 7 15 8 16 4 17
REMARK H PARENT
REMARK Flexibility Score: 60.00
ROOT
ATOM      1  C   UNL     1     -25.225  34.521 -12.877  1.00  0.00    -0.070 C 
ATOM      2  C   UNL     1     -25.806  34.298 -14.077  1.00  0.00    -0.027 C 
ATOM      3  C   UNL     1     -24.118  35.542 -12.807  1.00  0.00     0.039 C 
ENDROOT
BRANCH   2   4
ATOM      4  C   UNL     1     -26.989  33.389 -14.330  1.00  0.00     0.032 C 
BRANCH   4   5
ATOM      5  C   UNL     1     -28.358  34.101 -14.356  1.00  0.00     0.034 C 
BRANCH   5   6
ATOM      6  C   UNL     1     -29.163  33.893 -13.085  1.00  0.00    -0.077 C 
ATOM      7  C   UNL     1     -30.173  32.773 -13.068  1.00  0.00     0.039 C 
ATOM      8  C   UNL     1     -28.984  34.602 -11.943  1.00  0.00    -0.023 CG0
ATOM      9  G   UNL     1     -28.047  35.776 -11.733  1.00  0.00     0.000 G0
ENDBRANCH   5   6
ENDBRANCH   4   5
ENDBRANCH   2   4
BRANCH   1  10
ATOM     10  C   UNL     1     -25.691  33.864 -11.592  1.00  0.00     0.111 C 
BRANCH  10  11
ATOM     11  C   UNL     1     -25.961  34.881 -10.514  1.00  0.00     0.163 C 
ATOM     12  O   UNL     1     -25.040  35.130  -9.690  1.00  0.00    -0.294 OA
BRANCH  11  13
ATOM     13  C   UNL     1     -27.244  35.640 -10.431  1.00  0.00    -0.002 C 
ATOM     14  C   UNL     1     -27.621  36.248  -9.265  1.00  0.00    -0.069 C 
ATOM     15  C   UNL     1     -26.839  36.047  -7.987  1.00  0.00     0.039 C 
ATOM     16  C   UNL     1     -28.831  37.153  -9.191  1.00  0.00     0.039 C 
BRANCH  13  17
ATOM     17  C   UNL     1     -28.053  35.781 -11.710  1.00  0.00     0.066 CG0
ATOM     18  G   UNL     1     -28.976  34.600 -11.941  1.00  0.00     0.000 G0
ENDBRANCH  13  17
ENDBRANCH  11  13
ENDBRANCH  10  11
ENDBRANCH   1  10
TORSDOF 0
ENDMDL
MODEL 3
REMARK VINA RESULT:    16.285      1.490      4.437
REMARK INTER + INTRA:          24.556
REMARK INTER:                  22.731
REMARK INTRA:                   1.826
REMARK UNBOUND:                 1.607
REMARK SMILES CC1=CCC(=C(C)C)C(=O)CC(C)=CCC1
REMARK SMILES IDX 12 1 14 2 13 3 15 4 16 5 2 6 1 7 3 8 11 10 9 11 10 12 5 13
REMARK SMILES IDX 6 14 7 15 8 16 4 17
REMARK H PARENT
REMARK Flexibility Score: 60.00
ROOT
ATOM      1  C   UNL     1     -28.051  36.913 -10.837  1.00  0.00    -0.070 C 
ATOM      2  C   UNL     1     -27.530  37.404  -9.690  1.00  0.00    -0.027 C 
ATOM      3  C   UNL     1     -27.717  37.622 -12.125  1.00  0.00     0.039 C 
ENDROOT
BRANCH   2   4
ATOM      4  C   UNL     1     -27.670  36.780  -8.319  1.00  0.00     0.032 C 
BRANCH   4   5
ATOM      5  C   UNL     1     -26.420  36.022  -7.822  1.00  0.00     0.034 C 
BRANCH   5   6
ATOM      6  C   UNL     1     -26.432  34.548  -8.183  1.00  0.00    -0.077 C 
ATOM      7  C   UNL     1     -26.770  33.562  -7.092  1.00  0.00     0.039 C 
ATOM      8  C   UNL     1     -26.230  34.065  -9.433  1.00  0.00    -0.023 CG0
ATOM      9  G   UNL     1     -25.862  34.860 -10.671  1.00  0.00     0.000 G0
ENDBRANCH   5   6
ENDBRANCH   4   5
ENDBRANCH   2   4
BRANCH   1  10
ATOM     10  C   UNL     1     -28.874  35.641 -10.899  1.00  0.00     0.111 C 
BRANCH  10  11
ATOM     11  C   UNL     1     -28.205  34.587 -11.743  1.00  0.00     0.163 C 
ATOM     12  O   UNL     1     -28.938  33.790 -12.387  1.00  0.00    -0.294 OA
BRANCH  11  13
ATOM     13  C   UNL     1     -26.721  34.500 -11.888  1.00  0.00    -0.002 C 
ATOM     14  C   UNL     1     -26.155  34.190 -13.094  1.00  0.00    -0.069 C 
ATOM     15  C   UNL     1     -27.003  33.774 -14.275  1.00  0.00     0.039 C 
ATOM     16  C   UNL     1     -24.659  34.248 -13.313  1.00  0.00     0.039 C 
BRANCH  13  17
ATOM     17  C   UNL     1     -25.881  34.860 -10.674  1.00  0.00     0.066 CG0
ATOM     18  G   UNL     1     -26.251  34.038  -9.454  1.00  0.00     0.000 G0
ENDBRANCH  13  17
ENDBRANCH  11  13
ENDBRANCH  10  11
ENDBRANCH   1  10
TORSDOF 0
ENDMDL
