MODEL 1
REMARK VINA RESULT:    -3.479      0.000      0.000
REMARK INTER + INTRA:          -3.784
REMARK INTER:                  -3.784
REMARK INTRA:                   0.000
REMARK UNBOUND:                 0.000
REMARK SMILES Cc1cc(O)c2c(c1)C(=O)c1cc(O)cc(O)c1C2=O
REMARK SMILES IDX 1 1 2 2 8 3 7 4 6 5 4 6 3 7 19 8 20 9 18 10 11 11 9 12 10 13
REMARK SMILES IDX 12 14 13 15 15 16 16 17 5 18 17 20 14 22
REMARK H PARENT 5 19 17 21 14 23
REMARK Flexibility Score: inf
ROOT
ATOM      1  C   UNL     1     116.972  89.115  57.245  1.00  0.00     0.044 C 
ATOM      2  C   UNL     1     118.320  88.681  56.748  1.00  0.00    -0.047 A 
ATOM      3  C   UNL     1     119.115  87.831  57.524  1.00  0.00     0.016 A 
ATOM      4  C   UNL     1     120.368  87.398  57.059  1.00  0.00     0.038 A 
ATOM      5  C   UNL     1     120.837  87.824  55.795  1.00  0.00     0.076 A 
ATOM      6  C   UNL     1     119.981  88.606  54.973  1.00  0.00     0.127 A 
ATOM      7  C   UNL     1     118.749  89.045  55.469  1.00  0.00     0.050 A 
ATOM      8  C   UNL     1     122.231  87.477  55.402  1.00  0.00     0.201 C 
ATOM      9  O   UNL     1     122.826  88.151  54.519  1.00  0.00    -0.288 OA
ATOM     10  C   UNL     1     122.968  86.410  56.128  1.00  0.00     0.076 A 
ATOM     11  C   UNL     1     122.461  85.941  57.359  1.00  0.00     0.041 A 
ATOM     12  C   UNL     1     121.192  86.487  57.890  1.00  0.00     0.194 C 
ATOM     13  O   UNL     1     120.801  86.160  59.045  1.00  0.00    -0.289 OA
ATOM     14  C   UNL     1     123.166  84.958  58.075  1.00  0.00     0.059 A 
ATOM     15  C   UNL     1     124.364  84.437  57.576  1.00  0.00     0.120 A 
ATOM     16  C   UNL     1     124.863  84.894  56.357  1.00  0.00     0.093 A 
ATOM     17  C   UNL     1     124.177  85.873  55.627  1.00  0.00     0.131 A 
ENDROOT
BRANCH   6  18
ATOM     18  O   UNL     1     120.289  88.936  53.651  1.00  0.00    -0.507 OA
ATOM     19  H   UNL     1     121.214  89.194  53.339  1.00  0.00     0.293 HD
ENDBRANCH   6  18
BRANCH  17  20
ATOM     20  O   UNL     1     124.693  86.301  54.404  1.00  0.00    -0.507 OA
ATOM     21  H   UNL     1     125.563  85.934  54.034  1.00  0.00     0.293 HD
ENDBRANCH  17  20
BRANCH  15  22
ATOM     22  O   UNL     1     125.064  83.462  58.284  1.00  0.00    -0.508 OA
ATOM     23  H   UNL     1     126.025  83.604  58.573  1.00  0.00     0.293 HD
ENDBRANCH  15  22
TORSDOF 3
ENDMDL
MODEL 2
REMARK VINA RESULT:    -3.211      2.129      5.616
REMARK INTER + INTRA:          -3.493
REMARK INTER:                  -3.493
REMARK INTRA:                   0.000
REMARK UNBOUND:                 0.000
REMARK SMILES Cc1cc(O)c2c(c1)C(=O)c1cc(O)cc(O)c1C2=O
REMARK SMILES IDX 1 1 2 2 8 3 7 4 6 5 4 6 3 7 19 8 20 9 18 10 11 11 9 12 10 13
REMARK SMILES IDX 12 14 13 15 15 16 16 17 5 18 17 20 14 22
REMARK H PARENT 5 19 17 21 14 23
REMARK Flexibility Score: inf
ROOT
ATOM      1  C   UNL     1     124.862  86.520  50.913  1.00  0.00     0.044 C 
ATOM      2  C   UNL     1     124.526  86.168  52.332  1.00  0.00    -0.047 A 
ATOM      3  C   UNL     1     123.644  86.969  53.066  1.00  0.00     0.016 A 
ATOM      4  C   UNL     1     123.303  86.636  54.387  1.00  0.00     0.038 A 
ATOM      5  C   UNL     1     123.854  85.480  54.988  1.00  0.00     0.076 A 
ATOM      6  C   UNL     1     124.669  84.621  54.204  1.00  0.00     0.127 A 
ATOM      7  C   UNL     1     125.015  84.988  52.899  1.00  0.00     0.050 A 
ATOM      8  C   UNL     1     123.598  85.243  56.437  1.00  0.00     0.201 C 
ATOM      9  O   UNL     1     124.369  84.502  57.102  1.00  0.00    -0.288 OA
ATOM     10  C   UNL     1     122.502  85.970  57.130  1.00  0.00     0.076 A 
ATOM     11  C   UNL     1     121.909  87.084  56.497  1.00  0.00     0.041 A 
ATOM     12  C   UNL     1     122.356  87.489  55.146  1.00  0.00     0.194 C 
ATOM     13  O   UNL     1     121.917  88.554  54.631  1.00  0.00    -0.289 OA
ATOM     14  C   UNL     1     120.897  87.803  57.156  1.00  0.00     0.059 A 
ATOM     15  C   UNL     1     120.469  87.422  58.431  1.00  0.00     0.120 A 
ATOM     16  C   UNL     1     121.048  86.318  59.055  1.00  0.00     0.093 A 
ATOM     17  C   UNL     1     122.058  85.587  58.417  1.00  0.00     0.131 A 
ENDROOT
BRANCH   6  18
ATOM     18  O   UNL     1     125.125  83.380  54.658  1.00  0.00    -0.507 OA
ATOM     19  H   UNL     1     126.081  83.067  54.570  1.00  0.00     0.293 HD
ENDBRANCH   6  18
BRANCH  17  20
ATOM     20  O   UNL     1     122.611  84.479  59.059  1.00  0.00    -0.507 OA
ATOM     21  H   UNL     1     122.139  84.020  59.831  1.00  0.00     0.293 HD
ENDBRANCH  17  20
BRANCH  15  22
ATOM     22  O   UNL     1     119.465  88.133  59.086  1.00  0.00    -0.508 OA
ATOM     23  H   UNL     1     119.156  87.880  60.017  1.00  0.00     0.293 HD
ENDBRANCH  15  22
TORSDOF 3
ENDMDL
MODEL 3
REMARK VINA RESULT:    -3.194      2.639      6.202
REMARK INTER + INTRA:          -3.474
REMARK INTER:                  -3.474
REMARK INTRA:                   0.000
REMARK UNBOUND:                 0.000
REMARK SMILES Cc1cc(O)c2c(c1)C(=O)c1cc(O)cc(O)c1C2=O
REMARK SMILES IDX 1 1 2 2 8 3 7 4 6 5 4 6 3 7 19 8 20 9 18 10 11 11 9 12 10 13
REMARK SMILES IDX 12 14 13 15 15 16 16 17 5 18 17 20 14 22
REMARK H PARENT 5 19 17 21 14 23
REMARK Flexibility Score: inf
ROOT
ATOM      1  C   UNL     1     122.698  79.471  58.945  1.00  0.00     0.044 C 
ATOM      2  C   UNL     1     122.683  80.932  58.607  1.00  0.00    -0.047 A 
ATOM      3  C   UNL     1     121.494  81.664  58.704  1.00  0.00     0.016 A 
ATOM      4  C   UNL     1     121.473  83.039  58.414  1.00  0.00     0.038 A 
ATOM      5  C   UNL     1     122.662  83.695  58.019  1.00  0.00     0.076 A 
ATOM      6  C   UNL     1     123.881  82.965  58.020  1.00  0.00     0.127 A 
ATOM      7  C   UNL     1     123.872  81.593  58.287  1.00  0.00     0.050 A 
ATOM      8  C   UNL     1     122.573  85.112  57.567  1.00  0.00     0.201 C 
ATOM      9  O   UNL     1     123.475  85.600  56.836  1.00  0.00    -0.288 OA
ATOM     10  C   UNL     1     121.366  85.921  57.879  1.00  0.00     0.076 A 
ATOM     11  C   UNL     1     120.201  85.268  58.337  1.00  0.00     0.041 A 
ATOM     12  C   UNL     1     120.206  83.801  58.534  1.00  0.00     0.194 C 
ATOM     13  O   UNL     1     119.134  83.202  58.823  1.00  0.00    -0.289 OA
ATOM     14  C   UNL     1     119.040  86.016  58.601  1.00  0.00     0.059 A 
ATOM     15  C   UNL     1     119.031  87.402  58.419  1.00  0.00     0.120 A 
ATOM     16  C   UNL     1     120.183  88.050  57.974  1.00  0.00     0.093 A 
ATOM     17  C   UNL     1     121.350  87.325  57.704  1.00  0.00     0.131 A 
ENDROOT
BRANCH   6  18
ATOM     18  O   UNL     1     125.125  83.564  57.802  1.00  0.00    -0.507 OA
ATOM     19  H   UNL     1     125.336  84.521  58.043  1.00  0.00     0.293 HD
ENDBRANCH   6  18
BRANCH  17  20
ATOM     20  O   UNL     1     122.492  88.000  57.273  1.00  0.00    -0.507 OA
ATOM     21  H   UNL     1     123.414  87.584  57.338  1.00  0.00     0.293 HD
ENDBRANCH  17  20
BRANCH  15  22
ATOM     22  O   UNL     1     117.882  88.146  58.681  1.00  0.00    -0.508 OA
ATOM     23  H   UNL     1     117.169  88.286  57.976  1.00  0.00     0.293 HD
ENDBRANCH  15  22
TORSDOF 3
ENDMDL
MODEL 4
REMARK VINA RESULT:    -3.086      7.975     11.681
REMARK INTER + INTRA:          -3.357
REMARK INTER:                  -3.357
REMARK INTRA:                   0.000
REMARK UNBOUND:                 0.000
REMARK SMILES Cc1cc(O)c2c(c1)C(=O)c1cc(O)cc(O)c1C2=O
REMARK SMILES IDX 1 1 2 2 8 3 7 4 6 5 4 6 3 7 19 8 20 9 18 10 11 11 9 12 10 13
REMARK SMILES IDX 12 14 13 15 15 16 16 17 5 18 17 20 14 22
REMARK H PARENT 5 19 17 21 14 23
REMARK Flexibility Score: inf
ROOT
ATOM      1  C   UNL     1     116.054  83.146  58.807  1.00  0.00     0.044 C 
ATOM      2  C   UNL     1     114.995  84.175  58.539  1.00  0.00    -0.047 A 
ATOM      3  C   UNL     1     113.646  83.806  58.515  1.00  0.00     0.016 A 
ATOM      4  C   UNL     1     112.644  84.765  58.290  1.00  0.00     0.038 A 
ATOM      5  C   UNL     1     112.997  86.119  58.083  1.00  0.00     0.076 A 
ATOM      6  C   UNL     1     114.361  86.499  58.207  1.00  0.00     0.127 A 
ATOM      7  C   UNL     1     115.341  85.523  58.406  1.00  0.00     0.050 A 
ATOM      8  C   UNL     1     111.928  87.079  57.690  1.00  0.00     0.201 C 
ATOM      9  O   UNL     1     112.227  88.154  57.104  1.00  0.00    -0.288 OA
ATOM     10  C   UNL     1     110.498  86.723  57.880  1.00  0.00     0.076 A 
ATOM     11  C   UNL     1     110.155  85.381  58.153  1.00  0.00     0.041 A 
ATOM     12  C   UNL     1     111.218  84.359  58.280  1.00  0.00     0.194 C 
ATOM     13  O   UNL     1     110.909  83.141  58.400  1.00  0.00    -0.289 OA
ATOM     14  C   UNL     1     108.804  85.022  58.300  1.00  0.00     0.059 A 
ATOM     15  C   UNL     1     107.796  85.984  58.183  1.00  0.00     0.120 A 
ATOM     16  C   UNL     1     108.133  87.312  57.922  1.00  0.00     0.093 A 
ATOM     17  C   UNL     1     109.473  87.692  57.771  1.00  0.00     0.131 A 
ENDROOT
BRANCH   6  18
ATOM     18  O   UNL     1     114.785  87.831  58.180  1.00  0.00    -0.507 OA
ATOM     19  H   UNL     1     114.194  88.602  57.903  1.00  0.00     0.293 HD
ENDBRANCH   6  18
BRANCH  17  20
ATOM     20  O   UNL     1     109.781  89.029  57.523  1.00  0.00    -0.507 OA
ATOM     21  H   UNL     1     109.060  89.715  57.329  1.00  0.00     0.293 HD
ENDBRANCH  17  20
BRANCH  15  22
ATOM     22  O   UNL     1     106.456  85.631  58.329  1.00  0.00    -0.508 OA
ATOM     23  H   UNL     1     105.774  86.281  58.702  1.00  0.00     0.293 HD
ENDBRANCH  15  22
TORSDOF 3
ENDMDL
MODEL 5
REMARK VINA RESULT:    -3.068     11.366     14.293
REMARK INTER + INTRA:          -3.337
REMARK INTER:                  -3.337
REMARK INTRA:                   0.000
REMARK UNBOUND:                 0.000
REMARK SMILES Cc1cc(O)c2c(c1)C(=O)c1cc(O)cc(O)c1C2=O
REMARK SMILES IDX 1 1 2 2 8 3 7 4 6 5 4 6 3 7 19 8 20 9 18 10 11 11 9 12 10 13
REMARK SMILES IDX 12 14 13 15 15 16 16 17 5 18 17 20 14 22
REMARK H PARENT 5 19 17 21 14 23
REMARK Flexibility Score: inf
ROOT
ATOM      1  C   UNL     1     104.880  81.978  55.009  1.00  0.00     0.044 C 
ATOM      2  C   UNL     1     105.705  83.078  55.608  1.00  0.00    -0.047 A 
ATOM      3  C   UNL     1     106.704  83.699  54.852  1.00  0.00     0.016 A 
ATOM      4  C   UNL     1     107.467  84.747  55.394  1.00  0.00     0.038 A 
ATOM      5  C   UNL     1     107.227  85.183  56.718  1.00  0.00     0.076 A 
ATOM      6  C   UNL     1     106.145  84.613  57.442  1.00  0.00     0.127 A 
ATOM      7  C   UNL     1     105.418  83.554  56.890  1.00  0.00     0.050 A 
ATOM      8  C   UNL     1     108.155  86.184  57.315  1.00  0.00     0.201 C 
ATOM      9  O   UNL     1     108.248  86.292  58.566  1.00  0.00    -0.288 OA
ATOM     10  C   UNL     1     109.059  86.978  56.442  1.00  0.00     0.076 A 
ATOM     11  C   UNL     1     109.244  86.578  55.101  1.00  0.00     0.041 A 
ATOM     12  C   UNL     1     108.515  85.403  54.574  1.00  0.00     0.194 C 
ATOM     13  O   UNL     1     108.772  84.970  53.416  1.00  0.00    -0.289 OA
ATOM     14  C   UNL     1     110.124  87.297  54.273  1.00  0.00     0.059 A 
ATOM     15  C   UNL     1     110.813  88.409  54.766  1.00  0.00     0.120 A 
ATOM     16  C   UNL     1     110.625  88.811  56.088  1.00  0.00     0.093 A 
ATOM     17  C   UNL     1     109.754  88.108  56.931  1.00  0.00     0.131 A 
ENDROOT
BRANCH   6  18
ATOM     18  O   UNL     1     105.730  85.089  58.689  1.00  0.00    -0.507 OA
ATOM     19  H   UNL     1     105.046  84.623  59.267  1.00  0.00     0.293 HD
ENDBRANCH   6  18
BRANCH  17  20
ATOM     20  O   UNL     1     109.576  88.540  58.244  1.00  0.00    -0.507 OA
ATOM     21  H   UNL     1     108.727  88.339  58.761  1.00  0.00     0.293 HD
ENDBRANCH  17  20
BRANCH  15  22
ATOM     22  O   UNL     1     111.685  89.125  53.948  1.00  0.00    -0.508 OA
ATOM     23  H   UNL     1     111.407  89.443  53.027  1.00  0.00     0.293 HD
ENDBRANCH  15  22
TORSDOF 3
ENDMDL
MODEL 6
REMARK VINA RESULT:    -3.060      2.233      6.560
REMARK INTER + INTRA:          -3.329
REMARK INTER:                  -3.329
REMARK INTRA:                   0.000
REMARK UNBOUND:                 0.000
REMARK SMILES Cc1cc(O)c2c(c1)C(=O)c1cc(O)cc(O)c1C2=O
REMARK SMILES IDX 1 1 2 2 8 3 7 4 6 5 4 6 3 7 19 8 20 9 18 10 11 11 9 12 10 13
REMARK SMILES IDX 12 14 13 15 15 16 16 17 5 18 17 20 14 22
REMARK H PARENT 5 19 17 21 14 23
REMARK Flexibility Score: inf
ROOT
ATOM      1  C   UNL     1     124.069  87.428  53.026  1.00  0.00     0.044 C 
ATOM      2  C   UNL     1     123.009  87.585  54.076  1.00  0.00    -0.047 A 
ATOM      3  C   UNL     1     121.722  88.002  53.719  1.00  0.00     0.016 A 
ATOM      4  C   UNL     1     120.715  88.129  54.691  1.00  0.00     0.038 A 
ATOM      5  C   UNL     1     120.999  87.834  56.044  1.00  0.00     0.076 A 
ATOM      6  C   UNL     1     122.279  87.316  56.380  1.00  0.00     0.127 A 
ATOM      7  C   UNL     1     123.272  87.224  55.400  1.00  0.00     0.050 A 
ATOM      8  C   UNL     1     119.958  88.130  57.068  1.00  0.00     0.201 C 
ATOM      9  O   UNL     1     120.284  88.282  58.275  1.00  0.00    -0.288 OA
ATOM     10  C   UNL     1     118.549  88.361  56.656  1.00  0.00     0.076 A 
ATOM     11  C   UNL     1     118.261  88.590  55.292  1.00  0.00     0.041 A 
ATOM     12  C   UNL     1     119.353  88.561  54.293  1.00  0.00     0.194 C 
ATOM     13  O   UNL     1     119.119  88.886  53.096  1.00  0.00    -0.289 OA
ATOM     14  C   UNL     1     116.938  88.846  54.892  1.00  0.00     0.059 A 
ATOM     15  C   UNL     1     115.904  88.872  55.832  1.00  0.00     0.120 A 
ATOM     16  C   UNL     1     116.184  88.639  57.177  1.00  0.00     0.093 A 
ATOM     17  C   UNL     1     117.495  88.382  57.599  1.00  0.00     0.131 A 
ENDROOT
BRANCH   6  18
ATOM     18  O   UNL     1     122.598  86.846  57.657  1.00  0.00    -0.507 OA
ATOM     19  H   UNL     1     121.932  86.782  58.413  1.00  0.00     0.293 HD
ENDBRANCH   6  18
BRANCH  17  20
ATOM     20  O   UNL     1     117.745  88.139  58.949  1.00  0.00    -0.507 OA
ATOM     21  H   UNL     1     118.223  87.301  59.261  1.00  0.00     0.293 HD
ENDBRANCH  17  20
BRANCH  15  22
ATOM     22  O   UNL     1     114.591  89.125  55.437  1.00  0.00    -0.508 OA
ATOM     23  H   UNL     1     113.889  88.395  55.431  1.00  0.00     0.293 HD
ENDBRANCH  15  22
TORSDOF 3
ENDMDL
MODEL 7
REMARK VINA RESULT:    -2.999      1.719      3.874
REMARK INTER + INTRA:          -3.262
REMARK INTER:                  -3.262
REMARK INTRA:                   0.000
REMARK UNBOUND:                 0.000
REMARK SMILES Cc1cc(O)c2c(c1)C(=O)c1cc(O)cc(O)c1C2=O
REMARK SMILES IDX 1 1 2 2 8 3 7 4 6 5 4 6 3 7 19 8 20 9 18 10 11 11 9 12 10 13
REMARK SMILES IDX 12 14 13 15 15 16 16 17 5 18 17 20 14 22
REMARK H PARENT 5 19 17 21 14 23
REMARK Flexibility Score: inf
ROOT
ATOM      1  C   UNL     1     116.632  88.599  57.351  1.00  0.00     0.044 C 
ATOM      2  C   UNL     1     118.037  88.120  57.134  1.00  0.00    -0.047 A 
ATOM      3  C   UNL     1     118.688  88.375  55.923  1.00  0.00     0.016 A 
ATOM      4  C   UNL     1     120.013  87.953  55.717  1.00  0.00     0.038 A 
ATOM      5  C   UNL     1     120.700  87.262  56.742  1.00  0.00     0.076 A 
ATOM      6  C   UNL     1     120.065  87.095  58.002  1.00  0.00     0.127 A 
ATOM      7  C   UNL     1     118.738  87.501  58.173  1.00  0.00     0.050 A 
ATOM      8  C   UNL     1     122.042  86.691  56.436  1.00  0.00     0.201 C 
ATOM      9  O   UNL     1     122.501  85.747  57.133  1.00  0.00    -0.288 OA
ATOM     10  C   UNL     1     122.794  87.151  55.240  1.00  0.00     0.076 A 
ATOM     11  C   UNL     1     122.120  87.898  54.250  1.00  0.00     0.041 A 
ATOM     12  C   UNL     1     120.692  88.242  54.431  1.00  0.00     0.194 C 
ATOM     13  O   UNL     1     120.056  88.801  53.494  1.00  0.00    -0.289 OA
ATOM     14  C   UNL     1     122.809  88.309  53.096  1.00  0.00     0.059 A 
ATOM     15  C   UNL     1     124.158  87.988  52.922  1.00  0.00     0.120 A 
ATOM     16  C   UNL     1     124.829  87.257  53.902  1.00  0.00     0.093 A 
ATOM     17  C   UNL     1     124.161  86.837  55.060  1.00  0.00     0.131 A 
ENDROOT
BRANCH   6  18
ATOM     18  O   UNL     1     120.720  86.572  59.121  1.00  0.00    -0.507 OA
ATOM     19  H   UNL     1     121.241  85.707  59.112  1.00  0.00     0.293 HD
ENDBRANCH   6  18
BRANCH  17  20
ATOM     20  O   UNL     1     124.860  86.118  56.029  1.00  0.00    -0.507 OA
ATOM     21  H   UNL     1     125.686  86.496  56.482  1.00  0.00     0.293 HD
ENDBRANCH  17  20
BRANCH  15  22
ATOM     22  O   UNL     1     124.844  88.395  51.779  1.00  0.00    -0.508 OA
ATOM     23  H   UNL     1     124.807  89.353  51.451  1.00  0.00     0.293 HD
ENDBRANCH  15  22
TORSDOF 3
ENDMDL
MODEL 8
REMARK VINA RESULT:    -2.969     10.577     13.982
REMARK INTER + INTRA:          -3.229
REMARK INTER:                  -3.229
REMARK INTRA:                   0.000
REMARK UNBOUND:                 0.000
REMARK SMILES Cc1cc(O)c2c(c1)C(=O)c1cc(O)cc(O)c1C2=O
REMARK SMILES IDX 1 1 2 2 8 3 7 4 6 5 4 6 3 7 19 8 20 9 18 10 11 11 9 12 10 13
REMARK SMILES IDX 12 14 13 15 15 16 16 17 5 18 17 20 14 22
REMARK H PARENT 5 19 17 21 14 23
REMARK Flexibility Score: inf
ROOT
ATOM      1  C   UNL     1     105.328  82.074  58.277  1.00  0.00     0.044 C 
ATOM      2  C   UNL     1     105.886  83.315  57.646  1.00  0.00    -0.047 A 
ATOM      3  C   UNL     1     107.080  83.869  58.119  1.00  0.00     0.016 A 
ATOM      4  C   UNL     1     107.626  85.017  57.520  1.00  0.00     0.038 A 
ATOM      5  C   UNL     1     106.965  85.624  56.427  1.00  0.00     0.076 A 
ATOM      6  C   UNL     1     105.807  84.998  55.891  1.00  0.00     0.127 A 
ATOM      7  C   UNL     1     105.270  83.871  56.521  1.00  0.00     0.050 A 
ATOM      8  C   UNL     1     107.483  86.925  55.919  1.00  0.00     0.201 C 
ATOM      9  O   UNL     1     106.730  87.692  55.261  1.00  0.00    -0.288 OA
ATOM     10  C   UNL     1     108.851  87.378  56.282  1.00  0.00     0.076 A 
ATOM     11  C   UNL     1     109.534  86.725  57.331  1.00  0.00     0.041 A 
ATOM     12  C   UNL     1     108.899  85.584  58.027  1.00  0.00     0.194 C 
ATOM     13  O   UNL     1     109.453  85.080  59.043  1.00  0.00    -0.289 OA
ATOM     14  C   UNL     1     110.814  87.166  57.711  1.00  0.00     0.059 A 
ATOM     15  C   UNL     1     111.418  88.242  57.054  1.00  0.00     0.120 A 
ATOM     16  C   UNL     1     110.749  88.883  56.013  1.00  0.00     0.093 A 
ATOM     17  C   UNL     1     109.472  88.461  55.619  1.00  0.00     0.131 A 
ENDROOT
BRANCH   6  18
ATOM     18  O   UNL     1     105.182  85.430  54.719  1.00  0.00    -0.507 OA
ATOM     19  H   UNL     1     105.542  86.169  54.131  1.00  0.00     0.293 HD
ENDBRANCH   6  18
BRANCH  17  20
ATOM     20  O   UNL     1     108.831  89.113  54.565  1.00  0.00    -0.507 OA
ATOM     21  H   UNL     1     108.446  90.045  54.670  1.00  0.00     0.293 HD
ENDBRANCH  17  20
BRANCH  15  22
ATOM     22  O   UNL     1     112.688  88.680  57.428  1.00  0.00    -0.508 OA
ATOM     23  H   UNL     1     112.914  88.888  58.393  1.00  0.00     0.293 HD
ENDBRANCH  15  22
TORSDOF 3
ENDMDL
