MODEL 1
REMARK VINA RESULT:    -3.620      0.000      0.000
REMARK INTER + INTRA:          -4.368
REMARK INTER:                  -4.254
REMARK INTRA:                  -0.114
REMARK UNBOUND:                -0.114
REMARK SMILES O=C([O-])CCC(=O)[O-]
REMARK SMILES IDX 4 1 2 2 1 3 3 4 5 5 6 6 7 7 8 8
REMARK H PARENT
REMARK Flexibility Score: inf
ROOT
ATOM      1  C   UNL     1     -25.212  -7.683  14.758  1.00  0.00     0.059 C 
ENDROOT
BRANCH   1   2
ATOM      2  C   UNL     1     -26.340  -6.767  15.122  1.00  0.00     0.042 C 
ATOM      3  O   UNL     1     -27.395  -6.757  14.433  1.00  0.00    -0.550 OA
ATOM      4  O   UNL     1     -26.245  -5.956  16.244  1.00  0.00    -0.550 OA
ENDBRANCH   1   2
BRANCH   1   5
ATOM      5  C   UNL     1     -24.008  -6.908  14.212  1.00  0.00     0.059 C 
BRANCH   5   6
ATOM      6  C   UNL     1     -22.950  -6.725  15.257  1.00  0.00     0.042 C 
ATOM      7  O   UNL     1     -22.093  -7.625  15.456  1.00  0.00    -0.550 OA
ATOM      8  O   UNL     1     -22.938  -5.576  16.040  1.00  0.00    -0.550 OA
ENDBRANCH   5   6
ENDBRANCH   1   5
TORSDOF 3
ENDMDL
MODEL 2
REMARK VINA RESULT:    -3.607      0.097      3.713
REMARK INTER + INTRA:          -4.353
REMARK INTER:                  -4.243
REMARK INTRA:                  -0.111
REMARK UNBOUND:                -0.114
REMARK SMILES O=C([O-])CCC(=O)[O-]
REMARK SMILES IDX 4 1 2 2 1 3 3 4 5 5 6 6 7 7 8 8
REMARK H PARENT
REMARK Flexibility Score: inf
ROOT
ATOM      1  C   UNL     1     -23.963  -6.777  14.275  1.00  0.00     0.059 C 
ENDROOT
BRANCH   1   2
ATOM      2  C   UNL     1     -22.913  -6.655  15.336  1.00  0.00     0.042 C 
ATOM      3  O   UNL     1     -22.052  -7.563  15.485  1.00  0.00    -0.550 OA
ATOM      4  O   UNL     1     -22.858  -5.520  16.134  1.00  0.00    -0.550 OA
ENDBRANCH   1   2
BRANCH   1   5
ATOM      5  C   UNL     1     -25.154  -7.615  14.752  1.00  0.00     0.059 C 
BRANCH   5   6
ATOM      6  C   UNL     1     -26.315  -6.752  15.141  1.00  0.00     0.042 C 
ATOM      7  O   UNL     1     -27.372  -6.765  14.458  1.00  0.00    -0.550 OA
ATOM      8  O   UNL     1     -26.213  -5.901  16.236  1.00  0.00    -0.550 OA
ENDBRANCH   5   6
ENDBRANCH   1   5
TORSDOF 3
ENDMDL
MODEL 3
REMARK VINA RESULT:    -3.602      0.061      3.771
REMARK INTER + INTRA:          -4.348
REMARK INTER:                  -4.232
REMARK INTRA:                  -0.115
REMARK UNBOUND:                -0.114
REMARK SMILES O=C([O-])CCC(=O)[O-]
REMARK SMILES IDX 4 1 2 2 1 3 3 4 5 5 6 6 7 7 8 8
REMARK H PARENT
REMARK Flexibility Score: inf
ROOT
ATOM      1  C   UNL     1     -24.013  -6.887  14.214  1.00  0.00     0.059 C 
ENDROOT
BRANCH   1   2
ATOM      2  C   UNL     1     -22.955  -6.706  15.259  1.00  0.00     0.042 C 
ATOM      3  O   UNL     1     -22.930  -5.660  15.961  1.00  0.00    -0.550 OA
ATOM      4  O   UNL     1     -22.022  -7.708  15.487  1.00  0.00    -0.550 OA
ENDBRANCH   1   2
BRANCH   1   5
ATOM      5  C   UNL     1     -25.208  -7.680  14.751  1.00  0.00     0.059 C 
BRANCH   5   6
ATOM      6  C   UNL     1     -26.349  -6.780  15.114  1.00  0.00     0.042 C 
ATOM      7  O   UNL     1     -27.380  -6.740  14.392  1.00  0.00    -0.550 OA
ATOM      8  O   UNL     1     -26.257  -5.954  16.228  1.00  0.00    -0.550 OA
ENDBRANCH   5   6
ENDBRANCH   1   5
TORSDOF 3
ENDMDL
MODEL 4
REMARK VINA RESULT:    -3.527      1.062      1.848
REMARK INTER + INTRA:          -4.260
REMARK INTER:                  -4.166
REMARK INTRA:                  -0.094
REMARK UNBOUND:                -0.114
REMARK SMILES O=C([O-])CCC(=O)[O-]
REMARK SMILES IDX 4 1 2 2 1 3 3 4 5 5 6 6 7 7 8 8
REMARK H PARENT
REMARK Flexibility Score: inf
ROOT
ATOM      1  C   UNL     1     -25.226  -7.805  14.718  1.00  0.00     0.059 C 
ENDROOT
BRANCH   1   2
ATOM      2  C   UNL     1     -26.472  -7.250  14.098  1.00  0.00     0.042 C 
ATOM      3  O   UNL     1     -27.390  -6.787  14.826  1.00  0.00    -0.550 OA
ATOM      4  O   UNL     1     -26.603  -7.206  12.716  1.00  0.00    -0.550 OA
ENDBRANCH   1   2
BRANCH   1   5
ATOM      5  C   UNL     1     -23.984  -7.015  14.295  1.00  0.00     0.059 C 
BRANCH   5   6
ATOM      6  C   UNL     1     -23.427  -6.213  15.431  1.00  0.00     0.042 C 
ATOM      7  O   UNL     1     -24.116  -5.304  15.964  1.00  0.00    -0.550 OA
ATOM      8  O   UNL     1     -22.130  -6.445  15.876  1.00  0.00    -0.550 OA
ENDBRANCH   5   6
ENDBRANCH   1   5
TORSDOF 3
ENDMDL
MODEL 5
REMARK VINA RESULT:    -3.521      1.084      3.827
REMARK INTER + INTRA:          -4.253
REMARK INTER:                  -4.159
REMARK INTRA:                  -0.094
REMARK UNBOUND:                -0.114
REMARK SMILES O=C([O-])CCC(=O)[O-]
REMARK SMILES IDX 4 1 2 2 1 3 3 4 5 5 6 6 7 7 8 8
REMARK H PARENT
REMARK Flexibility Score: inf
ROOT
ATOM      1  C   UNL     1     -23.958  -6.969  14.308  1.00  0.00     0.059 C 
ENDROOT
BRANCH   1   2
ATOM      2  C   UNL     1     -23.450  -6.144  15.452  1.00  0.00     0.042 C 
ATOM      3  O   UNL     1     -22.265  -6.284  15.857  1.00  0.00    -0.550 OA
ATOM      4  O   UNL     1     -24.270  -5.193  16.043  1.00  0.00    -0.550 OA
ENDBRANCH   1   2
BRANCH   1   5
ATOM      5  C   UNL     1     -25.212  -7.760  14.695  1.00  0.00     0.059 C 
BRANCH   5   6
ATOM      6  C   UNL     1     -26.436  -7.213  14.027  1.00  0.00     0.042 C 
ATOM      7  O   UNL     1     -27.389  -6.766  14.718  1.00  0.00    -0.550 OA
ATOM      8  O   UNL     1     -26.541  -7.236  12.641  1.00  0.00    -0.550 OA
ENDBRANCH   5   6
ENDBRANCH   1   5
TORSDOF 3
ENDMDL
MODEL 6
REMARK VINA RESULT:    -3.212      2.269      3.528
REMARK INTER + INTRA:          -3.889
REMARK INTER:                  -3.796
REMARK INTRA:                  -0.093
REMARK UNBOUND:                -0.114
REMARK SMILES O=C([O-])CCC(=O)[O-]
REMARK SMILES IDX 4 1 2 2 1 3 3 4 5 5 6 6 7 7 8 8
REMARK H PARENT
REMARK Flexibility Score: inf
ROOT
ATOM      1  C   UNL     1     -23.513  -4.732  16.270  1.00  0.00     0.059 C 
ENDROOT
BRANCH   1   2
ATOM      2  C   UNL     1     -23.374  -4.906  17.751  1.00  0.00     0.042 C 
ATOM      3  O   UNL     1     -24.388  -4.828  18.496  1.00  0.00    -0.550 OA
ATOM      4  O   UNL     1     -22.135  -5.196  18.306  1.00  0.00    -0.550 OA
ENDBRANCH   1   2
BRANCH   1   5
ATOM      5  C   UNL     1     -24.425  -5.801  15.658  1.00  0.00     0.059 C 
BRANCH   5   6
ATOM      6  C   UNL     1     -23.657  -6.748  14.787  1.00  0.00     0.042 C 
ATOM      7  O   UNL     1     -24.130  -7.118  13.681  1.00  0.00    -0.550 OA
ATOM      8  O   UNL     1     -22.436  -7.254  15.218  1.00  0.00    -0.550 OA
ENDBRANCH   5   6
ENDBRANCH   1   5
TORSDOF 3
ENDMDL
MODEL 7
REMARK VINA RESULT:    -3.137      7.075      8.342
REMARK INTER + INTRA:          -3.801
REMARK INTER:                  -3.732
REMARK INTRA:                  -0.069
REMARK UNBOUND:                -0.114
REMARK SMILES O=C([O-])CCC(=O)[O-]
REMARK SMILES IDX 4 1 2 2 1 3 3 4 5 5 6 6 7 7 8 8
REMARK H PARENT
REMARK Flexibility Score: inf
ROOT
ATOM      1  C   UNL     1     -28.495 -12.429  12.079  1.00  0.00     0.059 C 
ENDROOT
BRANCH   1   2
ATOM      2  C   UNL     1     -28.955 -12.308  10.658  1.00  0.00     0.042 C 
ATOM      3  O   UNL     1     -28.142 -12.486   9.711  1.00  0.00    -0.550 OA
ATOM      4  O   UNL     1     -30.288 -12.041  10.377  1.00  0.00    -0.550 OA
ENDBRANCH   1   2
BRANCH   1   5
ATOM      5  C   UNL     1     -29.618 -12.926  12.995  1.00  0.00     0.059 C 
BRANCH   5   6
ATOM      6  C   UNL     1     -29.929 -11.934  14.074  1.00  0.00     0.042 C 
ATOM      7  O   UNL     1     -31.124 -11.651  14.350  1.00  0.00    -0.550 OA
ATOM      8  O   UNL     1     -28.896 -11.291  14.746  1.00  0.00    -0.550 OA
ENDBRANCH   5   6
ENDBRANCH   1   5
TORSDOF 3
ENDMDL
MODEL 8
REMARK VINA RESULT:    -3.085      2.010      2.397
REMARK INTER + INTRA:          -3.740
REMARK INTER:                  -3.637
REMARK INTRA:                  -0.102
REMARK UNBOUND:                -0.114
REMARK SMILES O=C([O-])CCC(=O)[O-]
REMARK SMILES IDX 4 1 2 2 1 3 3 4 5 5 6 6 7 7 8 8
REMARK H PARENT
REMARK Flexibility Score: inf
ROOT
ATOM      1  C   UNL     1     -26.631  -7.165  14.631  1.00  0.00     0.059 C 
ENDROOT
BRANCH   1   2
ATOM      2  C   UNL     1     -26.996  -8.506  15.191  1.00  0.00     0.042 C 
ATOM      3  O   UNL     1     -28.001  -8.627  15.943  1.00  0.00    -0.550 OA
ATOM      4  O   UNL     1     -26.253  -9.629  14.852  1.00  0.00    -0.550 OA
ENDBRANCH   1   2
BRANCH   1   5
ATOM      5  C   UNL     1     -25.358  -6.610  15.278  1.00  0.00     0.059 C 
BRANCH   5   6
ATOM      6  C   UNL     1     -24.149  -6.880  14.435  1.00  0.00     0.042 C 
ATOM      7  O   UNL     1     -24.259  -6.992  13.186  1.00  0.00    -0.550 OA
ATOM      8  O   UNL     1     -22.907  -7.049  15.035  1.00  0.00    -0.550 OA
ENDBRANCH   5   6
ENDBRANCH   1   5
TORSDOF 3
ENDMDL
