MODEL 1
REMARK VINA RESULT:    -6.918      0.000      0.000
REMARK INTER + INTRA:          -6.918
REMARK INTER:                  -6.918
REMARK INTRA:                   0.000
REMARK UNBOUND:                 0.000
REMARK SMILES C[NH+]1CCN(C2=[NH+]c3ccccc3Oc3ccc(Cl)cc32)CC1
REMARK SMILES IDX 7 1 6 2 21 3 5 4 8 5 9 6 13 7 10 8 12 9 14 10 11 11 15 12
REMARK SMILES IDX 16 13 17 14 18 15 20 16 19 17 4 18 22 19 3 20 23 21 2 22
REMARK SMILES IDX 1 23
REMARK H PARENT 7 24 2 25
REMARK Flexibility Score: inf
ROOT
ATOM      1  N   UNL     1     128.545 127.114 126.542  1.00  0.00    -0.237 N 
ATOM      2  C   UNL     1     129.225 126.452 125.643  1.00  0.00     0.286 C 
ATOM      3  C   UNL     1     129.274 126.831 124.205  1.00  0.00     0.108 A 
ATOM      4  N   UNL     1     129.990 125.310 126.074  1.00  0.00    -0.250 N 
ATOM      5  C   UNL     1     127.730 128.282 126.340  1.00  0.00     0.168 A 
ATOM      6  C   UNL     1     127.637 129.215 127.388  1.00  0.00     0.056 A 
ATOM      7  C   UNL     1     126.879 128.423 125.225  1.00  0.00     0.173 A 
ATOM      8  C   UNL     1     126.727 130.272 127.325  1.00  0.00     0.005 A 
ATOM      9  C   UNL     1     125.946 129.467 125.186  1.00  0.00     0.052 A 
ATOM     10  O   UNL     1     126.933 127.557 124.137  1.00  0.00    -0.452 OA
ATOM     11  C   UNL     1     125.875 130.394 126.228  1.00  0.00     0.004 A 
ATOM     12  C   UNL     1     128.130 127.248 123.497  1.00  0.00     0.143 A 
ATOM     13  C   UNL     1     128.179 127.380 122.103  1.00  0.00     0.049 A 
ATOM     14  C   UNL     1     129.370 127.160 121.412  1.00  0.00     0.024 A 
ATOM     15  C   UNL     1     130.522 126.798 122.108  1.00  0.00     0.042 A 
ATOM     16  C   UNL     1     130.474 126.628 123.495  1.00  0.00     0.041 A 
ATOM     17  Cl  UNL     1     132.025 126.528 121.244  1.00  0.00    -0.084 Cl
ATOM     18  C   UNL     1     131.096 125.476 127.019  1.00  0.00     0.298 C 
ATOM     19  C   UNL     1     129.862 124.027 125.379  1.00  0.00     0.298 C 
ATOM     20  C   UNL     1     131.133 124.286 127.984  1.00  0.00     0.308 C 
ATOM     21  C   UNL     1     129.936 122.881 126.393  1.00  0.00     0.308 C 
ATOM     22  N   UNL     1     131.141 123.005 127.244  1.00  0.00    -0.331 N 
ATOM     23  C   UNL     1     131.209 121.878 128.188  1.00  0.00     0.332 C 
ATOM     24  H   UNL     1     128.617 126.784 127.532  1.00  0.00     0.312 HD
ATOM     25  H   UNL     1     131.995 122.965 126.636  1.00  0.00     0.348 HD
ENDROOT
TORSDOF 0
ENDMDL
MODEL 2
REMARK VINA RESULT:    -6.918      2.650      5.100
REMARK INTER + INTRA:          -6.918
REMARK INTER:                  -6.918
REMARK INTRA:                   0.000
REMARK UNBOUND:                 0.000
REMARK SMILES C[NH+]1CCN(C2=[NH+]c3ccccc3Oc3ccc(Cl)cc32)CC1
REMARK SMILES IDX 7 1 6 2 21 3 5 4 8 5 9 6 13 7 10 8 12 9 14 10 11 11 15 12
REMARK SMILES IDX 16 13 17 14 18 15 20 16 19 17 4 18 22 19 3 20 23 21 2 22
REMARK SMILES IDX 1 23
REMARK H PARENT 7 24 2 25
REMARK Flexibility Score: inf
ROOT
ATOM      1  N   UNL     1     130.856 124.473 124.679  1.00  0.00    -0.237 N 
ATOM      2  C   UNL     1     130.089 125.084 125.543  1.00  0.00     0.286 C 
ATOM      3  C   UNL     1     129.383 126.362 125.257  1.00  0.00     0.108 A 
ATOM      4  N   UNL     1     129.897 124.473 126.833  1.00  0.00    -0.250 N 
ATOM      5  C   UNL     1     131.175 124.891 123.340  1.00  0.00     0.168 A 
ATOM      6  C   UNL     1     131.409 123.897 122.373  1.00  0.00     0.056 A 
ATOM      7  C   UNL     1     131.450 126.235 123.016  1.00  0.00     0.173 A 
ATOM      8  C   UNL     1     131.895 124.231 121.108  1.00  0.00     0.005 A 
ATOM      9  C   UNL     1     131.970 126.556 121.756  1.00  0.00     0.052 A 
ATOM     10  O   UNL     1     131.217 127.276 123.909  1.00  0.00    -0.452 OA
ATOM     11  C   UNL     1     132.184 125.561 120.801  1.00  0.00     0.004 A 
ATOM     12  C   UNL     1     130.000 127.425 124.568  1.00  0.00     0.143 A 
ATOM     13  C   UNL     1     129.378 128.680 124.516  1.00  0.00     0.049 A 
ATOM     14  C   UNL     1     128.122 128.872 125.090  1.00  0.00     0.024 A 
ATOM     15  C   UNL     1     127.478 127.813 125.729  1.00  0.00     0.042 A 
ATOM     16  C   UNL     1     128.107 126.568 125.817  1.00  0.00     0.041 A 
ATOM     17  Cl  UNL     1     125.894 128.049 126.445  1.00  0.00    -0.084 Cl
ATOM     18  C   UNL     1     129.246 123.166 126.941  1.00  0.00     0.298 C 
ATOM     19  C   UNL     1     130.091 125.252 128.059  1.00  0.00     0.298 C 
ATOM     20  C   UNL     1     129.915 122.347 128.051  1.00  0.00     0.308 C 
ATOM     21  C   UNL     1     130.733 124.370 129.134  1.00  0.00     0.308 C 
ATOM     22  N   UNL     1     129.970 123.114 129.314  1.00  0.00    -0.331 N 
ATOM     23  C   UNL     1     130.586 122.298 130.373  1.00  0.00     0.332 C 
ATOM     24  H   UNL     1     131.268 123.557 124.972  1.00  0.00     0.312 HD
ATOM     25  H   UNL     1     128.994 123.347 129.617  1.00  0.00     0.348 HD
ENDROOT
TORSDOF 0
ENDMDL
MODEL 3
REMARK VINA RESULT:    -6.903      9.835     11.461
REMARK INTER + INTRA:          -6.903
REMARK INTER:                  -6.903
REMARK INTRA:                   0.000
REMARK UNBOUND:                 0.000
REMARK SMILES C[NH+]1CCN(C2=[NH+]c3ccccc3Oc3ccc(Cl)cc32)CC1
REMARK SMILES IDX 7 1 6 2 21 3 5 4 8 5 9 6 13 7 10 8 12 9 14 10 11 11 15 12
REMARK SMILES IDX 16 13 17 14 18 15 20 16 19 17 4 18 22 19 3 20 23 21 2 22
REMARK SMILES IDX 1 23
REMARK H PARENT 7 24 2 25
REMARK Flexibility Score: inf
ROOT
ATOM      1  N   UNL     1     130.739 137.041 128.797  1.00  0.00    -0.237 N 
ATOM      2  C   UNL     1     131.096 135.962 129.442  1.00  0.00     0.286 C 
ATOM      3  C   UNL     1     130.342 135.407 130.598  1.00  0.00     0.108 A 
ATOM      4  N   UNL     1     132.270 135.257 128.992  1.00  0.00    -0.250 N 
ATOM      5  C   UNL     1     129.606 137.886 129.061  1.00  0.00     0.168 A 
ATOM      6  C   UNL     1     128.996 138.538 127.975  1.00  0.00     0.056 A 
ATOM      7  C   UNL     1     129.215 138.234 130.370  1.00  0.00     0.173 A 
ATOM      8  C   UNL     1     128.012 139.506 128.182  1.00  0.00     0.005 A 
ATOM      9  C   UNL     1     128.251 139.230 130.570  1.00  0.00     0.052 A 
ATOM     10  O   UNL     1     129.751 137.612 131.494  1.00  0.00    -0.452 OA
ATOM     11  C   UNL     1     127.645 139.859 129.481  1.00  0.00     0.004 A 
ATOM     12  C   UNL     1     129.811 136.227 131.614  1.00  0.00     0.143 A 
ATOM     13  C   UNL     1     129.306 135.649 132.786  1.00  0.00     0.049 A 
ATOM     14  C   UNL     1     129.266 134.263 132.933  1.00  0.00     0.024 A 
ATOM     15  C   UNL     1     129.741 133.441 131.912  1.00  0.00     0.042 A 
ATOM     16  C   UNL     1     130.280 134.008 130.755  1.00  0.00     0.041 A 
ATOM     17  Cl  UNL     1     129.686 131.696 132.090  1.00  0.00    -0.084 Cl
ATOM     18  C   UNL     1     132.305 134.661 127.655  1.00  0.00     0.298 C 
ATOM     19  C   UNL     1     133.323 134.889 129.941  1.00  0.00     0.298 C 
ATOM     20  C   UNL     1     133.708 134.818 127.057  1.00  0.00     0.308 C 
ATOM     21  C   UNL     1     134.694 135.039 129.274  1.00  0.00     0.308 C 
ATOM     22  N   UNL     1     134.739 134.309 127.988  1.00  0.00    -0.331 N 
ATOM     23  C   UNL     1     136.074 134.440 127.380  1.00  0.00     0.332 C 
ATOM     24  H   UNL     1     131.320 137.316 127.971  1.00  0.00     0.312 HD
ATOM     25  H   UNL     1     134.567 133.290 128.165  1.00  0.00     0.348 HD
ENDROOT
TORSDOF 0
ENDMDL
MODEL 4
REMARK VINA RESULT:    -6.873      9.110     11.920
REMARK INTER + INTRA:          -6.873
REMARK INTER:                  -6.873
REMARK INTRA:                   0.000
REMARK UNBOUND:                 0.000
REMARK SMILES C[NH+]1CCN(C2=[NH+]c3ccccc3Oc3ccc(Cl)cc32)CC1
REMARK SMILES IDX 7 1 6 2 21 3 5 4 8 5 9 6 13 7 10 8 12 9 14 10 11 11 15 12
REMARK SMILES IDX 16 13 17 14 18 15 20 16 19 17 4 18 22 19 3 20 23 21 2 22
REMARK SMILES IDX 1 23
REMARK H PARENT 7 24 2 25
REMARK Flexibility Score: inf
ROOT
ATOM      1  N   UNL     1     132.807 136.868 129.085  1.00  0.00    -0.237 N 
ATOM      2  C   UNL     1     131.675 136.219 129.150  1.00  0.00     0.286 C 
ATOM      3  C   UNL     1     131.549 134.758 128.898  1.00  0.00     0.108 A 
ATOM      4  N   UNL     1     130.488 136.953 129.510  1.00  0.00    -0.250 N 
ATOM      5  C   UNL     1     134.105 136.339 128.762  1.00  0.00     0.168 A 
ATOM      6  C   UNL     1     135.231 136.931 129.359  1.00  0.00     0.056 A 
ATOM      7  C   UNL     1     134.297 135.394 127.734  1.00  0.00     0.173 A 
ATOM      8  C   UNL     1     136.521 136.586 128.953  1.00  0.00     0.005 A 
ATOM      9  C   UNL     1     135.594 135.079 127.309  1.00  0.00     0.052 A 
ATOM     10  O   UNL     1     133.233 134.744 127.116  1.00  0.00    -0.452 OA
ATOM     11  C   UNL     1     136.703 135.665 127.921  1.00  0.00     0.004 A 
ATOM     12  C   UNL     1     132.228 134.115 127.844  1.00  0.00     0.143 A 
ATOM     13  C   UNL     1     131.909 132.792 127.511  1.00  0.00     0.049 A 
ATOM     14  C   UNL     1     130.966 132.081 128.253  1.00  0.00     0.024 A 
ATOM     15  C   UNL     1     130.326 132.691 129.331  1.00  0.00     0.042 A 
ATOM     16  C   UNL     1     130.611 134.022 129.648  1.00  0.00     0.041 A 
ATOM     17  Cl  UNL     1     129.145 131.798 130.272  1.00  0.00    -0.084 Cl
ATOM     18  C   UNL     1     130.383 137.585 130.826  1.00  0.00     0.298 C 
ATOM     19  C   UNL     1     129.277 136.851 128.693  1.00  0.00     0.298 C 
ATOM     20  C   UNL     1     129.654 138.926 130.698  1.00  0.00     0.308 C 
ATOM     21  C   UNL     1     128.581 138.214 128.629  1.00  0.00     0.308 C 
ATOM     22  N   UNL     1     128.367 138.763 129.987  1.00  0.00    -0.331 N 
ATOM     23  C   UNL     1     127.670 140.057 129.903  1.00  0.00     0.332 C 
ATOM     24  H   UNL     1     132.786 137.886 129.325  1.00  0.00     0.312 HD
ATOM     25  H   UNL     1     127.757 138.106 130.530  1.00  0.00     0.348 HD
ENDROOT
TORSDOF 0
ENDMDL
MODEL 5
REMARK VINA RESULT:    -6.744      6.194      7.565
REMARK INTER + INTRA:          -6.744
REMARK INTER:                  -6.744
REMARK INTRA:                   0.000
REMARK UNBOUND:                 0.000
REMARK SMILES C[NH+]1CCN(C2=[NH+]c3ccccc3Oc3ccc(Cl)cc32)CC1
REMARK SMILES IDX 7 1 6 2 21 3 5 4 8 5 9 6 13 7 10 8 12 9 14 10 11 11 15 12
REMARK SMILES IDX 16 13 17 14 18 15 20 16 19 17 4 18 22 19 3 20 23 21 2 22
REMARK SMILES IDX 1 23
REMARK H PARENT 7 24 2 25
REMARK Flexibility Score: inf
ROOT
ATOM      1  N   UNL     1     132.884 130.966 124.613  1.00  0.00    -0.237 N 
ATOM      2  C   UNL     1     133.612 129.925 124.305  1.00  0.00     0.286 C 
ATOM      3  C   UNL     1     134.998 129.714 124.802  1.00  0.00     0.108 A 
ATOM      4  N   UNL     1     133.030 128.915 123.458  1.00  0.00    -0.250 N 
ATOM      5  C   UNL     1     133.254 132.078 125.447  1.00  0.00     0.168 A 
ATOM      6  C   UNL     1     132.245 132.710 126.197  1.00  0.00     0.056 A 
ATOM      7  C   UNL     1     134.531 132.672 125.388  1.00  0.00     0.173 A 
ATOM      8  C   UNL     1     132.502 133.898 126.882  1.00  0.00     0.005 A 
ATOM      9  C   UNL     1     134.769 133.883 126.051  1.00  0.00     0.052 A 
ATOM     10  O   UNL     1     135.586 132.091 124.691  1.00  0.00    -0.452 OA
ATOM     11  C   UNL     1     133.762 134.490 126.802  1.00  0.00     0.004 A 
ATOM     12  C   UNL     1     135.942 130.758 124.865  1.00  0.00     0.143 A 
ATOM     13  C   UNL     1     137.288 130.468 125.129  1.00  0.00     0.049 A 
ATOM     14  C   UNL     1     137.694 129.160 125.389  1.00  0.00     0.024 A 
ATOM     15  C   UNL     1     136.758 128.126 125.381  1.00  0.00     0.042 A 
ATOM     16  C   UNL     1     135.420 128.400 125.084  1.00  0.00     0.041 A 
ATOM     17  Cl  UNL     1     137.264 126.480 125.716  1.00  0.00    -0.084 Cl
ATOM     18  C   UNL     1     131.858 128.161 123.907  1.00  0.00     0.298 C 
ATOM     19  C   UNL     1     133.748 128.436 122.274  1.00  0.00     0.298 C 
ATOM     20  C   UNL     1     130.921 127.910 122.720  1.00  0.00     0.308 C 
ATOM     21  C   UNL     1     132.753 128.177 121.138  1.00  0.00     0.308 C 
ATOM     22  N   UNL     1     131.652 127.298 121.589  1.00  0.00    -0.331 N 
ATOM     23  C   UNL     1     130.727 127.036 120.474  1.00  0.00     0.332 C 
ATOM     24  H   UNL     1     131.906 130.990 124.242  1.00  0.00     0.312 HD
ATOM     25  H   UNL     1     132.051 126.379 121.896  1.00  0.00     0.348 HD
ENDROOT
TORSDOF 0
ENDMDL
MODEL 6
REMARK VINA RESULT:    -6.698      3.193      4.962
REMARK INTER + INTRA:          -6.698
REMARK INTER:                  -6.698
REMARK INTRA:                   0.000
REMARK UNBOUND:                 0.000
REMARK SMILES C[NH+]1CCN(C2=[NH+]c3ccccc3Oc3ccc(Cl)cc32)CC1
REMARK SMILES IDX 7 1 6 2 21 3 5 4 8 5 9 6 13 7 10 8 12 9 14 10 11 11 15 12
REMARK SMILES IDX 16 13 17 14 18 15 20 16 19 17 4 18 22 19 3 20 23 21 2 22
REMARK SMILES IDX 1 23
REMARK H PARENT 7 24 2 25
REMARK Flexibility Score: inf
ROOT
ATOM      1  N   UNL     1     128.692 127.546 124.164  1.00  0.00    -0.237 N 
ATOM      2  C   UNL     1     129.698 128.117 124.774  1.00  0.00     0.286 C 
ATOM      3  C   UNL     1     130.920 128.595 124.073  1.00  0.00     0.108 A 
ATOM      4  N   UNL     1     129.606 128.317 126.198  1.00  0.00    -0.250 N 
ATOM      5  C   UNL     1     128.565 127.262 122.760  1.00  0.00     0.168 A 
ATOM      6  C   UNL     1     127.279 127.292 122.191  1.00  0.00     0.056 A 
ATOM      7  C   UNL     1     129.638 126.769 121.991  1.00  0.00     0.173 A 
ATOM      8  C   UNL     1     127.066 126.854 120.883  1.00  0.00     0.005 A 
ATOM      9  C   UNL     1     129.408 126.300 120.691  1.00  0.00     0.052 A 
ATOM     10  O   UNL     1     130.943 126.736 122.475  1.00  0.00    -0.452 OA
ATOM     11  C   UNL     1     128.129 126.349 120.136  1.00  0.00     0.004 A 
ATOM     12  C   UNL     1     131.545 127.848 123.054  1.00  0.00     0.143 A 
ATOM     13  C   UNL     1     132.807 128.230 122.581  1.00  0.00     0.049 A 
ATOM     14  C   UNL     1     133.428 129.381 123.067  1.00  0.00     0.024 A 
ATOM     15  C   UNL     1     132.796 130.156 124.038  1.00  0.00     0.042 A 
ATOM     16  C   UNL     1     131.553 129.763 124.542  1.00  0.00     0.041 A 
ATOM     17  Cl  UNL     1     133.570 131.608 124.646  1.00  0.00    -0.084 Cl
ATOM     18  C   UNL     1     128.569 129.187 126.755  1.00  0.00     0.298 C 
ATOM     19  C   UNL     1     130.695 127.887 127.079  1.00  0.00     0.298 C 
ATOM     20  C   UNL     1     128.053 128.596 128.071  1.00  0.00     0.308 C 
ATOM     21  C   UNL     1     130.114 127.335 128.385  1.00  0.00     0.308 C 
ATOM     22  N   UNL     1     129.171 128.300 128.993  1.00  0.00    -0.331 N 
ATOM     23  C   UNL     1     128.651 127.764 130.262  1.00  0.00     0.332 C 
ATOM     24  H   UNL     1     127.865 127.289 124.750  1.00  0.00     0.312 HD
ATOM     25  H   UNL     1     129.683 129.190 129.208  1.00  0.00     0.348 HD
ENDROOT
TORSDOF 0
ENDMDL
MODEL 7
REMARK VINA RESULT:    -6.668      9.419     10.791
REMARK INTER + INTRA:          -6.668
REMARK INTER:                  -6.668
REMARK INTRA:                   0.000
REMARK UNBOUND:                 0.000
REMARK SMILES C[NH+]1CCN(C2=[NH+]c3ccccc3Oc3ccc(Cl)cc32)CC1
REMARK SMILES IDX 7 1 6 2 21 3 5 4 8 5 9 6 13 7 10 8 12 9 14 10 11 11 15 12
REMARK SMILES IDX 16 13 17 14 18 15 20 16 19 17 4 18 22 19 3 20 23 21 2 22
REMARK SMILES IDX 1 23
REMARK H PARENT 7 24 2 25
REMARK Flexibility Score: inf
ROOT
ATOM      1  N   UNL     1     132.987 134.048 128.621  1.00  0.00    -0.237 N 
ATOM      2  C   UNL     1     134.278 134.139 128.437  1.00  0.00     0.286 C 
ATOM      3  C   UNL     1     135.113 135.236 128.995  1.00  0.00     0.108 A 
ATOM      4  N   UNL     1     134.930 133.105 127.673  1.00  0.00    -0.250 N 
ATOM      5  C   UNL     1     132.140 134.950 129.355  1.00  0.00     0.168 A 
ATOM      6  C   UNL     1     131.014 134.419 130.009  1.00  0.00     0.056 A 
ATOM      7  C   UNL     1     132.286 136.350 129.278  1.00  0.00     0.173 A 
ATOM      8  C   UNL     1     130.060 135.259 130.585  1.00  0.00     0.005 A 
ATOM      9  C   UNL     1     131.306 137.185 129.829  1.00  0.00     0.052 A 
ATOM     10  O   UNL     1     133.388 136.948 128.674  1.00  0.00    -0.452 OA
ATOM     11  C   UNL     1     130.201 136.643 130.487  1.00  0.00     0.004 A 
ATOM     12  C   UNL     1     134.693 136.581 128.986  1.00  0.00     0.143 A 
ATOM     13  C   UNL     1     135.597 137.598 129.317  1.00  0.00     0.049 A 
ATOM     14  C   UNL     1     136.898 137.289 129.715  1.00  0.00     0.024 A 
ATOM     15  C   UNL     1     137.309 135.958 129.778  1.00  0.00     0.042 A 
ATOM     16  C   UNL     1     136.425 134.938 129.414  1.00  0.00     0.041 A 
ATOM     17  Cl  UNL     1     138.941 135.564 130.285  1.00  0.00    -0.084 Cl
ATOM     18  C   UNL     1     134.936 131.723 128.156  1.00  0.00     0.298 C 
ATOM     19  C   UNL     1     135.821 133.454 126.564  1.00  0.00     0.298 C 
ATOM     20  C   UNL     1     134.792 130.762 126.972  1.00  0.00     0.308 C 
ATOM     21  C   UNL     1     135.650 132.440 125.428  1.00  0.00     0.308 C 
ATOM     22  N   UNL     1     135.798 131.055 125.927  1.00  0.00    -0.331 N 
ATOM     23  C   UNL     1     135.663 130.101 124.815  1.00  0.00     0.332 C 
ATOM     24  H   UNL     1     132.506 133.210 128.220  1.00  0.00     0.312 HD
ATOM     25  H   UNL     1     136.758 130.939 126.334  1.00  0.00     0.348 HD
ENDROOT
TORSDOF 0
ENDMDL
MODEL 8
REMARK VINA RESULT:    -6.553      3.784      5.727
REMARK INTER + INTRA:          -6.553
REMARK INTER:                  -6.553
REMARK INTRA:                   0.000
REMARK UNBOUND:                 0.000
REMARK SMILES C[NH+]1CCN(C2=[NH+]c3ccccc3Oc3ccc(Cl)cc32)CC1
REMARK SMILES IDX 7 1 6 2 21 3 5 4 8 5 9 6 13 7 10 8 12 9 14 10 11 11 15 12
REMARK SMILES IDX 16 13 17 14 18 15 20 16 19 17 4 18 22 19 3 20 23 21 2 22
REMARK SMILES IDX 1 23
REMARK H PARENT 7 24 2 25
REMARK Flexibility Score: inf
ROOT
ATOM      1  N   UNL     1     131.864 129.261 125.746  1.00  0.00    -0.237 N 
ATOM      2  C   UNL     1     131.201 128.635 124.809  1.00  0.00     0.286 C 
ATOM      3  C   UNL     1     131.795 128.246 123.502  1.00  0.00     0.108 A 
ATOM      4  N   UNL     1     129.829 128.280 125.068  1.00  0.00    -0.250 N 
ATOM      5  C   UNL     1     133.235 129.695 125.710  1.00  0.00     0.168 A 
ATOM      6  C   UNL     1     133.956 129.716 126.916  1.00  0.00     0.056 A 
ATOM      7  C   UNL     1     133.810 130.277 124.562  1.00  0.00     0.173 A 
ATOM      8  C   UNL     1     135.226 130.293 126.980  1.00  0.00     0.005 A 
ATOM      9  C   UNL     1     135.070 130.883 124.644  1.00  0.00     0.052 A 
ATOM     10  O   UNL     1     133.170 130.268 123.326  1.00  0.00    -0.452 OA
ATOM     11  C   UNL     1     135.780 130.885 125.845  1.00  0.00     0.004 A 
ATOM     12  C   UNL     1     132.643 129.104 122.775  1.00  0.00     0.143 A 
ATOM     13  C   UNL     1     132.997 128.786 121.457  1.00  0.00     0.049 A 
ATOM     14  C   UNL     1     132.565 127.595 120.874  1.00  0.00     0.024 A 
ATOM     15  C   UNL     1     131.768 126.713 121.603  1.00  0.00     0.042 A 
ATOM     16  C   UNL     1     131.380 127.039 122.905  1.00  0.00     0.041 A 
ATOM     17  Cl  UNL     1     131.229 125.210 120.876  1.00  0.00    -0.084 Cl
ATOM     18  C   UNL     1     129.498 127.346 126.145  1.00  0.00     0.298 C 
ATOM     19  C   UNL     1     128.781 128.621 124.102  1.00  0.00     0.298 C 
ATOM     20  C   UNL     1     128.199 127.786 126.829  1.00  0.00     0.308 C 
ATOM     21  C   UNL     1     127.504 129.022 124.848  1.00  0.00     0.308 C 
ATOM     22  N   UNL     1     127.122 127.989 125.836  1.00  0.00    -0.331 N 
ATOM     23  C   UNL     1     125.876 128.379 126.517  1.00  0.00     0.332 C 
ATOM     24  H   UNL     1     131.359 129.446 126.644  1.00  0.00     0.312 HD
ATOM     25  H   UNL     1     126.943 127.085 125.336  1.00  0.00     0.348 HD
ENDROOT
TORSDOF 0
ENDMDL
MODEL 9
REMARK VINA RESULT:    -6.482      4.223      6.496
REMARK INTER + INTRA:          -6.482
REMARK INTER:                  -6.482
REMARK INTRA:                   0.000
REMARK UNBOUND:                 0.000
REMARK SMILES C[NH+]1CCN(C2=[NH+]c3ccccc3Oc3ccc(Cl)cc32)CC1
REMARK SMILES IDX 7 1 6 2 21 3 5 4 8 5 9 6 13 7 10 8 12 9 14 10 11 11 15 12
REMARK SMILES IDX 16 13 17 14 18 15 20 16 19 17 4 18 22 19 3 20 23 21 2 22
REMARK SMILES IDX 1 23
REMARK H PARENT 7 24 2 25
REMARK Flexibility Score: inf
ROOT
ATOM      1  N   UNL     1     131.596 128.748 123.262  1.00  0.00    -0.237 N 
ATOM      2  C   UNL     1     131.395 129.105 124.503  1.00  0.00     0.286 C 
ATOM      3  C   UNL     1     130.222 128.666 125.305  1.00  0.00     0.108 A 
ATOM      4  N   UNL     1     132.377 129.949 125.136  1.00  0.00    -0.250 N 
ATOM      5  C   UNL     1     130.762 127.907 122.445  1.00  0.00     0.168 A 
ATOM      6  C   UNL     1     131.381 127.107 121.469  1.00  0.00     0.056 A 
ATOM      7  C   UNL     1     129.356 128.004 122.455  1.00  0.00     0.173 A 
ATOM      8  C   UNL     1     130.620 126.409 120.530  1.00  0.00     0.005 A 
ATOM      9  C   UNL     1     128.603 127.327 121.488  1.00  0.00     0.052 A 
ATOM     10  O   UNL     1     128.671 128.752 123.408  1.00  0.00    -0.452 OA
ATOM     11  C   UNL     1     129.231 126.525 120.534  1.00  0.00     0.004 A 
ATOM     12  C   UNL     1     128.919 128.619 124.771  1.00  0.00     0.143 A 
ATOM     13  C   UNL     1     127.822 128.414 125.618  1.00  0.00     0.049 A 
ATOM     14  C   UNL     1     128.011 128.195 126.983  1.00  0.00     0.024 A 
ATOM     15  C   UNL     1     129.300 128.187 127.514  1.00  0.00     0.042 A 
ATOM     16  C   UNL     1     130.398 128.427 126.683  1.00  0.00     0.041 A 
ATOM     17  Cl  UNL     1     129.543 127.905 129.229  1.00  0.00    -0.084 Cl
ATOM     18  C   UNL     1     133.747 129.470 125.329  1.00  0.00     0.298 C 
ATOM     19  C   UNL     1     131.966 131.169 125.835  1.00  0.00     0.298 C 
ATOM     20  C   UNL     1     134.732 130.624 125.113  1.00  0.00     0.308 C 
ATOM     21  C   UNL     1     133.005 132.271 125.603  1.00  0.00     0.308 C 
ATOM     22  N   UNL     1     134.365 131.795 125.940  1.00  0.00    -0.331 N 
ATOM     23  C   UNL     1     135.342 132.878 125.741  1.00  0.00     0.332 C 
ATOM     24  H   UNL     1     132.478 129.081 122.808  1.00  0.00     0.312 HD
ATOM     25  H   UNL     1     134.392 131.522 126.951  1.00  0.00     0.348 HD
ENDROOT
TORSDOF 0
ENDMDL
