MODEL 1
REMARK VINA RESULT:    -3.503      0.000      0.000
REMARK INTER + INTRA:          -8.815
REMARK INTER:                  -6.575
REMARK INTRA:                  -2.240
REMARK UNBOUND:                -2.240
REMARK SMILES CCCCCCCCC=CCCCCCCCC(=O)[O-]
REMARK SMILES IDX 10 1 9 2 11 3 12 4 13 5 14 6 15 7 16 8 17 9 18 10 19 11
REMARK SMILES IDX 20 12 8 13 7 14 6 15 5 16 4 17 3 18 2 19 1 20
REMARK H PARENT
REMARK Flexibility Score: inf
ROOT
ATOM      1  C   UNL     1      44.561  58.903  30.377  1.00  0.00    -0.031 C 
ATOM      2  C   UNL     1      45.453  57.975  30.000  1.00  0.00    -0.031 C 
ENDROOT
BRANCH   1   3
ATOM      3  C   UNL     1      43.162  58.532  30.784  1.00  0.00     0.027 C 
BRANCH   3   4
ATOM      4  C   UNL     1      42.947  57.013  30.704  1.00  0.00     0.004 C 
BRANCH   4   5
ATOM      5  C   UNL     1      41.556  56.581  31.201  1.00  0.00     0.000 C 
BRANCH   5   6
ATOM      6  C   UNL     1      41.478  55.143  31.755  1.00  0.00     0.000 C 
BRANCH   6   7
ATOM      7  C   UNL     1      42.693  54.696  32.588  1.00  0.00     0.000 C 
BRANCH   7   8
ATOM      8  C   UNL     1      42.301  54.177  33.983  1.00  0.00     0.006 C 
BRANCH   8   9
ATOM      9  C   UNL     1      42.520  55.231  35.076  1.00  0.00     0.053 C 
BRANCH   9  10
ATOM     10  C   UNL     1      41.309  56.091  35.272  1.00  0.00     0.041 C 
ATOM     11  O   UNL     1      41.332  57.304  34.934  1.00  0.00    -0.550 OA
ATOM     12  O   UNL     1      40.145  55.546  35.799  1.00  0.00    -0.550 OA
ENDBRANCH   9  10
ENDBRANCH   8   9
ENDBRANCH   7   8
ENDBRANCH   6   7
ENDBRANCH   5   6
ENDBRANCH   4   5
ENDBRANCH   3   4
ENDBRANCH   1   3
BRANCH   2  13
ATOM     13  C   UNL     1      46.852  58.348  29.593  1.00  0.00     0.027 C 
BRANCH  13  14
ATOM     14  C   UNL     1      47.489  57.247  28.731  1.00  0.00     0.004 C 
BRANCH  14  15
ATOM     15  C   UNL     1      47.146  57.393  27.240  1.00  0.00     0.000 C 
BRANCH  15  16
ATOM     16  C   UNL     1      46.561  56.101  26.642  1.00  0.00     0.000 C 
BRANCH  16  17
ATOM     17  C   UNL     1      46.281  55.029  27.709  1.00  0.00    -0.000 C 
BRANCH  17  18
ATOM     18  C   UNL     1      44.781  54.880  28.016  1.00  0.00    -0.000 C 
BRANCH  18  19
ATOM     19  C   UNL     1      44.520  54.083  29.304  1.00  0.00    -0.003 C 
ATOM     20  C   UNL     1      45.594  54.308  30.367  1.00  0.00     0.004 C 
ENDBRANCH  18  19
ENDBRANCH  17  18
ENDBRANCH  16  17
ENDBRANCH  15  16
ENDBRANCH  14  15
ENDBRANCH  13  14
ENDBRANCH   2  13
TORSDOF 15
ENDMDL
MODEL 2
REMARK VINA RESULT:    -3.342      1.099      2.341
REMARK INTER + INTRA:          -8.514
REMARK INTER:                  -6.081
REMARK INTRA:                  -2.433
REMARK UNBOUND:                -2.240
REMARK SMILES CCCCCCCCC=CCCCCCCCC(=O)[O-]
REMARK SMILES IDX 10 1 9 2 11 3 12 4 13 5 14 6 15 7 16 8 17 9 18 10 19 11
REMARK SMILES IDX 20 12 8 13 7 14 6 15 5 16 4 17 3 18 2 19 1 20
REMARK H PARENT
REMARK Flexibility Score: inf
ROOT
ATOM      1  C   UNL     1      42.190  57.384  31.523  1.00  0.00    -0.031 C 
ATOM      2  C   UNL     1      43.149  57.505  30.592  1.00  0.00    -0.031 C 
ENDROOT
BRANCH   1   3
ATOM      3  C   UNL     1      41.360  56.136  31.641  1.00  0.00     0.027 C 
BRANCH   3   4
ATOM      4  C   UNL     1      41.920  55.013  30.756  1.00  0.00     0.004 C 
BRANCH   4   5
ATOM      5  C   UNL     1      42.396  53.795  31.567  1.00  0.00     0.000 C 
BRANCH   5   6
ATOM      6  C   UNL     1      43.700  54.010  32.364  1.00  0.00     0.000 C 
BRANCH   6   7
ATOM      7  C   UNL     1      43.603  53.711  33.870  1.00  0.00     0.000 C 
BRANCH   7   8
ATOM      8  C   UNL     1      42.931  54.846  34.663  1.00  0.00     0.006 C 
BRANCH   8   9
ATOM      9  C   UNL     1      41.465  54.534  34.991  1.00  0.00     0.053 C 
BRANCH   9  10
ATOM     10  C   UNL     1      40.744  55.736  35.517  1.00  0.00     0.041 C 
ATOM     11  O   UNL     1      39.710  55.595  36.223  1.00  0.00    -0.550 OA
ATOM     12  O   UNL     1      41.229  57.011  35.255  1.00  0.00    -0.550 OA
ENDBRANCH   9  10
ENDBRANCH   8   9
ENDBRANCH   7   8
ENDBRANCH   6   7
ENDBRANCH   5   6
ENDBRANCH   4   5
ENDBRANCH   3   4
ENDBRANCH   1   3
BRANCH   2  13
ATOM     13  C   UNL     1      43.980  58.753  30.476  1.00  0.00     0.027 C 
BRANCH  13  14
ATOM     14  C   UNL     1      45.427  58.420  30.081  1.00  0.00     0.004 C 
BRANCH  14  15
ATOM     15  C   UNL     1      45.628  56.926  29.784  1.00  0.00     0.000 C 
BRANCH  15  16
ATOM     16  C   UNL     1      45.972  56.660  28.307  1.00  0.00     0.000 C 
BRANCH  16  17
ATOM     17  C   UNL     1      45.424  55.315  27.805  1.00  0.00    -0.000 C 
BRANCH  17  18
ATOM     18  C   UNL     1      45.212  54.302  28.943  1.00  0.00    -0.000 C 
BRANCH  18  19
ATOM     19  C   UNL     1      44.453  53.048  28.480  1.00  0.00    -0.003 C 
ATOM     20  C   UNL     1      43.197  53.380  27.675  1.00  0.00     0.004 C 
ENDBRANCH  18  19
ENDBRANCH  17  18
ENDBRANCH  16  17
ENDBRANCH  15  16
ENDBRANCH  14  15
ENDBRANCH  13  14
ENDBRANCH   2  13
TORSDOF 15
ENDMDL
MODEL 3
REMARK VINA RESULT:    -3.337      3.766      6.513
REMARK INTER + INTRA:          -8.503
REMARK INTER:                  -5.990
REMARK INTRA:                  -2.513
REMARK UNBOUND:                -2.240
REMARK SMILES CCCCCCCCC=CCCCCCCCC(=O)[O-]
REMARK SMILES IDX 10 1 9 2 11 3 12 4 13 5 14 6 15 7 16 8 17 9 18 10 19 11
REMARK SMILES IDX 20 12 8 13 7 14 6 15 5 16 4 17 3 18 2 19 1 20
REMARK H PARENT
REMARK Flexibility Score: inf
ROOT
ATOM      1  C   UNL     1      42.689  56.528  30.819  1.00  0.00    -0.031 C 
ATOM      2  C   UNL     1      41.844  55.697  31.449  1.00  0.00    -0.031 C 
ENDROOT
BRANCH   1   3
ATOM      3  C   UNL     1      42.502  58.019  30.859  1.00  0.00     0.027 C 
BRANCH   3   4
ATOM      4  C   UNL     1      43.804  58.750  30.500  1.00  0.00     0.004 C 
BRANCH   4   5
ATOM      5  C   UNL     1      44.902  57.800  29.992  1.00  0.00     0.000 C 
BRANCH   5   6
ATOM      6  C   UNL     1      46.319  58.406  29.940  1.00  0.00     0.000 C 
BRANCH   6   7
ATOM      7  C   UNL     1      47.155  58.011  28.709  1.00  0.00     0.000 C 
BRANCH   7   8
ATOM      8  C   UNL     1      46.481  56.926  27.852  1.00  0.00     0.006 C 
BRANCH   8   9
ATOM      9  C   UNL     1      47.501  55.968  27.223  1.00  0.00     0.053 C 
BRANCH   9  10
ATOM     10  C   UNL     1      46.887  55.133  26.141  1.00  0.00     0.041 C 
ATOM     11  O   UNL     1      45.655  55.223  25.895  1.00  0.00    -0.550 OA
ATOM     12  O   UNL     1      47.680  54.278  25.386  1.00  0.00    -0.550 OA
ENDBRANCH   9  10
ENDBRANCH   8   9
ENDBRANCH   7   8
ENDBRANCH   6   7
ENDBRANCH   5   6
ENDBRANCH   4   5
ENDBRANCH   3   4
ENDBRANCH   1   3
BRANCH   2  13
ATOM     13  C   UNL     1      42.033  54.205  31.409  1.00  0.00     0.027 C 
BRANCH  13  14
ATOM     14  C   UNL     1      41.643  53.635  30.036  1.00  0.00     0.004 C 
BRANCH  14  15
ATOM     15  C   UNL     1      42.796  52.875  29.364  1.00  0.00     0.000 C 
BRANCH  15  16
ATOM     16  C   UNL     1      43.799  53.818  28.674  1.00  0.00     0.000 C 
BRANCH  16  17
ATOM     17  C   UNL     1      45.254  53.536  29.084  1.00  0.00    -0.000 C 
BRANCH  17  18
ATOM     18  C   UNL     1      45.640  54.228  30.403  1.00  0.00    -0.000 C 
BRANCH  18  19
ATOM     19  C   UNL     1      46.035  53.226  31.500  1.00  0.00    -0.003 C 
ATOM     20  C   UNL     1      45.304  53.475  32.819  1.00  0.00     0.004 C 
ENDBRANCH  18  19
ENDBRANCH  17  18
ENDBRANCH  16  17
ENDBRANCH  15  16
ENDBRANCH  14  15
ENDBRANCH  13  14
ENDBRANCH   2  13
TORSDOF 15
ENDMDL
MODEL 4
REMARK VINA RESULT:    -3.336      2.335      3.452
REMARK INTER + INTRA:          -8.502
REMARK INTER:                  -5.968
REMARK INTRA:                  -2.534
REMARK UNBOUND:                -2.240
REMARK SMILES CCCCCCCCC=CCCCCCCCC(=O)[O-]
REMARK SMILES IDX 10 1 9 2 11 3 12 4 13 5 14 6 15 7 16 8 17 9 18 10 19 11
REMARK SMILES IDX 20 12 8 13 7 14 6 15 5 16 4 17 3 18 2 19 1 20
REMARK H PARENT
REMARK Flexibility Score: inf
ROOT
ATOM      1  C   UNL     1      44.650  55.611  29.242  1.00  0.00    -0.031 C 
ATOM      2  C   UNL     1      45.747  56.260  29.664  1.00  0.00    -0.031 C 
ENDROOT
BRANCH   1   3
ATOM      3  C   UNL     1      44.425  54.159  29.558  1.00  0.00     0.027 C 
BRANCH   3   4
ATOM      4  C   UNL     1      43.175  53.624  28.843  1.00  0.00     0.004 C 
BRANCH   4   5
ATOM      5  C   UNL     1      41.936  53.589  29.753  1.00  0.00     0.000 C 
BRANCH   5   6
ATOM      6  C   UNL     1      42.233  53.405  31.256  1.00  0.00     0.000 C 
BRANCH   6   7
ATOM      7  C   UNL     1      41.708  54.527  32.169  1.00  0.00     0.000 C 
BRANCH   7   8
ATOM      8  C   UNL     1      41.408  55.828  31.404  1.00  0.00     0.006 C 
BRANCH   8   9
ATOM      9  C   UNL     1      42.078  57.048  32.050  1.00  0.00     0.053 C 
BRANCH   9  10
ATOM     10  C   UNL     1      42.318  58.143  31.057  1.00  0.00     0.041 C 
ATOM     11  O   UNL     1      41.460  58.390  30.169  1.00  0.00    -0.550 OA
ATOM     12  O   UNL     1      43.473  58.911  31.131  1.00  0.00    -0.550 OA
ENDBRANCH   9  10
ENDBRANCH   8   9
ENDBRANCH   7   8
ENDBRANCH   6   7
ENDBRANCH   5   6
ENDBRANCH   4   5
ENDBRANCH   3   4
ENDBRANCH   1   3
BRANCH   2  13
ATOM     13  C   UNL     1      45.971  57.713  29.348  1.00  0.00     0.027 C 
BRANCH  13  14
ATOM     14  C   UNL     1      47.415  57.962  28.885  1.00  0.00     0.004 C 
BRANCH  14  15
ATOM     15  C   UNL     1      47.872  56.960  27.815  1.00  0.00     0.000 C 
BRANCH  15  16
ATOM     16  C   UNL     1      47.365  57.329  26.408  1.00  0.00     0.000 C 
BRANCH  16  17
ATOM     17  C   UNL     1      46.895  56.103  25.608  1.00  0.00    -0.000 C 
BRANCH  17  18
ATOM     18  C   UNL     1      47.142  54.781  26.354  1.00  0.00    -0.000 C 
BRANCH  18  19
ATOM     19  C   UNL     1      45.998  53.773  26.161  1.00  0.00    -0.003 C 
ATOM     20  C   UNL     1      44.763  54.397  25.511  1.00  0.00     0.004 C 
ENDBRANCH  18  19
ENDBRANCH  17  18
ENDBRANCH  16  17
ENDBRANCH  15  16
ENDBRANCH  14  15
ENDBRANCH  13  14
ENDBRANCH   2  13
TORSDOF 15
ENDMDL
MODEL 5
REMARK VINA RESULT:    -3.332      3.440      6.618
REMARK INTER + INTRA:          -8.494
REMARK INTER:                  -6.221
REMARK INTRA:                  -2.274
REMARK UNBOUND:                -2.240
REMARK SMILES CCCCCCCCC=CCCCCCCCC(=O)[O-]
REMARK SMILES IDX 10 1 9 2 11 3 12 4 13 5 14 6 15 7 16 8 17 9 18 10 19 11
REMARK SMILES IDX 20 12 8 13 7 14 6 15 5 16 4 17 3 18 2 19 1 20
REMARK H PARENT
REMARK Flexibility Score: inf
ROOT
ATOM      1  C   UNL     1      42.131  56.823  32.117  1.00  0.00    -0.031 C 
ATOM      2  C   UNL     1      41.375  55.730  32.304  1.00  0.00    -0.031 C 
ENDROOT
BRANCH   1   3
ATOM      3  C   UNL     1      42.356  57.400  30.747  1.00  0.00     0.027 C 
BRANCH   3   4
ATOM      4  C   UNL     1      42.700  58.895  30.825  1.00  0.00     0.004 C 
BRANCH   4   5
ATOM      5  C   UNL     1      44.158  59.192  30.434  1.00  0.00     0.000 C 
BRANCH   5   6
ATOM      6  C   UNL     1      44.999  57.955  30.058  1.00  0.00     0.000 C 
BRANCH   6   7
ATOM      7  C   UNL     1      46.450  58.253  29.639  1.00  0.00     0.000 C 
BRANCH   7   8
ATOM      8  C   UNL     1      46.976  57.275  28.574  1.00  0.00     0.006 C 
BRANCH   8   9
ATOM      9  C   UNL     1      45.979  56.145  28.282  1.00  0.00     0.053 C 
BRANCH   9  10
ATOM     10  C   UNL     1      46.047  55.696  26.855  1.00  0.00     0.041 C 
ATOM     11  O   UNL     1      45.198  54.881  26.407  1.00  0.00    -0.550 OA
ATOM     12  O   UNL     1      47.029  56.201  26.012  1.00  0.00    -0.550 OA
ENDBRANCH   9  10
ENDBRANCH   8   9
ENDBRANCH   7   8
ENDBRANCH   6   7
ENDBRANCH   5   6
ENDBRANCH   4   5
ENDBRANCH   3   4
ENDBRANCH   1   3
BRANCH   2  13
ATOM     13  C   UNL     1      41.150  55.154  33.675  1.00  0.00     0.027 C 
BRANCH  13  14
ATOM     14  C   UNL     1      42.481  54.954  34.416  1.00  0.00     0.004 C 
BRANCH  14  15
ATOM     15  C   UNL     1      43.079  53.558  34.186  1.00  0.00     0.000 C 
BRANCH  15  16
ATOM     16  C   UNL     1      44.259  53.579  33.198  1.00  0.00     0.000 C 
BRANCH  16  17
ATOM     17  C   UNL     1      43.878  53.039  31.809  1.00  0.00    -0.000 C 
BRANCH  17  18
ATOM     18  C   UNL     1      44.243  54.013  30.677  1.00  0.00    -0.000 C 
BRANCH  18  19
ATOM     19  C   UNL     1      43.186  54.043  29.561  1.00  0.00    -0.003 C 
ATOM     20  C   UNL     1      42.018  53.094  29.828  1.00  0.00     0.004 C 
ENDBRANCH  18  19
ENDBRANCH  17  18
ENDBRANCH  16  17
ENDBRANCH  15  16
ENDBRANCH  14  15
ENDBRANCH  13  14
ENDBRANCH   2  13
TORSDOF 15
ENDMDL
MODEL 6
REMARK VINA RESULT:    -3.323      4.276      7.294
REMARK INTER + INTRA:          -8.477
REMARK INTER:                  -6.375
REMARK INTRA:                  -2.102
REMARK UNBOUND:                -2.240
REMARK SMILES CCCCCCCCC=CCCCCCCCC(=O)[O-]
REMARK SMILES IDX 10 1 9 2 11 3 12 4 13 5 14 6 15 7 16 8 17 9 18 10 19 11
REMARK SMILES IDX 20 12 8 13 7 14 6 15 5 16 4 17 3 18 2 19 1 20
REMARK H PARENT
REMARK Flexibility Score: inf
ROOT
ATOM      1  C   UNL     1      42.825  57.425  30.811  1.00  0.00    -0.031 C 
ATOM      2  C   UNL     1      41.785  57.034  31.564  1.00  0.00    -0.031 C 
ENDROOT
BRANCH   1   3
ATOM      3  C   UNL     1      43.171  58.877  30.639  1.00  0.00     0.027 C 
BRANCH   3   4
ATOM      4  C   UNL     1      44.684  59.069  30.458  1.00  0.00     0.004 C 
BRANCH   4   5
ATOM      5  C   UNL     1      45.369  57.844  29.829  1.00  0.00     0.000 C 
BRANCH   5   6
ATOM      6  C   UNL     1      46.833  58.066  29.394  1.00  0.00     0.000 C 
BRANCH   6   7
ATOM      7  C   UNL     1      47.384  57.030  28.397  1.00  0.00     0.000 C 
BRANCH   7   8
ATOM      8  C   UNL     1      47.105  57.406  26.931  1.00  0.00     0.006 C 
BRANCH   8   9
ATOM      9  C   UNL     1      47.044  56.174  26.019  1.00  0.00     0.053 C 
BRANCH   9  10
ATOM     10  C   UNL     1      47.410  56.508  24.606  1.00  0.00     0.041 C 
ATOM     11  O   UNL     1      47.986  55.653  23.882  1.00  0.00    -0.550 OA
ATOM     12  O   UNL     1      47.087  57.752  24.078  1.00  0.00    -0.550 OA
ENDBRANCH   9  10
ENDBRANCH   8   9
ENDBRANCH   7   8
ENDBRANCH   6   7
ENDBRANCH   5   6
ENDBRANCH   4   5
ENDBRANCH   3   4
ENDBRANCH   1   3
BRANCH   2  13
ATOM     13  C   UNL     1      41.441  55.580  31.736  1.00  0.00     0.027 C 
BRANCH  13  14
ATOM     14  C   UNL     1      42.360  54.913  32.770  1.00  0.00     0.004 C 
BRANCH  14  15
ATOM     15  C   UNL     1      42.451  53.391  32.583  1.00  0.00     0.000 C 
BRANCH  15  16
ATOM     16  C   UNL     1      43.472  52.991  31.501  1.00  0.00     0.000 C 
BRANCH  16  17
ATOM     17  C   UNL     1      44.761  53.826  31.568  1.00  0.00    -0.000 C 
BRANCH  17  18
ATOM     18  C   UNL     1      45.158  54.409  30.201  1.00  0.00    -0.000 C 
BRANCH  18  19
ATOM     19  C   UNL     1      43.984  54.436  29.209  1.00  0.00    -0.003 C 
ATOM     20  C   UNL     1      44.414  54.131  27.775  1.00  0.00     0.004 C 
ENDBRANCH  18  19
ENDBRANCH  17  18
ENDBRANCH  16  17
ENDBRANCH  15  16
ENDBRANCH  14  15
ENDBRANCH  13  14
ENDBRANCH   2  13
TORSDOF 15
ENDMDL
MODEL 7
REMARK VINA RESULT:    -3.320     12.722     14.982
REMARK INTER + INTRA:          -8.471
REMARK INTER:                  -6.156
REMARK INTRA:                  -2.315
REMARK UNBOUND:                -2.240
REMARK SMILES CCCCCCCCC=CCCCCCCCC(=O)[O-]
REMARK SMILES IDX 10 1 9 2 11 3 12 4 13 5 14 6 15 7 16 8 17 9 18 10 19 11
REMARK SMILES IDX 20 12 8 13 7 14 6 15 5 16 4 17 3 18 2 19 1 20
REMARK H PARENT
REMARK Flexibility Score: inf
ROOT
ATOM      1  C   UNL     1      45.843  70.006  30.585  1.00  0.00    -0.031 C 
ATOM      2  C   UNL     1      47.003  69.780  31.221  1.00  0.00    -0.031 C 
ENDROOT
BRANCH   1   3
ATOM      3  C   UNL     1      45.512  71.354  30.008  1.00  0.00     0.027 C 
BRANCH   3   4
ATOM      4  C   UNL     1      44.116  71.818  30.449  1.00  0.00     0.004 C 
BRANCH   4   5
ATOM      5  C   UNL     1      43.886  71.660  31.962  1.00  0.00     0.000 C 
BRANCH   5   6
ATOM      6  C   UNL     1      43.818  72.982  32.754  1.00  0.00     0.000 C 
BRANCH   6   7
ATOM      7  C   UNL     1      42.877  72.968  33.972  1.00  0.00     0.000 C 
BRANCH   7   8
ATOM      8  C   UNL     1      42.038  71.681  34.063  1.00  0.00     0.006 C 
BRANCH   8   9
ATOM      9  C   UNL     1      40.672  71.924  34.718  1.00  0.00     0.053 C 
BRANCH   9  10
ATOM     10  C   UNL     1      40.110  70.672  35.317  1.00  0.00     0.041 C 
ATOM     11  O   UNL     1      38.882  70.596  35.586  1.00  0.00    -0.550 OA
ATOM     12  O   UNL     1      40.934  69.579  35.549  1.00  0.00    -0.550 OA
ENDBRANCH   9  10
ENDBRANCH   8   9
ENDBRANCH   7   8
ENDBRANCH   6   7
ENDBRANCH   5   6
ENDBRANCH   4   5
ENDBRANCH   3   4
ENDBRANCH   1   3
BRANCH   2  13
ATOM     13  C   UNL     1      47.334  68.431  31.797  1.00  0.00     0.027 C 
BRANCH  13  14
ATOM     14  C   UNL     1      47.543  68.515  33.317  1.00  0.00     0.004 C 
BRANCH  14  15
ATOM     15  C   UNL     1      46.450  67.777  34.104  1.00  0.00     0.000 C 
BRANCH  15  16
ATOM     16  C   UNL     1      45.032  68.143  33.627  1.00  0.00     0.000 C 
BRANCH  16  17
ATOM     17  C   UNL     1      44.152  68.695  34.760  1.00  0.00    -0.000 C 
BRANCH  17  18
ATOM     18  C   UNL     1      44.976  69.198  35.957  1.00  0.00    -0.000 C 
BRANCH  18  19
ATOM     19  C   UNL     1      45.007  70.732  36.049  1.00  0.00    -0.003 C 
ATOM     20  C   UNL     1      46.128  71.352  35.215  1.00  0.00     0.004 C 
ENDBRANCH  18  19
ENDBRANCH  17  18
ENDBRANCH  16  17
ENDBRANCH  15  16
ENDBRANCH  14  15
ENDBRANCH  13  14
ENDBRANCH   2  13
TORSDOF 15
ENDMDL
MODEL 8
REMARK VINA RESULT:    -3.191      3.791      6.880
REMARK INTER + INTRA:          -8.230
REMARK INTER:                  -5.976
REMARK INTRA:                  -2.254
REMARK UNBOUND:                -2.240
REMARK SMILES CCCCCCCCC=CCCCCCCCC(=O)[O-]
REMARK SMILES IDX 10 1 9 2 11 3 12 4 13 5 14 6 15 7 16 8 17 9 18 10 19 11
REMARK SMILES IDX 20 12 8 13 7 14 6 15 5 16 4 17 3 18 2 19 1 20
REMARK H PARENT
REMARK Flexibility Score: inf
ROOT
ATOM      1  C   UNL     1      45.641  58.689  29.979  1.00  0.00    -0.031 C 
ATOM      2  C   UNL     1      44.499  58.083  30.338  1.00  0.00    -0.031 C 
ENDROOT
BRANCH   1   3
ATOM      3  C   UNL     1      46.871  57.902  29.622  1.00  0.00     0.027 C 
BRANCH   3   4
ATOM      4  C   UNL     1      46.985  57.711  28.103  1.00  0.00     0.004 C 
BRANCH   4   5
ATOM      5  C   UNL     1      47.834  56.487  27.717  1.00  0.00     0.000 C 
BRANCH   5   6
ATOM      6  C   UNL     1      47.385  55.758  26.434  1.00  0.00     0.000 C 
BRANCH   6   7
ATOM      7  C   UNL     1      47.441  54.221  26.501  1.00  0.00     0.000 C 
BRANCH   7   8
ATOM      8  C   UNL     1      46.070  53.563  26.269  1.00  0.00     0.006 C 
BRANCH   8   9
ATOM      9  C   UNL     1      44.966  54.599  26.017  1.00  0.00     0.053 C 
BRANCH   9  10
ATOM     10  C   UNL     1      43.961  54.111  25.019  1.00  0.00     0.041 C 
ATOM     11  O   UNL     1      43.031  53.343  25.382  1.00  0.00    -0.550 OA
ATOM     12  O   UNL     1      44.033  54.528  23.697  1.00  0.00    -0.550 OA
ENDBRANCH   9  10
ENDBRANCH   8   9
ENDBRANCH   7   8
ENDBRANCH   6   7
ENDBRANCH   5   6
ENDBRANCH   4   5
ENDBRANCH   3   4
ENDBRANCH   1   3
BRANCH   2  13
ATOM     13  C   UNL     1      43.269  58.871  30.695  1.00  0.00     0.027 C 
BRANCH  13  14
ATOM     14  C   UNL     1      42.030  57.965  30.754  1.00  0.00     0.004 C 
BRANCH  14  15
ATOM     15  C   UNL     1      42.054  57.011  31.958  1.00  0.00     0.000 C 
BRANCH  15  16
ATOM     16  C   UNL     1      41.582  55.592  31.594  1.00  0.00     0.000 C 
BRANCH  16  17
ATOM     17  C   UNL     1      42.398  54.973  30.447  1.00  0.00    -0.000 C 
BRANCH  17  18
ATOM     18  C   UNL     1      43.838  54.630  30.867  1.00  0.00    -0.000 C 
BRANCH  18  19
ATOM     19  C   UNL     1      44.789  54.513  29.664  1.00  0.00    -0.003 C 
ATOM     20  C   UNL     1      46.201  54.087  30.066  1.00  0.00     0.004 C 
ENDBRANCH  18  19
ENDBRANCH  17  18
ENDBRANCH  16  17
ENDBRANCH  15  16
ENDBRANCH  14  15
ENDBRANCH  13  14
ENDBRANCH   2  13
TORSDOF 15
ENDMDL
MODEL 9
REMARK VINA RESULT:    -3.172     12.927     15.266
REMARK INTER + INTRA:          -8.194
REMARK INTER:                  -5.880
REMARK INTRA:                  -2.314
REMARK UNBOUND:                -2.240
REMARK SMILES CCCCCCCCC=CCCCCCCCC(=O)[O-]
REMARK SMILES IDX 10 1 9 2 11 3 12 4 13 5 14 6 15 7 16 8 17 9 18 10 19 11
REMARK SMILES IDX 20 12 8 13 7 14 6 15 5 16 4 17 3 18 2 19 1 20
REMARK H PARENT
REMARK Flexibility Score: inf
ROOT
ATOM      1  C   UNL     1      45.893  69.577  30.644  1.00  0.00    -0.031 C 
ATOM      2  C   UNL     1      45.746  70.910  30.698  1.00  0.00    -0.031 C 
ENDROOT
BRANCH   1   3
ATOM      3  C   UNL     1      47.149  68.903  31.119  1.00  0.00     0.027 C 
BRANCH   3   4
ATOM      4  C   UNL     1      47.354  69.112  32.627  1.00  0.00     0.004 C 
BRANCH   4   5
ATOM      5  C   UNL     1      47.324  67.794  33.421  1.00  0.00     0.000 C 
BRANCH   5   6
ATOM      6  C   UNL     1      46.087  67.602  34.322  1.00  0.00     0.000 C 
BRANCH   6   7
ATOM      7  C   UNL     1      44.788  68.237  33.795  1.00  0.00     0.000 C 
BRANCH   7   8
ATOM      8  C   UNL     1      43.995  68.971  34.891  1.00  0.00     0.006 C 
BRANCH   8   9
ATOM      9  C   UNL     1      44.873  69.337  36.095  1.00  0.00     0.053 C 
BRANCH   9  10
ATOM     10  C   UNL     1      45.288  70.775  36.065  1.00  0.00     0.041 C 
ATOM     11  O   UNL     1      46.207  71.153  35.292  1.00  0.00    -0.550 OA
ATOM     12  O   UNL     1      44.640  71.704  36.870  1.00  0.00    -0.550 OA
ENDBRANCH   9  10
ENDBRANCH   8   9
ENDBRANCH   7   8
ENDBRANCH   6   7
ENDBRANCH   5   6
ENDBRANCH   4   5
ENDBRANCH   3   4
ENDBRANCH   1   3
BRANCH   2  13
ATOM     13  C   UNL     1      44.488  71.583  30.223  1.00  0.00     0.027 C 
BRANCH  13  14
ATOM     14  C   UNL     1      43.940  72.546  31.288  1.00  0.00     0.004 C 
BRANCH  14  15
ATOM     15  C   UNL     1      43.643  71.843  32.621  1.00  0.00     0.000 C 
BRANCH  15  16
ATOM     16  C   UNL     1      43.329  72.838  33.753  1.00  0.00     0.000 C 
BRANCH  16  17
ATOM     17  C   UNL     1      41.832  72.883  34.102  1.00  0.00    -0.000 C 
BRANCH  17  18
ATOM     18  C   UNL     1      41.274  71.503  34.491  1.00  0.00    -0.000 C 
BRANCH  18  19
ATOM     19  C   UNL     1      41.333  71.250  36.006  1.00  0.00    -0.003 C 
ATOM     20  C   UNL     1      40.691  69.923  36.409  1.00  0.00     0.004 C 
ENDBRANCH  18  19
ENDBRANCH  17  18
ENDBRANCH  16  17
ENDBRANCH  15  16
ENDBRANCH  14  15
ENDBRANCH  13  14
ENDBRANCH   2  13
TORSDOF 15
ENDMDL
