MODEL 1
REMARK VINA RESULT:    -3.664      0.000      0.000
REMARK INTER + INTRA:          -6.750
REMARK INTER:                  -5.806
REMARK INTRA:                  -0.944
REMARK UNBOUND:                -0.944
REMARK SMILES CCCCCCCCCCCC(=O)[O-]
REMARK SMILES IDX 7 1 8 2 9 3 10 4 11 5 12 6 13 7 14 8 6 9 5 10 4 11 3 12 2 13
REMARK SMILES IDX 1 14
REMARK H PARENT
REMARK Flexibility Score: inf
ROOT
ATOM      1  C   UNL     1      17.014  15.801  16.495  1.00  0.00     0.000 C 
ENDROOT
BRANCH   1   2
ATOM      2  C   UNL     1      17.548  14.906  15.366  1.00  0.00     0.000 C 
BRANCH   2   3
ATOM      3  C   UNL     1      19.032  14.537  15.544  1.00  0.00     0.000 C 
BRANCH   3   4
ATOM      4  C   UNL     1      19.298  13.343  16.478  1.00  0.00     0.006 C 
BRANCH   4   5
ATOM      5  C   UNL     1      20.243  13.687  17.636  1.00  0.00     0.053 C 
BRANCH   5   6
ATOM      6  C   UNL     1      20.878  12.446  18.179  1.00  0.00     0.041 C 
ATOM      7  O   UNL     1      21.891  12.527  18.924  1.00  0.00    -0.550 OA
ATOM      8  O   UNL     1      20.324  11.203  17.903  1.00  0.00    -0.550 OA
ENDBRANCH   5   6
ENDBRANCH   4   5
ENDBRANCH   3   4
ENDBRANCH   2   3
ENDBRANCH   1   2
BRANCH   1   9
ATOM      9  C   UNL     1      18.033  16.886  16.864  1.00  0.00     0.000 C 
BRANCH   9  10
ATOM     10  C   UNL     1      17.658  17.562  18.192  1.00  0.00    -0.000 C 
BRANCH  10  11
ATOM     11  C   UNL     1      17.532  16.562  19.352  1.00  0.00    -0.000 C 
BRANCH  11  12
ATOM     12  C   UNL     1      18.879  15.941  19.747  1.00  0.00    -0.000 C 
BRANCH  12  13
ATOM     13  C   UNL     1      18.785  15.249  21.112  1.00  0.00    -0.003 C 
ATOM     14  C   UNL     1      20.062  14.478  21.430  1.00  0.00     0.004 C 
ENDBRANCH  12  13
ENDBRANCH  11  12
ENDBRANCH  10  11
ENDBRANCH   9  10
ENDBRANCH   1   9
TORSDOF 10
ENDMDL
MODEL 2
REMARK VINA RESULT:    -3.634      2.467      4.509
REMARK INTER + INTRA:          -6.702
REMARK INTER:                  -5.478
REMARK INTRA:                  -1.224
REMARK UNBOUND:                -0.944
REMARK SMILES CCCCCCCCCCCC(=O)[O-]
REMARK SMILES IDX 7 1 8 2 9 3 10 4 11 5 12 6 13 7 14 8 6 9 5 10 4 11 3 12 2 13
REMARK SMILES IDX 1 14
REMARK H PARENT
REMARK Flexibility Score: inf
ROOT
ATOM      1  C   UNL     1      16.993  16.077  16.334  1.00  0.00     0.000 C 
ENDROOT
BRANCH   1   2
ATOM      2  C   UNL     1      17.934  17.238  16.695  1.00  0.00     0.000 C 
BRANCH   2   3
ATOM      3  C   UNL     1      17.773  17.711  18.150  1.00  0.00     0.000 C 
BRANCH   3   4
ATOM      4  C   UNL     1      17.551  16.588  19.179  1.00  0.00     0.006 C 
BRANCH   4   5
ATOM      5  C   UNL     1      17.190  17.116  20.573  1.00  0.00     0.053 C 
BRANCH   5   6
ATOM      6  C   UNL     1      17.692  16.185  21.631  1.00  0.00     0.041 C 
ATOM      7  O   UNL     1      17.211  16.229  22.794  1.00  0.00    -0.550 OA
ATOM      8  O   UNL     1      18.655  15.233  21.320  1.00  0.00    -0.550 OA
ENDBRANCH   5   6
ENDBRANCH   4   5
ENDBRANCH   3   4
ENDBRANCH   2   3
ENDBRANCH   1   2
BRANCH   1   9
ATOM      9  C   UNL     1      17.630  15.162  15.283  1.00  0.00     0.000 C 
BRANCH   9  10
ATOM     10  C   UNL     1      18.056  13.824  15.907  1.00  0.00    -0.000 C 
BRANCH  10  11
ATOM     11  C   UNL     1      19.579  13.620  15.888  1.00  0.00    -0.000 C 
BRANCH  11  12
ATOM     12  C   UNL     1      20.110  13.005  17.191  1.00  0.00    -0.000 C 
BRANCH  12  13
ATOM     13  C   UNL     1      20.089  14.031  18.331  1.00  0.00    -0.003 C 
ATOM     14  C   UNL     1      20.843  15.300  17.946  1.00  0.00     0.004 C 
ENDBRANCH  12  13
ENDBRANCH  11  12
ENDBRANCH  10  11
ENDBRANCH   9  10
ENDBRANCH   1   9
TORSDOF 10
ENDMDL
MODEL 3
REMARK VINA RESULT:    -3.625      1.135      1.632
REMARK INTER + INTRA:          -6.688
REMARK INTER:                  -5.033
REMARK INTRA:                  -1.654
REMARK UNBOUND:                -0.944
REMARK SMILES CCCCCCCCCCCC(=O)[O-]
REMARK SMILES IDX 7 1 8 2 9 3 10 4 11 5 12 6 13 7 14 8 6 9 5 10 4 11 3 12 2 13
REMARK SMILES IDX 1 14
REMARK H PARENT
REMARK Flexibility Score: inf
ROOT
ATOM      1  C   UNL     1      16.995  16.034  16.502  1.00  0.00     0.000 C 
ENDROOT
BRANCH   1   2
ATOM      2  C   UNL     1      17.688  14.794  15.917  1.00  0.00     0.000 C 
BRANCH   2   3
ATOM      3  C   UNL     1      19.159  15.049  15.542  1.00  0.00     0.000 C 
BRANCH   3   4
ATOM      4  C   UNL     1      20.113  13.871  15.810  1.00  0.00     0.006 C 
BRANCH   4   5
ATOM      5  C   UNL     1      19.479  12.772  16.673  1.00  0.00     0.053 C 
BRANCH   5   6
ATOM      6  C   UNL     1      20.493  12.194  17.609  1.00  0.00     0.041 C 
ATOM      7  O   UNL     1      20.321  11.046  18.099  1.00  0.00    -0.550 OA
ATOM      8  O   UNL     1      21.653  12.900  17.901  1.00  0.00    -0.550 OA
ENDBRANCH   5   6
ENDBRANCH   4   5
ENDBRANCH   3   4
ENDBRANCH   2   3
ENDBRANCH   1   2
BRANCH   1   9
ATOM      9  C   UNL     1      17.799  17.304  16.203  1.00  0.00     0.000 C 
BRANCH   9  10
ATOM     10  C   UNL     1      17.824  18.238  17.423  1.00  0.00    -0.000 C 
BRANCH  10  11
ATOM     11  C   UNL     1      18.566  17.627  18.622  1.00  0.00    -0.000 C 
BRANCH  11  12
ATOM     12  C   UNL     1      20.038  17.317  18.312  1.00  0.00    -0.000 C 
BRANCH  12  13
ATOM     13  C   UNL     1      20.508  16.070  19.070  1.00  0.00    -0.003 C 
ATOM     14  C   UNL     1      19.325  15.213  19.511  1.00  0.00     0.004 C 
ENDBRANCH  12  13
ENDBRANCH  11  12
ENDBRANCH  10  11
ENDBRANCH   9  10
ENDBRANCH   1   9
TORSDOF 10
ENDMDL
MODEL 4
REMARK VINA RESULT:    -3.596      2.703      4.452
REMARK INTER + INTRA:          -6.642
REMARK INTER:                  -5.368
REMARK INTRA:                  -1.274
REMARK UNBOUND:                -0.944
REMARK SMILES CCCCCCCCCCCC(=O)[O-]
REMARK SMILES IDX 7 1 8 2 9 3 10 4 11 5 12 6 13 7 14 8 6 9 5 10 4 11 3 12 2 13
REMARK SMILES IDX 1 14
REMARK H PARENT
REMARK Flexibility Score: inf
ROOT
ATOM      1  C   UNL     1      17.504  14.861  15.599  1.00  0.00     0.000 C 
ENDROOT
BRANCH   1   2
ATOM      2  C   UNL     1      16.855  15.867  16.561  1.00  0.00     0.000 C 
BRANCH   2   3
ATOM      3  C   UNL     1      17.707  17.131  16.773  1.00  0.00     0.000 C 
BRANCH   3   4
ATOM      4  C   UNL     1      18.190  17.357  18.217  1.00  0.00     0.006 C 
BRANCH   4   5
ATOM      5  C   UNL     1      17.440  16.494  19.240  1.00  0.00     0.053 C 
BRANCH   5   6
ATOM      6  C   UNL     1      17.609  17.053  20.618  1.00  0.00     0.041 C 
ATOM      7  O   UNL     1      17.661  18.299  20.794  1.00  0.00    -0.550 OA
ATOM      8  O   UNL     1      17.657  16.200  21.713  1.00  0.00    -0.550 OA
ENDBRANCH   5   6
ENDBRANCH   4   5
ENDBRANCH   3   4
ENDBRANCH   2   3
ENDBRANCH   1   2
BRANCH   1   9
ATOM      9  C   UNL     1      18.939  15.277  15.256  1.00  0.00     0.000 C 
BRANCH   9  10
ATOM     10  C   UNL     1      19.913  14.104  15.453  1.00  0.00    -0.000 C 
BRANCH  10  11
ATOM     11  C   UNL     1      19.370  13.040  16.420  1.00  0.00    -0.000 C 
BRANCH  11  12
ATOM     12  C   UNL     1      20.234  12.889  17.680  1.00  0.00    -0.000 C 
BRANCH  12  13
ATOM     13  C   UNL     1      20.523  14.256  18.313  1.00  0.00    -0.003 C 
ATOM     14  C   UNL     1      20.263  14.235  19.816  1.00  0.00     0.004 C 
ENDBRANCH  12  13
ENDBRANCH  11  12
ENDBRANCH  10  11
ENDBRANCH   9  10
ENDBRANCH   1   9
TORSDOF 10
ENDMDL
MODEL 5
REMARK VINA RESULT:    -3.590      2.813      4.357
REMARK INTER + INTRA:          -6.633
REMARK INTER:                  -5.650
REMARK INTRA:                  -0.983
REMARK UNBOUND:                -0.944
REMARK SMILES CCCCCCCCCCCC(=O)[O-]
REMARK SMILES IDX 7 1 8 2 9 3 10 4 11 5 12 6 13 7 14 8 6 9 5 10 4 11 3 12 2 13
REMARK SMILES IDX 1 14
REMARK H PARENT
REMARK Flexibility Score: inf
ROOT
ATOM      1  C   UNL     1      20.226  14.105  15.814  1.00  0.00     0.000 C 
ENDROOT
BRANCH   1   2
ATOM      2  C   UNL     1      19.046  14.867  15.189  1.00  0.00     0.000 C 
BRANCH   2   3
ATOM      3  C   UNL     1      17.702  14.558  15.873  1.00  0.00     0.000 C 
BRANCH   3   4
ATOM      4  C   UNL     1      16.864  15.793  16.249  1.00  0.00     0.006 C 
BRANCH   4   5
ATOM      5  C   UNL     1      17.527  17.114  15.839  1.00  0.00     0.053 C 
BRANCH   5   6
ATOM      6  C   UNL     1      17.917  17.901  17.050  1.00  0.00     0.041 C 
ATOM      7  O   UNL     1      18.675  18.900  16.939  1.00  0.00    -0.550 OA
ATOM      8  O   UNL     1      17.404  17.560  18.295  1.00  0.00    -0.550 OA
ENDBRANCH   5   6
ENDBRANCH   4   5
ENDBRANCH   3   4
ENDBRANCH   2   3
ENDBRANCH   1   2
BRANCH   1   9
ATOM      9  C   UNL     1      19.729  12.955  16.697  1.00  0.00     0.000 C 
BRANCH   9  10
ATOM     10  C   UNL     1      20.440  12.963  18.059  1.00  0.00    -0.000 C 
BRANCH  10  11
ATOM     11  C   UNL     1      20.750  14.384  18.558  1.00  0.00    -0.000 C 
BRANCH  11  12
ATOM     12  C   UNL     1      19.518  15.088  19.144  1.00  0.00    -0.000 C 
BRANCH  12  13
ATOM     13  C   UNL     1      19.419  14.852  20.657  1.00  0.00    -0.003 C 
ATOM     14  C   UNL     1      18.317  15.702  21.278  1.00  0.00     0.004 C 
ENDBRANCH  12  13
ENDBRANCH  11  12
ENDBRANCH  10  11
ENDBRANCH   9  10
ENDBRANCH   1   9
TORSDOF 10
ENDMDL
MODEL 6
REMARK VINA RESULT:    -3.558      2.807      4.281
REMARK INTER + INTRA:          -6.582
REMARK INTER:                  -5.592
REMARK INTRA:                  -0.991
REMARK UNBOUND:                -0.944
REMARK SMILES CCCCCCCCCCCC(=O)[O-]
REMARK SMILES IDX 7 1 8 2 9 3 10 4 11 5 12 6 13 7 14 8 6 9 5 10 4 11 3 12 2 13
REMARK SMILES IDX 1 14
REMARK H PARENT
REMARK Flexibility Score: inf
ROOT
ATOM      1  C   UNL     1      20.326  12.755  17.662  1.00  0.00     0.000 C 
ENDROOT
BRANCH   1   2
ATOM      2  C   UNL     1      19.258  12.834  16.560  1.00  0.00     0.000 C 
BRANCH   2   3
ATOM      3  C   UNL     1      19.038  14.266  16.040  1.00  0.00     0.000 C 
BRANCH   3   4
ATOM      4  C   UNL     1      17.574  14.628  15.730  1.00  0.00     0.006 C 
BRANCH   4   5
ATOM      5  C   UNL     1      17.100  15.886  16.469  1.00  0.00     0.053 C 
BRANCH   5   6
ATOM      6  C   UNL     1      17.830  17.093  15.970  1.00  0.00     0.041 C 
ATOM      7  O   UNL     1      17.780  17.404  14.750  1.00  0.00    -0.550 OA
ATOM      8  O   UNL     1      18.526  17.902  16.859  1.00  0.00    -0.550 OA
ENDBRANCH   5   6
ENDBRANCH   4   5
ENDBRANCH   3   4
ENDBRANCH   2   3
ENDBRANCH   1   2
BRANCH   1   9
ATOM      9  C   UNL     1      20.877  14.146  17.994  1.00  0.00     0.000 C 
BRANCH   9  10
ATOM     10  C   UNL     1      20.622  14.501  19.467  1.00  0.00    -0.000 C 
BRANCH  10  11
ATOM     11  C   UNL     1      19.269  15.197  19.683  1.00  0.00    -0.000 C 
BRANCH  11  12
ATOM     12  C   UNL     1      18.884  15.294  21.167  1.00  0.00    -0.000 C 
BRANCH  12  13
ATOM     13  C   UNL     1      17.707  16.256  21.366  1.00  0.00    -0.003 C 
ATOM     14  C   UNL     1      17.380  17.004  20.077  1.00  0.00     0.004 C 
ENDBRANCH  12  13
ENDBRANCH  11  12
ENDBRANCH  10  11
ENDBRANCH   9  10
ENDBRANCH   1   9
TORSDOF 10
ENDMDL
MODEL 7
REMARK VINA RESULT:    -3.522      2.752      4.981
REMARK INTER + INTRA:          -6.526
REMARK INTER:                  -4.914
REMARK INTRA:                  -1.612
REMARK UNBOUND:                -0.944
REMARK SMILES CCCCCCCCCCCC(=O)[O-]
REMARK SMILES IDX 7 1 8 2 9 3 10 4 11 5 12 6 13 7 14 8 6 9 5 10 4 11 3 12 2 13
REMARK SMILES IDX 1 14
REMARK H PARENT
REMARK Flexibility Score: inf
ROOT
ATOM      1  C   UNL     1      19.995  13.407  17.625  1.00  0.00     0.000 C 
ENDROOT
BRANCH   1   2
ATOM      2  C   UNL     1      20.846  14.687  17.592  1.00  0.00     0.000 C 
BRANCH   2   3
ATOM      3  C   UNL     1      20.429  15.713  18.660  1.00  0.00     0.000 C 
BRANCH   3   4
ATOM      4  C   UNL     1      19.237  15.290  19.538  1.00  0.00     0.006 C 
BRANCH   4   5
ATOM      5  C   UNL     1      18.116  16.336  19.569  1.00  0.00     0.053 C 
BRANCH   5   6
ATOM      6  C   UNL     1      17.616  16.525  20.967  1.00  0.00     0.041 C 
ATOM      7  O   UNL     1      18.161  15.912  21.923  1.00  0.00    -0.550 OA
ATOM      8  O   UNL     1      16.580  17.415  21.221  1.00  0.00    -0.550 OA
ENDBRANCH   5   6
ENDBRANCH   4   5
ENDBRANCH   3   4
ENDBRANCH   2   3
ENDBRANCH   1   2
BRANCH   1   9
ATOM      9  C   UNL     1      19.390  13.115  16.247  1.00  0.00     0.000 C 
BRANCH   9  10
ATOM     10  C   UNL     1      18.944  14.413  15.557  1.00  0.00    -0.000 C 
BRANCH  10  11
ATOM     11  C   UNL     1      17.491  14.790  15.886  1.00  0.00    -0.000 C 
BRANCH  11  12
ATOM     12  C   UNL     1      17.278  16.309  15.966  1.00  0.00    -0.000 C 
BRANCH  12  13
ATOM     13  C   UNL     1      18.570  17.063  15.629  1.00  0.00    -0.003 C 
ATOM     14  C   UNL     1      18.737  18.296  16.512  1.00  0.00     0.004 C 
ENDBRANCH  12  13
ENDBRANCH  11  12
ENDBRANCH  10  11
ENDBRANCH   9  10
ENDBRANCH   1   9
TORSDOF 10
ENDMDL
MODEL 8
REMARK VINA RESULT:    -3.460      1.249      3.715
REMARK INTER + INTRA:          -6.427
REMARK INTER:                  -5.057
REMARK INTRA:                  -1.369
REMARK UNBOUND:                -0.944
REMARK SMILES CCCCCCCCCCCC(=O)[O-]
REMARK SMILES IDX 7 1 8 2 9 3 10 4 11 5 12 6 13 7 14 8 6 9 5 10 4 11 3 12 2 13
REMARK SMILES IDX 1 14
REMARK H PARENT
REMARK Flexibility Score: inf
ROOT
ATOM      1  C   UNL     1      17.750  16.728  17.262  1.00  0.00     0.000 C 
ENDROOT
BRANCH   1   2
ATOM      2  C   UNL     1      17.822  16.403  18.762  1.00  0.00     0.000 C 
BRANCH   2   3
ATOM      3  C   UNL     1      19.256  16.131  19.250  1.00  0.00     0.000 C 
BRANCH   3   4
ATOM      4  C   UNL     1      19.433  14.832  20.057  1.00  0.00     0.006 C 
BRANCH   4   5
ATOM      5  C   UNL     1      20.787  14.754  20.775  1.00  0.00     0.053 C 
BRANCH   5   6
ATOM      6  C   UNL     1      21.246  13.333  20.871  1.00  0.00     0.041 C 
ATOM      7  O   UNL     1      21.931  12.825  19.945  1.00  0.00    -0.550 OA
ATOM      8  O   UNL     1      20.959  12.585  22.005  1.00  0.00    -0.550 OA
ENDBRANCH   5   6
ENDBRANCH   4   5
ENDBRANCH   3   4
ENDBRANCH   2   3
ENDBRANCH   1   2
BRANCH   1   9
ATOM      9  C   UNL     1      16.923  15.677  16.512  1.00  0.00     0.000 C 
BRANCH   9  10
ATOM     10  C   UNL     1      17.587  15.306  15.178  1.00  0.00    -0.000 C 
BRANCH  10  11
ATOM     11  C   UNL     1      18.973  14.667  15.363  1.00  0.00    -0.000 C 
BRANCH  11  12
ATOM     12  C   UNL     1      18.916  13.348  16.148  1.00  0.00    -0.000 C 
BRANCH  12  13
ATOM     13  C   UNL     1      20.228  13.102  16.903  1.00  0.00    -0.003 C 
ATOM     14  C   UNL     1      21.203  14.259  16.707  1.00  0.00     0.004 C 
ENDBRANCH  12  13
ENDBRANCH  11  12
ENDBRANCH  10  11
ENDBRANCH   9  10
ENDBRANCH   1   9
TORSDOF 10
ENDMDL
MODEL 9
REMARK VINA RESULT:    -3.429      2.530      3.758
REMARK INTER + INTRA:          -6.377
REMARK INTER:                  -4.638
REMARK INTRA:                  -1.740
REMARK UNBOUND:                -0.944
REMARK SMILES CCCCCCCCCCCC(=O)[O-]
REMARK SMILES IDX 7 1 8 2 9 3 10 4 11 5 12 6 13 7 14 8 6 9 5 10 4 11 3 12 2 13
REMARK SMILES IDX 1 14
REMARK H PARENT
REMARK Flexibility Score: inf
ROOT
ATOM      1  C   UNL     1      17.390  16.885  16.901  1.00  0.00     0.000 C 
ENDROOT
BRANCH   1   2
ATOM      2  C   UNL     1      16.748  15.643  16.263  1.00  0.00     0.000 C 
BRANCH   2   3
ATOM      3  C   UNL     1      17.399  15.252  14.924  1.00  0.00     0.000 C 
BRANCH   3   4
ATOM      4  C   UNL     1      18.608  16.111  14.513  1.00  0.00     0.006 C 
BRANCH   4   5
ATOM      5  C   UNL     1      19.829  15.273  14.110  1.00  0.00     0.053 C 
BRANCH   5   6
ATOM      6  C   UNL     1      21.090  15.932  14.572  1.00  0.00     0.041 C 
ATOM      7  O   UNL     1      21.120  17.176  14.768  1.00  0.00    -0.550 OA
ATOM      8  O   UNL     1      22.219  15.167  14.833  1.00  0.00    -0.550 OA
ENDBRANCH   5   6
ENDBRANCH   4   5
ENDBRANCH   3   4
ENDBRANCH   2   3
ENDBRANCH   1   2
BRANCH   1   9
ATOM      9  C   UNL     1      18.164  16.511  18.170  1.00  0.00     0.000 C 
BRANCH   9  10
ATOM     10  C   UNL     1      19.641  16.920  18.053  1.00  0.00    -0.000 C 
BRANCH  10  11
ATOM     11  C   UNL     1      20.598  15.723  18.160  1.00  0.00    -0.000 C 
BRANCH  11  12
ATOM     12  C   UNL     1      19.861  14.391  18.359  1.00  0.00    -0.000 C 
BRANCH  12  13
ATOM     13  C   UNL     1      20.405  13.316  17.409  1.00  0.00    -0.003 C 
ATOM     14  C   UNL     1      19.280  12.660  16.616  1.00  0.00     0.004 C 
ENDBRANCH  12  13
ENDBRANCH  11  12
ENDBRANCH  10  11
ENDBRANCH   9  10
ENDBRANCH   1   9
TORSDOF 10
ENDMDL
