MODEL 1
REMARK VINA RESULT:    -5.410      0.000      0.000
REMARK INTER + INTRA:          -5.410
REMARK INTER:                  -5.410
REMARK INTRA:                   0.000
REMARK UNBOUND:                 0.000
REMARK SMILES CC1=CC(=O)[C@H]2C[C@@H]1C2(C)C
REMARK SMILES IDX 1 1 2 2 3 3 4 4 5 5 6 6 7 7 8 8 9 9 10 10 11 11
REMARK H PARENT
REMARK Flexibility Score: inf
ROOT
ATOM      1  C   UNL     1      18.592 204.942  16.269  1.00  0.00     0.040 C 
ATOM      2  C   UNL     1      19.634 203.927  15.921  1.00  0.00    -0.066 C 
ATOM      3  C   UNL     1      20.718 204.256  15.162  1.00  0.00     0.047 C 
ATOM      4  C   UNL     1      21.675 203.144  14.856  1.00  0.00     0.159 C 
ATOM      5  O   UNL     1      22.691 203.312  14.133  1.00  0.00    -0.295 OA
ATOM      6  C   UNL     1      21.329 201.793  15.482  1.00  0.00     0.067 C 
ATOM      7  C   UNL     1      20.962 202.135  16.942  1.00  0.00     0.021 C 
ATOM      8  C   UNL     1      19.547 202.468  16.416  1.00  0.00     0.022 C 
ATOM      9  C   UNL     1      19.822 201.500  15.228  1.00  0.00    -0.019 C 
ATOM     10  C   UNL     1      19.225 201.855  13.837  1.00  0.00     0.012 C 
ATOM     11  C   UNL     1      19.442 200.036  15.561  1.00  0.00     0.012 C 
ENDROOT
TORSDOF 0
ENDMDL
MODEL 2
REMARK VINA RESULT:    -5.366      1.610      3.328
REMARK INTER + INTRA:          -5.366
REMARK INTER:                  -5.366
REMARK INTRA:                   0.000
REMARK UNBOUND:                 0.000
REMARK SMILES CC1=CC(=O)[C@H]2C[C@@H]1C2(C)C
REMARK SMILES IDX 1 1 2 2 3 3 4 4 5 5 6 6 7 7 8 8 9 9 10 10 11 11
REMARK H PARENT
REMARK Flexibility Score: inf
ROOT
ATOM      1  C   UNL     1      19.756 199.880  15.261  1.00  0.00     0.040 C 
ATOM      2  C   UNL     1      19.692 201.373  15.193  1.00  0.00    -0.066 C 
ATOM      3  C   UNL     1      19.088 202.010  14.151  1.00  0.00     0.047 C 
ATOM      4  C   UNL     1      19.117 203.508  14.182  1.00  0.00     0.159 C 
ATOM      5  O   UNL     1      18.629 204.209  13.259  1.00  0.00    -0.295 OA
ATOM      6  C   UNL     1      19.784 204.123  15.413  1.00  0.00     0.067 C 
ATOM      7  C   UNL     1      19.202 203.323  16.598  1.00  0.00     0.021 C 
ATOM      8  C   UNL     1      20.289 202.264  16.302  1.00  0.00     0.022 C 
ATOM      9  C   UNL     1      21.138 203.398  15.658  1.00  0.00    -0.019 C 
ATOM     10  C   UNL     1      22.021 203.046  14.426  1.00  0.00     0.012 C 
ATOM     11  C   UNL     1      22.022 204.134  16.694  1.00  0.00     0.012 C 
ENDROOT
TORSDOF 0
ENDMDL
MODEL 3
REMARK VINA RESULT:    -5.304      1.964      2.826
REMARK INTER + INTRA:          -5.304
REMARK INTER:                  -5.304
REMARK INTRA:                   0.000
REMARK UNBOUND:                 0.000
REMARK SMILES CC1=CC(=O)[C@H]2C[C@@H]1C2(C)C
REMARK SMILES IDX 1 1 2 2 3 3 4 4 5 5 6 6 7 7 8 8 9 9 10 10 11 11
REMARK H PARENT
REMARK Flexibility Score: inf
ROOT
ATOM      1  C   UNL     1      21.706 206.497  16.425  1.00  0.00     0.040 C 
ATOM      2  C   UNL     1      20.967 205.447  15.659  1.00  0.00    -0.066 C 
ATOM      3  C   UNL     1      20.069 205.777  14.689  1.00  0.00     0.047 C 
ATOM      4  C   UNL     1      19.370 204.635  14.015  1.00  0.00     0.159 C 
ATOM      5  O   UNL     1      18.491 204.813  13.132  1.00  0.00    -0.295 OA
ATOM      6  C   UNL     1      19.798 203.242  14.476  1.00  0.00     0.067 C 
ATOM      7  C   UNL     1      21.340 203.312  14.509  1.00  0.00     0.021 C 
ATOM      8  C   UNL     1      21.195 203.942  15.913  1.00  0.00     0.022 C 
ATOM      9  C   UNL     1      19.820 203.221  16.032  1.00  0.00    -0.019 C 
ATOM     10  C   UNL     1      18.675 203.944  16.797  1.00  0.00     0.012 C 
ATOM     11  C   UNL     1      19.954 201.787  16.600  1.00  0.00     0.012 C 
ENDROOT
TORSDOF 0
ENDMDL
MODEL 4
REMARK VINA RESULT:    -5.107      2.329      4.170
REMARK INTER + INTRA:          -5.107
REMARK INTER:                  -5.107
REMARK INTRA:                   0.000
REMARK UNBOUND:                 0.000
REMARK SMILES CC1=CC(=O)[C@H]2C[C@@H]1C2(C)C
REMARK SMILES IDX 1 1 2 2 3 3 4 4 5 5 6 6 7 7 8 8 9 9 10 10 11 11
REMARK H PARENT
REMARK Flexibility Score: inf
ROOT
ATOM      1  C   UNL     1      22.236 202.756  14.470  1.00  0.00     0.040 C 
ATOM      2  C   UNL     1      21.216 203.686  15.047  1.00  0.00    -0.066 C 
ATOM      3  C   UNL     1      20.223 203.232  15.861  1.00  0.00     0.047 C 
ATOM      4  C   UNL     1      19.246 204.258  16.350  1.00  0.00     0.159 C 
ATOM      5  O   UNL     1      18.262 203.956  17.075  1.00  0.00    -0.295 OA
ATOM      6  C   UNL     1      19.526 205.693  15.906  1.00  0.00     0.067 C 
ATOM      7  C   UNL     1      21.041 205.873  16.144  1.00  0.00     0.021 C 
ATOM      8  C   UNL     1      21.249 205.203  14.767  1.00  0.00     0.022 C 
ATOM      9  C   UNL     1      19.822 205.690  14.378  1.00  0.00    -0.019 C 
ATOM     10  C   UNL     1      18.959 204.778  13.461  1.00  0.00     0.012 C 
ATOM     11  C   UNL     1      19.829 207.117  13.777  1.00  0.00     0.012 C 
ENDROOT
TORSDOF 0
ENDMDL
MODEL 5
REMARK VINA RESULT:    -4.970      1.847      2.483
REMARK INTER + INTRA:          -4.970
REMARK INTER:                  -4.970
REMARK INTRA:                   0.000
REMARK UNBOUND:                 0.000
REMARK SMILES CC1=CC(=O)[C@H]2C[C@@H]1C2(C)C
REMARK SMILES IDX 1 1 2 2 3 3 4 4 5 5 6 6 7 7 8 8 9 9 10 10 11 11
REMARK H PARENT
REMARK Flexibility Score: inf
ROOT
ATOM      1  C   UNL     1      18.623 205.002  12.852  1.00  0.00     0.040 C 
ATOM      2  C   UNL     1      19.288 204.737  14.166  1.00  0.00    -0.066 C 
ATOM      3  C   UNL     1      20.180 205.618  14.698  1.00  0.00     0.047 C 
ATOM      4  C   UNL     1      20.801 205.225  16.004  1.00  0.00     0.159 C 
ATOM      5  O   UNL     1      21.668 205.935  16.577  1.00  0.00    -0.295 OA
ATOM      6  C   UNL     1      20.309 203.902  16.591  1.00  0.00     0.067 C 
ATOM      7  C   UNL     1      18.774 203.968  16.438  1.00  0.00     0.021 C 
ATOM      8  C   UNL     1      18.984 203.469  14.990  1.00  0.00     0.022 C 
ATOM      9  C   UNL     1      20.320 202.827  15.466  1.00  0.00    -0.019 C 
ATOM     10  C   UNL     1      21.519 202.807  14.476  1.00  0.00     0.012 C 
ATOM     11  C   UNL     1      20.122 201.394  16.019  1.00  0.00     0.012 C 
ENDROOT
TORSDOF 0
ENDMDL
MODEL 6
REMARK VINA RESULT:    -4.967      2.765      4.416
REMARK INTER + INTRA:          -4.967
REMARK INTER:                  -4.967
REMARK INTRA:                   0.000
REMARK UNBOUND:                 0.000
REMARK SMILES CC1=CC(=O)[C@H]2C[C@@H]1C2(C)C
REMARK SMILES IDX 1 1 2 2 3 3 4 4 5 5 6 6 7 7 8 8 9 9 10 10 11 11
REMARK H PARENT
REMARK Flexibility Score: inf
ROOT
ATOM      1  C   UNL     1      18.933 203.221  14.332  1.00  0.00     0.040 C 
ATOM      2  C   UNL     1      19.609 204.407  14.942  1.00  0.00    -0.066 C 
ATOM      3  C   UNL     1      18.929 205.278  15.739  1.00  0.00     0.047 C 
ATOM      4  C   UNL     1      19.710 206.444  16.265  1.00  0.00     0.159 C 
ATOM      5  O   UNL     1      19.185 207.339  16.977  1.00  0.00    -0.295 OA
ATOM      6  C   UNL     1      21.187 206.472  15.873  1.00  0.00     0.067 C 
ATOM      7  C   UNL     1      21.670 205.026  16.119  1.00  0.00     0.021 C 
ATOM      8  C   UNL     1      21.108 204.693  14.718  1.00  0.00     0.022 C 
ATOM      9  C   UNL     1      21.301 206.193  14.346  1.00  0.00    -0.019 C 
ATOM     10  C   UNL     1      20.262 206.854  13.396  1.00  0.00     0.012 C 
ATOM     11  C   UNL     1      22.719 206.487  13.797  1.00  0.00     0.012 C 
ENDROOT
TORSDOF 0
ENDMDL
MODEL 7
REMARK VINA RESULT:    -4.863      1.905      3.034
REMARK INTER + INTRA:          -4.863
REMARK INTER:                  -4.863
REMARK INTRA:                   0.000
REMARK UNBOUND:                 0.000
REMARK SMILES CC1=CC(=O)[C@H]2C[C@@H]1C2(C)C
REMARK SMILES IDX 1 1 2 2 3 3 4 4 5 5 6 6 7 7 8 8 9 9 10 10 11 11
REMARK H PARENT
REMARK Flexibility Score: inf
ROOT
ATOM      1  C   UNL     1      22.376 204.818  14.326  1.00  0.00     0.040 C 
ATOM      2  C   UNL     1      21.102 204.205  14.815  1.00  0.00    -0.066 C 
ATOM      3  C   UNL     1      20.212 204.919  15.560  1.00  0.00     0.047 C 
ATOM      4  C   UNL     1      18.988 204.183  16.015  1.00  0.00     0.159 C 
ATOM      5  O   UNL     1      18.112 204.721  16.741  1.00  0.00    -0.295 OA
ATOM      6  C   UNL     1      18.881 202.734  15.539  1.00  0.00     0.067 C 
ATOM      7  C   UNL     1      19.246 202.801  14.041  1.00  0.00     0.021 C 
ATOM      8  C   UNL     1      20.724 202.745  14.488  1.00  0.00     0.022 C 
ATOM      9  C   UNL     1      20.246 202.029  15.785  1.00  0.00    -0.019 C 
ATOM     10  C   UNL     1      21.003 202.327  17.111  1.00  0.00     0.012 C 
ATOM     11  C   UNL     1      20.155 200.493  15.612  1.00  0.00     0.012 C 
ENDROOT
TORSDOF 0
ENDMDL
MODEL 8
REMARK VINA RESULT:    -4.768      3.254      4.920
REMARK INTER + INTRA:          -4.768
REMARK INTER:                  -4.768
REMARK INTRA:                   0.000
REMARK UNBOUND:                 0.000
REMARK SMILES CC1=CC(=O)[C@H]2C[C@@H]1C2(C)C
REMARK SMILES IDX 1 1 2 2 3 3 4 4 5 5 6 6 7 7 8 8 9 9 10 10 11 11
REMARK H PARENT
REMARK Flexibility Score: inf
ROOT
ATOM      1  C   UNL     1      23.549 206.881  13.383  1.00  0.00     0.040 C 
ATOM      2  C   UNL     1      22.344 206.914  14.268  1.00  0.00    -0.066 C 
ATOM      3  C   UNL     1      22.426 207.335  15.561  1.00  0.00     0.047 C 
ATOM      4  C   UNL     1      21.155 207.292  16.355  1.00  0.00     0.159 C 
ATOM      5  O   UNL     1      21.110 207.617  17.570  1.00  0.00    -0.295 OA
ATOM      6  C   UNL     1      19.919 206.824  15.586  1.00  0.00     0.067 C 
ATOM      7  C   UNL     1      19.989 207.598  14.252  1.00  0.00     0.021 C 
ATOM      8  C   UNL     1      20.949 206.492  13.760  1.00  0.00     0.022 C 
ATOM      9  C   UNL     1      20.287 205.536  14.794  1.00  0.00    -0.019 C 
ATOM     10  C   UNL     1      21.183 204.472  15.490  1.00  0.00     0.012 C 
ATOM     11  C   UNL     1      19.039 204.820  14.221  1.00  0.00     0.012 C 
ENDROOT
TORSDOF 0
ENDMDL
MODEL 9
REMARK VINA RESULT:    -4.750      2.712      4.466
REMARK INTER + INTRA:          -4.750
REMARK INTER:                  -4.750
REMARK INTRA:                   0.000
REMARK UNBOUND:                 0.000
REMARK SMILES CC1=CC(=O)[C@H]2C[C@@H]1C2(C)C
REMARK SMILES IDX 1 1 2 2 3 3 4 4 5 5 6 6 7 7 8 8 9 9 10 10 11 11
REMARK H PARENT
REMARK Flexibility Score: inf
ROOT
ATOM      1  C   UNL     1      19.241 206.976  12.529  1.00  0.00     0.040 C 
ATOM      2  C   UNL     1      19.776 206.153  13.657  1.00  0.00    -0.066 C 
ATOM      3  C   UNL     1      19.125 205.038  14.092  1.00  0.00     0.047 C 
ATOM      4  C   UNL     1      19.746 204.317  15.250  1.00  0.00     0.159 C 
ATOM      5  O   UNL     1      19.220 203.298  15.768  1.00  0.00    -0.295 OA
ATOM      6  C   UNL     1      21.062 204.907  15.759  1.00  0.00     0.067 C 
ATOM      7  C   UNL     1      21.874 205.181  14.475  1.00  0.00     0.021 C 
ATOM      8  C   UNL     1      21.096 206.512  14.371  1.00  0.00     0.022 C 
ATOM      9  C   UNL     1      20.888 206.446  15.912  1.00  0.00    -0.019 C 
ATOM     10  C   UNL     1      19.551 206.984  16.497  1.00  0.00     0.012 C 
ATOM     11  C   UNL     1      22.057 207.095  16.694  1.00  0.00     0.012 C 
ENDROOT
TORSDOF 0
ENDMDL
