MODEL 1
REMARK VINA RESULT:    -6.118      0.000      0.000
REMARK INTER + INTRA:         -14.302
REMARK INTER:                 -11.840
REMARK INTRA:                  -2.463
REMARK UNBOUND:                -2.463
REMARK SMILES CCCCCCCCCCCCCCCCCC(=O)[O-]
REMARK SMILES IDX 10 1 11 2 12 3 13 4 14 5 15 6 16 7 17 8 18 9 19 10 20 11
REMARK SMILES IDX 9 12 8 13 7 14 6 15 5 16 4 17 3 18 2 19 1 20
REMARK H PARENT
REMARK Flexibility Score: inf
ROOT
ATOM      1  C   UNL     1      16.726  -1.676  16.357  1.00  0.00     0.000 C 
ENDROOT
BRANCH   1   2
ATOM      2  C   UNL     1      17.455  -0.645  15.477  1.00  0.00     0.000 C 
BRANCH   2   3
ATOM      3  C   UNL     1      16.902   0.780  15.653  1.00  0.00     0.000 C 
BRANCH   3   4
ATOM      4  C   UNL     1      15.368   0.812  15.757  1.00  0.00     0.000 C 
BRANCH   4   5
ATOM      5  C   UNL     1      14.705   1.381  14.491  1.00  0.00     0.000 C 
BRANCH   5   6
ATOM      6  C   UNL     1      15.194   2.799  14.155  1.00  0.00     0.000 C 
BRANCH   6   7
ATOM      7  C   UNL     1      15.423   3.009  12.648  1.00  0.00     0.006 C 
BRANCH   7   8
ATOM      8  C   UNL     1      15.610   1.681  11.901  1.00  0.00     0.053 C 
BRANCH   8   9
ATOM      9  C   UNL     1      17.048   1.436  11.555  1.00  0.00     0.041 C 
ATOM     10  O   UNL     1      17.652   2.217  10.773  1.00  0.00    -0.550 OA
ATOM     11  O   UNL     1      17.728   0.364  12.118  1.00  0.00    -0.550 OA
ENDBRANCH   8   9
ENDBRANCH   7   8
ENDBRANCH   6   7
ENDBRANCH   5   6
ENDBRANCH   4   5
ENDBRANCH   3   4
ENDBRANCH   2   3
ENDBRANCH   1   2
BRANCH   1  12
ATOM     12  C   UNL     1      17.562  -2.237  17.526  1.00  0.00     0.000 C 
BRANCH  12  13
ATOM     13  C   UNL     1      17.127  -1.765  18.928  1.00  0.00    -0.000 C 
BRANCH  13  14
ATOM     14  C   UNL     1      17.401  -0.279  19.224  1.00  0.00    -0.000 C 
BRANCH  14  15
ATOM     15  C   UNL     1      16.224   0.412  19.933  1.00  0.00    -0.000 C 
BRANCH  15  16
ATOM     16  C   UNL     1      14.881  -0.284  19.665  1.00  0.00    -0.000 C 
BRANCH  16  17
ATOM     17  C   UNL     1      13.869   0.634  18.956  1.00  0.00    -0.000 C 
BRANCH  17  18
ATOM     18  C   UNL     1      14.220   2.127  19.127  1.00  0.00    -0.000 C 
BRANCH  18  19
ATOM     19  C   UNL     1      13.469   3.048  18.151  1.00  0.00    -0.003 C 
ATOM     20  C   UNL     1      14.357   4.137  17.553  1.00  0.00     0.004 C 
ENDBRANCH  18  19
ENDBRANCH  17  18
ENDBRANCH  16  17
ENDBRANCH  15  16
ENDBRANCH  14  15
ENDBRANCH  13  14
ENDBRANCH  12  13
ENDBRANCH   1  12
TORSDOF 16
ENDMDL
MODEL 2
REMARK VINA RESULT:    -6.063      2.168      4.790
REMARK INTER + INTRA:         -14.197
REMARK INTER:                 -12.209
REMARK INTRA:                  -1.988
REMARK UNBOUND:                -2.463
REMARK SMILES CCCCCCCCCCCCCCCCCC(=O)[O-]
REMARK SMILES IDX 10 1 11 2 12 3 13 4 14 5 15 6 16 7 17 8 18 9 19 10 20 11
REMARK SMILES IDX 9 12 8 13 7 14 6 15 5 16 4 17 3 18 2 19 1 20
REMARK H PARENT
REMARK Flexibility Score: inf
ROOT
ATOM      1  C   UNL     1      15.531   2.294  14.655  1.00  0.00     0.000 C 
ENDROOT
BRANCH   1   2
ATOM      2  C   UNL     1      15.387   2.828  13.219  1.00  0.00     0.000 C 
BRANCH   2   3
ATOM      3  C   UNL     1      15.544   1.724  12.158  1.00  0.00     0.000 C 
BRANCH   3   4
ATOM      4  C   UNL     1      16.784   1.927  11.271  1.00  0.00     0.000 C 
BRANCH   4   5
ATOM      5  C   UNL     1      17.821   0.805  11.446  1.00  0.00     0.000 C 
BRANCH   5   6
ATOM      6  C   UNL     1      17.441  -0.182  12.561  1.00  0.00     0.000 C 
BRANCH   6   7
ATOM      7  C   UNL     1      18.535  -0.318  13.634  1.00  0.00     0.006 C 
BRANCH   7   8
ATOM      8  C   UNL     1      17.949  -0.544  15.034  1.00  0.00     0.053 C 
BRANCH   8   9
ATOM      9  C   UNL     1      18.785  -1.491  15.841  1.00  0.00     0.041 C 
ATOM     10  O   UNL     1      20.041  -1.398  15.824  1.00  0.00    -0.550 OA
ATOM     11  O   UNL     1      18.177  -2.455  16.634  1.00  0.00    -0.550 OA
ENDBRANCH   8   9
ENDBRANCH   7   8
ENDBRANCH   6   7
ENDBRANCH   5   6
ENDBRANCH   4   5
ENDBRANCH   3   4
ENDBRANCH   2   3
ENDBRANCH   1   2
BRANCH   1  12
ATOM     12  C   UNL     1      14.209   1.862  15.322  1.00  0.00     0.000 C 
BRANCH  12  13
ATOM     13  C   UNL     1      13.176   2.990  15.522  1.00  0.00    -0.000 C 
BRANCH  13  14
ATOM     14  C   UNL     1      12.911   3.372  16.989  1.00  0.00    -0.000 C 
BRANCH  14  15
ATOM     15  C   UNL     1      14.205   3.639  17.777  1.00  0.00    -0.000 C 
BRANCH  15  16
ATOM     16  C   UNL     1      14.314   2.779  19.045  1.00  0.00    -0.000 C 
BRANCH  16  17
ATOM     17  C   UNL     1      13.922   1.310  18.799  1.00  0.00    -0.000 C 
BRANCH  17  18
ATOM     18  C   UNL     1      15.070   0.338  19.144  1.00  0.00    -0.000 C 
BRANCH  18  19
ATOM     19  C   UNL     1      16.413   0.722  18.500  1.00  0.00    -0.003 C 
ATOM     20  C   UNL     1      17.617   0.147  19.240  1.00  0.00     0.004 C 
ENDBRANCH  18  19
ENDBRANCH  17  18
ENDBRANCH  16  17
ENDBRANCH  15  16
ENDBRANCH  14  15
ENDBRANCH  13  14
ENDBRANCH  12  13
ENDBRANCH   1  12
TORSDOF 16
ENDMDL
MODEL 3
REMARK VINA RESULT:    -5.949      2.638      5.743
REMARK INTER + INTRA:         -13.976
REMARK INTER:                 -11.684
REMARK INTRA:                  -2.292
REMARK UNBOUND:                -2.463
REMARK SMILES CCCCCCCCCCCCCCCCCC(=O)[O-]
REMARK SMILES IDX 10 1 11 2 12 3 13 4 14 5 15 6 16 7 17 8 18 9 19 10 20 11
REMARK SMILES IDX 9 12 8 13 7 14 6 15 5 16 4 17 3 18 2 19 1 20
REMARK H PARENT
REMARK Flexibility Score: inf
ROOT
ATOM      1  C   UNL     1      17.713  -0.415  12.798  1.00  0.00     0.000 C 
ENDROOT
BRANCH   1   2
ATOM      2  C   UNL     1      18.480  -0.399  14.132  1.00  0.00     0.000 C 
BRANCH   2   3
ATOM      3  C   UNL     1      17.586  -0.021  15.325  1.00  0.00     0.000 C 
BRANCH   3   4
ATOM      4  C   UNL     1      18.377   0.121  16.636  1.00  0.00     0.000 C 
BRANCH   4   5
ATOM      5  C   UNL     1      17.626   0.952  17.690  1.00  0.00     0.000 C 
BRANCH   5   6
ATOM      6  C   UNL     1      17.687   0.323  19.091  1.00  0.00     0.000 C 
BRANCH   6   7
ATOM      7  C   UNL     1      16.300  -0.073  19.627  1.00  0.00     0.006 C 
BRANCH   7   8
ATOM      8  C   UNL     1      15.216   0.010  18.544  1.00  0.00     0.053 C 
BRANCH   8   9
ATOM      9  C   UNL     1      14.728  -1.348  18.140  1.00  0.00     0.041 C 
ATOM     10  O   UNL     1      13.595  -1.750  18.514  1.00  0.00    -0.550 OA
ATOM     11  O   UNL     1      15.512  -2.157  17.327  1.00  0.00    -0.550 OA
ENDBRANCH   8   9
ENDBRANCH   7   8
ENDBRANCH   6   7
ENDBRANCH   5   6
ENDBRANCH   4   5
ENDBRANCH   3   4
ENDBRANCH   2   3
ENDBRANCH   1   2
BRANCH   1  12
ATOM     12  C   UNL     1      17.648   0.944  12.070  1.00  0.00     0.000 C 
BRANCH  12  13
ATOM     13  C   UNL     1      16.283   1.285  11.439  1.00  0.00    -0.000 C 
BRANCH  13  14
ATOM     14  C   UNL     1      15.642   2.588  11.949  1.00  0.00    -0.000 C 
BRANCH  14  15
ATOM     15  C   UNL     1      15.555   2.647  13.483  1.00  0.00    -0.000 C 
BRANCH  15  16
ATOM     16  C   UNL     1      14.515   1.671  14.054  1.00  0.00    -0.000 C 
BRANCH  16  17
ATOM     17  C   UNL     1      14.085   2.034  15.486  1.00  0.00    -0.000 C 
BRANCH  17  18
ATOM     18  C   UNL     1      15.069   3.015  16.157  1.00  0.00    -0.000 C 
BRANCH  18  19
ATOM     19  C   UNL     1      14.555   3.584  17.490  1.00  0.00    -0.003 C 
ATOM     20  C   UNL     1      13.036   3.507  17.627  1.00  0.00     0.004 C 
ENDBRANCH  18  19
ENDBRANCH  17  18
ENDBRANCH  16  17
ENDBRANCH  15  16
ENDBRANCH  14  15
ENDBRANCH  13  14
ENDBRANCH  12  13
ENDBRANCH   1  12
TORSDOF 16
ENDMDL
MODEL 4
REMARK VINA RESULT:    -5.928      1.843      5.887
REMARK INTER + INTRA:         -13.935
REMARK INTER:                 -12.112
REMARK INTRA:                  -1.823
REMARK UNBOUND:                -2.463
REMARK SMILES CCCCCCCCCCCCCCCCCC(=O)[O-]
REMARK SMILES IDX 10 1 11 2 12 3 13 4 14 5 15 6 16 7 17 8 18 9 19 10 20 11
REMARK SMILES IDX 9 12 8 13 7 14 6 15 5 16 4 17 3 18 2 19 1 20
REMARK H PARENT
REMARK Flexibility Score: inf
ROOT
ATOM      1  C   UNL     1      14.050   1.219  18.567  1.00  0.00     0.000 C 
ENDROOT
BRANCH   1   2
ATOM      2  C   UNL     1      14.290   0.604  19.957  1.00  0.00     0.000 C 
BRANCH   2   3
ATOM      3  C   UNL     1      15.785   0.441  20.284  1.00  0.00     0.000 C 
BRANCH   3   4
ATOM      4  C   UNL     1      16.619   0.044  19.054  1.00  0.00     0.000 C 
BRANCH   4   5
ATOM      5  C   UNL     1      16.641  -1.477  18.825  1.00  0.00     0.000 C 
BRANCH   5   6
ATOM      6  C   UNL     1      16.665  -1.849  17.334  1.00  0.00     0.000 C 
BRANCH   6   7
ATOM      7  C   UNL     1      16.457  -0.633  16.415  1.00  0.00     0.006 C 
BRANCH   7   8
ATOM      8  C   UNL     1      17.491  -0.580  15.281  1.00  0.00     0.053 C 
BRANCH   8   9
ATOM      9  C   UNL     1      18.833  -0.131  15.775  1.00  0.00     0.041 C 
ATOM     10  O   UNL     1      18.917   0.782  16.638  1.00  0.00    -0.550 OA
ATOM     11  O   UNL     1      19.988  -0.742  15.304  1.00  0.00    -0.550 OA
ENDBRANCH   8   9
ENDBRANCH   7   8
ENDBRANCH   6   7
ENDBRANCH   5   6
ENDBRANCH   4   5
ENDBRANCH   3   4
ENDBRANCH   2   3
ENDBRANCH   1   2
BRANCH   1  12
ATOM     12  C   UNL     1      13.870   2.750  18.558  1.00  0.00     0.000 C 
BRANCH  12  13
ATOM     13  C   UNL     1      13.389   3.346  17.219  1.00  0.00    -0.000 C 
BRANCH  13  14
ATOM     14  C   UNL     1      13.485   2.391  16.015  1.00  0.00    -0.000 C 
BRANCH  14  15
ATOM     15  C   UNL     1      14.802   2.548  15.236  1.00  0.00    -0.000 C 
BRANCH  15  16
ATOM     16  C   UNL     1      14.744   1.903  13.843  1.00  0.00    -0.000 C 
BRANCH  16  17
ATOM     17  C   UNL     1      15.586   2.664  12.803  1.00  0.00    -0.000 C 
BRANCH  17  18
ATOM     18  C   UNL     1      15.749   1.867  11.492  1.00  0.00    -0.000 C 
BRANCH  18  19
ATOM     19  C   UNL     1      17.202   1.803  10.992  1.00  0.00    -0.003 C 
ATOM     20  C   UNL     1      18.039   0.752  11.718  1.00  0.00     0.004 C 
ENDBRANCH  18  19
ENDBRANCH  17  18
ENDBRANCH  16  17
ENDBRANCH  15  16
ENDBRANCH  14  15
ENDBRANCH  13  14
ENDBRANCH  12  13
ENDBRANCH   1  12
TORSDOF 16
ENDMDL
MODEL 5
REMARK VINA RESULT:    -5.912      1.060      3.596
REMARK INTER + INTRA:         -13.905
REMARK INTER:                 -11.914
REMARK INTRA:                  -1.990
REMARK UNBOUND:                -2.463
REMARK SMILES CCCCCCCCCCCCCCCCCC(=O)[O-]
REMARK SMILES IDX 10 1 11 2 12 3 13 4 14 5 15 6 16 7 17 8 18 9 19 10 20 11
REMARK SMILES IDX 9 12 8 13 7 14 6 15 5 16 4 17 3 18 2 19 1 20
REMARK H PARENT
REMARK Flexibility Score: inf
ROOT
ATOM      1  C   UNL     1      14.697   2.247  18.854  1.00  0.00     0.000 C 
ENDROOT
BRANCH   1   2
ATOM      2  C   UNL     1      13.665   3.356  18.584  1.00  0.00     0.000 C 
BRANCH   2   3
ATOM      3  C   UNL     1      13.228   3.412  17.109  1.00  0.00     0.000 C 
BRANCH   3   4
ATOM      4  C   UNL     1      13.834   2.276  16.268  1.00  0.00     0.000 C 
BRANCH   4   5
ATOM      5  C   UNL     1      13.631   2.489  14.759  1.00  0.00     0.000 C 
BRANCH   5   6
ATOM      6  C   UNL     1      14.960   2.574  13.991  1.00  0.00     0.000 C 
BRANCH   6   7
ATOM      7  C   UNL     1      15.103   1.473  12.925  1.00  0.00     0.006 C 
BRANCH   7   8
ATOM      8  C   UNL     1      15.839   1.970  11.674  1.00  0.00     0.053 C 
BRANCH   8   9
ATOM      9  C   UNL     1      17.040   1.128  11.365  1.00  0.00     0.041 C 
ATOM     10  O   UNL     1      17.719   1.351  10.327  1.00  0.00    -0.550 OA
ATOM     11  O   UNL     1      17.426   0.118  12.236  1.00  0.00    -0.550 OA
ENDBRANCH   8   9
ENDBRANCH   7   8
ENDBRANCH   6   7
ENDBRANCH   5   6
ENDBRANCH   4   5
ENDBRANCH   3   4
ENDBRANCH   2   3
ENDBRANCH   1   2
BRANCH   1  12
ATOM     12  C   UNL     1      14.763   1.764  20.317  1.00  0.00     0.000 C 
BRANCH  12  13
ATOM     13  C   UNL     1      15.412   0.381  20.522  1.00  0.00    -0.000 C 
BRANCH  13  14
ATOM     14  C   UNL     1      16.594   0.075  19.585  1.00  0.00    -0.000 C 
BRANCH  14  15
ATOM     15  C   UNL     1      16.675  -1.411  19.196  1.00  0.00    -0.000 C 
BRANCH  15  16
ATOM     16  C   UNL     1      15.711  -1.777  18.057  1.00  0.00    -0.000 C 
BRANCH  16  17
ATOM     17  C   UNL     1      16.412  -1.848  16.688  1.00  0.00    -0.000 C 
BRANCH  17  18
ATOM     18  C   UNL     1      16.156  -0.587  15.838  1.00  0.00    -0.000 C 
BRANCH  18  19
ATOM     19  C   UNL     1      17.339   0.397  15.830  1.00  0.00    -0.003 C 
ATOM     20  C   UNL     1      18.665  -0.259  16.208  1.00  0.00     0.004 C 
ENDBRANCH  18  19
ENDBRANCH  17  18
ENDBRANCH  16  17
ENDBRANCH  15  16
ENDBRANCH  14  15
ENDBRANCH  13  14
ENDBRANCH  12  13
ENDBRANCH   1  12
TORSDOF 16
ENDMDL
MODEL 6
REMARK VINA RESULT:    -5.907      2.702      6.865
REMARK INTER + INTRA:         -13.896
REMARK INTER:                 -12.060
REMARK INTRA:                  -1.836
REMARK UNBOUND:                -2.463
REMARK SMILES CCCCCCCCCCCCCCCCCC(=O)[O-]
REMARK SMILES IDX 10 1 11 2 12 3 13 4 14 5 15 6 16 7 17 8 18 9 19 10 20 11
REMARK SMILES IDX 9 12 8 13 7 14 6 15 5 16 4 17 3 18 2 19 1 20
REMARK H PARENT
REMARK Flexibility Score: inf
ROOT
ATOM      1  C   UNL     1      14.634   2.594  14.987  1.00  0.00     0.000 C 
ENDROOT
BRANCH   1   2
ATOM      2  C   UNL     1      13.209   2.844  15.513  1.00  0.00     0.000 C 
BRANCH   2   3
ATOM      3  C   UNL     1      13.196   3.382  16.955  1.00  0.00     0.000 C 
BRANCH   3   4
ATOM      4  C   UNL     1      14.533   3.160  17.681  1.00  0.00     0.000 C 
BRANCH   4   5
ATOM      5  C   UNL     1      14.419   2.139  18.826  1.00  0.00     0.000 C 
BRANCH   5   6
ATOM      6  C   UNL     1      13.719   0.842  18.391  1.00  0.00     0.000 C 
BRANCH   6   7
ATOM      7  C   UNL     1      14.302  -0.407  19.076  1.00  0.00     0.006 C 
BRANCH   7   8
ATOM      8  C   UNL     1      15.514  -0.071  19.956  1.00  0.00     0.053 C 
BRANCH   8   9
ATOM      9  C   UNL     1      16.785  -0.622  19.385  1.00  0.00     0.041 C 
ATOM     10  O   UNL     1      16.879  -1.849  19.115  1.00  0.00    -0.550 OA
ATOM     11  O   UNL     1      17.856   0.224  19.123  1.00  0.00    -0.550 OA
ENDBRANCH   8   9
ENDBRANCH   7   8
ENDBRANCH   6   7
ENDBRANCH   5   6
ENDBRANCH   4   5
ENDBRANCH   3   4
ENDBRANCH   2   3
ENDBRANCH   1   2
BRANCH   1  12
ATOM     12  C   UNL     1      14.706   1.821  13.654  1.00  0.00     0.000 C 
BRANCH  12  13
ATOM     13  C   UNL     1      15.773   2.324  12.661  1.00  0.00    -0.000 C 
BRANCH  13  14
ATOM     14  C   UNL     1      15.789   1.597  11.305  1.00  0.00    -0.000 C 
BRANCH  14  15
ATOM     15  C   UNL     1      17.206   1.203  10.858  1.00  0.00    -0.000 C 
BRANCH  15  16
ATOM     16  C   UNL     1      18.130   0.877  12.041  1.00  0.00    -0.000 C 
BRANCH  16  17
ATOM     17  C   UNL     1      17.669  -0.365  12.826  1.00  0.00    -0.000 C 
BRANCH  17  18
ATOM     18  C   UNL     1      18.406  -0.505  14.175  1.00  0.00    -0.000 C 
BRANCH  18  19
ATOM     19  C   UNL     1      17.588   0.002  15.375  1.00  0.00    -0.003 C 
ATOM     20  C   UNL     1      16.354  -0.850  15.661  1.00  0.00     0.004 C 
ENDBRANCH  18  19
ENDBRANCH  17  18
ENDBRANCH  16  17
ENDBRANCH  15  16
ENDBRANCH  14  15
ENDBRANCH  13  14
ENDBRANCH  12  13
ENDBRANCH   1  12
TORSDOF 16
ENDMDL
MODEL 7
REMARK VINA RESULT:    -5.897      2.074      6.704
REMARK INTER + INTRA:         -13.876
REMARK INTER:                 -12.066
REMARK INTRA:                  -1.810
REMARK UNBOUND:                -2.463
REMARK SMILES CCCCCCCCCCCCCCCCCC(=O)[O-]
REMARK SMILES IDX 10 1 11 2 12 3 13 4 14 5 15 6 16 7 17 8 18 9 19 10 20 11
REMARK SMILES IDX 9 12 8 13 7 14 6 15 5 16 4 17 3 18 2 19 1 20
REMARK H PARENT
REMARK Flexibility Score: inf
ROOT
ATOM      1  C   UNL     1      14.331   3.171  16.788  1.00  0.00     0.000 C 
ENDROOT
BRANCH   1   2
ATOM      2  C   UNL     1      13.742   3.262  18.207  1.00  0.00     0.000 C 
BRANCH   2   3
ATOM      3  C   UNL     1      14.368   2.243  19.175  1.00  0.00     0.000 C 
BRANCH   3   4
ATOM      4  C   UNL     1      13.696   0.862  19.096  1.00  0.00     0.000 C 
BRANCH   4   5
ATOM      5  C   UNL     1      14.476  -0.216  19.869  1.00  0.00     0.000 C 
BRANCH   5   6
ATOM      6  C   UNL     1      15.992   0.039  19.870  1.00  0.00     0.000 C 
BRANCH   6   7
ATOM      7  C   UNL     1      16.793  -1.137  19.286  1.00  0.00     0.006 C 
BRANCH   7   8
ATOM      8  C   UNL     1      17.722  -0.695  18.146  1.00  0.00     0.053 C 
BRANCH   8   9
ATOM      9  C   UNL     1      17.023   0.214  17.181  1.00  0.00     0.041 C 
ATOM     10  O   UNL     1      16.061  -0.214  16.491  1.00  0.00    -0.550 OA
ATOM     11  O   UNL     1      17.416   1.541  17.065  1.00  0.00    -0.550 OA
ENDBRANCH   8   9
ENDBRANCH   7   8
ENDBRANCH   6   7
ENDBRANCH   5   6
ENDBRANCH   4   5
ENDBRANCH   3   4
ENDBRANCH   2   3
ENDBRANCH   1   2
BRANCH   1  12
ATOM     12  C   UNL     1      13.370   2.609  15.721  1.00  0.00     0.000 C 
BRANCH  12  13
ATOM     13  C   UNL     1      14.053   1.951  14.505  1.00  0.00    -0.000 C 
BRANCH  13  14
ATOM     14  C   UNL     1      15.425   2.544  14.135  1.00  0.00    -0.000 C 
BRANCH  14  15
ATOM     15  C   UNL     1      15.497   3.004  12.669  1.00  0.00    -0.000 C 
BRANCH  15  16
ATOM     16  C   UNL     1      15.745   1.841  11.696  1.00  0.00    -0.000 C 
BRANCH  16  17
ATOM     17  C   UNL     1      17.121   1.925  11.012  1.00  0.00    -0.000 C 
BRANCH  17  18
ATOM     18  C   UNL     1      18.116   0.890  11.577  1.00  0.00    -0.000 C 
BRANCH  18  19
ATOM     19  C   UNL     1      17.475  -0.101  12.563  1.00  0.00    -0.003 C 
ATOM     20  C   UNL     1      18.417  -0.519  13.689  1.00  0.00     0.004 C 
ENDBRANCH  18  19
ENDBRANCH  17  18
ENDBRANCH  16  17
ENDBRANCH  15  16
ENDBRANCH  14  15
ENDBRANCH  13  14
ENDBRANCH  12  13
ENDBRANCH   1  12
TORSDOF 16
ENDMDL
MODEL 8
REMARK VINA RESULT:    -5.881      1.827      4.314
REMARK INTER + INTRA:         -13.844
REMARK INTER:                 -11.610
REMARK INTRA:                  -2.234
REMARK UNBOUND:                -2.463
REMARK SMILES CCCCCCCCCCCCCCCCCC(=O)[O-]
REMARK SMILES IDX 10 1 11 2 12 3 13 4 14 5 15 6 16 7 17 8 18 9 19 10 20 11
REMARK SMILES IDX 9 12 8 13 7 14 6 15 5 16 4 17 3 18 2 19 1 20
REMARK H PARENT
REMARK Flexibility Score: inf
ROOT
ATOM      1  C   UNL     1      15.578   2.645  15.757  1.00  0.00     0.000 C 
ENDROOT
BRANCH   1   2
ATOM      2  C   UNL     1      14.758   2.096  14.576  1.00  0.00     0.000 C 
BRANCH   2   3
ATOM      3  C   UNL     1      15.233   2.644  13.219  1.00  0.00     0.000 C 
BRANCH   3   4
ATOM      4  C   UNL     1      15.519   1.529  12.198  1.00  0.00     0.000 C 
BRANCH   4   5
ATOM      5  C   UNL     1      16.866   1.720  11.481  1.00  0.00     0.000 C 
BRANCH   5   6
ATOM      6  C   UNL     1      17.950   0.759  11.995  1.00  0.00     0.000 C 
BRANCH   6   7
ATOM      7  C   UNL     1      17.394  -0.305  12.957  1.00  0.00     0.006 C 
BRANCH   7   8
ATOM      8  C   UNL     1      17.865  -0.083  14.401  1.00  0.00     0.053 C 
BRANCH   8   9
ATOM      9  C   UNL     1      19.197  -0.719  14.655  1.00  0.00     0.041 C 
ATOM     10  O   UNL     1      19.473  -1.837  14.145  1.00  0.00    -0.550 OA
ATOM     11  O   UNL     1      20.146  -0.064  15.429  1.00  0.00    -0.550 OA
ENDBRANCH   8   9
ENDBRANCH   7   8
ENDBRANCH   6   7
ENDBRANCH   5   6
ENDBRANCH   4   5
ENDBRANCH   3   4
ENDBRANCH   2   3
ENDBRANCH   1   2
BRANCH   1  12
ATOM     12  C   UNL     1      14.824   2.697  17.101  1.00  0.00     0.000 C 
BRANCH  12  13
ATOM     13  C   UNL     1      13.799   1.566  17.322  1.00  0.00    -0.000 C 
BRANCH  13  14
ATOM     14  C   UNL     1      13.966   0.791  18.642  1.00  0.00    -0.000 C 
BRANCH  14  15
ATOM     15  C   UNL     1      15.062   1.383  19.544  1.00  0.00    -0.000 C 
BRANCH  15  16
ATOM     16  C   UNL     1      16.133   0.350  19.927  1.00  0.00    -0.000 C 
BRANCH  16  17
ATOM     17  C   UNL     1      17.398   0.459  19.057  1.00  0.00    -0.000 C 
BRANCH  17  18
ATOM     18  C   UNL     1      17.747  -0.877  18.368  1.00  0.00    -0.000 C 
BRANCH  18  19
ATOM     19  C   UNL     1      16.587  -1.886  18.367  1.00  0.00    -0.003 C 
ATOM     20  C   UNL     1      15.937  -2.050  16.995  1.00  0.00     0.004 C 
ENDBRANCH  18  19
ENDBRANCH  17  18
ENDBRANCH  16  17
ENDBRANCH  15  16
ENDBRANCH  14  15
ENDBRANCH  13  14
ENDBRANCH  12  13
ENDBRANCH   1  12
TORSDOF 16
ENDMDL
MODEL 9
REMARK VINA RESULT:    -5.820      2.550      5.156
REMARK INTER + INTRA:         -13.727
REMARK INTER:                 -11.457
REMARK INTRA:                  -2.270
REMARK UNBOUND:                -2.463
REMARK SMILES CCCCCCCCCCCCCCCCCC(=O)[O-]
REMARK SMILES IDX 10 1 11 2 12 3 13 4 14 5 15 6 16 7 17 8 18 9 19 10 20 11
REMARK SMILES IDX 9 12 8 13 7 14 6 15 5 16 4 17 3 18 2 19 1 20
REMARK H PARENT
REMARK Flexibility Score: inf
ROOT
ATOM      1  C   UNL     1      16.007   2.226  12.365  1.00  0.00     0.000 C 
ENDROOT
BRANCH   1   2
ATOM      2  C   UNL     1      16.741   1.453  11.255  1.00  0.00     0.000 C 
BRANCH   2   3
ATOM      3  C   UNL     1      18.022   0.765  11.760  1.00  0.00     0.000 C 
BRANCH   3   4
ATOM      4  C   UNL     1      17.733  -0.347  12.782  1.00  0.00     0.000 C 
BRANCH   4   5
ATOM      5  C   UNL     1      18.698  -0.311  13.979  1.00  0.00     0.000 C 
BRANCH   5   6
ATOM      6  C   UNL     1      17.971  -0.111  15.319  1.00  0.00     0.000 C 
BRANCH   6   7
ATOM      7  C   UNL     1      16.627  -0.859  15.383  1.00  0.00     0.006 C 
BRANCH   7   8
ATOM      8  C   UNL     1      16.160  -1.086  16.827  1.00  0.00     0.053 C 
BRANCH   8   9
ATOM      9  C   UNL     1      17.080  -2.006  17.571  1.00  0.00     0.041 C 
ATOM     10  O   UNL     1      17.612  -2.983  16.981  1.00  0.00    -0.550 OA
ATOM     11  O   UNL     1      17.374  -1.767  18.907  1.00  0.00    -0.550 OA
ENDBRANCH   8   9
ENDBRANCH   7   8
ENDBRANCH   6   7
ENDBRANCH   5   6
ENDBRANCH   4   5
ENDBRANCH   3   4
ENDBRANCH   2   3
ENDBRANCH   1   2
BRANCH   1  12
ATOM     12  C   UNL     1      14.839   1.463  13.023  1.00  0.00     0.000 C 
BRANCH  12  13
ATOM     13  C   UNL     1      14.373   2.024  14.382  1.00  0.00    -0.000 C 
BRANCH  13  14
ATOM     14  C   UNL     1      15.488   2.644  15.243  1.00  0.00    -0.000 C 
BRANCH  14  15
ATOM     15  C   UNL     1      15.092   2.778  16.722  1.00  0.00    -0.000 C 
BRANCH  15  16
ATOM     16  C   UNL     1      13.912   1.871  17.103  1.00  0.00    -0.000 C 
BRANCH  16  17
ATOM     17  C   UNL     1      13.788   1.666  18.623  1.00  0.00    -0.000 C 
BRANCH  17  18
ATOM     18  C   UNL     1      15.163   1.485  19.299  1.00  0.00    -0.000 C 
BRANCH  18  19
ATOM     19  C   UNL     1      15.099   0.695  20.617  1.00  0.00    -0.003 C 
ATOM     20  C   UNL     1      13.985  -0.349  20.636  1.00  0.00     0.004 C 
ENDBRANCH  18  19
ENDBRANCH  17  18
ENDBRANCH  16  17
ENDBRANCH  15  16
ENDBRANCH  14  15
ENDBRANCH  13  14
ENDBRANCH  12  13
ENDBRANCH   1  12
TORSDOF 16
ENDMDL
