MODEL 1
REMARK VINA RESULT:    -3.733      0.000      0.000
REMARK INTER + INTRA:          -8.150
REMARK INTER:                  -6.351
REMARK INTRA:                  -1.799
REMARK UNBOUND:                -1.799
REMARK SMILES CCCCCCCCCCCCCC(=O)[O-]
REMARK SMILES IDX 8 1 9 2 10 3 11 4 12 5 13 6 14 7 15 8 16 9 7 10 6 11 5 12
REMARK SMILES IDX 4 13 3 14 2 15 1 16
REMARK H PARENT
REMARK Flexibility Score: inf
ROOT
ATOM      1  C   UNL     1      35.117 -49.459 -15.945  1.00  0.00     0.000 C 
ENDROOT
BRANCH   1   2
ATOM      2  C   UNL     1      35.610 -48.046 -16.296  1.00  0.00     0.000 C 
BRANCH   2   3
ATOM      3  C   UNL     1      35.604 -47.775 -17.809  1.00  0.00     0.000 C 
BRANCH   3   4
ATOM      4  C   UNL     1      36.774 -46.880 -18.253  1.00  0.00     0.000 C 
BRANCH   4   5
ATOM      5  C   UNL     1      36.821 -46.676 -19.779  1.00  0.00     0.006 C 
BRANCH   5   6
ATOM      6  C   UNL     1      38.238 -46.666 -20.376  1.00  0.00     0.053 C 
BRANCH   6   7
ATOM      7  C   UNL     1      38.407 -47.705 -21.440  1.00  0.00     0.041 C 
ATOM      8  O   UNL     1      37.976 -47.496 -22.604  1.00  0.00    -0.550 OA
ATOM      9  O   UNL     1      39.012 -48.919 -21.138  1.00  0.00    -0.550 OA
ENDBRANCH   6   7
ENDBRANCH   5   6
ENDBRANCH   4   5
ENDBRANCH   3   4
ENDBRANCH   2   3
ENDBRANCH   1   2
BRANCH   1  10
ATOM     10  C   UNL     1      36.078 -50.150 -14.970  1.00  0.00     0.000 C 
BRANCH  10  11
ATOM     11  C   UNL     1      36.465 -51.547 -15.476  1.00  0.00    -0.000 C 
BRANCH  11  12
ATOM     12  C   UNL     1      36.526 -51.635 -17.011  1.00  0.00    -0.000 C 
BRANCH  12  13
ATOM     13  C   UNL     1      37.943 -51.588 -17.611  1.00  0.00    -0.000 C 
BRANCH  13  14
ATOM     14  C   UNL     1      38.442 -50.155 -17.856  1.00  0.00    -0.000 C 
BRANCH  14  15
ATOM     15  C   UNL     1      39.616 -49.818 -16.928  1.00  0.00    -0.003 C 
ATOM     16  C   UNL     1      39.330 -48.558 -16.116  1.00  0.00     0.004 C 
ENDBRANCH  14  15
ENDBRANCH  13  14
ENDBRANCH  12  13
ENDBRANCH  11  12
ENDBRANCH  10  11
ENDBRANCH   1  10
TORSDOF 12
ENDMDL
MODEL 2
REMARK VINA RESULT:    -3.625     13.270     15.641
REMARK INTER + INTRA:          -7.967
REMARK INTER:                  -6.370
REMARK INTRA:                  -1.597
REMARK UNBOUND:                -1.799
REMARK SMILES CCCCCCCCCCCCCC(=O)[O-]
REMARK SMILES IDX 8 1 9 2 10 3 11 4 12 5 13 6 14 7 15 8 16 9 7 10 6 11 5 12
REMARK SMILES IDX 4 13 3 14 2 15 1 16
REMARK H PARENT
REMARK Flexibility Score: inf
ROOT
ATOM      1  C   UNL     1      52.841 -49.127  -8.572  1.00  0.00     0.000 C 
ENDROOT
BRANCH   1   2
ATOM      2  C   UNL     1      52.363 -48.119  -9.629  1.00  0.00     0.000 C 
BRANCH   2   3
ATOM      3  C   UNL     1      50.832 -48.072  -9.755  1.00  0.00     0.000 C 
BRANCH   3   4
ATOM      4  C   UNL     1      50.268 -46.653  -9.573  1.00  0.00     0.000 C 
BRANCH   4   5
ATOM      5  C   UNL     1      49.648 -46.088 -10.865  1.00  0.00     0.006 C 
BRANCH   5   6
ATOM      6  C   UNL     1      49.150 -47.156 -11.851  1.00  0.00     0.053 C 
BRANCH   6   7
ATOM      7  C   UNL     1      47.684 -47.420 -11.701  1.00  0.00     0.041 C 
ATOM      8  O   UNL     1      47.136 -48.347 -12.353  1.00  0.00    -0.550 OA
ATOM      9  O   UNL     1      46.914 -46.619 -10.865  1.00  0.00    -0.550 OA
ENDBRANCH   6   7
ENDBRANCH   5   6
ENDBRANCH   4   5
ENDBRANCH   3   4
ENDBRANCH   2   3
ENDBRANCH   1   2
BRANCH   1  10
ATOM     10  C   UNL     1      51.764 -50.181  -8.291  1.00  0.00     0.000 C 
BRANCH  10  11
ATOM     11  C   UNL     1      52.093 -51.507  -8.992  1.00  0.00    -0.000 C 
BRANCH  11  12
ATOM     12  C   UNL     1      53.269 -51.389  -9.978  1.00  0.00    -0.000 C 
BRANCH  12  13
ATOM     13  C   UNL     1      52.868 -51.241 -11.457  1.00  0.00    -0.000 C 
BRANCH  13  14
ATOM     14  C   UNL     1      51.362 -51.440 -11.692  1.00  0.00    -0.000 C 
BRANCH  14  15
ATOM     15  C   UNL     1      50.831 -50.434 -12.721  1.00  0.00    -0.003 C 
ATOM     16  C   UNL     1      51.907 -49.425 -13.110  1.00  0.00     0.004 C 
ENDBRANCH  14  15
ENDBRANCH  13  14
ENDBRANCH  12  13
ENDBRANCH  11  12
ENDBRANCH  10  11
ENDBRANCH   1  10
TORSDOF 12
ENDMDL
MODEL 3
REMARK VINA RESULT:    -3.562     14.240     16.336
REMARK INTER + INTRA:          -7.860
REMARK INTER:                  -6.266
REMARK INTRA:                  -1.593
REMARK UNBOUND:                -1.799
REMARK SMILES CCCCCCCCCCCCCC(=O)[O-]
REMARK SMILES IDX 8 1 9 2 10 3 11 4 12 5 13 6 14 7 15 8 16 9 7 10 6 11 5 12
REMARK SMILES IDX 4 13 3 14 2 15 1 16
REMARK H PARENT
REMARK Flexibility Score: inf
ROOT
ATOM      1  C   UNL     1      51.384 -50.733  -7.982  1.00  0.00     0.000 C 
ENDROOT
BRANCH   1   2
ATOM      2  C   UNL     1      51.908 -51.790  -8.967  1.00  0.00     0.000 C 
BRANCH   2   3
ATOM      3  C   UNL     1      53.188 -51.343  -9.691  1.00  0.00     0.000 C 
BRANCH   3   4
ATOM      4  C   UNL     1      53.008 -51.270 -11.217  1.00  0.00     0.000 C 
BRANCH   4   5
ATOM      5  C   UNL     1      51.542 -51.055 -11.635  1.00  0.00     0.006 C 
BRANCH   5   6
ATOM      6  C   UNL     1      51.261 -51.310 -13.124  1.00  0.00     0.053 C 
BRANCH   6   7
ATOM      7  C   UNL     1      52.136 -50.480 -14.011  1.00  0.00     0.041 C 
ATOM      8  O   UNL     1      52.011 -49.228 -14.033  1.00  0.00    -0.550 OA
ATOM      9  O   UNL     1      53.069 -51.093 -14.839  1.00  0.00    -0.550 OA
ENDBRANCH   6   7
ENDBRANCH   5   6
ENDBRANCH   4   5
ENDBRANCH   3   4
ENDBRANCH   2   3
ENDBRANCH   1   2
BRANCH   1  10
ATOM     10  C   UNL     1      52.167 -49.421  -8.115  1.00  0.00     0.000 C 
BRANCH  10  11
ATOM     11  C   UNL     1      51.351 -48.366  -8.874  1.00  0.00    -0.000 C 
BRANCH  11  12
ATOM     12  C   UNL     1      52.137 -47.711 -10.024  1.00  0.00    -0.000 C 
BRANCH  12  13
ATOM     13  C   UNL     1      51.287 -47.279 -11.233  1.00  0.00    -0.000 C 
BRANCH  13  14
ATOM     14  C   UNL     1      49.841 -47.795 -11.163  1.00  0.00    -0.000 C 
BRANCH  14  15
ATOM     15  C   UNL     1      48.879 -46.677 -10.746  1.00  0.00    -0.003 C 
ATOM     16  C   UNL     1      49.309 -45.334 -11.331  1.00  0.00     0.004 C 
ENDBRANCH  14  15
ENDBRANCH  13  14
ENDBRANCH  12  13
ENDBRANCH  11  12
ENDBRANCH  10  11
ENDBRANCH   1  10
TORSDOF 12
ENDMDL
MODEL 4
REMARK VINA RESULT:    -3.532      1.641      2.068
REMARK INTER + INTRA:          -7.810
REMARK INTER:                  -5.816
REMARK INTRA:                  -1.994
REMARK UNBOUND:                -1.799
REMARK SMILES CCCCCCCCCCCCCC(=O)[O-]
REMARK SMILES IDX 8 1 9 2 10 3 11 4 12 5 13 6 14 7 15 8 16 9 7 10 6 11 5 12
REMARK SMILES IDX 4 13 3 14 2 15 1 16
REMARK H PARENT
REMARK Flexibility Score: inf
ROOT
ATOM      1  C   UNL     1      36.639 -48.127 -15.602  1.00  0.00     0.000 C 
ENDROOT
BRANCH   1   2
ATOM      2  C   UNL     1      35.343 -48.138 -16.428  1.00  0.00     0.000 C 
BRANCH   2   3
ATOM      3  C   UNL     1      35.598 -47.983 -17.935  1.00  0.00     0.000 C 
BRANCH   3   4
ATOM      4  C   UNL     1      36.639 -46.895 -18.250  1.00  0.00     0.000 C 
BRANCH   4   5
ATOM      5  C   UNL     1      36.826 -46.670 -19.762  1.00  0.00     0.006 C 
BRANCH   5   6
ATOM      6  C   UNL     1      38.286 -46.727 -20.238  1.00  0.00     0.053 C 
BRANCH   6   7
ATOM      7  C   UNL     1      39.108 -45.613 -19.666  1.00  0.00     0.041 C 
ATOM      8  O   UNL     1      40.022 -45.860 -18.838  1.00  0.00    -0.550 OA
ATOM      9  O   UNL     1      38.840 -44.297 -20.025  1.00  0.00    -0.550 OA
ENDBRANCH   6   7
ENDBRANCH   5   6
ENDBRANCH   4   5
ENDBRANCH   3   4
ENDBRANCH   2   3
ENDBRANCH   1   2
BRANCH   1  10
ATOM     10  C   UNL     1      36.858 -49.475 -14.905  1.00  0.00     0.000 C 
BRANCH  10  11
ATOM     11  C   UNL     1      35.808 -50.503 -15.351  1.00  0.00    -0.000 C 
BRANCH  11  12
ATOM     12  C   UNL     1      36.428 -51.739 -16.029  1.00  0.00    -0.000 C 
BRANCH  12  13
ATOM     13  C   UNL     1      36.841 -51.539 -17.498  1.00  0.00    -0.000 C 
BRANCH  13  14
ATOM     14  C   UNL     1      38.360 -51.392 -17.679  1.00  0.00    -0.000 C 
BRANCH  14  15
ATOM     15  C   UNL     1      38.699 -50.109 -18.447  1.00  0.00    -0.003 C 
ATOM     16  C   UNL     1      39.572 -49.180 -17.609  1.00  0.00     0.004 C 
ENDBRANCH  14  15
ENDBRANCH  13  14
ENDBRANCH  12  13
ENDBRANCH  11  12
ENDBRANCH  10  11
ENDBRANCH   1  10
TORSDOF 12
ENDMDL
MODEL 5
REMARK VINA RESULT:    -3.524      2.768      5.092
REMARK INTER + INTRA:          -7.795
REMARK INTER:                  -6.000
REMARK INTRA:                  -1.795
REMARK UNBOUND:                -1.799
REMARK SMILES CCCCCCCCCCCCCC(=O)[O-]
REMARK SMILES IDX 8 1 9 2 10 3 11 4 12 5 13 6 14 7 15 8 16 9 7 10 6 11 5 12
REMARK SMILES IDX 4 13 3 14 2 15 1 16
REMARK H PARENT
REMARK Flexibility Score: inf
ROOT
ATOM      1  C   UNL     1      38.338 -46.398 -19.614  1.00  0.00     0.000 C 
ENDROOT
BRANCH   1   2
ATOM      2  C   UNL     1      37.096 -46.140 -18.747  1.00  0.00     0.000 C 
BRANCH   2   3
ATOM      3  C   UNL     1      36.814 -47.283 -17.759  1.00  0.00     0.000 C 
BRANCH   3   4
ATOM      4  C   UNL     1      35.461 -47.968 -18.019  1.00  0.00     0.000 C 
BRANCH   4   5
ATOM      5  C   UNL     1      35.261 -49.233 -17.164  1.00  0.00     0.006 C 
BRANCH   5   6
ATOM      6  C   UNL     1      35.662 -49.074 -15.689  1.00  0.00     0.053 C 
BRANCH   6   7
ATOM      7  C   UNL     1      36.198 -50.347 -15.111  1.00  0.00     0.041 C 
ATOM      8  O   UNL     1      36.669 -50.364 -13.944  1.00  0.00    -0.550 OA
ATOM      9  O   UNL     1      36.207 -51.508 -15.875  1.00  0.00    -0.550 OA
ENDBRANCH   6   7
ENDBRANCH   5   6
ENDBRANCH   4   5
ENDBRANCH   3   4
ENDBRANCH   2   3
ENDBRANCH   1   2
BRANCH   1  10
ATOM     10  C   UNL     1      37.942 -46.925 -20.998  1.00  0.00     0.000 C 
BRANCH  10  11
ATOM     11  C   UNL     1      38.626 -48.267 -21.294  1.00  0.00    -0.000 C 
BRANCH  11  12
ATOM     12  C   UNL     1      39.438 -48.803 -20.100  1.00  0.00    -0.000 C 
BRANCH  12  13
ATOM     13  C   UNL     1      39.234 -50.297 -19.791  1.00  0.00    -0.000 C 
BRANCH  13  14
ATOM     14  C   UNL     1      38.536 -50.539 -18.443  1.00  0.00    -0.000 C 
BRANCH  14  15
ATOM     15  C   UNL     1      39.560 -50.639 -17.306  1.00  0.00    -0.003 C 
ATOM     16  C   UNL     1      39.503 -49.409 -16.405  1.00  0.00     0.004 C 
ENDBRANCH  14  15
ENDBRANCH  13  14
ENDBRANCH  12  13
ENDBRANCH  11  12
ENDBRANCH  10  11
ENDBRANCH   1  10
TORSDOF 12
ENDMDL
MODEL 6
REMARK VINA RESULT:    -3.507      3.706      5.590
REMARK INTER + INTRA:          -7.767
REMARK INTER:                  -5.603
REMARK INTRA:                  -2.164
REMARK UNBOUND:                -1.799
REMARK SMILES CCCCCCCCCCCCCC(=O)[O-]
REMARK SMILES IDX 8 1 9 2 10 3 11 4 12 5 13 6 14 7 15 8 16 9 7 10 6 11 5 12
REMARK SMILES IDX 4 13 3 14 2 15 1 16
REMARK H PARENT
REMARK Flexibility Score: inf
ROOT
ATOM      1  C   UNL     1      38.222 -51.644 -17.433  1.00  0.00     0.000 C 
ENDROOT
BRANCH   1   2
ATOM      2  C   UNL     1      38.335 -50.350 -18.253  1.00  0.00     0.000 C 
BRANCH   2   3
ATOM      3  C   UNL     1      39.179 -49.274 -17.551  1.00  0.00     0.000 C 
BRANCH   3   4
ATOM      4  C   UNL     1      39.483 -49.625 -16.084  1.00  0.00     0.000 C 
BRANCH   4   5
ATOM      5  C   UNL     1      39.008 -48.539 -15.102  1.00  0.00     0.006 C 
BRANCH   5   6
ATOM      6  C   UNL     1      38.478 -49.079 -13.763  1.00  0.00     0.053 C 
BRANCH   6   7
ATOM      7  C   UNL     1      39.469 -48.903 -12.655  1.00  0.00     0.041 C 
ATOM      8  O   UNL     1      39.105 -48.420 -11.550  1.00  0.00    -0.550 OA
ATOM      9  O   UNL     1      40.803 -49.240 -12.852  1.00  0.00    -0.550 OA
ENDBRANCH   6   7
ENDBRANCH   5   6
ENDBRANCH   4   5
ENDBRANCH   3   4
ENDBRANCH   2   3
ENDBRANCH   1   2
BRANCH   1  10
ATOM     10  C   UNL     1      36.758 -51.966 -17.111  1.00  0.00     0.000 C 
BRANCH  10  11
ATOM     11  C   UNL     1      36.383 -51.479 -15.704  1.00  0.00    -0.000 C 
BRANCH  11  12
ATOM     12  C   UNL     1      35.132 -50.583 -15.692  1.00  0.00    -0.000 C 
BRANCH  12  13
ATOM     13  C   UNL     1      35.398 -49.088 -15.951  1.00  0.00    -0.000 C 
BRANCH  13  14
ATOM     14  C   UNL     1      34.931 -48.629 -17.341  1.00  0.00    -0.000 C 
BRANCH  14  15
ATOM     15  C   UNL     1      35.898 -47.595 -17.930  1.00  0.00    -0.003 C 
ATOM     16  C   UNL     1      36.376 -46.618 -16.860  1.00  0.00     0.004 C 
ENDBRANCH  14  15
ENDBRANCH  13  14
ENDBRANCH  12  13
ENDBRANCH  11  12
ENDBRANCH  10  11
ENDBRANCH   1  10
TORSDOF 12
ENDMDL
MODEL 7
REMARK VINA RESULT:    -3.447     13.621     15.995
REMARK INTER + INTRA:          -7.663
REMARK INTER:                  -6.073
REMARK INTRA:                  -1.590
REMARK UNBOUND:                -1.799
REMARK SMILES CCCCCCCCCCCCCC(=O)[O-]
REMARK SMILES IDX 8 1 9 2 10 3 11 4 12 5 13 6 14 7 15 8 16 9 7 10 6 11 5 12
REMARK SMILES IDX 4 13 3 14 2 15 1 16
REMARK H PARENT
REMARK Flexibility Score: inf
ROOT
ATOM      1  C   UNL     1      51.390 -50.688  -8.076  1.00  0.00     0.000 C 
ENDROOT
BRANCH   1   2
ATOM      2  C   UNL     1      52.063 -49.334  -8.353  1.00  0.00     0.000 C 
BRANCH   2   3
ATOM      3  C   UNL     1      51.190 -48.401  -9.207  1.00  0.00     0.000 C 
BRANCH   3   4
ATOM      4  C   UNL     1      52.021 -47.491 -10.127  1.00  0.00     0.000 C 
BRANCH   4   5
ATOM      5  C   UNL     1      51.196 -46.339 -10.729  1.00  0.00     0.006 C 
BRANCH   5   6
ATOM      6  C   UNL     1      49.739 -46.279 -10.242  1.00  0.00     0.053 C 
BRANCH   6   7
ATOM      7  C   UNL     1      48.976 -45.164 -10.888  1.00  0.00     0.041 C 
ATOM      8  O   UNL     1      48.663 -44.142 -10.224  1.00  0.00    -0.550 OA
ATOM      9  O   UNL     1      48.581 -45.269 -12.216  1.00  0.00    -0.550 OA
ENDBRANCH   6   7
ENDBRANCH   5   6
ENDBRANCH   4   5
ENDBRANCH   3   4
ENDBRANCH   2   3
ENDBRANCH   1   2
BRANCH   1  10
ATOM     10  C   UNL     1      51.890 -51.760  -9.051  1.00  0.00     0.000 C 
BRANCH  10  11
ATOM     11  C   UNL     1      53.249 -51.371  -9.650  1.00  0.00    -0.000 C 
BRANCH  11  12
ATOM     12  C   UNL     1      53.244 -51.348 -11.189  1.00  0.00    -0.000 C 
BRANCH  12  13
ATOM     13  C   UNL     1      51.870 -51.088 -11.833  1.00  0.00    -0.000 C 
BRANCH  13  14
ATOM     14  C   UNL     1      51.876 -49.890 -12.795  1.00  0.00    -0.000 C 
BRANCH  14  15
ATOM     15  C   UNL     1      50.572 -49.826 -13.600  1.00  0.00    -0.003 C 
ATOM     16  C   UNL     1      49.593 -48.831 -12.983  1.00  0.00     0.004 C 
ENDBRANCH  14  15
ENDBRANCH  13  14
ENDBRANCH  12  13
ENDBRANCH  11  12
ENDBRANCH  10  11
ENDBRANCH   1  10
TORSDOF 12
ENDMDL
MODEL 8
REMARK VINA RESULT:    -3.406     12.552     15.061
REMARK INTER + INTRA:          -7.594
REMARK INTER:                  -6.377
REMARK INTRA:                  -1.217
REMARK UNBOUND:                -1.799
REMARK SMILES CCCCCCCCCCCCCC(=O)[O-]
REMARK SMILES IDX 8 1 9 2 10 3 11 4 12 5 13 6 14 7 15 8 16 9 7 10 6 11 5 12
REMARK SMILES IDX 4 13 3 14 2 15 1 16
REMARK H PARENT
REMARK Flexibility Score: inf
ROOT
ATOM      1  C   UNL     1      51.742 -51.359 -11.516  1.00  0.00     0.000 C 
ENDROOT
BRANCH   1   2
ATOM      2  C   UNL     1      51.585 -50.832 -12.951  1.00  0.00     0.000 C 
BRANCH   2   3
ATOM      3  C   UNL     1      50.116 -50.593 -13.338  1.00  0.00     0.000 C 
BRANCH   3   4
ATOM      4  C   UNL     1      49.566 -51.685 -14.270  1.00  0.00     0.000 C 
BRANCH   4   5
ATOM      5  C   UNL     1      48.139 -52.125 -13.894  1.00  0.00     0.006 C 
BRANCH   5   6
ATOM      6  C   UNL     1      47.023 -51.303 -14.559  1.00  0.00     0.053 C 
BRANCH   6   7
ATOM      7  C   UNL     1      46.255 -50.489 -13.565  1.00  0.00     0.041 C 
ATOM      8  O   UNL     1      46.829 -49.579 -12.912  1.00  0.00    -0.550 OA
ATOM      9  O   UNL     1      44.911 -50.759 -13.335  1.00  0.00    -0.550 OA
ENDBRANCH   6   7
ENDBRANCH   5   6
ENDBRANCH   4   5
ENDBRANCH   3   4
ENDBRANCH   2   3
ENDBRANCH   1   2
BRANCH   1  10
ATOM     10  C   UNL     1      53.216 -51.375 -11.095  1.00  0.00     0.000 C 
BRANCH  10  11
ATOM     11  C   UNL     1      53.353 -51.371  -9.566  1.00  0.00    -0.000 C 
BRANCH  11  12
ATOM     12  C   UNL     1      52.043 -51.736  -8.845  1.00  0.00    -0.000 C 
BRANCH  12  13
ATOM     13  C   UNL     1      51.386 -50.585  -8.062  1.00  0.00    -0.000 C 
BRANCH  13  14
ATOM     14  C   UNL     1      52.085 -49.234  -8.285  1.00  0.00    -0.000 C 
BRANCH  14  15
ATOM     15  C   UNL     1      51.233 -48.315  -9.168  1.00  0.00    -0.003 C 
ATOM     16  C   UNL     1      52.046 -47.768 -10.338  1.00  0.00     0.004 C 
ENDBRANCH  14  15
ENDBRANCH  13  14
ENDBRANCH  12  13
ENDBRANCH  11  12
ENDBRANCH  10  11
ENDBRANCH   1  10
TORSDOF 12
ENDMDL
MODEL 9
REMARK VINA RESULT:    -3.339      3.899      6.048
REMARK INTER + INTRA:          -7.480
REMARK INTER:                  -5.444
REMARK INTRA:                  -2.036
REMARK UNBOUND:                -1.799
REMARK SMILES CCCCCCCCCCCCCC(=O)[O-]
REMARK SMILES IDX 8 1 9 2 10 3 11 4 12 5 13 6 14 7 15 8 16 9 7 10 6 11 5 12
REMARK SMILES IDX 4 13 3 14 2 15 1 16
REMARK H PARENT
REMARK Flexibility Score: inf
ROOT
ATOM      1  C   UNL     1      38.566 -49.348 -17.829  1.00  0.00     0.000 C 
ENDROOT
BRANCH   1   2
ATOM      2  C   UNL     1      38.689 -48.170 -16.850  1.00  0.00     0.000 C 
BRANCH   2   3
ATOM      3  C   UNL     1      39.391 -48.558 -15.539  1.00  0.00     0.000 C 
BRANCH   3   4
ATOM      4  C   UNL     1      38.579 -48.162 -14.294  1.00  0.00     0.000 C 
BRANCH   4   5
ATOM      5  C   UNL     1      38.636 -49.227 -13.183  1.00  0.00     0.006 C 
BRANCH   5   6
ATOM      6  C   UNL     1      39.352 -48.771 -11.902  1.00  0.00     0.053 C 
BRANCH   6   7
ATOM      7  C   UNL     1      40.828 -48.624 -12.104  1.00  0.00     0.041 C 
ATOM      8  O   UNL     1      41.449 -49.427 -12.848  1.00  0.00    -0.550 OA
ATOM      9  O   UNL     1      41.525 -47.619 -11.444  1.00  0.00    -0.550 OA
ENDBRANCH   6   7
ENDBRANCH   5   6
ENDBRANCH   4   5
ENDBRANCH   3   4
ENDBRANCH   2   3
ENDBRANCH   1   2
BRANCH   1  10
ATOM     10  C   UNL     1      38.897 -50.675 -17.136  1.00  0.00     0.000 C 
BRANCH  10  11
ATOM     11  C   UNL     1      37.927 -51.782 -17.573  1.00  0.00    -0.000 C 
BRANCH  11  12
ATOM     12  C   UNL     1      36.528 -51.637 -16.947  1.00  0.00    -0.000 C 
BRANCH  12  13
ATOM     13  C   UNL     1      36.515 -51.404 -15.425  1.00  0.00    -0.000 C 
BRANCH  13  14
ATOM     14  C   UNL     1      35.549 -50.288 -14.997  1.00  0.00    -0.000 C 
BRANCH  14  15
ATOM     15  C   UNL     1      35.050 -49.499 -16.214  1.00  0.00    -0.003 C 
ATOM     16  C   UNL     1      35.205 -47.997 -15.997  1.00  0.00     0.004 C 
ENDBRANCH  14  15
ENDBRANCH  13  14
ENDBRANCH  12  13
ENDBRANCH  11  12
ENDBRANCH  10  11
ENDBRANCH   1  10
TORSDOF 12
ENDMDL
