MODEL 1
REMARK VINA RESULT:    -4.984      0.000      0.000
REMARK INTER + INTRA:          -9.862
REMARK INTER:                  -8.481
REMARK INTRA:                  -1.382
REMARK UNBOUND:                -1.382
REMARK SMILES CCCCCCCCCCCCCC(=O)[O-]
REMARK SMILES IDX 8 1 9 2 10 3 11 4 12 5 13 6 14 7 15 8 16 9 7 10 6 11 5 12
REMARK SMILES IDX 4 13 3 14 2 15 1 16
REMARK H PARENT
REMARK Flexibility Score: inf
ROOT
ATOM      1  C   UNL     1      44.265  60.726  48.862  1.00  0.00     0.000 C 
ENDROOT
BRANCH   1   2
ATOM      2  C   UNL     1      43.054  61.267  49.639  1.00  0.00     0.000 C 
BRANCH   2   3
ATOM      3  C   UNL     1      41.726  61.058  48.891  1.00  0.00     0.000 C 
BRANCH   3   4
ATOM      4  C   UNL     1      41.713  59.740  48.084  1.00  0.00     0.000 C 
BRANCH   4   5
ATOM      5  C   UNL     1      41.205  58.531  48.892  1.00  0.00     0.006 C 
BRANCH   5   6
ATOM      6  C   UNL     1      39.913  57.911  48.341  1.00  0.00     0.053 C 
BRANCH   6   7
ATOM      7  C   UNL     1      40.172  57.059  47.137  1.00  0.00     0.041 C 
ATOM      8  O   UNL     1      40.131  55.803  47.229  1.00  0.00    -0.550 OA
ATOM      9  O   UNL     1      40.439  57.648  45.908  1.00  0.00    -0.550 OA
ENDBRANCH   6   7
ENDBRANCH   5   6
ENDBRANCH   4   5
ENDBRANCH   3   4
ENDBRANCH   2   3
ENDBRANCH   1   2
BRANCH   1  10
ATOM     10  C   UNL     1      45.187  59.858  49.731  1.00  0.00     0.000 C 
BRANCH  10  11
ATOM     11  C   UNL     1      44.842  58.371  49.583  1.00  0.00    -0.000 C 
BRANCH  11  12
ATOM     12  C   UNL     1      45.900  57.641  48.742  1.00  0.00    -0.000 C 
BRANCH  12  13
ATOM     13  C   UNL     1      45.287  56.613  47.778  1.00  0.00    -0.000 C 
BRANCH  13  14
ATOM     14  C   UNL     1      43.912  57.050  47.244  1.00  0.00    -0.000 C 
BRANCH  14  15
ATOM     15  C   UNL     1      44.023  57.987  46.030  1.00  0.00    -0.003 C 
ATOM     16  C   UNL     1      43.494  57.355  44.743  1.00  0.00     0.004 C 
ENDBRANCH  14  15
ENDBRANCH  13  14
ENDBRANCH  12  13
ENDBRANCH  11  12
ENDBRANCH  10  11
ENDBRANCH   1  10
TORSDOF 12
ENDMDL
MODEL 2
REMARK VINA RESULT:    -4.960      0.980      4.058
REMARK INTER + INTRA:          -9.821
REMARK INTER:                  -8.493
REMARK INTRA:                  -1.328
REMARK UNBOUND:                -1.382
REMARK SMILES CCCCCCCCCCCCCC(=O)[O-]
REMARK SMILES IDX 8 1 9 2 10 3 11 4 12 5 13 6 14 7 15 8 16 9 7 10 6 11 5 12
REMARK SMILES IDX 4 13 3 14 2 15 1 16
REMARK H PARENT
REMARK Flexibility Score: inf
ROOT
ATOM      1  C   UNL     1      45.328  59.934  49.771  1.00  0.00     0.000 C 
ENDROOT
BRANCH   1   2
ATOM      2  C   UNL     1      45.234  58.400  49.754  1.00  0.00     0.000 C 
BRANCH   2   3
ATOM      3  C   UNL     1      45.974  57.773  48.560  1.00  0.00     0.000 C 
BRANCH   3   4
ATOM      4  C   UNL     1      45.205  56.574  47.961  1.00  0.00     0.000 C 
BRANCH   4   5
ATOM      5  C   UNL     1      43.804  56.944  47.438  1.00  0.00     0.006 C 
BRANCH   5   6
ATOM      6  C   UNL     1      43.820  57.735  46.122  1.00  0.00     0.053 C 
BRANCH   6   7
ATOM      7  C   UNL     1      42.719  57.307  45.200  1.00  0.00     0.041 C 
ATOM      8  O   UNL     1      42.979  56.988  44.009  1.00  0.00    -0.550 OA
ATOM      9  O   UNL     1      41.409  57.241  45.658  1.00  0.00    -0.550 OA
ENDBRANCH   6   7
ENDBRANCH   5   6
ENDBRANCH   4   5
ENDBRANCH   3   4
ENDBRANCH   2   3
ENDBRANCH   1   2
BRANCH   1  10
ATOM     10  C   UNL     1      44.308  60.602  48.837  1.00  0.00     0.000 C 
BRANCH  10  11
ATOM     11  C   UNL     1      43.111  61.144  49.628  1.00  0.00    -0.000 C 
BRANCH  11  12
ATOM     12  C   UNL     1      41.818  61.047  48.803  1.00  0.00    -0.000 C 
BRANCH  12  13
ATOM     13  C   UNL     1      41.564  59.631  48.263  1.00  0.00    -0.000 C 
BRANCH  13  14
ATOM     14  C   UNL     1      41.536  58.569  49.375  1.00  0.00    -0.000 C 
BRANCH  14  15
ATOM     15  C   UNL     1      40.131  57.987  49.597  1.00  0.00    -0.003 C 
ATOM     16  C   UNL     1      39.439  57.592  48.293  1.00  0.00     0.004 C 
ENDBRANCH  14  15
ENDBRANCH  13  14
ENDBRANCH  12  13
ENDBRANCH  11  12
ENDBRANCH  10  11
ENDBRANCH   1  10
TORSDOF 12
ENDMDL
MODEL 3
REMARK VINA RESULT:    -4.830      2.567      4.726
REMARK INTER + INTRA:          -9.600
REMARK INTER:                  -8.051
REMARK INTRA:                  -1.549
REMARK UNBOUND:                -1.382
REMARK SMILES CCCCCCCCCCCCCC(=O)[O-]
REMARK SMILES IDX 8 1 9 2 10 3 11 4 12 5 13 6 14 7 15 8 16 9 7 10 6 11 5 12
REMARK SMILES IDX 4 13 3 14 2 15 1 16
REMARK H PARENT
REMARK Flexibility Score: inf
ROOT
ATOM      1  C   UNL     1      40.403  56.675  47.379  1.00  0.00     0.000 C 
ENDROOT
BRANCH   1   2
ATOM      2  C   UNL     1      39.587  57.621  48.273  1.00  0.00     0.000 C 
BRANCH   2   3
ATOM      3  C   UNL     1      40.314  57.974  49.583  1.00  0.00     0.000 C 
BRANCH   3   4
ATOM      4  C   UNL     1      41.728  58.544  49.330  1.00  0.00     0.000 C 
BRANCH   4   5
ATOM      5  C   UNL     1      41.725  59.859  48.527  1.00  0.00     0.006 C 
BRANCH   5   6
ATOM      6  C   UNL     1      43.123  60.343  48.119  1.00  0.00     0.053 C 
BRANCH   6   7
ATOM      7  C   UNL     1      43.797  61.098  49.223  1.00  0.00     0.041 C 
ATOM      8  O   UNL     1      45.055  61.150  49.278  1.00  0.00    -0.550 OA
ATOM      9  O   UNL     1      43.041  61.760  50.181  1.00  0.00    -0.550 OA
ENDBRANCH   6   7
ENDBRANCH   5   6
ENDBRANCH   4   5
ENDBRANCH   3   4
ENDBRANCH   2   3
ENDBRANCH   1   2
BRANCH   1  10
ATOM     10  C   UNL     1      40.371  57.083  45.898  1.00  0.00     0.000 C 
BRANCH  10  11
ATOM     11  C   UNL     1      41.517  58.047  45.569  1.00  0.00    -0.000 C 
BRANCH  11  12
ATOM     12  C   UNL     1      42.810  57.278  45.257  1.00  0.00    -0.000 C 
BRANCH  12  13
ATOM     13  C   UNL     1      43.971  57.665  46.187  1.00  0.00    -0.000 C 
BRANCH  13  14
ATOM     14  C   UNL     1      44.008  56.817  47.470  1.00  0.00    -0.000 C 
BRANCH  14  15
ATOM     15  C   UNL     1      45.434  56.645  48.019  1.00  0.00    -0.003 C 
ATOM     16  C   UNL     1      45.919  57.863  48.804  1.00  0.00     0.004 C 
ENDBRANCH  14  15
ENDBRANCH  13  14
ENDBRANCH  12  13
ENDBRANCH  11  12
ENDBRANCH  10  11
ENDBRANCH   1  10
TORSDOF 12
ENDMDL
MODEL 4
REMARK VINA RESULT:    -4.801      2.428      5.317
REMARK INTER + INTRA:          -9.551
REMARK INTER:                  -8.116
REMARK INTRA:                  -1.435
REMARK UNBOUND:                -1.382
REMARK SMILES CCCCCCCCCCCCCC(=O)[O-]
REMARK SMILES IDX 8 1 9 2 10 3 11 4 12 5 13 6 14 7 15 8 16 9 7 10 6 11 5 12
REMARK SMILES IDX 4 13 3 14 2 15 1 16
REMARK H PARENT
REMARK Flexibility Score: inf
ROOT
ATOM      1  C   UNL     1      40.333  57.231  46.187  1.00  0.00     0.000 C 
ENDROOT
BRANCH   1   2
ATOM      2  C   UNL     1      41.374  57.974  45.337  1.00  0.00     0.000 C 
BRANCH   2   3
ATOM      3  C   UNL     1      42.640  57.137  45.082  1.00  0.00     0.000 C 
BRANCH   3   4
ATOM      4  C   UNL     1      43.931  57.974  45.223  1.00  0.00     0.000 C 
BRANCH   4   5
ATOM      5  C   UNL     1      44.210  58.434  46.666  1.00  0.00     0.006 C 
BRANCH   5   6
ATOM      6  C   UNL     1      44.476  57.282  47.646  1.00  0.00     0.053 C 
BRANCH   6   7
ATOM      7  C   UNL     1      45.389  57.696  48.759  1.00  0.00     0.041 C 
ATOM      8  O   UNL     1      44.950  58.396  49.711  1.00  0.00    -0.550 OA
ATOM      9  O   UNL     1      46.719  57.295  48.760  1.00  0.00    -0.550 OA
ENDBRANCH   6   7
ENDBRANCH   5   6
ENDBRANCH   4   5
ENDBRANCH   3   4
ENDBRANCH   2   3
ENDBRANCH   1   2
BRANCH   1  10
ATOM     10  C   UNL     1      40.837  56.918  47.604  1.00  0.00     0.000 C 
BRANCH  10  11
ATOM     11  C   UNL     1      40.318  57.951  48.612  1.00  0.00    -0.000 C 
BRANCH  11  12
ATOM     12  C   UNL     1      41.466  58.817  49.153  1.00  0.00    -0.000 C 
BRANCH  12  13
ATOM     13  C   UNL     1      41.755  60.040  48.267  1.00  0.00    -0.000 C 
BRANCH  13  14
ATOM     14  C   UNL     1      41.841  61.347  49.073  1.00  0.00    -0.000 C 
BRANCH  14  15
ATOM     15  C   UNL     1      43.145  61.456  49.879  1.00  0.00    -0.003 C 
ATOM     16  C   UNL     1      44.392  61.446  48.995  1.00  0.00     0.004 C 
ENDBRANCH  14  15
ENDBRANCH  13  14
ENDBRANCH  12  13
ENDBRANCH  11  12
ENDBRANCH  10  11
ENDBRANCH   1  10
TORSDOF 12
ENDMDL
MODEL 5
REMARK VINA RESULT:    -4.779      2.709      5.578
REMARK INTER + INTRA:          -9.514
REMARK INTER:                  -7.967
REMARK INTRA:                  -1.546
REMARK UNBOUND:                -1.382
REMARK SMILES CCCCCCCCCCCCCC(=O)[O-]
REMARK SMILES IDX 8 1 9 2 10 3 11 4 12 5 13 6 14 7 15 8 16 9 7 10 6 11 5 12
REMARK SMILES IDX 4 13 3 14 2 15 1 16
REMARK H PARENT
REMARK Flexibility Score: inf
ROOT
ATOM      1  C   UNL     1      42.325  57.149  44.568  1.00  0.00     0.000 C 
ENDROOT
BRANCH   1   2
ATOM      2  C   UNL     1      43.757  57.640  44.834  1.00  0.00     0.000 C 
BRANCH   2   3
ATOM      3  C   UNL     1      43.958  58.131  46.278  1.00  0.00     0.000 C 
BRANCH   3   4
ATOM      4  C   UNL     1      44.333  56.981  47.239  1.00  0.00     0.000 C 
BRANCH   4   5
ATOM      5  C   UNL     1      45.276  57.416  48.376  1.00  0.00     0.006 C 
BRANCH   5   6
ATOM      6  C   UNL     1      44.555  58.037  49.581  1.00  0.00     0.053 C 
BRANCH   6   7
ATOM      7  C   UNL     1      45.331  59.175  50.170  1.00  0.00     0.041 C 
ATOM      8  O   UNL     1      45.402  60.276  49.561  1.00  0.00    -0.550 OA
ATOM      9  O   UNL     1      45.961  59.031  51.399  1.00  0.00    -0.550 OA
ENDBRANCH   6   7
ENDBRANCH   5   6
ENDBRANCH   4   5
ENDBRANCH   3   4
ENDBRANCH   2   3
ENDBRANCH   1   2
BRANCH   1  10
ATOM     10  C   UNL     1      41.272  57.923  45.374  1.00  0.00     0.000 C 
BRANCH  10  11
ATOM     11  C   UNL     1      40.362  56.965  46.152  1.00  0.00    -0.000 C 
BRANCH  11  12
ATOM     12  C   UNL     1      40.805  56.854  47.619  1.00  0.00    -0.000 C 
BRANCH  12  13
ATOM     13  C   UNL     1      40.184  57.941  48.511  1.00  0.00    -0.000 C 
BRANCH  13  14
ATOM     14  C   UNL     1      41.244  58.810  49.209  1.00  0.00    -0.000 C 
BRANCH  14  15
ATOM     15  C   UNL     1      41.681  60.008  48.351  1.00  0.00    -0.003 C 
ATOM     16  C   UNL     1      42.161  61.194  49.187  1.00  0.00     0.004 C 
ENDBRANCH  14  15
ENDBRANCH  13  14
ENDBRANCH  12  13
ENDBRANCH  11  12
ENDBRANCH  10  11
ENDBRANCH   1  10
TORSDOF 12
ENDMDL
MODEL 6
REMARK VINA RESULT:    -4.713      2.016      5.047
REMARK INTER + INTRA:          -9.400
REMARK INTER:                  -8.293
REMARK INTRA:                  -1.107
REMARK UNBOUND:                -1.382
REMARK SMILES CCCCCCCCCCCCCC(=O)[O-]
REMARK SMILES IDX 8 1 9 2 10 3 11 4 12 5 13 6 14 7 15 8 16 9 7 10 6 11 5 12
REMARK SMILES IDX 4 13 3 14 2 15 1 16
REMARK H PARENT
REMARK Flexibility Score: inf
ROOT
ATOM      1  C   UNL     1      40.792  56.875  47.604  1.00  0.00     0.000 C 
ENDROOT
BRANCH   1   2
ATOM      2  C   UNL     1      40.445  57.106  46.125  1.00  0.00     0.000 C 
BRANCH   2   3
ATOM      3  C   UNL     1      41.480  57.986  45.403  1.00  0.00     0.000 C 
BRANCH   3   4
ATOM      4  C   UNL     1      42.683  57.166  44.885  1.00  0.00     0.000 C 
BRANCH   4   5
ATOM      5  C   UNL     1      44.047  57.794  45.229  1.00  0.00     0.006 C 
BRANCH   5   6
ATOM      6  C   UNL     1      44.100  58.445  46.618  1.00  0.00     0.053 C 
BRANCH   6   7
ATOM      7  C   UNL     1      44.671  57.519  47.648  1.00  0.00     0.041 C 
ATOM      8  O   UNL     1      44.108  56.418  47.890  1.00  0.00    -0.550 OA
ATOM      9  O   UNL     1      45.834  57.859  48.327  1.00  0.00    -0.550 OA
ENDBRANCH   6   7
ENDBRANCH   5   6
ENDBRANCH   4   5
ENDBRANCH   3   4
ENDBRANCH   2   3
ENDBRANCH   1   2
BRANCH   1  10
ATOM     10  C   UNL     1      40.289  58.004  48.516  1.00  0.00     0.000 C 
BRANCH  10  11
ATOM     11  C   UNL     1      41.462  58.754  49.160  1.00  0.00    -0.000 C 
BRANCH  11  12
ATOM     12  C   UNL     1      41.867  59.971  48.314  1.00  0.00    -0.000 C 
BRANCH  12  13
ATOM     13  C   UNL     1      41.821  61.287  49.109  1.00  0.00    -0.000 C 
BRANCH  13  14
ATOM     14  C   UNL     1      43.116  61.548  49.896  1.00  0.00    -0.000 C 
BRANCH  14  15
ATOM     15  C   UNL     1      44.346  60.907  49.234  1.00  0.00    -0.003 C 
ATOM     16  C   UNL     1      45.494  61.896  49.031  1.00  0.00     0.004 C 
ENDBRANCH  14  15
ENDBRANCH  13  14
ENDBRANCH  12  13
ENDBRANCH  11  12
ENDBRANCH  10  11
ENDBRANCH   1  10
TORSDOF 12
ENDMDL
MODEL 7
REMARK VINA RESULT:    -4.700      1.142      3.738
REMARK INTER + INTRA:          -9.379
REMARK INTER:                  -8.184
REMARK INTRA:                  -1.195
REMARK UNBOUND:                -1.382
REMARK SMILES CCCCCCCCCCCCCC(=O)[O-]
REMARK SMILES IDX 8 1 9 2 10 3 11 4 12 5 13 6 14 7 15 8 16 9 7 10 6 11 5 12
REMARK SMILES IDX 4 13 3 14 2 15 1 16
REMARK H PARENT
REMARK Flexibility Score: inf
ROOT
ATOM      1  C   UNL     1      44.442  57.197  47.325  1.00  0.00     0.000 C 
ENDROOT
BRANCH   1   2
ATOM      2  C   UNL     1      44.058  58.321  46.351  1.00  0.00     0.000 C 
BRANCH   2   3
ATOM      3  C   UNL     1      43.792  57.808  44.926  1.00  0.00     0.000 C 
BRANCH   3   4
ATOM      4  C   UNL     1      42.484  56.990  44.835  1.00  0.00     0.000 C 
BRANCH   4   5
ATOM      5  C   UNL     1      41.283  57.677  45.513  1.00  0.00     0.006 C 
BRANCH   5   6
ATOM      6  C   UNL     1      40.465  56.748  46.421  1.00  0.00     0.053 C 
BRANCH   6   7
ATOM      7  C   UNL     1      40.464  57.217  47.844  1.00  0.00     0.041 C 
ATOM      8  O   UNL     1      41.481  57.046  48.568  1.00  0.00    -0.550 OA
ATOM      9  O   UNL     1      39.350  57.861  48.367  1.00  0.00    -0.550 OA
ENDBRANCH   6   7
ENDBRANCH   5   6
ENDBRANCH   4   5
ENDBRANCH   3   4
ENDBRANCH   2   3
ENDBRANCH   1   2
BRANCH   1  10
ATOM     10  C   UNL     1      45.379  57.675  48.444  1.00  0.00     0.000 C 
BRANCH  10  11
ATOM     11  C   UNL     1      44.590  58.359  49.567  1.00  0.00    -0.000 C 
BRANCH  11  12
ATOM     12  C   UNL     1      45.114  59.781  49.819  1.00  0.00    -0.000 C 
BRANCH  12  13
ATOM     13  C   UNL     1      44.356  60.845  49.009  1.00  0.00    -0.000 C 
BRANCH  13  14
ATOM     14  C   UNL     1      43.235  61.518  49.819  1.00  0.00    -0.000 C 
BRANCH  14  15
ATOM     15  C   UNL     1      41.855  61.354  49.162  1.00  0.00    -0.003 C 
ATOM     16  C   UNL     1      41.882  60.425  47.949  1.00  0.00     0.004 C 
ENDBRANCH  14  15
ENDBRANCH  13  14
ENDBRANCH  12  13
ENDBRANCH  11  12
ENDBRANCH  10  11
ENDBRANCH   1  10
TORSDOF 12
ENDMDL
MODEL 8
REMARK VINA RESULT:    -4.655      2.177      4.973
REMARK INTER + INTRA:          -9.302
REMARK INTER:                  -7.846
REMARK INTRA:                  -1.456
REMARK UNBOUND:                -1.382
REMARK SMILES CCCCCCCCCCCCCC(=O)[O-]
REMARK SMILES IDX 8 1 9 2 10 3 11 4 12 5 13 6 14 7 15 8 16 9 7 10 6 11 5 12
REMARK SMILES IDX 4 13 3 14 2 15 1 16
REMARK H PARENT
REMARK Flexibility Score: inf
ROOT
ATOM      1  C   UNL     1      43.950  57.050  47.381  1.00  0.00     0.000 C 
ENDROOT
BRANCH   1   2
ATOM      2  C   UNL     1      45.315  56.629  47.948  1.00  0.00     0.000 C 
BRANCH   2   3
ATOM      3  C   UNL     1      46.002  57.754  48.741  1.00  0.00     0.000 C 
BRANCH   3   4
ATOM      4  C   UNL     1      45.027  58.468  49.705  1.00  0.00     0.000 C 
BRANCH   4   5
ATOM      5  C   UNL     1      44.904  59.981  49.445  1.00  0.00     0.006 C 
BRANCH   5   6
ATOM      6  C   UNL     1      43.772  60.357  48.479  1.00  0.00     0.053 C 
BRANCH   6   7
ATOM      7  C   UNL     1      42.744  61.227  49.135  1.00  0.00     0.041 C 
ATOM      8  O   UNL     1      41.555  61.228  48.718  1.00  0.00    -0.550 OA
ATOM      9  O   UNL     1      43.091  62.024  50.218  1.00  0.00    -0.550 OA
ENDBRANCH   6   7
ENDBRANCH   5   6
ENDBRANCH   4   5
ENDBRANCH   3   4
ENDBRANCH   2   3
ENDBRANCH   1   2
BRANCH   1  10
ATOM     10  C   UNL     1      44.054  57.670  45.980  1.00  0.00     0.000 C 
BRANCH  10  11
ATOM     11  C   UNL     1      42.788  57.392  45.160  1.00  0.00    -0.000 C 
BRANCH  11  12
ATOM     12  C   UNL     1      41.564  58.074  45.791  1.00  0.00    -0.000 C 
BRANCH  12  13
ATOM     13  C   UNL     1      40.392  57.105  46.011  1.00  0.00    -0.000 C 
BRANCH  13  14
ATOM     14  C   UNL     1      40.228  56.700  47.486  1.00  0.00    -0.000 C 
BRANCH  14  15
ATOM     15  C   UNL     1      40.142  57.916  48.423  1.00  0.00    -0.003 C 
ATOM     16  C   UNL     1      41.223  57.910  49.504  1.00  0.00     0.004 C 
ENDBRANCH  14  15
ENDBRANCH  13  14
ENDBRANCH  12  13
ENDBRANCH  11  12
ENDBRANCH  10  11
ENDBRANCH   1  10
TORSDOF 12
ENDMDL
MODEL 9
REMARK VINA RESULT:    -4.634      0.860      1.647
REMARK INTER + INTRA:          -9.267
REMARK INTER:                  -7.892
REMARK INTRA:                  -1.376
REMARK UNBOUND:                -1.382
REMARK SMILES CCCCCCCCCCCCCC(=O)[O-]
REMARK SMILES IDX 8 1 9 2 10 3 11 4 12 5 13 6 14 7 15 8 16 9 7 10 6 11 5 12
REMARK SMILES IDX 4 13 3 14 2 15 1 16
REMARK H PARENT
REMARK Flexibility Score: inf
ROOT
ATOM      1  C   UNL     1      45.303  59.771  50.021  1.00  0.00     0.000 C 
ENDROOT
BRANCH   1   2
ATOM      2  C   UNL     1      44.391  60.576  49.083  1.00  0.00     0.000 C 
BRANCH   2   3
ATOM      3  C   UNL     1      43.076  61.005  49.757  1.00  0.00     0.000 C 
BRANCH   3   4
ATOM      4  C   UNL     1      41.906  61.095  48.751  1.00  0.00     0.000 C 
BRANCH   4   5
ATOM      5  C   UNL     1      41.598  59.758  48.049  1.00  0.00     0.006 C 
BRANCH   5   6
ATOM      6  C   UNL     1      41.239  58.617  49.012  1.00  0.00     0.053 C 
BRANCH   6   7
ATOM      7  C   UNL     1      40.255  57.664  48.406  1.00  0.00     0.041 C 
ATOM      8  O   UNL     1      40.633  56.830  47.541  1.00  0.00    -0.550 OA
ATOM      9  O   UNL     1      38.926  57.681  48.809  1.00  0.00    -0.550 OA
ENDBRANCH   6   7
ENDBRANCH   5   6
ENDBRANCH   4   5
ENDBRANCH   3   4
ENDBRANCH   2   3
ENDBRANCH   1   2
BRANCH   1  10
ATOM     10  C   UNL     1      45.142  58.254  49.848  1.00  0.00     0.000 C 
BRANCH  10  11
ATOM     11  C   UNL     1      46.073  57.724  48.750  1.00  0.00    -0.000 C 
BRANCH  11  12
ATOM     12  C   UNL     1      45.415  56.565  47.985  1.00  0.00    -0.000 C 
BRANCH  12  13
ATOM     13  C   UNL     1      44.022  56.925  47.445  1.00  0.00    -0.000 C 
BRANCH  13  14
ATOM     14  C   UNL     1      44.081  57.899  46.256  1.00  0.00    -0.000 C 
BRANCH  14  15
ATOM     15  C   UNL     1      42.802  57.867  45.405  1.00  0.00    -0.003 C 
ATOM     16  C   UNL     1      42.893  56.891  44.232  1.00  0.00     0.004 C 
ENDBRANCH  14  15
ENDBRANCH  13  14
ENDBRANCH  12  13
ENDBRANCH  11  12
ENDBRANCH  10  11
ENDBRANCH   1  10
TORSDOF 12
ENDMDL
