MODEL 1
REMARK VINA RESULT:    -0.797      0.000      0.000
REMARK INTER + INTRA:          -0.997
REMARK INTER:                  -0.913
REMARK INTRA:                  -0.084
REMARK UNBOUND:                -0.084
REMARK SMILES COc1cc(C(=O)[O-])ccc1O
REMARK SMILES IDX 5 1 9 2 4 3 10 4 3 5 11 6 6 7 7 8 8 9 2 10 1 11 12 12
REMARK H PARENT 12 13
REMARK Flexibility Score: inf
ROOT
ATOM      1  C   UNL     1      10.339 131.755   5.580  1.00  0.00     0.001 A 
ATOM      2  C   UNL     1      10.579 133.133   5.442  1.00  0.00     0.014 A 
ATOM      3  C   UNL     1      11.434 130.879   5.691  1.00  0.00     0.060 A 
ATOM      4  C   UNL     1      11.885 133.625   5.418  1.00  0.00     0.051 A 
ATOM      5  C   UNL     1      12.755 131.371   5.667  1.00  0.00     0.161 A 
ATOM      6  C   UNL     1      12.972 132.749   5.529  1.00  0.00     0.157 A 
ENDROOT
BRANCH   1   7
ATOM      7  C   UNL     1       8.956 131.231   5.606  1.00  0.00     0.072 C 
ATOM      8  O   UNL     1       8.286 131.137   4.542  1.00  0.00    -0.545 OA
ATOM      9  O   UNL     1       8.374 130.834   6.805  1.00  0.00    -0.545 OA
ENDBRANCH   1   7
BRANCH   5  10
ATOM     10  O   UNL     1      13.871 130.528   5.776  1.00  0.00    -0.493 OA
ATOM     11  C   UNL     1      14.009 129.494   6.747  1.00  0.00     0.278 C 
ENDBRANCH   5  10
BRANCH   6  12
ATOM     12  O   UNL     1      14.276 133.242   5.504  1.00  0.00    -0.504 OA
ATOM     13  H   UNL     1      14.700 133.660   6.324  1.00  0.00     0.293 HD
ENDBRANCH   6  12
TORSDOF 3
ENDMDL
MODEL 2
REMARK VINA RESULT:    -0.371      1.847      2.465
REMARK INTER + INTRA:          -0.509
REMARK INTER:                  -0.502
REMARK INTRA:                  -0.007
REMARK UNBOUND:                -0.084
REMARK SMILES COc1cc(C(=O)[O-])ccc1O
REMARK SMILES IDX 5 1 9 2 4 3 10 4 3 5 11 6 6 7 7 8 8 9 2 10 1 11 12 12
REMARK H PARENT 12 13
REMARK Flexibility Score: inf
ROOT
ATOM      1  C   UNL     1       9.889 131.568   6.008  1.00  0.00     0.001 A 
ATOM      2  C   UNL     1      10.275 130.755   4.929  1.00  0.00     0.014 A 
ATOM      3  C   UNL     1      10.667 132.694   6.329  1.00  0.00     0.060 A 
ATOM      4  C   UNL     1      11.416 131.064   4.185  1.00  0.00     0.051 A 
ATOM      5  C   UNL     1      11.821 133.009   5.581  1.00  0.00     0.161 A 
ATOM      6  C   UNL     1      12.189 132.186   4.508  1.00  0.00     0.157 A 
ENDROOT
BRANCH   1   7
ATOM      7  C   UNL     1       8.680 131.245   6.799  1.00  0.00     0.072 C 
ATOM      8  O   UNL     1       7.880 130.352   6.410  1.00  0.00    -0.545 OA
ATOM      9  O   UNL     1       8.410 131.922   7.983  1.00  0.00    -0.545 OA
ENDBRANCH   1   7
BRANCH   5  10
ATOM     10  O   UNL     1      12.621 134.124   5.872  1.00  0.00    -0.493 OA
ATOM     11  C   UNL     1      13.848 134.071   6.592  1.00  0.00     0.278 C 
ENDBRANCH   5  10
BRANCH   6  12
ATOM     12  O   UNL     1      13.328 132.491   3.764  1.00  0.00    -0.504 OA
ATOM     13  H   UNL     1      13.491 132.082   2.852  1.00  0.00     0.293 HD
ENDBRANCH   6  12
TORSDOF 3
ENDMDL
MODEL 3
REMARK VINA RESULT:     0.465      1.600      1.894
REMARK INTER + INTRA:           0.449
REMARK INTER:                   0.461
REMARK INTRA:                  -0.012
REMARK UNBOUND:                -0.084
REMARK SMILES COc1cc(C(=O)[O-])ccc1O
REMARK SMILES IDX 5 1 9 2 4 3 10 4 3 5 11 6 6 7 7 8 8 9 2 10 1 11 12 12
REMARK H PARENT 12 13
REMARK Flexibility Score: inf
ROOT
ATOM      1  C   UNL     1      10.230 131.887   5.972  1.00  0.00     0.001 A 
ATOM      2  C   UNL     1      10.476 133.148   6.540  1.00  0.00     0.014 A 
ATOM      3  C   UNL     1      11.138 131.374   5.028  1.00  0.00     0.060 A 
ATOM      4  C   UNL     1      11.606 133.881   6.173  1.00  0.00     0.051 A 
ATOM      5  C   UNL     1      12.280 132.111   4.654  1.00  0.00     0.161 A 
ATOM      6  C   UNL     1      12.508 133.367   5.233  1.00  0.00     0.157 A 
ENDROOT
BRANCH   1   7
ATOM      7  C   UNL     1       9.033 131.107   6.359  1.00  0.00     0.072 C 
ATOM      8  O   UNL     1       8.669 130.112   5.676  1.00  0.00    -0.545 OA
ATOM      9  O   UNL     1       8.292 131.463   7.480  1.00  0.00    -0.545 OA
ENDBRANCH   1   7
BRANCH   5  10
ATOM     10  O   UNL     1      13.208 131.631   3.717  1.00  0.00    -0.493 OA
ATOM     11  C   UNL     1      13.247 132.020   2.348  1.00  0.00     0.278 C 
ENDBRANCH   5  10
BRANCH   6  12
ATOM     12  O   UNL     1      13.636 134.100   4.868  1.00  0.00    -0.504 OA
ATOM     13  H   UNL     1      14.482 134.083   5.424  1.00  0.00     0.293 HD
ENDBRANCH   6  12
TORSDOF 3
ENDMDL
MODEL 4
REMARK VINA RESULT:     1.042      1.789      4.657
REMARK INTER + INTRA:           1.110
REMARK INTER:                   0.722
REMARK INTRA:                   0.388
REMARK UNBOUND:                -0.084
REMARK SMILES COc1cc(C(=O)[O-])ccc1O
REMARK SMILES IDX 5 1 9 2 4 3 10 4 3 5 11 6 6 7 7 8 8 9 2 10 1 11 12 12
REMARK H PARENT 12 13
REMARK Flexibility Score: inf
ROOT
ATOM      1  C   UNL     1      11.954 132.588   5.445  1.00  0.00     0.001 A 
ATOM      2  C   UNL     1      11.764 131.406   4.709  1.00  0.00     0.014 A 
ATOM      3  C   UNL     1      10.984 132.969   6.389  1.00  0.00     0.060 A 
ATOM      4  C   UNL     1      10.628 130.621   4.915  1.00  0.00     0.051 A 
ATOM      5  C   UNL     1       9.836 132.179   6.599  1.00  0.00     0.161 A 
ATOM      6  C   UNL     1       9.665 131.003   5.856  1.00  0.00     0.157 A 
ENDROOT
BRANCH   1   7
ATOM      7  C   UNL     1      13.157 133.424   5.229  1.00  0.00     0.072 C 
ATOM      8  O   UNL     1      13.595 133.628   4.065  1.00  0.00    -0.545 OA
ATOM      9  O   UNL     1      13.822 133.994   6.309  1.00  0.00    -0.545 OA
ENDBRANCH   1   7
BRANCH   5  10
ATOM     10  O   UNL     1       8.848 132.527   7.533  1.00  0.00    -0.493 OA
ATOM     11  C   UNL     1       8.333 131.649   8.529  1.00  0.00     0.278 C 
ENDBRANCH   5  10
BRANCH   6  12
ATOM     12  O   UNL     1       8.531 130.218   6.059  1.00  0.00    -0.504 OA
ATOM     13  H   UNL     1       8.152 130.065   6.986  1.00  0.00     0.293 HD
ENDBRANCH   6  12
TORSDOF 3
ENDMDL
MODEL 5
REMARK VINA RESULT:     1.124      2.075      4.272
REMARK INTER + INTRA:           1.205
REMARK INTER:                   0.785
REMARK INTRA:                   0.419
REMARK UNBOUND:                -0.084
REMARK SMILES COc1cc(C(=O)[O-])ccc1O
REMARK SMILES IDX 5 1 9 2 4 3 10 4 3 5 11 6 6 7 7 8 8 9 2 10 1 11 12 12
REMARK H PARENT 12 13
REMARK Flexibility Score: inf
ROOT
ATOM      1  C   UNL     1      12.160 132.701   4.423  1.00  0.00     0.001 A 
ATOM      2  C   UNL     1      11.977 133.735   5.357  1.00  0.00     0.014 A 
ATOM      3  C   UNL     1      11.375 131.539   4.528  1.00  0.00     0.060 A 
ATOM      4  C   UNL     1      11.028 133.610   6.373  1.00  0.00     0.051 A 
ATOM      5  C   UNL     1      10.417 131.408   5.553  1.00  0.00     0.161 A 
ATOM      6  C   UNL     1      10.249 132.451   6.474  1.00  0.00     0.157 A 
ENDROOT
BRANCH   1   7
ATOM      7  C   UNL     1      13.165 132.831   3.344  1.00  0.00     0.072 C 
ATOM      8  O   UNL     1      13.959 133.809   3.322  1.00  0.00    -0.545 OA
ATOM      9  O   UNL     1      13.246 131.875   2.338  1.00  0.00    -0.545 OA
ENDBRANCH   1   7
BRANCH   5  10
ATOM     10  O   UNL     1       9.616 130.263   5.688  1.00  0.00    -0.493 OA
ATOM     11  C   UNL     1       8.204 130.283   5.873  1.00  0.00     0.278 C 
ENDBRANCH   5  10
BRANCH   6  12
ATOM     12  O   UNL     1       9.302 132.327   7.490  1.00  0.00    -0.504 OA
ATOM     13  H   UNL     1       8.949 133.136   7.987  1.00  0.00     0.293 HD
ENDBRANCH   6  12
TORSDOF 3
ENDMDL
MODEL 6
REMARK VINA RESULT:     1.313      1.270      4.572
REMARK INTER + INTRA:           1.421
REMARK INTER:                   1.517
REMARK INTRA:                  -0.096
REMARK UNBOUND:                -0.084
REMARK SMILES COc1cc(C(=O)[O-])ccc1O
REMARK SMILES IDX 5 1 9 2 4 3 10 4 3 5 11 6 6 7 7 8 8 9 2 10 1 11 12 12
REMARK H PARENT 12 13
REMARK Flexibility Score: inf
ROOT
ATOM      1  C   UNL     1      11.588 131.555   5.299  1.00  0.00     0.001 A 
ATOM      2  C   UNL     1      11.202 131.991   4.020  1.00  0.00     0.014 A 
ATOM      3  C   UNL     1      10.598 131.149   6.212  1.00  0.00     0.060 A 
ATOM      4  C   UNL     1       9.853 132.018   3.661  1.00  0.00     0.051 A 
ATOM      5  C   UNL     1       9.235 131.176   5.853  1.00  0.00     0.161 A 
ATOM      6  C   UNL     1       8.870 131.613   4.571  1.00  0.00     0.157 A 
ENDROOT
BRANCH   1   7
ATOM      7  C   UNL     1      13.017 131.525   5.684  1.00  0.00     0.072 C 
ATOM      8  O   UNL     1      13.717 132.572   5.632  1.00  0.00    -0.545 OA
ATOM      9  O   UNL     1      13.608 130.340   6.108  1.00  0.00    -0.545 OA
ENDBRANCH   1   7
BRANCH   5  10
ATOM     10  O   UNL     1       8.220 130.778   6.736  1.00  0.00    -0.493 OA
ATOM     11  C   UNL     1       7.878 131.465   7.936  1.00  0.00     0.278 C 
ENDBRANCH   5  10
BRANCH   6  12
ATOM     12  O   UNL     1       7.524 131.641   4.211  1.00  0.00    -0.504 OA
ATOM     13  H   UNL     1       7.164 131.066   3.458  1.00  0.00     0.293 HD
ENDBRANCH   6  12
TORSDOF 3
ENDMDL
MODEL 7
REMARK VINA RESULT:     1.369      1.567      4.085
REMARK INTER + INTRA:           1.486
REMARK INTER:                   1.565
REMARK INTRA:                  -0.079
REMARK UNBOUND:                -0.084
REMARK SMILES COc1cc(C(=O)[O-])ccc1O
REMARK SMILES IDX 5 1 9 2 4 3 10 4 3 5 11 6 6 7 7 8 8 9 2 10 1 11 12 12
REMARK H PARENT 12 13
REMARK Flexibility Score: inf
ROOT
ATOM      1  C   UNL     1      13.035 130.773   6.087  1.00  0.00     0.001 A 
ATOM      2  C   UNL     1      13.661 131.947   5.635  1.00  0.00     0.014 A 
ATOM      3  C   UNL     1      11.657 130.604   5.864  1.00  0.00     0.060 A 
ATOM      4  C   UNL     1      12.925 132.931   4.973  1.00  0.00     0.051 A 
ATOM      5  C   UNL     1      10.909 131.596   5.197  1.00  0.00     0.161 A 
ATOM      6  C   UNL     1      11.552 132.760   4.753  1.00  0.00     0.157 A 
ENDROOT
BRANCH   1   7
ATOM      7  C   UNL     1      13.813 129.727   6.789  1.00  0.00     0.072 C 
ATOM      8  O   UNL     1      14.358 128.792   6.143  1.00  0.00    -0.545 OA
ATOM      9  O   UNL     1      13.952 129.762   8.172  1.00  0.00    -0.545 OA
ENDBRANCH   1   7
BRANCH   5  10
ATOM     10  O   UNL     1       9.533 131.462   4.957  1.00  0.00    -0.493 OA
ATOM     11  C   UNL     1       8.614 130.841   5.850  1.00  0.00     0.278 C 
ENDBRANCH   5  10
BRANCH   6  12
ATOM     12  O   UNL     1      10.819 133.744   4.093  1.00  0.00    -0.504 OA
ATOM     13  H   UNL     1       9.913 133.545   3.684  1.00  0.00     0.293 HD
ENDBRANCH   6  12
TORSDOF 3
ENDMDL
MODEL 8
REMARK VINA RESULT:     2.126      1.736      4.941
REMARK INTER + INTRA:           2.353
REMARK INTER:                   2.431
REMARK INTRA:                  -0.077
REMARK UNBOUND:                -0.084
REMARK SMILES COc1cc(C(=O)[O-])ccc1O
REMARK SMILES IDX 5 1 9 2 4 3 10 4 3 5 11 6 6 7 7 8 8 9 2 10 1 11 12 12
REMARK H PARENT 12 13
REMARK Flexibility Score: inf
ROOT
ATOM      1  C   UNL     1      11.722 132.102   4.571  1.00  0.00     0.001 A 
ATOM      2  C   UNL     1      11.700 131.474   5.828  1.00  0.00     0.014 A 
ATOM      3  C   UNL     1      10.527 132.205   3.837  1.00  0.00     0.060 A 
ATOM      4  C   UNL     1      10.507 130.961   6.341  1.00  0.00     0.051 A 
ATOM      5  C   UNL     1       9.320 131.688   4.351  1.00  0.00     0.161 A 
ATOM      6  C   UNL     1       9.319 131.066   5.607  1.00  0.00     0.157 A 
ENDROOT
BRANCH   1   7
ATOM      7  C   UNL     1      12.985 132.646   4.024  1.00  0.00     0.072 C 
ATOM      8  O   UNL     1      13.343 132.375   2.846  1.00  0.00    -0.545 OA
ATOM      9  O   UNL     1      13.796 133.465   4.802  1.00  0.00    -0.545 OA
ENDBRANCH   1   7
BRANCH   5  10
ATOM     10  O   UNL     1       8.109 131.774   3.648  1.00  0.00    -0.493 OA
ATOM     11  C   UNL     1       7.947 132.432   2.395  1.00  0.00     0.278 C 
ENDBRANCH   5  10
BRANCH   6  12
ATOM     12  O   UNL     1       8.129 130.553   6.121  1.00  0.00    -0.504 OA
ATOM     13  H   UNL     1       8.124 129.891   6.888  1.00  0.00     0.293 HD
ENDBRANCH   6  12
TORSDOF 3
ENDMDL
