MODEL 1
REMARK VINA RESULT:    -3.245      0.000      0.000
REMARK INTER + INTRA:         -13.750
REMARK INTER:                  -8.461
REMARK INTRA:                  -5.289
REMARK UNBOUND:                -5.289
REMARK SMILES CCCCCCCCCCCCCCCCCCCCCCCCCCCCCO
REMARK SMILES IDX 16 1 15 2 14 3 13 4 12 5 11 6 10 7 9 8 8 9 7 10 6 11 5 12
REMARK SMILES IDX 4 13 3 14 2 15 1 16 17 17 18 18 19 19 20 20 21 21 22 22
REMARK SMILES IDX 23 23 24 24 25 25 26 26 27 27 28 28 29 29 30 30
REMARK H PARENT 30 31
REMARK Flexibility Score: inf
ROOT
ATOM      1  C   UNL     1     109.484 107.459 108.898  1.00  0.00     0.000 C 
ENDROOT
BRANCH   1   2
ATOM      2  C   UNL     1     109.599 108.761 109.709  1.00  0.00     0.000 C 
BRANCH   2   3
ATOM      3  C   UNL     1     109.042 109.991 108.967  1.00  0.00     0.000 C 
BRANCH   3   4
ATOM      4  C   UNL     1     110.042 111.143 108.747  1.00  0.00     0.000 C 
BRANCH   4   5
ATOM      5  C   UNL     1     109.369 112.524 108.692  1.00  0.00     0.000 C 
BRANCH   5   6
ATOM      6  C   UNL     1     107.839 112.433 108.588  1.00  0.00     0.000 C 
BRANCH   6   7
ATOM      7  C   UNL     1     107.254 113.376 107.519  1.00  0.00     0.000 C 
BRANCH   7   8
ATOM      8  C   UNL     1     106.579 112.597 106.375  1.00  0.00    -0.000 C 
BRANCH   8   9
ATOM      9  C   UNL     1     107.389 111.373 105.913  1.00  0.00    -0.000 C 
BRANCH   9  10
ATOM     10  C   UNL     1     107.555 111.328 104.384  1.00  0.00    -0.000 C 
BRANCH  10  11
ATOM     11  C   UNL     1     108.705 112.231 103.885  1.00  0.00    -0.000 C 
BRANCH  11  12
ATOM     12  C   UNL     1     109.958 112.210 104.781  1.00  0.00    -0.000 C 
BRANCH  12  13
ATOM     13  C   UNL     1     111.284 111.930 104.053  1.00  0.00    -0.000 C 
BRANCH  13  14
ATOM     14  C   UNL     1     112.518 112.291 104.900  1.00  0.00    -0.000 C 
BRANCH  14  15
ATOM     15  C   UNL     1     112.136 112.883 106.267  1.00  0.00    -0.003 C 
ATOM     16  C   UNL     1     113.341 113.426 107.034  1.00  0.00     0.004 C 
ENDBRANCH  14  15
ENDBRANCH  13  14
ENDBRANCH  12  13
ENDBRANCH  11  12
ENDBRANCH  10  11
ENDBRANCH   9  10
ENDBRANCH   8   9
ENDBRANCH   7   8
ENDBRANCH   6   7
ENDBRANCH   5   6
ENDBRANCH   4   5
ENDBRANCH   3   4
ENDBRANCH   2   3
ENDBRANCH   1   2
BRANCH   1  17
ATOM     17  C   UNL     1     108.048 106.905 108.857  1.00  0.00     0.000 C 
BRANCH  17  18
ATOM     18  C   UNL     1     107.151 107.496 107.755  1.00  0.00     0.000 C 
BRANCH  18  19
ATOM     19  C   UNL     1     107.244 106.726 106.430  1.00  0.00     0.000 C 
BRANCH  19  20
ATOM     20  C   UNL     1     107.418 107.688 105.249  1.00  0.00     0.000 C 
BRANCH  20  21
ATOM     21  C   UNL     1     108.463 107.159 104.255  1.00  0.00     0.000 C 
BRANCH  21  22
ATOM     22  C   UNL     1     109.662 108.107 104.100  1.00  0.00     0.000 C 
BRANCH  22  23
ATOM     23  C   UNL     1     110.177 108.639 105.450  1.00  0.00     0.000 C 
BRANCH  23  24
ATOM     24  C   UNL     1     111.658 108.304 105.687  1.00  0.00     0.000 C 
BRANCH  24  25
ATOM     25  C   UNL     1     112.230 109.008 106.929  1.00  0.00     0.000 C 
BRANCH  25  26
ATOM     26  C   UNL     1     113.220 108.128 107.710  1.00  0.00     0.000 C 
BRANCH  26  27
ATOM     27  C   UNL     1     112.812 106.639 107.763  1.00  0.00     0.002 C 
BRANCH  27  28
ATOM     28  C   UNL     1     113.977 105.730 108.188  1.00  0.00     0.028 C 
BRANCH  28  29
ATOM     29  C   UNL     1     115.081 106.518 108.901  1.00  0.00     0.156 C 
BRANCH  29  30
ATOM     30  O   UNL     1     116.309 106.381 108.238  1.00  0.00    -0.396 OA
ATOM     31  H   UNL     1     116.234 106.898 107.394  1.00  0.00     0.210 HD
ENDBRANCH  29  30
ENDBRANCH  28  29
ENDBRANCH  27  28
ENDBRANCH  26  27
ENDBRANCH  25  26
ENDBRANCH  24  25
ENDBRANCH  23  24
ENDBRANCH  22  23
ENDBRANCH  21  22
ENDBRANCH  20  21
ENDBRANCH  19  20
ENDBRANCH  18  19
ENDBRANCH  17  18
ENDBRANCH   1  17
TORSDOF 28
ENDMDL
MODEL 2
REMARK VINA RESULT:    -3.027      3.088      7.723
REMARK INTER + INTRA:         -13.183
REMARK INTER:                  -8.328
REMARK INTRA:                  -4.855
REMARK UNBOUND:                -5.289
REMARK SMILES CCCCCCCCCCCCCCCCCCCCCCCCCCCCCO
REMARK SMILES IDX 16 1 15 2 14 3 13 4 12 5 11 6 10 7 9 8 8 9 7 10 6 11 5 12
REMARK SMILES IDX 4 13 3 14 2 15 1 16 17 17 18 18 19 19 20 20 21 21 22 22
REMARK SMILES IDX 23 23 24 24 25 25 26 26 27 27 28 28 29 29 30 30
REMARK H PARENT 30 31
REMARK Flexibility Score: inf
ROOT
ATOM      1  C   UNL     1     111.380 112.221 106.643  1.00  0.00     0.000 C 
ENDROOT
BRANCH   1   2
ATOM      2  C   UNL     1     111.052 110.778 107.065  1.00  0.00     0.000 C 
BRANCH   2   3
ATOM      3  C   UNL     1     112.283 109.851 107.067  1.00  0.00     0.000 C 
BRANCH   3   4
ATOM      4  C   UNL     1     112.102 108.507 106.334  1.00  0.00     0.000 C 
BRANCH   4   5
ATOM      5  C   UNL     1     112.579 108.547 104.873  1.00  0.00     0.000 C 
BRANCH   5   6
ATOM      6  C   UNL     1     111.627 107.813 103.918  1.00  0.00     0.000 C 
BRANCH   6   7
ATOM      7  C   UNL     1     110.168 108.289 104.041  1.00  0.00     0.000 C 
BRANCH   7   8
ATOM      8  C   UNL     1     109.170 107.122 103.921  1.00  0.00    -0.000 C 
BRANCH   8   9
ATOM      9  C   UNL     1     108.253 106.979 105.149  1.00  0.00    -0.000 C 
BRANCH   9  10
ATOM     10  C   UNL     1     108.414 108.151 106.135  1.00  0.00    -0.000 C 
BRANCH  10  11
ATOM     11  C   UNL     1     108.898 107.691 107.528  1.00  0.00    -0.000 C 
BRANCH  11  12
ATOM     12  C   UNL     1     108.251 108.450 108.703  1.00  0.00    -0.000 C 
BRANCH  12  13
ATOM     13  C   UNL     1     107.059 107.741 109.369  1.00  0.00    -0.000 C 
BRANCH  13  14
ATOM     14  C   UNL     1     107.177 106.207 109.324  1.00  0.00    -0.000 C 
BRANCH  14  15
ATOM     15  C   UNL     1     106.018 105.553 108.553  1.00  0.00    -0.003 C 
ATOM     16  C   UNL     1     105.841 104.073 108.893  1.00  0.00     0.004 C 
ENDBRANCH  14  15
ENDBRANCH  13  14
ENDBRANCH  12  13
ENDBRANCH  11  12
ENDBRANCH  10  11
ENDBRANCH   9  10
ENDBRANCH   8   9
ENDBRANCH   7   8
ENDBRANCH   6   7
ENDBRANCH   5   6
ENDBRANCH   4   5
ENDBRANCH   3   4
ENDBRANCH   2   3
ENDBRANCH   1   2
BRANCH   1  17
ATOM     17  C   UNL     1     112.064 112.301 105.265  1.00  0.00     0.000 C 
BRANCH  17  18
ATOM     18  C   UNL     1     111.186 111.877 104.075  1.00  0.00     0.000 C 
BRANCH  18  19
ATOM     19  C   UNL     1     109.806 112.548 104.080  1.00  0.00     0.000 C 
BRANCH  19  20
ATOM     20  C   UNL     1     108.694 111.514 104.292  1.00  0.00     0.000 C 
BRANCH  20  21
ATOM     21  C   UNL     1     107.327 112.196 104.448  1.00  0.00     0.000 C 
BRANCH  21  22
ATOM     22  C   UNL     1     107.044 112.623 105.897  1.00  0.00     0.000 C 
BRANCH  22  23
ATOM     23  C   UNL     1     107.442 111.546 106.922  1.00  0.00     0.000 C 
BRANCH  23  24
ATOM     24  C   UNL     1     107.802 112.142 108.292  1.00  0.00     0.000 C 
BRANCH  24  25
ATOM     25  C   UNL     1     106.705 111.906 109.344  1.00  0.00     0.000 C 
BRANCH  25  26
ATOM     26  C   UNL     1     106.050 113.211 109.826  1.00  0.00     0.000 C 
BRANCH  26  27
ATOM     27  C   UNL     1     107.056 114.362 110.044  1.00  0.00     0.002 C 
BRANCH  27  28
ATOM     28  C   UNL     1     106.530 115.705 109.512  1.00  0.00     0.028 C 
BRANCH  28  29
ATOM     29  C   UNL     1     105.800 115.539 108.175  1.00  0.00     0.156 C 
BRANCH  29  30
ATOM     30  O   UNL     1     106.302 116.426 107.212  1.00  0.00    -0.396 OA
ATOM     31  H   UNL     1     107.291 116.347 107.242  1.00  0.00     0.210 HD
ENDBRANCH  29  30
ENDBRANCH  28  29
ENDBRANCH  27  28
ENDBRANCH  26  27
ENDBRANCH  25  26
ENDBRANCH  24  25
ENDBRANCH  23  24
ENDBRANCH  22  23
ENDBRANCH  21  22
ENDBRANCH  20  21
ENDBRANCH  19  20
ENDBRANCH  18  19
ENDBRANCH  17  18
ENDBRANCH   1  17
TORSDOF 28
ENDMDL
MODEL 3
REMARK VINA RESULT:    -3.026      3.069      6.186
REMARK INTER + INTRA:         -13.180
REMARK INTER:                  -8.691
REMARK INTRA:                  -4.489
REMARK UNBOUND:                -5.289
REMARK SMILES CCCCCCCCCCCCCCCCCCCCCCCCCCCCCO
REMARK SMILES IDX 16 1 15 2 14 3 13 4 12 5 11 6 10 7 9 8 8 9 7 10 6 11 5 12
REMARK SMILES IDX 4 13 3 14 2 15 1 16 17 17 18 18 19 19 20 20 21 21 22 22
REMARK SMILES IDX 23 23 24 24 25 25 26 26 27 27 28 28 29 29 30 30
REMARK H PARENT 30 31
REMARK Flexibility Score: inf
ROOT
ATOM      1  C   UNL     1     107.181 107.986 108.688  1.00  0.00     0.000 C 
ENDROOT
BRANCH   1   2
ATOM      2  C   UNL     1     107.764 109.395 108.487  1.00  0.00     0.000 C 
BRANCH   2   3
ATOM      3  C   UNL     1     108.985 109.682 109.383  1.00  0.00     0.000 C 
BRANCH   3   4
ATOM      4  C   UNL     1     110.235 110.210 108.653  1.00  0.00     0.000 C 
BRANCH   4   5
ATOM      5  C   UNL     1     111.543 109.594 109.176  1.00  0.00     0.000 C 
BRANCH   5   6
ATOM      6  C   UNL     1     111.544 108.060 109.110  1.00  0.00     0.000 C 
BRANCH   6   7
ATOM      7  C   UNL     1     111.648 107.521 107.672  1.00  0.00     0.000 C 
BRANCH   7   8
ATOM      8  C   UNL     1     113.014 107.842 107.035  1.00  0.00    -0.000 C 
BRANCH   8   9
ATOM      9  C   UNL     1     112.909 108.275 105.562  1.00  0.00    -0.000 C 
BRANCH   9  10
ATOM     10  C   UNL     1     111.669 109.147 105.298  1.00  0.00    -0.000 C 
BRANCH  10  11
ATOM     11  C   UNL     1     111.748 109.899 103.951  1.00  0.00    -0.000 C 
BRANCH  11  12
ATOM     12  C   UNL     1     111.614 111.430 104.073  1.00  0.00    -0.000 C 
BRANCH  12  13
ATOM     13  C   UNL     1     112.379 112.066 105.246  1.00  0.00    -0.000 C 
BRANCH  13  14
ATOM     14  C   UNL     1     111.450 112.541 106.378  1.00  0.00    -0.000 C 
BRANCH  14  15
ATOM     15  C   UNL     1     112.227 113.156 107.553  1.00  0.00    -0.003 C 
ATOM     16  C   UNL     1     113.631 113.615 107.158  1.00  0.00     0.004 C 
ENDBRANCH  14  15
ENDBRANCH  13  14
ENDBRANCH  12  13
ENDBRANCH  11  12
ENDBRANCH  10  11
ENDBRANCH   9  10
ENDBRANCH   8   9
ENDBRANCH   7   8
ENDBRANCH   6   7
ENDBRANCH   5   6
ENDBRANCH   4   5
ENDBRANCH   3   4
ENDBRANCH   2   3
ENDBRANCH   1   2
BRANCH   1  17
ATOM     17  C   UNL     1     107.957 106.902 107.916  1.00  0.00     0.000 C 
BRANCH  17  18
ATOM     18  C   UNL     1     108.499 107.339 106.544  1.00  0.00     0.000 C 
BRANCH  18  19
ATOM     19  C   UNL     1     107.413 107.390 105.461  1.00  0.00     0.000 C 
BRANCH  19  20
ATOM     20  C   UNL     1     107.975 107.944 104.146  1.00  0.00     0.000 C 
BRANCH  20  21
ATOM     21  C   UNL     1     107.523 109.393 103.919  1.00  0.00     0.000 C 
BRANCH  21  22
ATOM     22  C   UNL     1     108.167 110.374 104.910  1.00  0.00     0.000 C 
BRANCH  22  23
ATOM     23  C   UNL     1     107.274 111.593 105.205  1.00  0.00     0.000 C 
BRANCH  23  24
ATOM     24  C   UNL     1     107.783 112.420 106.396  1.00  0.00     0.000 C 
BRANCH  24  25
ATOM     25  C   UNL     1     106.681 113.293 107.021  1.00  0.00     0.000 C 
BRANCH  25  26
ATOM     26  C   UNL     1     107.032 113.769 108.440  1.00  0.00     0.000 C 
BRANCH  26  27
ATOM     27  C   UNL     1     105.945 114.661 109.078  1.00  0.00     0.002 C 
BRANCH  27  28
ATOM     28  C   UNL     1     106.312 116.153 109.027  1.00  0.00     0.028 C 
BRANCH  28  29
ATOM     29  C   UNL     1     105.565 116.884 107.907  1.00  0.00     0.156 C 
BRANCH  29  30
ATOM     30  O   UNL     1     106.209 116.711 106.674  1.00  0.00    -0.396 OA
ATOM     31  H   UNL     1     107.080 116.275 106.868  1.00  0.00     0.210 HD
ENDBRANCH  29  30
ENDBRANCH  28  29
ENDBRANCH  27  28
ENDBRANCH  26  27
ENDBRANCH  25  26
ENDBRANCH  24  25
ENDBRANCH  23  24
ENDBRANCH  22  23
ENDBRANCH  21  22
ENDBRANCH  20  21
ENDBRANCH  19  20
ENDBRANCH  18  19
ENDBRANCH  17  18
ENDBRANCH   1  17
TORSDOF 28
ENDMDL
MODEL 4
REMARK VINA RESULT:    -3.011      1.903      6.346
REMARK INTER + INTRA:         -13.140
REMARK INTER:                  -8.746
REMARK INTRA:                  -4.394
REMARK UNBOUND:                -5.289
REMARK SMILES CCCCCCCCCCCCCCCCCCCCCCCCCCCCCO
REMARK SMILES IDX 16 1 15 2 14 3 13 4 12 5 11 6 10 7 9 8 8 9 7 10 6 11 5 12
REMARK SMILES IDX 4 13 3 14 2 15 1 16 17 17 18 18 19 19 20 20 21 21 22 22
REMARK SMILES IDX 23 23 24 24 25 25 26 26 27 27 28 28 29 29 30 30
REMARK H PARENT 30 31
REMARK Flexibility Score: inf
ROOT
ATOM      1  C   UNL     1     108.990 109.879 107.876  1.00  0.00     0.000 C 
ENDROOT
BRANCH   1   2
ATOM      2  C   UNL     1     107.900 108.843 107.552  1.00  0.00     0.000 C 
BRANCH   2   3
ATOM      3  C   UNL     1     108.378 107.737 106.591  1.00  0.00     0.000 C 
BRANCH   3   4
ATOM      4  C   UNL     1     108.061 107.970 105.101  1.00  0.00     0.000 C 
BRANCH   4   5
ATOM      5  C   UNL     1     109.110 107.359 104.158  1.00  0.00     0.000 C 
BRANCH   5   6
ATOM      6  C   UNL     1     110.394 108.197 104.077  1.00  0.00     0.000 C 
BRANCH   6   7
ATOM      7  C   UNL     1     111.658 107.341 103.878  1.00  0.00     0.000 C 
BRANCH   7   8
ATOM      8  C   UNL     1     112.796 107.768 104.823  1.00  0.00    -0.000 C 
BRANCH   8   9
ATOM      9  C   UNL     1     112.323 108.681 105.969  1.00  0.00    -0.000 C 
BRANCH   9  10
ATOM     10  C   UNL     1     112.010 107.889 107.252  1.00  0.00    -0.000 C 
BRANCH  10  11
ATOM     11  C   UNL     1     113.286 107.437 107.996  1.00  0.00    -0.000 C 
BRANCH  11  12
ATOM     12  C   UNL     1     113.155 106.072 108.700  1.00  0.00    -0.000 C 
BRANCH  12  13
ATOM     13  C   UNL     1     113.985 104.932 108.086  1.00  0.00    -0.000 C 
BRANCH  13  14
ATOM     14  C   UNL     1     114.769 104.129 109.140  1.00  0.00    -0.000 C 
BRANCH  14  15
ATOM     15  C   UNL     1     115.762 105.005 109.922  1.00  0.00    -0.003 C 
ATOM     16  C   UNL     1     116.982 105.402 109.092  1.00  0.00     0.004 C 
ENDBRANCH  14  15
ENDBRANCH  13  14
ENDBRANCH  12  13
ENDBRANCH  11  12
ENDBRANCH  10  11
ENDBRANCH   9  10
ENDBRANCH   8   9
ENDBRANCH   7   8
ENDBRANCH   6   7
ENDBRANCH   5   6
ENDBRANCH   4   5
ENDBRANCH   3   4
ENDBRANCH   2   3
ENDBRANCH   1   2
BRANCH   1  17
ATOM     17  C   UNL     1     108.413 111.253 108.265  1.00  0.00     0.000 C 
BRANCH  17  18
ATOM     18  C   UNL     1     107.252 111.747 107.384  1.00  0.00     0.000 C 
BRANCH  18  19
ATOM     19  C   UNL     1     107.728 112.440 106.100  1.00  0.00     0.000 C 
BRANCH  19  20
ATOM     20  C   UNL     1     107.490 111.548 104.875  1.00  0.00     0.000 C 
BRANCH  20  21
ATOM     21  C   UNL     1     108.723 111.525 103.961  1.00  0.00     0.000 C 
BRANCH  21  22
ATOM     22  C   UNL     1     109.892 112.345 104.526  1.00  0.00     0.000 C 
BRANCH  22  23
ATOM     23  C   UNL     1     111.260 111.690 104.261  1.00  0.00     0.000 C 
BRANCH  23  24
ATOM     24  C   UNL     1     112.392 112.345 105.068  1.00  0.00     0.000 C 
BRANCH  24  25
ATOM     25  C   UNL     1     111.920 112.854 106.441  1.00  0.00     0.000 C 
BRANCH  25  26
ATOM     26  C   UNL     1     112.369 111.948 107.598  1.00  0.00     0.000 C 
BRANCH  26  27
ATOM     27  C   UNL     1     113.143 112.698 108.704  1.00  0.00     0.002 C 
BRANCH  27  28
ATOM     28  C   UNL     1     113.808 113.982 108.181  1.00  0.00     0.028 C 
BRANCH  28  29
ATOM     29  C   UNL     1     115.337 113.897 108.244  1.00  0.00     0.156 C 
BRANCH  29  30
ATOM     30  O   UNL     1     115.893 113.847 106.958  1.00  0.00    -0.396 OA
ATOM     31  H   UNL     1     116.449 113.025 106.921  1.00  0.00     0.210 HD
ENDBRANCH  29  30
ENDBRANCH  28  29
ENDBRANCH  27  28
ENDBRANCH  26  27
ENDBRANCH  25  26
ENDBRANCH  24  25
ENDBRANCH  23  24
ENDBRANCH  22  23
ENDBRANCH  21  22
ENDBRANCH  20  21
ENDBRANCH  19  20
ENDBRANCH  18  19
ENDBRANCH  17  18
ENDBRANCH   1  17
TORSDOF 28
ENDMDL
MODEL 5
REMARK VINA RESULT:    -2.973      3.191      6.242
REMARK INTER + INTRA:         -13.041
REMARK INTER:                  -7.961
REMARK INTRA:                  -5.080
REMARK UNBOUND:                -5.289
REMARK SMILES CCCCCCCCCCCCCCCCCCCCCCCCCCCCCO
REMARK SMILES IDX 16 1 15 2 14 3 13 4 12 5 11 6 10 7 9 8 8 9 7 10 6 11 5 12
REMARK SMILES IDX 4 13 3 14 2 15 1 16 17 17 18 18 19 19 20 20 21 21 22 22
REMARK SMILES IDX 23 23 24 24 25 25 26 26 27 27 28 28 29 29 30 30
REMARK H PARENT 30 31
REMARK Flexibility Score: inf
ROOT
ATOM      1  C   UNL     1     107.811 107.955 108.166  1.00  0.00     0.000 C 
ENDROOT
BRANCH   1   2
ATOM      2  C   UNL     1     109.308 107.955 108.521  1.00  0.00     0.000 C 
BRANCH   2   3
ATOM      3  C   UNL     1     110.184 108.648 107.460  1.00  0.00     0.000 C 
BRANCH   3   4
ATOM      4  C   UNL     1     111.268 107.763 106.813  1.00  0.00     0.000 C 
BRANCH   4   5
ATOM      5  C   UNL     1     112.454 108.569 106.261  1.00  0.00     0.000 C 
BRANCH   5   6
ATOM      6  C   UNL     1     112.566 108.489 104.731  1.00  0.00     0.000 C 
BRANCH   6   7
ATOM      7  C   UNL     1     112.418 109.860 104.046  1.00  0.00     0.000 C 
BRANCH   7   8
ATOM      8  C   UNL     1     112.129 110.981 105.061  1.00  0.00    -0.000 C 
BRANCH   8   9
ATOM      9  C   UNL     1     112.394 112.390 104.499  1.00  0.00    -0.000 C 
BRANCH   9  10
ATOM     10  C   UNL     1     112.305 113.475 105.587  1.00  0.00    -0.000 C 
BRANCH  10  11
ATOM     11  C   UNL     1     113.444 113.369 106.626  1.00  0.00    -0.000 C 
BRANCH  11  12
ATOM     12  C   UNL     1     113.030 113.757 108.058  1.00  0.00    -0.000 C 
BRANCH  12  13
ATOM     13  C   UNL     1     113.053 112.611 109.083  1.00  0.00    -0.000 C 
BRANCH  13  14
ATOM     14  C   UNL     1     112.020 111.512 108.773  1.00  0.00    -0.000 C 
BRANCH  14  15
ATOM     15  C   UNL     1     110.597 112.074 108.617  1.00  0.00    -0.003 C 
ATOM     16  C   UNL     1     110.062 112.697 109.907  1.00  0.00     0.004 C 
ENDBRANCH  14  15
ENDBRANCH  13  14
ENDBRANCH  12  13
ENDBRANCH  11  12
ENDBRANCH  10  11
ENDBRANCH   9  10
ENDBRANCH   8   9
ENDBRANCH   7   8
ENDBRANCH   6   7
ENDBRANCH   5   6
ENDBRANCH   4   5
ENDBRANCH   3   4
ENDBRANCH   2   3
ENDBRANCH   1   2
BRANCH   1  17
ATOM     17  C   UNL     1     107.420 106.800 107.225  1.00  0.00     0.000 C 
BRANCH  17  18
ATOM     18  C   UNL     1     107.151 107.208 105.766  1.00  0.00     0.000 C 
BRANCH  18  19
ATOM     19  C   UNL     1     108.205 106.669 104.790  1.00  0.00     0.000 C 
BRANCH  19  20
ATOM     20  C   UNL     1     108.874 107.813 104.019  1.00  0.00     0.000 C 
BRANCH  20  21
ATOM     21  C   UNL     1     107.969 109.052 103.974  1.00  0.00     0.000 C 
BRANCH  21  22
ATOM     22  C   UNL     1     108.672 110.315 104.495  1.00  0.00     0.000 C 
BRANCH  22  23
ATOM     23  C   UNL     1     107.990 110.901 105.745  1.00  0.00     0.000 C 
BRANCH  23  24
ATOM     24  C   UNL     1     107.061 112.078 105.410  1.00  0.00     0.000 C 
BRANCH  24  25
ATOM     25  C   UNL     1     106.642 112.874 106.658  1.00  0.00     0.000 C 
BRANCH  25  26
ATOM     26  C   UNL     1     106.972 112.142 107.969  1.00  0.00     0.000 C 
BRANCH  26  27
ATOM     27  C   UNL     1     106.136 112.626 109.173  1.00  0.00     0.002 C 
BRANCH  27  28
ATOM     28  C   UNL     1     105.215 113.803 108.808  1.00  0.00     0.028 C 
BRANCH  28  29
ATOM     29  C   UNL     1     105.638 115.095 109.515  1.00  0.00     0.156 C 
BRANCH  29  30
ATOM     30  O   UNL     1     104.550 115.694 110.165  1.00  0.00    -0.396 OA
ATOM     31  H   UNL     1     103.872 114.981 110.300  1.00  0.00     0.210 HD
ENDBRANCH  29  30
ENDBRANCH  28  29
ENDBRANCH  27  28
ENDBRANCH  26  27
ENDBRANCH  25  26
ENDBRANCH  24  25
ENDBRANCH  23  24
ENDBRANCH  22  23
ENDBRANCH  21  22
ENDBRANCH  20  21
ENDBRANCH  19  20
ENDBRANCH  18  19
ENDBRANCH  17  18
ENDBRANCH   1  17
TORSDOF 28
ENDMDL
MODEL 6
REMARK VINA RESULT:    -2.907      2.630      5.485
REMARK INTER + INTRA:         -12.868
REMARK INTER:                  -7.963
REMARK INTRA:                  -4.905
REMARK UNBOUND:                -5.289
REMARK SMILES CCCCCCCCCCCCCCCCCCCCCCCCCCCCCO
REMARK SMILES IDX 16 1 15 2 14 3 13 4 12 5 11 6 10 7 9 8 8 9 7 10 6 11 5 12
REMARK SMILES IDX 4 13 3 14 2 15 1 16 17 17 18 18 19 19 20 20 21 21 22 22
REMARK SMILES IDX 23 23 24 24 25 25 26 26 27 27 28 28 29 29 30 30
REMARK H PARENT 30 31
REMARK Flexibility Score: inf
ROOT
ATOM      1  C   UNL     1     112.130 111.713 109.069  1.00  0.00     0.000 C 
ENDROOT
BRANCH   1   2
ATOM      2  C   UNL     1     112.213 113.108 108.424  1.00  0.00     0.000 C 
BRANCH   2   3
ATOM      3  C   UNL     1     113.095 113.142 107.161  1.00  0.00     0.000 C 
BRANCH   3   4
ATOM      4  C   UNL     1     112.340 113.326 105.829  1.00  0.00     0.000 C 
BRANCH   4   5
ATOM      5  C   UNL     1     112.520 112.142 104.866  1.00  0.00     0.000 C 
BRANCH   5   6
ATOM      6  C   UNL     1     111.203 111.711 104.204  1.00  0.00     0.000 C 
BRANCH   6   7
ATOM      7  C   UNL     1     109.998 111.785 105.160  1.00  0.00     0.000 C 
BRANCH   7   8
ATOM      8  C   UNL     1     108.671 111.963 104.400  1.00  0.00    -0.000 C 
BRANCH   8   9
ATOM      9  C   UNL     1     107.452 111.427 105.173  1.00  0.00    -0.000 C 
BRANCH   9  10
ATOM     10  C   UNL     1     107.124 112.285 106.408  1.00  0.00    -0.000 C 
BRANCH  10  11
ATOM     11  C   UNL     1     107.527 111.597 107.732  1.00  0.00    -0.000 C 
BRANCH  11  12
ATOM     12  C   UNL     1     106.619 111.948 108.927  1.00  0.00    -0.000 C 
BRANCH  12  13
ATOM     13  C   UNL     1     106.841 111.103 110.193  1.00  0.00    -0.000 C 
BRANCH  13  14
ATOM     14  C   UNL     1     108.330 110.947 110.552  1.00  0.00    -0.000 C 
BRANCH  14  15
ATOM     15  C   UNL     1     108.782 111.955 111.622  1.00  0.00    -0.003 C 
ATOM     16  C   UNL     1     109.369 113.232 111.021  1.00  0.00     0.004 C 
ENDBRANCH  14  15
ENDBRANCH  13  14
ENDBRANCH  12  13
ENDBRANCH  11  12
ENDBRANCH  10  11
ENDBRANCH   9  10
ENDBRANCH   8   9
ENDBRANCH   7   8
ENDBRANCH   6   7
ENDBRANCH   5   6
ENDBRANCH   4   5
ENDBRANCH   3   4
ENDBRANCH   2   3
ENDBRANCH   1   2
BRANCH   1  17
ATOM     17  C   UNL     1     111.080 110.807 108.399  1.00  0.00     0.000 C 
BRANCH  17  18
ATOM     18  C   UNL     1     111.463 109.320 108.308  1.00  0.00     0.000 C 
BRANCH  18  19
ATOM     19  C   UNL     1     112.434 109.022 107.157  1.00  0.00     0.000 C 
BRANCH  19  20
ATOM     20  C   UNL     1     111.902 107.889 106.271  1.00  0.00     0.000 C 
BRANCH  20  21
ATOM     21  C   UNL     1     112.152 108.185 104.785  1.00  0.00     0.000 C 
BRANCH  21  22
ATOM     22  C   UNL     1     111.065 107.593 103.875  1.00  0.00     0.000 C 
BRANCH  22  23
ATOM     23  C   UNL     1     109.719 108.330 104.001  1.00  0.00     0.000 C 
BRANCH  23  24
ATOM     24  C   UNL     1     108.516 107.381 103.886  1.00  0.00     0.000 C 
BRANCH  24  25
ATOM     25  C   UNL     1     108.111 106.774 105.240  1.00  0.00     0.000 C 
BRANCH  25  26
ATOM     26  C   UNL     1     108.220 107.778 106.399  1.00  0.00     0.000 C 
BRANCH  26  27
ATOM     27  C   UNL     1     107.789 107.195 107.763  1.00  0.00     0.002 C 
BRANCH  27  28
ATOM     28  C   UNL     1     106.576 106.258 107.639  1.00  0.00     0.028 C 
BRANCH  28  29
ATOM     29  C   UNL     1     105.816 106.135 108.964  1.00  0.00     0.156 C 
BRANCH  29  30
ATOM     30  O   UNL     1     104.671 106.945 108.966  1.00  0.00    -0.396 OA
ATOM     31  H   UNL     1     104.244 106.835 108.076  1.00  0.00     0.210 HD
ENDBRANCH  29  30
ENDBRANCH  28  29
ENDBRANCH  27  28
ENDBRANCH  26  27
ENDBRANCH  25  26
ENDBRANCH  24  25
ENDBRANCH  23  24
ENDBRANCH  22  23
ENDBRANCH  21  22
ENDBRANCH  20  21
ENDBRANCH  19  20
ENDBRANCH  18  19
ENDBRANCH  17  18
ENDBRANCH   1  17
TORSDOF 28
ENDMDL
MODEL 7
REMARK VINA RESULT:    -2.901      1.990      5.046
REMARK INTER + INTRA:         -12.854
REMARK INTER:                  -7.191
REMARK INTRA:                  -5.663
REMARK UNBOUND:                -5.289
REMARK SMILES CCCCCCCCCCCCCCCCCCCCCCCCCCCCCO
REMARK SMILES IDX 16 1 15 2 14 3 13 4 12 5 11 6 10 7 9 8 8 9 7 10 6 11 5 12
REMARK SMILES IDX 4 13 3 14 2 15 1 16 17 17 18 18 19 19 20 20 21 21 22 22
REMARK SMILES IDX 23 23 24 24 25 25 26 26 27 27 28 28 29 29 30 30
REMARK H PARENT 30 31
REMARK Flexibility Score: inf
ROOT
ATOM      1  C   UNL     1     108.749 111.790 106.960  1.00  0.00     0.000 C 
ENDROOT
BRANCH   1   2
ATOM      2  C   UNL     1     108.869 111.888 105.429  1.00  0.00     0.000 C 
BRANCH   2   3
ATOM      3  C   UNL     1     109.368 110.586 104.773  1.00  0.00     0.000 C 
BRANCH   3   4
ATOM      4  C   UNL     1     110.643 110.720 103.917  1.00  0.00     0.000 C 
BRANCH   4   5
ATOM      5  C   UNL     1     111.890 111.070 104.745  1.00  0.00     0.000 C 
BRANCH   5   6
ATOM      6  C   UNL     1     112.416 112.484 104.456  1.00  0.00     0.000 C 
BRANCH   6   7
ATOM      7  C   UNL     1     112.282 113.432 105.662  1.00  0.00     0.000 C 
BRANCH   7   8
ATOM      8  C   UNL     1     112.889 112.824 106.940  1.00  0.00    -0.000 C 
BRANCH   8   9
ATOM      9  C   UNL     1     112.050 113.100 108.201  1.00  0.00    -0.000 C 
BRANCH   9  10
ATOM     10  C   UNL     1     111.551 111.803 108.864  1.00  0.00    -0.000 C 
BRANCH  10  11
ATOM     11  C   UNL     1     112.696 110.807 109.154  1.00  0.00    -0.000 C 
BRANCH  11  12
ATOM     12  C   UNL     1     112.663 109.537 108.282  1.00  0.00    -0.000 C 
BRANCH  12  13
ATOM     13  C   UNL     1     111.294 109.192 107.672  1.00  0.00    -0.000 C 
BRANCH  13  14
ATOM     14  C   UNL     1     111.333 107.928 106.795  1.00  0.00    -0.000 C 
BRANCH  14  15
ATOM     15  C   UNL     1     112.675 107.765 106.063  1.00  0.00    -0.003 C 
ATOM     16  C   UNL     1     112.504 107.466 104.573  1.00  0.00     0.004 C 
ENDBRANCH  14  15
ENDBRANCH  13  14
ENDBRANCH  12  13
ENDBRANCH  11  12
ENDBRANCH  10  11
ENDBRANCH   9  10
ENDBRANCH   8   9
ENDBRANCH   7   8
ENDBRANCH   6   7
ENDBRANCH   5   6
ENDBRANCH   4   5
ENDBRANCH   3   4
ENDBRANCH   2   3
ENDBRANCH   1   2
BRANCH   1  17
ATOM     17  C   UNL     1     107.509 110.996 107.412  1.00  0.00     0.000 C 
BRANCH  17  18
ATOM     18  C   UNL     1     107.787 109.551 107.863  1.00  0.00     0.000 C 
BRANCH  18  19
ATOM     19  C   UNL     1     107.512 109.327 109.357  1.00  0.00     0.000 C 
BRANCH  19  20
ATOM     20  C   UNL     1     108.539 108.363 109.964  1.00  0.00     0.000 C 
BRANCH  20  21
ATOM     21  C   UNL     1     109.544 109.112 110.850  1.00  0.00     0.000 C 
BRANCH  21  22
ATOM     22  C   UNL     1     110.752 108.245 111.234  1.00  0.00     0.000 C 
BRANCH  22  23
ATOM     23  C   UNL     1     110.754 106.880 110.522  1.00  0.00     0.000 C 
BRANCH  23  24
ATOM     24  C   UNL     1     112.039 106.080 110.788  1.00  0.00     0.000 C 
BRANCH  24  25
ATOM     25  C   UNL     1     113.302 106.955 110.726  1.00  0.00     0.000 C 
BRANCH  25  26
ATOM     26  C   UNL     1     114.234 106.574 109.564  1.00  0.00     0.000 C 
BRANCH  26  27
ATOM     27  C   UNL     1     113.762 105.333 108.776  1.00  0.00     0.002 C 
BRANCH  27  28
ATOM     28  C   UNL     1     114.657 104.108 109.025  1.00  0.00     0.028 C 
BRANCH  28  29
ATOM     29  C   UNL     1     114.506 103.059 107.919  1.00  0.00     0.156 C 
BRANCH  29  30
ATOM     30  O   UNL     1     113.845 103.592 106.804  1.00  0.00    -0.396 OA
ATOM     31  H   UNL     1     114.441 104.292 106.428  1.00  0.00     0.210 HD
ENDBRANCH  29  30
ENDBRANCH  28  29
ENDBRANCH  27  28
ENDBRANCH  26  27
ENDBRANCH  25  26
ENDBRANCH  24  25
ENDBRANCH  23  24
ENDBRANCH  22  23
ENDBRANCH  21  22
ENDBRANCH  20  21
ENDBRANCH  19  20
ENDBRANCH  18  19
ENDBRANCH  17  18
ENDBRANCH   1  17
TORSDOF 28
ENDMDL
MODEL 8
REMARK VINA RESULT:    -2.882      3.090      6.747
REMARK INTER + INTRA:         -12.805
REMARK INTER:                  -7.479
REMARK INTRA:                  -5.326
REMARK UNBOUND:                -5.289
REMARK SMILES CCCCCCCCCCCCCCCCCCCCCCCCCCCCCO
REMARK SMILES IDX 16 1 15 2 14 3 13 4 12 5 11 6 10 7 9 8 8 9 7 10 6 11 5 12
REMARK SMILES IDX 4 13 3 14 2 15 1 16 17 17 18 18 19 19 20 20 21 21 22 22
REMARK SMILES IDX 23 23 24 24 25 25 26 26 27 27 28 28 29 29 30 30
REMARK H PARENT 30 31
REMARK Flexibility Score: inf
ROOT
ATOM      1  C   UNL     1     108.254 108.733 105.090  1.00  0.00     0.000 C 
ENDROOT
BRANCH   1   2
ATOM      2  C   UNL     1     108.036 109.713 103.924  1.00  0.00     0.000 C 
BRANCH   2   3
ATOM      3  C   UNL     1     107.454 111.069 104.370  1.00  0.00     0.000 C 
BRANCH   3   4
ATOM      4  C   UNL     1     108.408 112.273 104.245  1.00  0.00     0.000 C 
BRANCH   4   5
ATOM      5  C   UNL     1     109.822 111.980 104.772  1.00  0.00     0.000 C 
BRANCH   5   6
ATOM      6  C   UNL     1     110.922 112.567 103.875  1.00  0.00     0.000 C 
BRANCH   6   7
ATOM      7  C   UNL     1     112.340 112.296 104.411  1.00  0.00     0.000 C 
BRANCH   7   8
ATOM      8  C   UNL     1     112.397 112.370 105.948  1.00  0.00    -0.000 C 
BRANCH   8   9
ATOM      9  C   UNL     1     113.000 113.686 106.470  1.00  0.00    -0.000 C 
BRANCH   9  10
ATOM     10  C   UNL     1     113.461 113.574 107.935  1.00  0.00    -0.000 C 
BRANCH  10  11
ATOM     11  C   UNL     1     112.683 112.496 108.721  1.00  0.00    -0.000 C 
BRANCH  11  12
ATOM     12  C   UNL     1     111.361 112.994 109.337  1.00  0.00    -0.000 C 
BRANCH  12  13
ATOM     13  C   UNL     1     111.096 112.541 110.782  1.00  0.00    -0.000 C 
BRANCH  13  14
ATOM     14  C   UNL     1     109.611 112.638 111.176  1.00  0.00    -0.000 C 
BRANCH  14  15
ATOM     15  C   UNL     1     109.304 113.901 111.996  1.00  0.00    -0.003 C 
ATOM     16  C   UNL     1     108.111 114.686 111.452  1.00  0.00     0.004 C 
ENDBRANCH  14  15
ENDBRANCH  13  14
ENDBRANCH  12  13
ENDBRANCH  11  12
ENDBRANCH  10  11
ENDBRANCH   9  10
ENDBRANCH   8   9
ENDBRANCH   7   8
ENDBRANCH   6   7
ENDBRANCH   5   6
ENDBRANCH   4   5
ENDBRANCH   3   4
ENDBRANCH   2   3
ENDBRANCH   1   2
BRANCH   1  17
ATOM     17  C   UNL     1     109.468 107.809 104.876  1.00  0.00     0.000 C 
BRANCH  17  18
ATOM     18  C   UNL     1     110.518 108.332 103.879  1.00  0.00     0.000 C 
BRANCH  18  19
ATOM     19  C   UNL     1     111.849 108.698 104.550  1.00  0.00     0.000 C 
BRANCH  19  20
ATOM     20  C   UNL     1     111.896 108.179 105.993  1.00  0.00     0.000 C 
BRANCH  20  21
ATOM     21  C   UNL     1     111.949 109.340 106.996  1.00  0.00     0.000 C 
BRANCH  21  22
ATOM     22  C   UNL     1     110.830 109.264 108.046  1.00  0.00     0.000 C 
BRANCH  22  23
ATOM     23  C   UNL     1     109.768 110.363 107.862  1.00  0.00     0.000 C 
BRANCH  23  24
ATOM     24  C   UNL     1     108.563 110.178 108.797  1.00  0.00     0.000 C 
BRANCH  24  25
ATOM     25  C   UNL     1     107.359 111.043 108.386  1.00  0.00     0.000 C 
BRANCH  25  26
ATOM     26  C   UNL     1     107.768 112.445 107.907  1.00  0.00     0.000 C 
BRANCH  26  27
ATOM     27  C   UNL     1     106.619 113.227 107.235  1.00  0.00     0.002 C 
BRANCH  27  28
ATOM     28  C   UNL     1     105.691 113.897 108.262  1.00  0.00     0.028 C 
BRANCH  28  29
ATOM     29  C   UNL     1     106.153 115.318 108.602  1.00  0.00     0.156 C 
BRANCH  29  30
ATOM     30  O   UNL     1     106.692 115.957 107.477  1.00  0.00    -0.396 OA
ATOM     31  H   UNL     1     107.615 115.606 107.366  1.00  0.00     0.210 HD
ENDBRANCH  29  30
ENDBRANCH  28  29
ENDBRANCH  27  28
ENDBRANCH  26  27
ENDBRANCH  25  26
ENDBRANCH  24  25
ENDBRANCH  23  24
ENDBRANCH  22  23
ENDBRANCH  21  22
ENDBRANCH  20  21
ENDBRANCH  19  20
ENDBRANCH  18  19
ENDBRANCH  17  18
ENDBRANCH   1  17
TORSDOF 28
ENDMDL
MODEL 9
REMARK VINA RESULT:    -2.012      2.340      5.365
REMARK INTER + INTRA:         -10.535
REMARK INTER:                  -5.662
REMARK INTRA:                  -4.873
REMARK UNBOUND:                -5.289
REMARK SMILES CCCCCCCCCCCCCCCCCCCCCCCCCCCCCO
REMARK SMILES IDX 16 1 15 2 14 3 13 4 12 5 11 6 10 7 9 8 8 9 7 10 6 11 5 12
REMARK SMILES IDX 4 13 3 14 2 15 1 16 17 17 18 18 19 19 20 20 21 21 22 22
REMARK SMILES IDX 23 23 24 24 25 25 26 26 27 27 28 28 29 29 30 30
REMARK H PARENT 30 31
REMARK Flexibility Score: inf
ROOT
ATOM      1  C   UNL     1     111.868 107.995 108.716  1.00  0.00     0.000 C 
ENDROOT
BRANCH   1   2
ATOM      2  C   UNL     1     110.554 108.694 109.109  1.00  0.00     0.000 C 
BRANCH   2   3
ATOM      3  C   UNL     1     109.563 108.829 107.936  1.00  0.00     0.000 C 
BRANCH   3   4
ATOM      4  C   UNL     1     108.108 108.428 108.247  1.00  0.00     0.000 C 
BRANCH   4   5
ATOM      5  C   UNL     1     107.776 106.987 107.825  1.00  0.00     0.000 C 
BRANCH   5   6
ATOM      6  C   UNL     1     107.160 106.908 106.420  1.00  0.00     0.000 C 
BRANCH   6   7
ATOM      7  C   UNL     1     108.214 106.973 105.299  1.00  0.00     0.000 C 
BRANCH   7   8
ATOM      8  C   UNL     1     107.729 107.815 104.104  1.00  0.00    -0.000 C 
BRANCH   8   9
ATOM      9  C   UNL     1     108.547 109.103 103.899  1.00  0.00    -0.000 C 
BRANCH   9  10
ATOM     10  C   UNL     1     107.689 110.370 104.071  1.00  0.00    -0.000 C 
BRANCH  10  11
ATOM     11  C   UNL     1     107.935 111.074 105.425  1.00  0.00    -0.000 C 
BRANCH  11  12
ATOM     12  C   UNL     1     107.314 112.480 105.527  1.00  0.00    -0.000 C 
BRANCH  12  13
ATOM     13  C   UNL     1     106.595 112.788 106.851  1.00  0.00    -0.000 C 
BRANCH  13  14
ATOM     14  C   UNL     1     107.120 111.944 108.026  1.00  0.00    -0.000 C 
BRANCH  14  15
ATOM     15  C   UNL     1     106.359 112.222 109.332  1.00  0.00    -0.003 C 
ATOM     16  C   UNL     1     106.579 111.139 110.388  1.00  0.00     0.004 C 
ENDBRANCH  14  15
ENDBRANCH  13  14
ENDBRANCH  12  13
ENDBRANCH  11  12
ENDBRANCH  10  11
ENDBRANCH   9  10
ENDBRANCH   8   9
ENDBRANCH   7   8
ENDBRANCH   6   7
ENDBRANCH   5   6
ENDBRANCH   4   5
ENDBRANCH   3   4
ENDBRANCH   2   3
ENDBRANCH   1   2
BRANCH   1  17
ATOM     17  C   UNL     1     111.921 107.617 107.224  1.00  0.00     0.000 C 
BRANCH  17  18
ATOM     18  C   UNL     1     113.335 107.532 106.622  1.00  0.00     0.000 C 
BRANCH  18  19
ATOM     19  C   UNL     1     113.355 107.766 105.106  1.00  0.00     0.000 C 
BRANCH  19  20
ATOM     20  C   UNL     1     112.165 108.630 104.670  1.00  0.00     0.000 C 
BRANCH  20  21
ATOM     21  C   UNL     1     112.634 109.857 103.875  1.00  0.00     0.000 C 
BRANCH  21  22
ATOM     22  C   UNL     1     111.910 111.145 104.296  1.00  0.00     0.000 C 
BRANCH  22  23
ATOM     23  C   UNL     1     111.358 111.073 105.732  1.00  0.00     0.000 C 
BRANCH  23  24
ATOM     24  C   UNL     1     111.303 112.451 106.410  1.00  0.00     0.000 C 
BRANCH  24  25
ATOM     25  C   UNL     1     110.607 112.407 107.781  1.00  0.00     0.000 C 
BRANCH  25  26
ATOM     26  C   UNL     1     111.589 112.178 108.940  1.00  0.00     0.000 C 
BRANCH  26  27
ATOM     27  C   UNL     1     112.163 113.485 109.530  1.00  0.00     0.002 C 
BRANCH  27  28
ATOM     28  C   UNL     1     113.661 113.652 109.230  1.00  0.00     0.028 C 
BRANCH  28  29
ATOM     29  C   UNL     1     113.899 114.523 107.991  1.00  0.00     0.156 C 
BRANCH  29  30
ATOM     30  O   UNL     1     113.976 115.880 108.335  1.00  0.00    -0.396 OA
ATOM     31  H   UNL     1     113.278 116.347 107.804  1.00  0.00     0.210 HD
ENDBRANCH  29  30
ENDBRANCH  28  29
ENDBRANCH  27  28
ENDBRANCH  26  27
ENDBRANCH  25  26
ENDBRANCH  24  25
ENDBRANCH  23  24
ENDBRANCH  22  23
ENDBRANCH  21  22
ENDBRANCH  20  21
ENDBRANCH  19  20
ENDBRANCH  18  19
ENDBRANCH  17  18
ENDBRANCH   1  17
TORSDOF 28
ENDMDL
