MODEL 1
REMARK VINA RESULT:     1.791      0.000      0.000
REMARK INTER + INTRA:           2.920
REMARK INTER:                   2.733
REMARK INTRA:                   0.187
REMARK UNBOUND:                 0.187
REMARK SMILES CC1=CCC[C@@H](C)C(=O)C[C@@H](C(C)C)C(=O)C1
REMARK SMILES IDX 8 1 9 2 6 3 7 4 5 5 4 6 3 7 2 8 1 9 10 11 11 12 15 13 16 14
REMARK SMILES IDX 17 15 12 17 13 18 14 19
REMARK H PARENT
REMARK Flexibility Score: 70.00
ROOT
ATOM      1  C   UNL     1      25.154  26.071  27.354  1.00  0.00     0.136 C 
ATOM      2  O   UNL     1      24.300  26.896  27.645  1.00  0.00    -0.299 OA
ENDROOT
BRANCH   1   3
ATOM      3  C   UNL     1      24.734  24.626  27.149  1.00  0.00     0.053 C 
ATOM      4  C   UNL     1      23.257  24.439  27.513  1.00  0.00     0.016 C 
BRANCH   3   5
ATOM      5  C   UNL     1      25.623  23.641  27.934  1.00  0.00     0.015 C 
BRANCH   5   6
ATOM      6  C   UNL     1      26.601  22.893  27.011  1.00  0.00     0.028 C 
BRANCH   6   7
ATOM      7  C   UNL     1      26.183  22.911  25.563  1.00  0.00    -0.028 C 
ATOM      8  C   UNL     1      26.814  23.572  24.558  1.00  0.00    -0.070 CG0
ATOM      9  C   UNL     1      26.148  23.562  23.203  1.00  0.00     0.039 C 
ATOM     10  G   UNL     1      28.174  24.250  24.690  1.00  0.00     0.000 G0
ENDBRANCH   6   7
ENDBRANCH   5   6
ENDBRANCH   3   5
ENDBRANCH   1   3
BRANCH   1  11
ATOM     11  C   UNL     1      26.597  26.514  27.269  1.00  0.00     0.087 C 
BRANCH  11  12
ATOM     12  C   UNL     1      27.176  26.428  25.828  1.00  0.00     0.066 C 
BRANCH  12  13
ATOM     13  C   UNL     1      28.248  25.349  25.721  1.00  0.00     0.140 C 
ATOM     14  O   UNL     1      29.114  25.287  26.582  1.00  0.00    -0.299 OA
BRANCH  13  15
ATOM     15  C   UNL     1      28.169  24.263  24.671  1.00  0.00     0.106 CG0
ATOM     16  G   UNL     1      26.809  23.581  24.552  1.00  0.00     0.000 G0
ENDBRANCH  13  15
ENDBRANCH  12  13
BRANCH  12  17
ATOM     17  C   UNL     1      27.727  27.800  25.321  1.00  0.00    -0.006 C 
ATOM     18  C   UNL     1      26.585  28.718  24.845  1.00  0.00     0.008 C 
ATOM     19  C   UNL     1      28.540  28.544  26.398  1.00  0.00     0.008 C 
ENDBRANCH  12  17
ENDBRANCH  11  12
ENDBRANCH   1  11
TORSDOF 1
ENDMDL
MODEL 2
REMARK VINA RESULT:     3.387      1.940      4.278
REMARK INTER + INTRA:           5.355
REMARK INTER:                   3.968
REMARK INTRA:                   1.387
REMARK UNBOUND:                 0.187
REMARK SMILES CC1=CCC[C@@H](C)C(=O)C[C@@H](C(C)C)C(=O)C1
REMARK SMILES IDX 8 1 9 2 6 3 7 4 5 5 4 6 3 7 2 8 1 9 10 11 11 12 15 13 16 14
REMARK SMILES IDX 17 15 12 17 13 18 14 19
REMARK H PARENT
REMARK Flexibility Score: 70.00
ROOT
ATOM      1  C   UNL     1      26.523  26.588  26.464  1.00  0.00     0.136 C 
ATOM      2  O   UNL     1      26.930  27.667  26.869  1.00  0.00    -0.299 OA
ENDROOT
BRANCH   1   3
ATOM      3  C   UNL     1      27.533  25.563  25.976  1.00  0.00     0.053 C 
ATOM      4  C   UNL     1      28.864  26.242  25.632  1.00  0.00     0.016 C 
BRANCH   3   5
ATOM      5  C   UNL     1      27.007  24.747  24.778  1.00  0.00     0.015 C 
BRANCH   5   6
ATOM      6  C   UNL     1      26.918  23.246  25.105  1.00  0.00     0.028 C 
BRANCH   6   7
ATOM      7  C   UNL     1      26.921  22.957  26.584  1.00  0.00    -0.028 C 
ATOM      8  C   UNL     1      25.865  23.093  27.427  1.00  0.00    -0.070 CG0
ATOM      9  C   UNL     1      26.126  22.875  28.898  1.00  0.00     0.039 C 
ATOM     10  G   UNL     1      24.433  23.370  26.979  1.00  0.00     0.000 G0
ENDBRANCH   6   7
ENDBRANCH   5   6
ENDBRANCH   3   5
ENDBRANCH   1   3
BRANCH   1  11
ATOM     11  C   UNL     1      25.032  26.342  26.411  1.00  0.00     0.087 C 
BRANCH  11  12
ATOM     12  C   UNL     1      24.441  25.895  27.778  1.00  0.00     0.066 C 
BRANCH  12  13
ATOM     13  C   UNL     1      23.783  24.523  27.680  1.00  0.00     0.140 C 
ATOM     14  O   UNL     1      22.634  24.388  28.075  1.00  0.00    -0.299 OA
BRANCH  13  15
ATOM     15  C   UNL     1      24.458  23.377  26.959  1.00  0.00     0.106 CG0
ATOM     16  G   UNL     1      25.879  23.072  27.424  1.00  0.00     0.000 G0
ENDBRANCH  13  15
ENDBRANCH  12  13
BRANCH  12  17
ATOM     17  C   UNL     1      23.440  26.941  28.369  1.00  0.00    -0.006 C 
ATOM     18  C   UNL     1      23.887  28.381  28.050  1.00  0.00     0.008 C 
ATOM     19  C   UNL     1      22.004  26.744  27.848  1.00  0.00     0.008 C 
ENDBRANCH  12  17
ENDBRANCH  11  12
ENDBRANCH   1  11
TORSDOF 1
ENDMDL
MODEL 3
REMARK VINA RESULT:     3.900      1.805      4.060
REMARK INTER + INTRA:           6.139
REMARK INTER:                   4.811
REMARK INTRA:                   1.328
REMARK UNBOUND:                 0.187
REMARK SMILES CC1=CCC[C@@H](C)C(=O)C[C@@H](C(C)C)C(=O)C1
REMARK SMILES IDX 8 1 9 2 6 3 7 4 5 5 4 6 3 7 2 8 1 9 10 11 11 12 15 13 16 14
REMARK SMILES IDX 17 15 12 17 13 18 14 19
REMARK H PARENT
REMARK Flexibility Score: 70.00
ROOT
ATOM      1  C   UNL     1      27.046  28.451  25.799  1.00  0.00     0.136 C 
ATOM      2  O   UNL     1      27.280  28.895  24.685  1.00  0.00    -0.299 OA
ENDROOT
BRANCH   1   3
ATOM      3  C   UNL     1      28.138  28.510  26.854  1.00  0.00     0.053 C 
ATOM      4  C   UNL     1      28.881  29.849  26.782  1.00  0.00     0.016 C 
BRANCH   3   5
ATOM      5  C   UNL     1      29.123  27.328  26.744  1.00  0.00     0.015 C 
BRANCH   5   6
ATOM      6  C   UNL     1      29.125  26.716  25.333  1.00  0.00     0.028 C 
BRANCH   6   7
ATOM      7  C   UNL     1      29.036  25.211  25.336  1.00  0.00    -0.028 C 
ATOM      8  C   UNL     1      27.898  24.479  25.447  1.00  0.00    -0.070 CG0
ATOM      9  C   UNL     1      28.052  22.981  25.561  1.00  0.00     0.039 C 
ATOM     10  G   UNL     1      26.488  25.058  25.384  1.00  0.00     0.000 G0
ENDBRANCH   6   7
ENDBRANCH   5   6
ENDBRANCH   3   5
ENDBRANCH   1   3
BRANCH   1  11
ATOM     11  C   UNL     1      25.702  27.809  26.062  1.00  0.00     0.087 C 
BRANCH  11  12
ATOM     12  C   UNL     1      25.738  26.776  27.223  1.00  0.00     0.066 C 
BRANCH  12  13
ATOM     13  C   UNL     1      25.820  25.347  26.697  1.00  0.00     0.140 C 
ATOM     14  O   UNL     1      25.231  24.461  27.297  1.00  0.00    -0.299 OA
BRANCH  13  15
ATOM     15  C   UNL     1      26.474  25.035  25.369  1.00  0.00     0.106 CG0
ATOM     16  G   UNL     1      27.894  24.486  25.464  1.00  0.00     0.000 G0
ENDBRANCH  13  15
ENDBRANCH  12  13
BRANCH  12  17
ATOM     17  C   UNL     1      24.526  26.930  28.199  1.00  0.00    -0.006 C 
ATOM     18  C   UNL     1      23.852  28.306  28.037  1.00  0.00     0.008 C 
ATOM     19  C   UNL     1      23.463  25.834  27.999  1.00  0.00     0.008 C 
ENDBRANCH  12  17
ENDBRANCH  11  12
ENDBRANCH   1  11
TORSDOF 1
ENDMDL
