MODEL 1
REMARK VINA RESULT:    -5.678      0.000      0.000
REMARK INTER + INTRA:          -9.801
REMARK INTER:                  -8.333
REMARK INTRA:                  -1.468
REMARK UNBOUND:                -1.468
REMARK SMILES Cc1cc2c(C(C)C)c(O)c(O)c(C=O)c2c(O)c1-c1c(C)cc2c(C(C)C)c(O)c(O)c(C=O)c2c1O
REMARK SMILES IDX 1 1 2 2 3 3 4 4 16 5 13 6 11 7 9 8 5 9 17 10 19 11 20 12
REMARK SMILES IDX 37 13 21 14 36 15 23 16 22 17 24 18 33 19 25 20 31 21 29 22
REMARK SMILES IDX 38 23 34 25 35 26 26 27 27 28 28 29 32 30 30 32 18 34 6 36
REMARK SMILES IDX 7 37 8 38 14 39 15 40 10 41 12 43
REMARK H PARENT 38 24 32 31 30 33 18 35 10 42 12 44
REMARK Flexibility Score: inf
ROOT
ATOM      1  C   UNL     1     158.033 145.686 164.836  1.00  0.00     0.045 C 
ATOM      2  C   UNL     1     156.835 145.893 163.939  1.00  0.00    -0.039 A 
ATOM      3  C   UNL     1     155.570 145.535 164.414  1.00  0.00     0.013 A 
ATOM      4  C   UNL     1     154.399 145.735 163.648  1.00  0.00    -0.006 A 
ATOM      5  C   UNL     1     154.530 146.233 162.317  1.00  0.00     0.039 A 
ATOM      6  C   UNL     1     153.356 146.415 161.529  1.00  0.00     0.072 A 
ATOM      7  C   UNL     1     152.122 145.915 161.991  1.00  0.00     0.169 A 
ATOM      8  C   UNL     1     152.012 145.379 163.279  1.00  0.00     0.162 A 
ATOM      9  C   UNL     1     153.106 145.414 164.171  1.00  0.00     0.008 A 
ATOM     10  C   UNL     1     155.836 146.478 161.792  1.00  0.00     0.132 A 
ATOM     11  C   UNL     1     156.974 146.345 162.617  1.00  0.00     0.031 A 
ENDROOT
BRANCH  11  12
ATOM     12  C   UNL     1     158.325 146.675 162.085  1.00  0.00     0.031 A 
ATOM     13  C   UNL     1     158.836 147.985 162.218  1.00  0.00     0.132 A 
ATOM     14  C   UNL     1     159.067 145.695 161.406  1.00  0.00    -0.039 A 
ATOM     15  C   UNL     1     160.127 148.315 161.701  1.00  0.00     0.039 A 
ATOM     16  C   UNL     1     160.325 146.017 160.894  1.00  0.00     0.013 A 
ATOM     17  C   UNL     1     158.498 144.320 161.148  1.00  0.00     0.045 C 
ATOM     18  C   UNL     1     160.903 147.292 161.073  1.00  0.00    -0.006 A 
ATOM     19  C   UNL     1     160.652 149.642 161.752  1.00  0.00     0.072 A 
ATOM     20  C   UNL     1     162.217 147.579 160.591  1.00  0.00     0.008 A 
ATOM     21  C   UNL     1     161.881 149.939 161.125  1.00  0.00     0.169 A 
ATOM     22  C   UNL     1     162.629 148.925 160.518  1.00  0.00     0.162 A 
BRANCH  13  23
ATOM     23  O   UNL     1     158.055 148.959 162.853  1.00  0.00    -0.507 OA
ATOM     24  H   UNL     1     157.982 149.918 162.538  1.00  0.00     0.293 HD
ENDBRANCH  13  23
BRANCH  19  25
ATOM     25  C   UNL     1     159.935 150.742 162.430  1.00  0.00     0.264 C 
ATOM     26  O   UNL     1     159.314 151.611 161.760  1.00  0.00    -0.298 OA
ENDBRANCH  19  25
BRANCH  20  27
ATOM     27  C   UNL     1     163.173 146.462 160.134  1.00  0.00     0.017 C 
ATOM     28  C   UNL     1     163.376 145.425 161.244  1.00  0.00     0.012 C 
ATOM     29  C   UNL     1     162.757 145.789 158.811  1.00  0.00     0.012 C 
ENDBRANCH  20  27
BRANCH  21  30
ATOM     30  O   UNL     1     162.407 151.238 161.115  1.00  0.00    -0.504 OA
ATOM     31  H   UNL     1     163.125 151.554 160.478  1.00  0.00     0.293 HD
ENDBRANCH  21  30
BRANCH  22  32
ATOM     32  O   UNL     1     163.797 149.261 159.829  1.00  0.00    -0.504 OA
ATOM     33  H   UNL     1     163.909 149.119 158.833  1.00  0.00     0.293 HD
ENDBRANCH  22  32
ENDBRANCH  11  12
BRANCH  10  34
ATOM     34  O   UNL     1     156.001 146.807 160.442  1.00  0.00    -0.507 OA
ATOM     35  H   UNL     1     156.902 146.941 160.003  1.00  0.00     0.293 HD
ENDBRANCH  10  34
BRANCH   9  36
ATOM     36  C   UNL     1     152.888 145.062 165.653  1.00  0.00     0.017 C 
ATOM     37  C   UNL     1     152.548 143.577 165.819  1.00  0.00     0.012 C 
ATOM     38  C   UNL     1     151.859 145.957 166.366  1.00  0.00     0.012 C 
ENDBRANCH   9  36
BRANCH   6  39
ATOM     39  C   UNL     1     153.368 147.180 160.264  1.00  0.00     0.264 C 
ATOM     40  O   UNL     1     153.227 146.589 159.162  1.00  0.00    -0.298 OA
ENDBRANCH   6  39
BRANCH   8  41
ATOM     41  O   UNL     1     150.803 144.804 163.678  1.00  0.00    -0.504 OA
ATOM     42  H   UNL     1     150.320 145.069 164.528  1.00  0.00     0.293 HD
ENDBRANCH   8  41
BRANCH   7  43
ATOM     43  O   UNL     1     150.967 145.960 161.197  1.00  0.00    -0.504 OA
ATOM     44  H   UNL     1     150.043 146.169 161.551  1.00  0.00     0.293 HD
ENDBRANCH   7  43
TORSDOF 11
ENDMDL
MODEL 2
REMARK VINA RESULT:    -5.611      3.493      5.248
REMARK INTER + INTRA:          -9.703
REMARK INTER:                  -8.778
REMARK INTRA:                  -0.925
REMARK UNBOUND:                -1.468
REMARK SMILES Cc1cc2c(C(C)C)c(O)c(O)c(C=O)c2c(O)c1-c1c(C)cc2c(C(C)C)c(O)c(O)c(C=O)c2c1O
REMARK SMILES IDX 1 1 2 2 3 3 4 4 16 5 13 6 11 7 9 8 5 9 17 10 19 11 20 12
REMARK SMILES IDX 37 13 21 14 36 15 23 16 22 17 24 18 33 19 25 20 31 21 29 22
REMARK SMILES IDX 38 23 34 25 35 26 26 27 27 28 28 29 32 30 30 32 18 34 6 36
REMARK SMILES IDX 7 37 8 38 14 39 15 40 10 41 12 43
REMARK H PARENT 38 24 32 31 30 33 18 35 10 42 12 44
REMARK Flexibility Score: inf
ROOT
ATOM      1  C   UNL     1     156.045 148.501 161.344  1.00  0.00     0.045 C 
ATOM      2  C   UNL     1     155.358 147.566 162.310  1.00  0.00    -0.039 A 
ATOM      3  C   UNL     1     154.403 148.088 163.187  1.00  0.00     0.013 A 
ATOM      4  C   UNL     1     153.690 147.268 164.091  1.00  0.00    -0.006 A 
ATOM      5  C   UNL     1     154.025 145.883 164.169  1.00  0.00     0.039 A 
ATOM      6  C   UNL     1     153.328 145.055 165.095  1.00  0.00     0.072 A 
ATOM      7  C   UNL     1     152.476 145.642 166.053  1.00  0.00     0.169 A 
ATOM      8  C   UNL     1     152.193 147.012 166.003  1.00  0.00     0.162 A 
ATOM      9  C   UNL     1     152.677 147.811 164.944  1.00  0.00     0.008 A 
ATOM     10  C   UNL     1     155.089 145.380 163.359  1.00  0.00     0.132 A 
ATOM     11  C   UNL     1     155.720 146.213 162.409  1.00  0.00     0.031 A 
ENDROOT
BRANCH  11  12
ATOM     12  C   UNL     1     156.776 145.661 161.517  1.00  0.00     0.031 A 
ATOM     13  C   UNL     1     156.428 145.135 160.253  1.00  0.00     0.132 A 
ATOM     14  C   UNL     1     158.109 145.619 161.955  1.00  0.00    -0.039 A 
ATOM     15  C   UNL     1     157.434 144.592 159.393  1.00  0.00     0.039 A 
ATOM     16  C   UNL     1     159.091 145.084 161.120  1.00  0.00     0.013 A 
ATOM     17  C   UNL     1     158.492 146.070 163.345  1.00  0.00     0.045 C 
ATOM     18  C   UNL     1     158.797 144.618 159.820  1.00  0.00    -0.006 A 
ATOM     19  C   UNL     1     157.118 143.987 158.139  1.00  0.00     0.072 A 
ATOM     20  C   UNL     1     159.830 144.130 158.962  1.00  0.00     0.008 A 
ATOM     21  C   UNL     1     158.133 143.365 157.381  1.00  0.00     0.169 A 
ATOM     22  C   UNL     1     159.462 143.402 157.812  1.00  0.00     0.162 A 
BRANCH  13  23
ATOM     23  O   UNL     1     155.084 145.139 159.859  1.00  0.00    -0.507 OA
ATOM     24  H   UNL     1     154.307 145.217 160.503  1.00  0.00     0.293 HD
ENDBRANCH  13  23
BRANCH  19  25
ATOM     25  C   UNL     1     155.741 143.968 157.603  1.00  0.00     0.264 C 
ATOM     26  O   UNL     1     155.068 142.902 157.603  1.00  0.00    -0.298 OA
ENDBRANCH  19  25
BRANCH  20  27
ATOM     27  C   UNL     1     161.319 144.360 159.277  1.00  0.00     0.017 C 
ATOM     28  C   UNL     1     162.134 143.085 159.038  1.00  0.00     0.012 C 
ATOM     29  C   UNL     1     161.934 145.562 158.533  1.00  0.00     0.012 C 
ENDBRANCH  20  27
BRANCH  21  30
ATOM     30  O   UNL     1     157.854 142.721 156.167  1.00  0.00    -0.504 OA
ATOM     31  H   UNL     1     158.369 142.876 155.312  1.00  0.00     0.293 HD
ENDBRANCH  21  30
BRANCH  22  32
ATOM     32  O   UNL     1     160.433 142.703 157.090  1.00  0.00    -0.504 OA
ATOM     33  H   UNL     1     161.341 143.090 156.868  1.00  0.00     0.293 HD
ENDBRANCH  22  32
ENDBRANCH  11  12
BRANCH  10  34
ATOM     34  O   UNL     1     155.547 144.070 163.535  1.00  0.00    -0.507 OA
ATOM     35  H   UNL     1     156.064 143.557 162.833  1.00  0.00     0.293 HD
ENDBRANCH  10  34
BRANCH   9  36
ATOM     36  C   UNL     1     152.142 149.243 164.770  1.00  0.00     0.017 C 
ATOM     37  C   UNL     1     151.561 149.443 163.366  1.00  0.00     0.012 C 
ATOM     38  C   UNL     1     153.163 150.342 165.117  1.00  0.00     0.012 C 
ENDBRANCH   9  36
BRANCH   6  39
ATOM     39  C   UNL     1     153.407 143.579 165.046  1.00  0.00     0.264 C 
ATOM     40  O   UNL     1     152.400 142.878 165.327  1.00  0.00    -0.298 OA
ENDBRANCH   6  39
BRANCH   8  41
ATOM     41  O   UNL     1     151.424 147.587 167.018  1.00  0.00    -0.504 OA
ATOM     42  H   UNL     1     151.557 148.539 167.338  1.00  0.00     0.293 HD
ENDBRANCH   8  41
BRANCH   7  43
ATOM     43  O   UNL     1     151.868 144.881 167.061  1.00  0.00    -0.504 OA
ATOM     44  H   UNL     1     152.094 143.915 167.257  1.00  0.00     0.293 HD
ENDBRANCH   7  43
TORSDOF 11
ENDMDL
MODEL 3
REMARK VINA RESULT:    -5.567      8.373     13.461
REMARK INTER + INTRA:          -9.638
REMARK INTER:                  -8.666
REMARK INTRA:                  -0.972
REMARK UNBOUND:                -1.468
REMARK SMILES Cc1cc2c(C(C)C)c(O)c(O)c(C=O)c2c(O)c1-c1c(C)cc2c(C(C)C)c(O)c(O)c(C=O)c2c1O
REMARK SMILES IDX 1 1 2 2 3 3 4 4 16 5 13 6 11 7 9 8 5 9 17 10 19 11 20 12
REMARK SMILES IDX 37 13 21 14 36 15 23 16 22 17 24 18 33 19 25 20 31 21 29 22
REMARK SMILES IDX 38 23 34 25 35 26 26 27 27 28 28 29 32 30 30 32 18 34 6 36
REMARK SMILES IDX 7 37 8 38 14 39 15 40 10 41 12 43
REMARK H PARENT 38 24 32 31 30 33 18 35 10 42 12 44
REMARK Flexibility Score: inf
ROOT
ATOM      1  C   UNL     1     150.163 140.705 154.705  1.00  0.00     0.045 C 
ATOM      2  C   UNL     1     151.635 140.430 154.905  1.00  0.00    -0.039 A 
ATOM      3  C   UNL     1     152.423 140.143 153.787  1.00  0.00     0.013 A 
ATOM      4  C   UNL     1     153.814 139.914 153.891  1.00  0.00    -0.006 A 
ATOM      5  C   UNL     1     154.407 139.888 155.189  1.00  0.00     0.039 A 
ATOM      6  C   UNL     1     155.805 139.634 155.305  1.00  0.00     0.072 A 
ATOM      7  C   UNL     1     156.533 139.212 154.173  1.00  0.00     0.169 A 
ATOM      8  C   UNL     1     155.930 139.190 152.911  1.00  0.00     0.162 A 
ATOM      9  C   UNL     1     154.616 139.674 152.730  1.00  0.00     0.008 A 
ATOM     10  C   UNL     1     153.574 140.058 156.337  1.00  0.00     0.132 A 
ATOM     11  C   UNL     1     152.204 140.367 156.187  1.00  0.00     0.031 A 
ENDROOT
BRANCH  11  12
ATOM     12  C   UNL     1     151.359 140.617 157.386  1.00  0.00     0.031 A 
ATOM     13  C   UNL     1     150.582 139.572 157.933  1.00  0.00     0.132 A 
ATOM     14  C   UNL     1     151.298 141.905 157.942  1.00  0.00    -0.039 A 
ATOM     15  C   UNL     1     149.758 139.805 159.079  1.00  0.00     0.039 A 
ATOM     16  C   UNL     1     150.490 142.136 159.056  1.00  0.00     0.013 A 
ATOM     17  C   UNL     1     152.029 143.067 157.310  1.00  0.00     0.045 C 
ATOM     18  C   UNL     1     149.757 141.102 159.678  1.00  0.00    -0.006 A 
ATOM     19  C   UNL     1     148.904 138.796 159.619  1.00  0.00     0.072 A 
ATOM     20  C   UNL     1     148.984 141.352 160.853  1.00  0.00     0.008 A 
ATOM     21  C   UNL     1     148.027 139.110 160.679  1.00  0.00     0.169 A 
ATOM     22  C   UNL     1     148.041 140.384 161.257  1.00  0.00     0.162 A 
BRANCH  13  23
ATOM     23  O   UNL     1     150.619 138.308 157.329  1.00  0.00    -0.507 OA
ATOM     24  H   UNL     1     150.611 138.160 156.328  1.00  0.00     0.293 HD
ENDBRANCH  13  23
BRANCH  19  25
ATOM     25  C   UNL     1     148.887 137.418 159.090  1.00  0.00     0.264 C 
ATOM     26  O   UNL     1     147.802 136.875 158.748  1.00  0.00    -0.298 OA
ENDBRANCH  19  25
BRANCH  20  27
ATOM     27  C   UNL     1     149.142 142.649 161.664  1.00  0.00     0.017 C 
ATOM     28  C   UNL     1     150.603 142.871 162.067  1.00  0.00     0.012 C 
ATOM     29  C   UNL     1     148.560 143.895 160.967  1.00  0.00     0.012 C 
ENDBRANCH  20  27
BRANCH  21  30
ATOM     30  O   UNL     1     147.141 138.161 161.207  1.00  0.00    -0.504 OA
ATOM     31  H   UNL     1     146.161 138.104 160.967  1.00  0.00     0.293 HD
ENDBRANCH  21  30
BRANCH  22  32
ATOM     32  O   UNL     1     147.101 140.695 162.243  1.00  0.00    -0.504 OA
ATOM     33  H   UNL     1     146.991 141.626 162.625  1.00  0.00     0.293 HD
ENDBRANCH  22  32
ENDBRANCH  11  12
BRANCH  10  34
ATOM     34  O   UNL     1     154.099 139.872 157.621  1.00  0.00    -0.507 OA
ATOM     35  H   UNL     1     153.793 140.391 158.433  1.00  0.00     0.293 HD
ENDBRANCH  10  34
BRANCH   9  36
ATOM     36  C   UNL     1     154.073 139.881 151.305  1.00  0.00     0.017 C 
ATOM     37  C   UNL     1     153.592 141.322 151.107  1.00  0.00     0.012 C 
ATOM     38  C   UNL     1     152.992 138.866 150.891  1.00  0.00     0.012 C 
ENDBRANCH   9  36
BRANCH   6  39
ATOM     39  C   UNL     1     156.546 139.866 156.563  1.00  0.00     0.264 C 
ATOM     40  O   UNL     1     157.111 140.970 156.774  1.00  0.00    -0.298 OA
ENDBRANCH   6  39
BRANCH   8  41
ATOM     41  O   UNL     1     156.642 138.679 151.823  1.00  0.00    -0.504 OA
ATOM     42  H   UNL     1     156.543 137.724 151.498  1.00  0.00     0.293 HD
ENDBRANCH   8  41
BRANCH   7  43
ATOM     43  O   UNL     1     157.879 138.833 154.266  1.00  0.00    -0.504 OA
ATOM     44  H   UNL     1     158.614 139.428 154.624  1.00  0.00     0.293 HD
ENDBRANCH   7  43
TORSDOF 11
ENDMDL
MODEL 4
REMARK VINA RESULT:    -5.528      2.414      3.787
REMARK INTER + INTRA:          -9.580
REMARK INTER:                  -8.442
REMARK INTRA:                  -1.138
REMARK UNBOUND:                -1.468
REMARK SMILES Cc1cc2c(C(C)C)c(O)c(O)c(C=O)c2c(O)c1-c1c(C)cc2c(C(C)C)c(O)c(O)c(C=O)c2c1O
REMARK SMILES IDX 1 1 2 2 3 3 4 4 16 5 13 6 11 7 9 8 5 9 17 10 19 11 20 12
REMARK SMILES IDX 37 13 21 14 36 15 23 16 22 17 24 18 33 19 25 20 31 21 29 22
REMARK SMILES IDX 38 23 34 25 35 26 26 27 27 28 28 29 32 30 30 32 18 34 6 36
REMARK SMILES IDX 7 37 8 38 14 39 15 40 10 41 12 43
REMARK H PARENT 38 24 32 31 30 33 18 35 10 42 12 44
REMARK Flexibility Score: inf
ROOT
ATOM      1  C   UNL     1     158.121 145.506 164.017  1.00  0.00     0.045 C 
ATOM      2  C   UNL     1     156.840 145.612 163.223  1.00  0.00    -0.039 A 
ATOM      3  C   UNL     1     155.621 145.511 163.898  1.00  0.00     0.013 A 
ATOM      4  C   UNL     1     154.383 145.639 163.230  1.00  0.00    -0.006 A 
ATOM      5  C   UNL     1     154.384 145.786 161.810  1.00  0.00     0.039 A 
ATOM      6  C   UNL     1     153.139 145.892 161.125  1.00  0.00     0.072 A 
ATOM      7  C   UNL     1     151.937 145.646 161.820  1.00  0.00     0.169 A 
ATOM      8  C   UNL     1     151.948 145.451 163.206  1.00  0.00     0.162 A 
ATOM      9  C   UNL     1     153.144 145.587 163.945  1.00  0.00     0.008 A 
ATOM     10  C   UNL     1     155.630 145.762 161.111  1.00  0.00     0.132 A 
ATOM     11  C   UNL     1     156.848 145.716 161.823  1.00  0.00     0.031 A 
ENDROOT
BRANCH  11  12
ATOM     12  C   UNL     1     158.144 145.768 161.091  1.00  0.00     0.031 A 
ATOM     13  C   UNL     1     158.632 144.615 160.437  1.00  0.00     0.132 A 
ATOM     14  C   UNL     1     158.902 146.950 161.095  1.00  0.00    -0.039 A 
ATOM     15  C   UNL     1     159.880 144.652 159.740  1.00  0.00     0.039 A 
ATOM     16  C   UNL     1     160.124 146.986 160.421  1.00  0.00     0.013 A 
ATOM     17  C   UNL     1     158.460 148.162 161.881  1.00  0.00     0.045 C 
ATOM     18  C   UNL     1     160.610 145.879 159.692  1.00  0.00    -0.006 A 
ATOM     19  C   UNL     1     160.443 143.492 159.126  1.00  0.00     0.072 A 
ATOM     20  C   UNL     1     161.835 145.960 158.962  1.00  0.00     0.008 A 
ATOM     21  C   UNL     1     161.730 143.554 158.550  1.00  0.00     0.169 A 
ATOM     22  C   UNL     1     162.430 144.764 158.509  1.00  0.00     0.162 A 
BRANCH  13  23
ATOM     23  O   UNL     1     157.883 143.433 160.491  1.00  0.00    -0.507 OA
ATOM     24  H   UNL     1     158.199 142.584 160.941  1.00  0.00     0.293 HD
ENDBRANCH  13  23
BRANCH  19  25
ATOM     25  C   UNL     1     159.727 142.201 159.086  1.00  0.00     0.264 C 
ATOM     26  O   UNL     1     160.025 141.277 159.892  1.00  0.00    -0.298 OA
ENDBRANCH  19  25
BRANCH  20  27
ATOM     27  C   UNL     1     162.522 147.308 158.682  1.00  0.00     0.017 C 
ATOM     28  C   UNL     1     163.826 147.436 159.476  1.00  0.00     0.012 C 
ATOM     29  C   UNL     1     162.751 147.591 157.184  1.00  0.00     0.012 C 
ENDBRANCH  20  27
BRANCH  21  30
ATOM     30  O   UNL     1     162.335 142.427 157.978  1.00  0.00    -0.504 OA
ATOM     31  H   UNL     1     162.937 142.457 157.167  1.00  0.00     0.293 HD
ENDBRANCH  21  30
BRANCH  22  32
ATOM     32  O   UNL     1     163.737 144.779 158.015  1.00  0.00    -0.504 OA
ATOM     33  H   UNL     1     163.953 144.870 157.030  1.00  0.00     0.293 HD
ENDBRANCH  22  32
ENDBRANCH  11  12
BRANCH  10  34
ATOM     34  O   UNL     1     155.651 145.737 159.712  1.00  0.00    -0.507 OA
ATOM     35  H   UNL     1     154.824 145.628 159.141  1.00  0.00     0.293 HD
ENDBRANCH  10  34
BRANCH   9  36
ATOM     36  C   UNL     1     153.085 145.627 165.482  1.00  0.00     0.017 C 
ATOM     37  C   UNL     1     152.721 144.252 166.052  1.00  0.00     0.012 C 
ATOM     38  C   UNL     1     152.171 146.728 166.047  1.00  0.00     0.012 C 
ENDBRANCH   9  36
BRANCH   6  39
ATOM     39  C   UNL     1     153.051 146.324 159.714  1.00  0.00     0.264 C 
ATOM     40  O   UNL     1     152.734 145.502 158.815  1.00  0.00    -0.298 OA
ENDBRANCH   6  39
BRANCH   8  41
ATOM     41  O   UNL     1     150.759 145.115 163.857  1.00  0.00    -0.504 OA
ATOM     42  H   UNL     1     149.845 145.249 163.440  1.00  0.00     0.293 HD
ENDBRANCH   8  41
BRANCH   7  43
ATOM     43  O   UNL     1     150.700 145.617 161.162  1.00  0.00    -0.504 OA
ATOM     44  H   UNL     1     150.223 146.438 160.814  1.00  0.00     0.293 HD
ENDBRANCH   7  43
TORSDOF 11
ENDMDL
MODEL 5
REMARK VINA RESULT:    -5.521      6.518     10.723
REMARK INTER + INTRA:          -9.570
REMARK INTER:                  -8.187
REMARK INTRA:                  -1.384
REMARK UNBOUND:                -1.468
REMARK SMILES Cc1cc2c(C(C)C)c(O)c(O)c(C=O)c2c(O)c1-c1c(C)cc2c(C(C)C)c(O)c(O)c(C=O)c2c1O
REMARK SMILES IDX 1 1 2 2 3 3 4 4 16 5 13 6 11 7 9 8 5 9 17 10 19 11 20 12
REMARK SMILES IDX 37 13 21 14 36 15 23 16 22 17 24 18 33 19 25 20 31 21 29 22
REMARK SMILES IDX 38 23 34 25 35 26 26 27 27 28 28 29 32 30 30 32 18 34 6 36
REMARK SMILES IDX 7 37 8 38 14 39 15 40 10 41 12 43
REMARK H PARENT 38 24 32 31 30 33 18 35 10 42 12 44
REMARK Flexibility Score: inf
ROOT
ATOM      1  C   UNL     1     148.272 148.707 168.477  1.00  0.00     0.045 C 
ATOM      2  C   UNL     1     149.399 148.082 167.689  1.00  0.00    -0.039 A 
ATOM      3  C   UNL     1     149.503 146.689 167.655  1.00  0.00     0.013 A 
ATOM      4  C   UNL     1     150.507 146.032 166.908  1.00  0.00    -0.006 A 
ATOM      5  C   UNL     1     151.493 146.822 166.244  1.00  0.00     0.039 A 
ATOM      6  C   UNL     1     152.523 146.167 165.509  1.00  0.00     0.072 A 
ATOM      7  C   UNL     1     152.674 144.769 165.614  1.00  0.00     0.169 A 
ATOM      8  C   UNL     1     151.731 144.005 166.310  1.00  0.00     0.162 A 
ATOM      9  C   UNL     1     150.567 144.603 166.839  1.00  0.00     0.008 A 
ATOM     10  C   UNL     1     151.455 148.243 166.387  1.00  0.00     0.132 A 
ATOM     11  C   UNL     1     150.389 148.864 167.073  1.00  0.00     0.031 A 
ENDROOT
BRANCH  11  12
ATOM     12  C   UNL     1     150.316 150.349 167.152  1.00  0.00     0.031 A 
ATOM     13  C   UNL     1     150.933 151.030 168.224  1.00  0.00     0.132 A 
ATOM     14  C   UNL     1     149.591 151.066 166.187  1.00  0.00    -0.039 A 
ATOM     15  C   UNL     1     150.860 152.455 168.315  1.00  0.00     0.039 A 
ATOM     16  C   UNL     1     149.512 152.456 166.277  1.00  0.00     0.013 A 
ATOM     17  C   UNL     1     148.825 150.356 165.094  1.00  0.00     0.045 C 
ATOM     18  C   UNL     1     150.178 153.180 167.290  1.00  0.00    -0.006 A 
ATOM     19  C   UNL     1     151.409 153.177 169.419  1.00  0.00     0.072 A 
ATOM     20  C   UNL     1     150.131 154.607 167.327  1.00  0.00     0.008 A 
ATOM     21  C   UNL     1     151.210 154.571 169.518  1.00  0.00     0.169 A 
ATOM     22  C   UNL     1     150.543 155.265 168.504  1.00  0.00     0.162 A 
BRANCH  13  23
ATOM     23  O   UNL     1     151.607 150.289 169.204  1.00  0.00    -0.507 OA
ATOM     24  H   UNL     1     151.147 149.821 169.974  1.00  0.00     0.293 HD
ENDBRANCH  13  23
BRANCH  19  25
ATOM     25  C   UNL     1     152.174 152.507 170.490  1.00  0.00     0.264 C 
ATOM     26  O   UNL     1     153.422 152.658 170.577  1.00  0.00    -0.298 OA
ENDBRANCH  19  25
BRANCH  20  27
ATOM     27  C   UNL     1     149.625 155.431 166.129  1.00  0.00     0.017 C 
ATOM     28  C   UNL     1     148.263 156.063 166.434  1.00  0.00     0.012 C 
ATOM     29  C   UNL     1     150.630 156.487 165.631  1.00  0.00     0.012 C 
ENDBRANCH  20  27
BRANCH  21  30
ATOM     30  O   UNL     1     151.694 155.306 170.608  1.00  0.00    -0.504 OA
ATOM     31  H   UNL     1     151.141 155.966 171.138  1.00  0.00     0.293 HD
ENDBRANCH  21  30
BRANCH  22  32
ATOM     32  O   UNL     1     150.281 156.628 168.670  1.00  0.00    -0.504 OA
ATOM     33  H   UNL     1     150.309 157.291 167.906  1.00  0.00     0.293 HD
ENDBRANCH  22  32
ENDBRANCH  11  12
BRANCH  10  34
ATOM     34  O   UNL     1     152.501 149.028 165.888  1.00  0.00    -0.507 OA
ATOM     35  H   UNL     1     153.412 148.662 165.648  1.00  0.00     0.293 HD
ENDBRANCH  10  34
BRANCH   9  36
ATOM     36  C   UNL     1     149.428 143.712 167.367  1.00  0.00     0.017 C 
ATOM     37  C   UNL     1     148.088 144.107 166.740  1.00  0.00     0.012 C 
ATOM     38  C   UNL     1     149.335 143.655 168.902  1.00  0.00     0.012 C 
ENDBRANCH   9  36
BRANCH   6  39
ATOM     39  C   UNL     1     153.406 146.894 164.572  1.00  0.00     0.264 C 
ATOM     40  O   UNL     1     154.616 147.090 164.859  1.00  0.00    -0.298 OA
ENDBRANCH   6  39
BRANCH   8  41
ATOM     41  O   UNL     1     151.953 142.636 166.481  1.00  0.00    -0.504 OA
ATOM     42  H   UNL     1     151.704 142.139 167.327  1.00  0.00     0.293 HD
ENDBRANCH   8  41
BRANCH   7  43
ATOM     43  O   UNL     1     153.746 144.098 165.008  1.00  0.00    -0.504 OA
ATOM     44  H   UNL     1     154.180 143.267 165.385  1.00  0.00     0.293 HD
ENDBRANCH   7  43
TORSDOF 11
ENDMDL
MODEL 6
REMARK VINA RESULT:    -5.513      3.534     10.362
REMARK INTER + INTRA:          -9.558
REMARK INTER:                  -8.180
REMARK INTRA:                  -1.378
REMARK UNBOUND:                -1.468
REMARK SMILES Cc1cc2c(C(C)C)c(O)c(O)c(C=O)c2c(O)c1-c1c(C)cc2c(C(C)C)c(O)c(O)c(C=O)c2c1O
REMARK SMILES IDX 1 1 2 2 3 3 4 4 16 5 13 6 11 7 9 8 5 9 17 10 19 11 20 12
REMARK SMILES IDX 37 13 21 14 36 15 23 16 22 17 24 18 33 19 25 20 31 21 29 22
REMARK SMILES IDX 38 23 34 25 35 26 26 27 27 28 28 29 32 30 30 32 18 34 6 36
REMARK SMILES IDX 7 37 8 38 14 39 15 40 10 41 12 43
REMARK H PARENT 38 24 32 31 30 33 18 35 10 42 12 44
REMARK Flexibility Score: inf
ROOT
ATOM      1  C   UNL     1     159.417 151.456 159.049  1.00  0.00     0.045 C 
ATOM      2  C   UNL     1     160.510 151.952 159.966  1.00  0.00    -0.039 A 
ATOM      3  C   UNL     1     161.363 152.961 159.511  1.00  0.00     0.013 A 
ATOM      4  C   UNL     1     162.383 153.502 160.325  1.00  0.00    -0.006 A 
ATOM      5  C   UNL     1     162.600 152.935 161.617  1.00  0.00     0.039 A 
ATOM      6  C   UNL     1     163.642 153.459 162.435  1.00  0.00     0.072 A 
ATOM      7  C   UNL     1     164.564 154.375 161.889  1.00  0.00     0.169 A 
ATOM      8  C   UNL     1     164.374 154.889 160.601  1.00  0.00     0.162 A 
ATOM      9  C   UNL     1     163.213 154.573 159.863  1.00  0.00     0.008 A 
ATOM     10  C   UNL     1     161.807 151.820 162.027  1.00  0.00     0.132 A 
ATOM     11  C   UNL     1     160.743 151.363 161.218  1.00  0.00     0.031 A 
ENDROOT
BRANCH  11  12
ATOM     12  C   UNL     1     159.874 150.249 161.688  1.00  0.00     0.031 A 
ATOM     13  C   UNL     1     160.206 148.913 161.372  1.00  0.00     0.132 A 
ATOM     14  C   UNL     1     158.698 150.533 162.401  1.00  0.00    -0.039 A 
ATOM     15  C   UNL     1     159.371 147.837 161.808  1.00  0.00     0.039 A 
ATOM     16  C   UNL     1     157.879 149.485 162.822  1.00  0.00     0.013 A 
ATOM     17  C   UNL     1     158.260 151.957 162.653  1.00  0.00     0.045 C 
ATOM     18  C   UNL     1     158.214 148.133 162.592  1.00  0.00    -0.006 A 
ATOM     19  C   UNL     1     159.631 146.479 161.451  1.00  0.00     0.072 A 
ATOM     20  C   UNL     1     157.389 147.076 163.086  1.00  0.00     0.008 A 
ATOM     21  C   UNL     1     158.715 145.468 161.811  1.00  0.00     0.169 A 
ATOM     22  C   UNL     1     157.589 145.774 162.582  1.00  0.00     0.162 A 
BRANCH  13  23
ATOM     23  O   UNL     1     161.356 148.658 160.614  1.00  0.00    -0.507 OA
ATOM     24  H   UNL     1     161.837 149.358 160.064  1.00  0.00     0.293 HD
ENDBRANCH  13  23
BRANCH  19  25
ATOM     25  C   UNL     1     160.834 146.086 160.689  1.00  0.00     0.264 C 
ATOM     26  O   UNL     1     161.553 145.125 161.076  1.00  0.00    -0.298 OA
ENDBRANCH  19  25
BRANCH  20  27
ATOM     27  C   UNL     1     156.285 147.331 164.127  1.00  0.00     0.017 C 
ATOM     28  C   UNL     1     154.895 147.207 163.494  1.00  0.00     0.012 C 
ATOM     29  C   UNL     1     156.403 146.453 165.388  1.00  0.00     0.012 C 
ENDBRANCH  20  27
BRANCH  21  30
ATOM     30  O   UNL     1     158.912 144.131 161.441  1.00  0.00    -0.504 OA
ATOM     31  H   UNL     1     159.224 143.407 162.074  1.00  0.00     0.293 HD
ENDBRANCH  21  30
BRANCH  22  32
ATOM     32  O   UNL     1     156.652 144.772 162.848  1.00  0.00    -0.504 OA
ATOM     33  H   UNL     1     155.776 144.949 163.322  1.00  0.00     0.293 HD
ENDBRANCH  22  32
ENDBRANCH  11  12
BRANCH  10  34
ATOM     34  O   UNL     1     162.108 151.142 163.213  1.00  0.00    -0.507 OA
ATOM     35  H   UNL     1     161.890 151.498 164.134  1.00  0.00     0.293 HD
ENDBRANCH  10  34
BRANCH   9  36
ATOM     36  C   UNL     1     162.902 155.348 158.570  1.00  0.00     0.017 C 
ATOM     37  C   UNL     1     163.875 154.961 157.452  1.00  0.00     0.012 C 
ATOM     38  C   UNL     1     162.837 156.875 158.754  1.00  0.00     0.012 C 
ENDBRANCH   9  36
BRANCH   6  39
ATOM     39  C   UNL     1     163.755 153.131 163.872  1.00  0.00     0.264 C 
ATOM     40  O   UNL     1     164.718 152.439 164.294  1.00  0.00    -0.298 OA
ENDBRANCH   6  39
BRANCH   8  41
ATOM     41  O   UNL     1     165.350 155.720 160.047  1.00  0.00    -0.504 OA
ATOM     42  H   UNL     1     166.342 155.523 160.108  1.00  0.00     0.293 HD
ENDBRANCH   8  41
BRANCH   7  43
ATOM     43  O   UNL     1     165.676 154.822 162.617  1.00  0.00    -0.504 OA
ATOM     44  H   UNL     1     166.629 154.545 162.424  1.00  0.00     0.293 HD
ENDBRANCH   7  43
TORSDOF 11
ENDMDL
MODEL 7
REMARK VINA RESULT:    -5.508      7.232     12.406
REMARK INTER + INTRA:          -9.552
REMARK INTER:                  -8.255
REMARK INTRA:                  -1.298
REMARK UNBOUND:                -1.468
REMARK SMILES Cc1cc2c(C(C)C)c(O)c(O)c(C=O)c2c(O)c1-c1c(C)cc2c(C(C)C)c(O)c(O)c(C=O)c2c1O
REMARK SMILES IDX 1 1 2 2 3 3 4 4 16 5 13 6 11 7 9 8 5 9 17 10 19 11 20 12
REMARK SMILES IDX 37 13 21 14 36 15 23 16 22 17 24 18 33 19 25 20 31 21 29 22
REMARK SMILES IDX 38 23 34 25 35 26 26 27 27 28 28 29 32 30 30 32 18 34 6 36
REMARK SMILES IDX 7 37 8 38 14 39 15 40 10 41 12 43
REMARK H PARENT 38 24 32 31 30 33 18 35 10 42 12 44
REMARK Flexibility Score: inf
ROOT
ATOM      1  C   UNL     1     157.643 144.793 153.246  1.00  0.00     0.045 C 
ATOM      2  C   UNL     1     158.853 144.548 154.117  1.00  0.00    -0.039 A 
ATOM      3  C   UNL     1     160.010 145.297 153.885  1.00  0.00     0.013 A 
ATOM      4  C   UNL     1     161.168 145.152 154.683  1.00  0.00    -0.006 A 
ATOM      5  C   UNL     1     161.179 144.147 155.696  1.00  0.00     0.039 A 
ATOM      6  C   UNL     1     162.350 143.978 156.490  1.00  0.00     0.072 A 
ATOM      7  C   UNL     1     163.536 144.652 156.134  1.00  0.00     0.169 A 
ATOM      8  C   UNL     1     163.531 145.599 155.105  1.00  0.00     0.162 A 
ATOM      9  C   UNL     1     162.325 145.965 154.467  1.00  0.00     0.008 A 
ATOM     10  C   UNL     1     160.038 143.300 155.845  1.00  0.00     0.132 A 
ATOM     11  C   UNL     1     158.871 143.531 155.084  1.00  0.00     0.031 A 
ENDROOT
BRANCH  11  12
ATOM     12  C   UNL     1     157.660 142.692 155.299  1.00  0.00     0.031 A 
ATOM     13  C   UNL     1     157.409 141.586 154.457  1.00  0.00     0.132 A 
ATOM     14  C   UNL     1     156.744 143.031 156.308  1.00  0.00    -0.039 A 
ATOM     15  C   UNL     1     156.244 140.780 154.648  1.00  0.00     0.039 A 
ATOM     16  C   UNL     1     155.603 142.250 156.492  1.00  0.00     0.013 A 
ATOM     17  C   UNL     1     156.928 144.274 157.148  1.00  0.00     0.045 C 
ATOM     18  C   UNL     1     155.354 141.093 155.722  1.00  0.00    -0.006 A 
ATOM     19  C   UNL     1     155.916 139.697 153.777  1.00  0.00     0.072 A 
ATOM     20  C   UNL     1     154.208 140.277 155.969  1.00  0.00     0.008 A 
ATOM     21  C   UNL     1     154.696 139.005 153.941  1.00  0.00     0.169 A 
ATOM     22  C   UNL     1     153.838 139.323 154.998  1.00  0.00     0.162 A 
BRANCH  13  23
ATOM     23  O   UNL     1     158.311 141.298 153.424  1.00  0.00    -0.507 OA
ATOM     24  H   UNL     1     158.032 141.006 152.497  1.00  0.00     0.293 HD
ENDBRANCH  13  23
BRANCH  19  25
ATOM     25  C   UNL     1     156.810 139.277 152.679  1.00  0.00     0.264 C 
ATOM     26  O   UNL     1     157.801 138.532 152.909  1.00  0.00    -0.298 OA
ENDBRANCH  19  25
BRANCH  20  27
ATOM     27  C   UNL     1     153.366 140.430 157.248  1.00  0.00     0.017 C 
ATOM     28  C   UNL     1     152.004 141.057 156.937  1.00  0.00     0.012 C 
ATOM     29  C   UNL     1     153.209 139.124 158.051  1.00  0.00     0.012 C 
ENDBRANCH  20  27
BRANCH  21  30
ATOM     30  O   UNL     1     154.318 137.967 153.079  1.00  0.00    -0.504 OA
ATOM     31  H   UNL     1     154.921 137.198 152.819  1.00  0.00     0.293 HD
ENDBRANCH  21  30
BRANCH  22  32
ATOM     32  O   UNL     1     152.598 138.685 155.085  1.00  0.00    -0.504 OA
ATOM     33  H   UNL     1     152.181 138.407 155.964  1.00  0.00     0.293 HD
ENDBRANCH  22  32
ENDBRANCH  11  12
BRANCH  10  34
ATOM     34  O   UNL     1     160.085 142.203 156.714  1.00  0.00    -0.507 OA
ATOM     35  H   UNL     1     159.263 141.756 157.098  1.00  0.00     0.293 HD
ENDBRANCH  10  34
BRANCH   9  36
ATOM     36  C   UNL     1     162.304 147.185 153.529  1.00  0.00     0.017 C 
ATOM     37  C   UNL     1     163.052 146.888 152.226  1.00  0.00     0.012 C 
ATOM     38  C   UNL     1     162.806 148.487 154.180  1.00  0.00     0.012 C 
ENDBRANCH   9  36
BRANCH   6  39
ATOM     39  C   UNL     1     162.352 143.169 157.727  1.00  0.00     0.264 C 
ATOM     40  O   UNL     1     163.099 142.161 157.828  1.00  0.00    -0.298 OA
ENDBRANCH   6  39
BRANCH   8  41
ATOM     41  O   UNL     1     164.737 146.183 154.709  1.00  0.00    -0.504 OA
ATOM     42  H   UNL     1     164.958 146.390 153.742  1.00  0.00     0.293 HD
ENDBRANCH   8  41
BRANCH   7  43
ATOM     43  O   UNL     1     164.743 144.421 156.810  1.00  0.00    -0.504 OA
ATOM     44  H   UNL     1     164.908 144.667 157.777  1.00  0.00     0.293 HD
ENDBRANCH   7  43
TORSDOF 11
ENDMDL
MODEL 8
REMARK VINA RESULT:    -5.456      2.784      8.840
REMARK INTER + INTRA:          -9.476
REMARK INTER:                  -8.279
REMARK INTRA:                  -1.197
REMARK UNBOUND:                -1.468
REMARK SMILES Cc1cc2c(C(C)C)c(O)c(O)c(C=O)c2c(O)c1-c1c(C)cc2c(C(C)C)c(O)c(O)c(C=O)c2c1O
REMARK SMILES IDX 1 1 2 2 3 3 4 4 16 5 13 6 11 7 9 8 5 9 17 10 19 11 20 12
REMARK SMILES IDX 37 13 21 14 36 15 23 16 22 17 24 18 33 19 25 20 31 21 29 22
REMARK SMILES IDX 38 23 34 25 35 26 26 27 27 28 28 29 32 30 30 32 18 34 6 36
REMARK SMILES IDX 7 37 8 38 14 39 15 40 10 41 12 43
REMARK H PARENT 38 24 32 31 30 33 18 35 10 42 12 44
REMARK Flexibility Score: inf
ROOT
ATOM      1  C   UNL     1     156.899 146.619 165.003  1.00  0.00     0.045 C 
ATOM      2  C   UNL     1     156.598 146.201 163.583  1.00  0.00    -0.039 A 
ATOM      3  C   UNL     1     157.627 146.243 162.638  1.00  0.00     0.013 A 
ATOM      4  C   UNL     1     157.432 145.831 161.300  1.00  0.00    -0.006 A 
ATOM      5  C   UNL     1     156.121 145.448 160.887  1.00  0.00     0.039 A 
ATOM      6  C   UNL     1     155.910 145.054 159.535  1.00  0.00     0.072 A 
ATOM      7  C   UNL     1     156.935 145.243 158.585  1.00  0.00     0.169 A 
ATOM      8  C   UNL     1     158.204 145.669 158.990  1.00  0.00     0.162 A 
ATOM      9  C   UNL     1     158.510 145.829 160.359  1.00  0.00     0.008 A 
ATOM     10  C   UNL     1     155.046 145.527 161.826  1.00  0.00     0.132 A 
ATOM     11  C   UNL     1     155.298 145.864 163.174  1.00  0.00     0.031 A 
ENDROOT
BRANCH  11  12
ATOM     12  C   UNL     1     154.185 145.870 164.163  1.00  0.00     0.031 A 
ATOM     13  C   UNL     1     153.450 147.055 164.389  1.00  0.00     0.132 A 
ATOM     14  C   UNL     1     153.902 144.712 164.905  1.00  0.00    -0.039 A 
ATOM     15  C   UNL     1     152.385 147.075 165.345  1.00  0.00     0.039 A 
ATOM     16  C   UNL     1     152.869 144.732 165.842  1.00  0.00     0.013 A 
ATOM     17  C   UNL     1     154.746 143.467 164.765  1.00  0.00     0.045 C 
ATOM     18  C   UNL     1     152.061 145.872 166.044  1.00  0.00    -0.006 A 
ATOM     19  C   UNL     1     151.664 148.267 165.655  1.00  0.00     0.072 A 
ATOM     20  C   UNL     1     150.971 145.847 166.967  1.00  0.00     0.008 A 
ATOM     21  C   UNL     1     150.701 148.259 166.687  1.00  0.00     0.169 A 
ATOM     22  C   UNL     1     150.392 147.072 167.359  1.00  0.00     0.162 A 
BRANCH  13  23
ATOM     23  O   UNL     1     153.785 148.212 163.675  1.00  0.00    -0.507 OA
ATOM     24  H   UNL     1     153.964 148.229 162.680  1.00  0.00     0.293 HD
ENDBRANCH  13  23
BRANCH  19  25
ATOM     25  C   UNL     1     151.903 149.536 164.940  1.00  0.00     0.264 C 
ATOM     26  O   UNL     1     152.583 150.455 165.473  1.00  0.00    -0.298 OA
ENDBRANCH  19  25
BRANCH  20  27
ATOM     27  C   UNL     1     150.436 144.528 167.553  1.00  0.00     0.017 C 
ATOM     28  C   UNL     1     149.770 143.676 166.468  1.00  0.00     0.012 C 
ATOM     29  C   UNL     1     151.493 143.718 168.329  1.00  0.00     0.012 C 
ENDBRANCH  20  27
BRANCH  21  30
ATOM     30  O   UNL     1     150.004 149.419 167.052  1.00  0.00    -0.504 OA
ATOM     31  H   UNL     1     149.369 149.476 167.836  1.00  0.00     0.293 HD
ENDBRANCH  21  30
BRANCH  22  32
ATOM     32  O   UNL     1     149.502 147.110 168.435  1.00  0.00    -0.504 OA
ATOM     33  H   UNL     1     148.914 147.909 168.637  1.00  0.00     0.293 HD
ENDBRANCH  22  32
ENDBRANCH  11  12
BRANCH  10  34
ATOM     34  O   UNL     1     153.728 145.317 161.406  1.00  0.00    -0.507 OA
ATOM     35  H   UNL     1     153.339 144.404 161.215  1.00  0.00     0.293 HD
ENDBRANCH  10  34
BRANCH   9  36
ATOM     36  C   UNL     1     159.972 146.043 160.790  1.00  0.00     0.017 C 
ATOM     37  C   UNL     1     160.407 147.492 160.549  1.00  0.00     0.012 C 
ATOM     38  C   UNL     1     160.963 145.047 160.162  1.00  0.00     0.012 C 
ENDBRANCH   9  36
BRANCH   6  39
ATOM     39  C   UNL     1     154.669 144.380 159.095  1.00  0.00     0.264 C 
ATOM     40  O   UNL     1     154.726 143.346 158.380  1.00  0.00    -0.298 OA
ENDBRANCH   6  39
BRANCH   8  41
ATOM     41  O   UNL     1     159.174 145.940 158.021  1.00  0.00    -0.504 OA
ATOM     42  H   UNL     1     159.884 145.271 157.749  1.00  0.00     0.293 HD
ENDBRANCH   8  41
BRANCH   7  43
ATOM     43  O   UNL     1     156.731 144.986 157.222  1.00  0.00    -0.504 OA
ATOM     44  H   UNL     1     157.408 144.534 156.622  1.00  0.00     0.293 HD
ENDBRANCH   7  43
TORSDOF 11
ENDMDL
MODEL 9
REMARK VINA RESULT:    -5.430      3.021      5.097
REMARK INTER + INTRA:          -9.437
REMARK INTER:                  -7.998
REMARK INTRA:                  -1.439
REMARK UNBOUND:                -1.468
REMARK SMILES Cc1cc2c(C(C)C)c(O)c(O)c(C=O)c2c(O)c1-c1c(C)cc2c(C(C)C)c(O)c(O)c(C=O)c2c1O
REMARK SMILES IDX 1 1 2 2 3 3 4 4 16 5 13 6 11 7 9 8 5 9 17 10 19 11 20 12
REMARK SMILES IDX 37 13 21 14 36 15 23 16 22 17 24 18 33 19 25 20 31 21 29 22
REMARK SMILES IDX 38 23 34 25 35 26 26 27 27 28 28 29 32 30 30 32 18 34 6 36
REMARK SMILES IDX 7 37 8 38 14 39 15 40 10 41 12 43
REMARK H PARENT 38 24 32 31 30 33 18 35 10 42 12 44
REMARK Flexibility Score: inf
ROOT
ATOM      1  C   UNL     1     154.122 148.525 162.143  1.00  0.00     0.045 C 
ATOM      2  C   UNL     1     153.558 147.502 163.101  1.00  0.00    -0.039 A 
ATOM      3  C   UNL     1     152.652 147.924 164.078  1.00  0.00     0.013 A 
ATOM      4  C   UNL     1     152.053 147.020 164.984  1.00  0.00    -0.006 A 
ATOM      5  C   UNL     1     152.457 145.652 164.952  1.00  0.00     0.039 A 
ATOM      6  C   UNL     1     151.875 144.738 165.878  1.00  0.00     0.072 A 
ATOM      7  C   UNL     1     151.076 145.226 166.932  1.00  0.00     0.169 A 
ATOM      8  C   UNL     1     150.726 146.580 166.986  1.00  0.00     0.162 A 
ATOM      9  C   UNL     1     151.086 147.461 165.943  1.00  0.00     0.008 A 
ATOM     10  C   UNL     1     153.476 145.250 164.035  1.00  0.00     0.132 A 
ATOM     11  C   UNL     1     153.990 146.166 163.091  1.00  0.00     0.031 A 
ENDROOT
BRANCH  11  12
ATOM     12  C   UNL     1     154.996 145.720 162.089  1.00  0.00     0.031 A 
ATOM     13  C   UNL     1     156.374 145.815 162.382  1.00  0.00     0.132 A 
ATOM     14  C   UNL     1     154.574 145.253 160.834  1.00  0.00    -0.039 A 
ATOM     15  C   UNL     1     157.350 145.400 161.423  1.00  0.00     0.039 A 
ATOM     16  C   UNL     1     155.524 144.854 159.893  1.00  0.00     0.013 A 
ATOM     17  C   UNL     1     153.112 145.248 160.451  1.00  0.00     0.045 C 
ATOM     18  C   UNL     1     156.908 144.861 160.175  1.00  0.00    -0.006 A 
ATOM     19  C   UNL     1     158.752 145.545 161.651  1.00  0.00     0.072 A 
ATOM     20  C   UNL     1     157.857 144.391 159.217  1.00  0.00     0.008 A 
ATOM     21  C   UNL     1     159.669 145.226 160.626  1.00  0.00     0.169 A 
ATOM     22  C   UNL     1     159.220 144.696 159.413  1.00  0.00     0.162 A 
BRANCH  13  23
ATOM     23  O   UNL     1     156.773 146.334 163.621  1.00  0.00    -0.507 OA
ATOM     24  H   UNL     1     157.137 145.771 164.379  1.00  0.00     0.293 HD
ENDBRANCH  13  23
BRANCH  19  25
ATOM     25  C   UNL     1     159.290 146.043 162.933  1.00  0.00     0.264 C 
ATOM     26  O   UNL     1     159.663 147.242 163.049  1.00  0.00    -0.298 OA
ENDBRANCH  19  25
BRANCH  20  27
ATOM     27  C   UNL     1     157.425 143.588 157.977  1.00  0.00     0.017 C 
ATOM     28  C   UNL     1     157.339 144.489 156.741  1.00  0.00     0.012 C 
ATOM     29  C   UNL     1     158.298 142.347 157.704  1.00  0.00     0.012 C 
ENDBRANCH  20  27
BRANCH  21  30
ATOM     30  O   UNL     1     161.050 145.396 160.796  1.00  0.00    -0.504 OA
ATOM     31  H   UNL     1     161.654 144.720 161.242  1.00  0.00     0.293 HD
ENDBRANCH  21  30
BRANCH  22  32
ATOM     32  O   UNL     1     160.139 144.473 158.384  1.00  0.00    -0.504 OA
ATOM     33  H   UNL     1     160.895 145.112 158.172  1.00  0.00     0.293 HD
ENDBRANCH  22  32
ENDBRANCH  11  12
BRANCH  10  34
ATOM     34  O   UNL     1     154.007 143.957 164.096  1.00  0.00    -0.507 OA
ATOM     35  H   UNL     1     153.442 143.119 164.130  1.00  0.00     0.293 HD
ENDBRANCH  10  34
BRANCH   9  36
ATOM     36  C   UNL     1     150.472 148.872 165.896  1.00  0.00     0.017 C 
ATOM     37  C   UNL     1     151.024 149.747 167.026  1.00  0.00     0.012 C 
ATOM     38  C   UNL     1     148.933 148.886 165.874  1.00  0.00     0.012 C 
ENDBRANCH   9  36
BRANCH   6  39
ATOM     39  C   UNL     1     152.019 143.273 165.734  1.00  0.00     0.264 C 
ATOM     40  O   UNL     1     152.636 142.606 166.605  1.00  0.00    -0.298 OA
ENDBRANCH   6  39
BRANCH   8  41
ATOM     41  O   UNL     1     150.014 147.057 168.089  1.00  0.00    -0.504 OA
ATOM     42  H   UNL     1     150.454 147.287 168.972  1.00  0.00     0.293 HD
ENDBRANCH   8  41
BRANCH   7  43
ATOM     43  O   UNL     1     150.586 144.380 167.935  1.00  0.00    -0.504 OA
ATOM     44  H   UNL     1     151.161 143.953 168.649  1.00  0.00     0.293 HD
ENDBRANCH   7  43
TORSDOF 11
ENDMDL
