MODEL 1
REMARK VINA RESULT:    -4.436      0.000      0.000
REMARK INTER + INTRA:         -10.748
REMARK INTER:                  -8.067
REMARK INTRA:                  -2.681
REMARK UNBOUND:                -2.681
REMARK SMILES CCCCCC=CCC=CCCCCCCCC(=O)[O-]
REMARK SMILES IDX 11 1 12 2 13 3 14 4 15 5 16 6 17 7 18 8 19 9 20 10 10 11
REMARK SMILES IDX 9 12 8 13 7 14 6 15 5 16 4 17 3 18 2 19 1 20
REMARK H PARENT
REMARK Flexibility Score: inf
ROOT
ATOM      1  C   UNL     1      -2.243  -7.142  -0.317  1.00  0.00     0.027 C 
ENDROOT
BRANCH   1   2
ATOM      2  C   UNL     1      -2.039  -8.377  -1.211  1.00  0.00     0.004 C 
BRANCH   2   3
ATOM      3  C   UNL     1      -0.566  -8.787  -1.399  1.00  0.00     0.000 C 
BRANCH   3   4
ATOM      4  C   UNL     1      -0.043  -8.497  -2.814  1.00  0.00     0.000 C 
BRANCH   4   5
ATOM      5  C   UNL     1      -1.199  -8.172  -3.772  1.00  0.00     0.000 C 
BRANCH   5   6
ATOM      6  C   UNL     1      -1.196  -6.709  -4.249  1.00  0.00     0.006 C 
BRANCH   6   7
ATOM      7  C   UNL     1      -2.587  -6.177  -4.641  1.00  0.00     0.053 C 
BRANCH   7   8
ATOM      8  C   UNL     1      -2.651  -4.680  -4.657  1.00  0.00     0.041 C 
ATOM      9  O   UNL     1      -3.759  -4.093  -4.778  1.00  0.00    -0.550 OA
ATOM     10  O   UNL     1      -1.483  -3.933  -4.571  1.00  0.00    -0.550 OA
ENDBRANCH   7   8
ENDBRANCH   6   7
ENDBRANCH   5   6
ENDBRANCH   4   5
ENDBRANCH   3   4
ENDBRANCH   2   3
ENDBRANCH   1   2
BRANCH   1  11
ATOM     11  C   UNL     1      -3.063  -6.073  -0.997  1.00  0.00    -0.031 C 
ATOM     12  C   UNL     1      -2.735  -4.768  -1.040  1.00  0.00    -0.027 C 
BRANCH  12  13
ATOM     13  C   UNL     1      -1.462  -4.187  -0.480  1.00  0.00     0.054 C 
BRANCH  13  14
ATOM     14  C   UNL     1      -0.309  -4.390  -1.423  1.00  0.00    -0.027 C 
ATOM     15  C   UNL     1       0.741  -5.156  -1.094  1.00  0.00    -0.031 C 
BRANCH  15  16
ATOM     16  C   UNL     1       1.894  -5.362  -2.039  1.00  0.00     0.027 C 
BRANCH  16  17
ATOM     17  C   UNL     1       2.824  -6.506  -1.597  1.00  0.00     0.004 C 
BRANCH  17  18
ATOM     18  C   UNL     1       2.862  -6.746  -0.074  1.00  0.00     0.000 C 
BRANCH  18  19
ATOM     19  C   UNL     1       2.130  -8.013   0.400  1.00  0.00    -0.003 C 
ATOM     20  C   UNL     1       2.978  -8.879   1.331  1.00  0.00     0.004 C 
ENDBRANCH  18  19
ENDBRANCH  17  18
ENDBRANCH  16  17
ENDBRANCH  15  16
ENDBRANCH  13  14
ENDBRANCH  12  13
ENDBRANCH   1  11
TORSDOF 14
ENDMDL
MODEL 2
REMARK VINA RESULT:    -4.378      1.415      2.900
REMARK INTER + INTRA:         -10.643
REMARK INTER:                  -7.423
REMARK INTRA:                  -3.220
REMARK UNBOUND:                -2.681
REMARK SMILES CCCCCC=CCC=CCCCCCCCC(=O)[O-]
REMARK SMILES IDX 11 1 12 2 13 3 14 4 15 5 16 6 17 7 18 8 19 9 20 10 10 11
REMARK SMILES IDX 9 12 8 13 7 14 6 15 5 16 4 17 3 18 2 19 1 20
REMARK H PARENT
REMARK Flexibility Score: inf
ROOT
ATOM      1  C   UNL     1      -1.655  -8.451  -1.184  1.00  0.00     0.027 C 
ENDROOT
BRANCH   1   2
ATOM      2  C   UNL     1      -0.809  -7.353  -0.518  1.00  0.00     0.004 C 
BRANCH   2   3
ATOM      3  C   UNL     1      -1.221  -5.918  -0.895  1.00  0.00     0.000 C 
BRANCH   3   4
ATOM      4  C   UNL     1      -0.025  -5.040  -1.297  1.00  0.00     0.000 C 
BRANCH   4   5
ATOM      5  C   UNL     1      -0.386  -4.127  -2.478  1.00  0.00     0.000 C 
BRANCH   5   6
ATOM      6  C   UNL     1      -1.898  -4.071  -2.759  1.00  0.00     0.006 C 
BRANCH   6   7
ATOM      7  C   UNL     1      -2.266  -4.278  -4.240  1.00  0.00     0.053 C 
BRANCH   7   8
ATOM      8  C   UNL     1      -3.700  -4.669  -4.432  1.00  0.00     0.041 C 
ATOM      9  O   UNL     1      -4.138  -4.933  -5.583  1.00  0.00    -0.550 OA
ATOM     10  O   UNL     1      -4.561  -4.708  -3.343  1.00  0.00    -0.550 OA
ENDBRANCH   7   8
ENDBRANCH   6   7
ENDBRANCH   5   6
ENDBRANCH   4   5
ENDBRANCH   3   4
ENDBRANCH   2   3
ENDBRANCH   1   2
BRANCH   1  11
ATOM     11  C   UNL     1      -2.643  -7.888  -2.176  1.00  0.00    -0.031 C 
ATOM     12  C   UNL     1      -2.438  -7.816  -3.505  1.00  0.00    -0.027 C 
BRANCH  12  13
ATOM     13  C   UNL     1      -1.220  -8.353  -4.213  1.00  0.00     0.054 C 
BRANCH  13  14
ATOM     14  C   UNL     1      -0.120  -7.330  -4.258  1.00  0.00    -0.027 C 
ATOM     15  C   UNL     1       1.111  -7.602  -3.803  1.00  0.00    -0.031 C 
BRANCH  15  16
ATOM     16  C   UNL     1       2.214  -6.579  -3.850  1.00  0.00     0.027 C 
BRANCH  16  17
ATOM     17  C   UNL     1       3.055  -6.554  -2.561  1.00  0.00     0.004 C 
BRANCH  17  18
ATOM     18  C   UNL     1       2.723  -7.680  -1.561  1.00  0.00     0.000 C 
BRANCH  18  19
ATOM     19  C   UNL     1       2.848  -7.287  -0.079  1.00  0.00    -0.003 C 
ATOM     20  C   UNL     1       2.545  -8.444   0.873  1.00  0.00     0.004 C 
ENDBRANCH  18  19
ENDBRANCH  17  18
ENDBRANCH  16  17
ENDBRANCH  15  16
ENDBRANCH  13  14
ENDBRANCH  12  13
ENDBRANCH   1  11
TORSDOF 14
ENDMDL
MODEL 3
REMARK VINA RESULT:    -4.365      2.322      4.181
REMARK INTER + INTRA:         -10.618
REMARK INTER:                  -8.107
REMARK INTRA:                  -2.512
REMARK UNBOUND:                -2.681
REMARK SMILES CCCCCC=CCC=CCCCCCCCC(=O)[O-]
REMARK SMILES IDX 11 1 12 2 13 3 14 4 15 5 16 6 17 7 18 8 19 9 20 10 10 11
REMARK SMILES IDX 9 12 8 13 7 14 6 15 5 16 4 17 3 18 2 19 1 20
REMARK H PARENT
REMARK Flexibility Score: inf
ROOT
ATOM      1  C   UNL     1      -1.752  -7.802  -3.928  1.00  0.00     0.027 C 
ENDROOT
BRANCH   1   2
ATOM      2  C   UNL     1      -1.821  -6.445  -4.648  1.00  0.00     0.004 C 
BRANCH   2   3
ATOM      3  C   UNL     1      -2.138  -5.253  -3.726  1.00  0.00     0.000 C 
BRANCH   3   4
ATOM      4  C   UNL     1      -0.933  -4.322  -3.519  1.00  0.00     0.000 C 
BRANCH   4   5
ATOM      5  C   UNL     1      -0.029  -4.838  -2.390  1.00  0.00     0.000 C 
BRANCH   5   6
ATOM      6  C   UNL     1       1.451  -4.941  -2.799  1.00  0.00     0.006 C 
BRANCH   6   7
ATOM      7  C   UNL     1       1.670  -5.096  -4.316  1.00  0.00     0.053 C 
BRANCH   7   8
ATOM      8  C   UNL     1       2.193  -6.450  -4.690  1.00  0.00     0.041 C 
ATOM      9  O   UNL     1       2.931  -6.588  -5.701  1.00  0.00    -0.550 OA
ATOM     10  O   UNL     1       1.838  -7.564  -3.941  1.00  0.00    -0.550 OA
ENDBRANCH   7   8
ENDBRANCH   6   7
ENDBRANCH   5   6
ENDBRANCH   4   5
ENDBRANCH   3   4
ENDBRANCH   2   3
ENDBRANCH   1   2
BRANCH   1  11
ATOM     11  C   UNL     1      -2.352  -7.747  -2.545  1.00  0.00    -0.031 C 
ATOM     12  C   UNL     1      -1.756  -8.212  -1.431  1.00  0.00    -0.027 C 
BRANCH  12  13
ATOM     13  C   UNL     1      -0.365  -8.793  -1.385  1.00  0.00     0.054 C 
BRANCH  13  14
ATOM     14  C   UNL     1       0.544  -7.962  -0.523  1.00  0.00    -0.027 C 
ATOM     15  C   UNL     1       1.787  -8.364  -0.222  1.00  0.00    -0.031 C 
BRANCH  15  16
ATOM     16  C   UNL     1       2.699  -7.531   0.639  1.00  0.00     0.027 C 
BRANCH  16  17
ATOM     17  C   UNL     1       2.806  -6.075   0.153  1.00  0.00     0.004 C 
BRANCH  17  18
ATOM     18  C   UNL     1       4.213  -5.664  -0.326  1.00  0.00     0.000 C 
BRANCH  18  19
ATOM     19  C   UNL     1       4.701  -6.387  -1.593  1.00  0.00    -0.003 C 
ATOM     20  C   UNL     1       5.861  -5.667  -2.281  1.00  0.00     0.004 C 
ENDBRANCH  18  19
ENDBRANCH  17  18
ENDBRANCH  16  17
ENDBRANCH  15  16
ENDBRANCH  13  14
ENDBRANCH  12  13
ENDBRANCH   1  11
TORSDOF 14
ENDMDL
MODEL 4
REMARK VINA RESULT:    -4.340      3.466      6.681
REMARK INTER + INTRA:         -10.573
REMARK INTER:                  -7.900
REMARK INTRA:                  -2.673
REMARK UNBOUND:                -2.681
REMARK SMILES CCCCCC=CCC=CCCCCCCCC(=O)[O-]
REMARK SMILES IDX 11 1 12 2 13 3 14 4 15 5 16 6 17 7 18 8 19 9 20 10 10 11
REMARK SMILES IDX 9 12 8 13 7 14 6 15 5 16 4 17 3 18 2 19 1 20
REMARK H PARENT
REMARK Flexibility Score: inf
ROOT
ATOM      1  C   UNL     1       1.099  -5.458  -3.209  1.00  0.00     0.027 C 
ENDROOT
BRANCH   1   2
ATOM      2  C   UNL     1       2.032  -4.250  -3.018  1.00  0.00     0.004 C 
BRANCH   2   3
ATOM      3  C   UNL     1       2.373  -3.937  -1.549  1.00  0.00     0.000 C 
BRANCH   3   4
ATOM      4  C   UNL     1       1.890  -5.027  -0.580  1.00  0.00     0.000 C 
BRANCH   4   5
ATOM      5  C   UNL     1       3.065  -5.887  -0.091  1.00  0.00     0.000 C 
BRANCH   5   6
ATOM      6  C   UNL     1       4.433  -5.376  -0.579  1.00  0.00     0.006 C 
BRANCH   6   7
ATOM      7  C   UNL     1       5.110  -6.296  -1.611  1.00  0.00     0.053 C 
BRANCH   7   8
ATOM      8  C   UNL     1       6.382  -5.718  -2.156  1.00  0.00     0.041 C 
ATOM      9  O   UNL     1       7.359  -5.500  -1.392  1.00  0.00    -0.550 OA
ATOM     10  O   UNL     1       6.475  -5.390  -3.502  1.00  0.00    -0.550 OA
ENDBRANCH   7   8
ENDBRANCH   6   7
ENDBRANCH   5   6
ENDBRANCH   4   5
ENDBRANCH   3   4
ENDBRANCH   2   3
ENDBRANCH   1   2
BRANCH   1  11
ATOM     11  C   UNL     1       1.685  -6.492  -4.139  1.00  0.00    -0.031 C 
ATOM     12  C   UNL     1       2.041  -7.737  -3.773  1.00  0.00    -0.027 C 
BRANCH  12  13
ATOM     13  C   UNL     1       1.841  -8.314  -2.394  1.00  0.00     0.054 C 
BRANCH  13  14
ATOM     14  C   UNL     1       0.412  -8.730  -2.180  1.00  0.00    -0.027 C 
ATOM     15  C   UNL     1      -0.406  -8.041  -1.372  1.00  0.00    -0.031 C 
BRANCH  15  16
ATOM     16  C   UNL     1      -1.838  -8.455  -1.159  1.00  0.00     0.027 C 
BRANCH  16  17
ATOM     17  C   UNL     1      -2.752  -8.048  -2.329  1.00  0.00     0.004 C 
BRANCH  17  18
ATOM     18  C   UNL     1      -2.409  -6.685  -2.962  1.00  0.00     0.000 C 
BRANCH  18  19
ATOM     19  C   UNL     1      -2.152  -6.722  -4.478  1.00  0.00    -0.003 C 
ATOM     20  C   UNL     1      -1.890  -8.132  -5.004  1.00  0.00     0.004 C 
ENDBRANCH  18  19
ENDBRANCH  17  18
ENDBRANCH  16  17
ENDBRANCH  15  16
ENDBRANCH  13  14
ENDBRANCH  12  13
ENDBRANCH   1  11
TORSDOF 14
ENDMDL
MODEL 5
REMARK VINA RESULT:    -4.321      1.947      3.560
REMARK INTER + INTRA:         -10.539
REMARK INTER:                  -7.758
REMARK INTRA:                  -2.781
REMARK UNBOUND:                -2.681
REMARK SMILES CCCCCC=CCC=CCCCCCCCC(=O)[O-]
REMARK SMILES IDX 11 1 12 2 13 3 14 4 15 5 16 6 17 7 18 8 19 9 20 10 10 11
REMARK SMILES IDX 9 12 8 13 7 14 6 15 5 16 4 17 3 18 2 19 1 20
REMARK H PARENT
REMARK Flexibility Score: inf
ROOT
ATOM      1  C   UNL     1       1.431  -6.997  -4.213  1.00  0.00     0.027 C 
ENDROOT
BRANCH   1   2
ATOM      2  C   UNL     1       1.842  -8.288  -3.483  1.00  0.00     0.004 C 
BRANCH   2   3
ATOM      3  C   UNL     1       0.738  -8.895  -2.598  1.00  0.00     0.000 C 
BRANCH   3   4
ATOM      4  C   UNL     1      -0.027  -7.837  -1.789  1.00  0.00     0.000 C 
BRANCH   4   5
ATOM      5  C   UNL     1      -1.488  -8.260  -1.573  1.00  0.00     0.000 C 
BRANCH   5   6
ATOM      6  C   UNL     1      -2.501  -7.202  -2.045  1.00  0.00     0.006 C 
BRANCH   6   7
ATOM      7  C   UNL     1      -1.923  -6.188  -3.049  1.00  0.00     0.053 C 
BRANCH   7   8
ATOM      8  C   UNL     1      -2.330  -6.475  -4.462  1.00  0.00     0.041 C 
ATOM      9  O   UNL     1      -3.034  -5.649  -5.101  1.00  0.00    -0.550 OA
ATOM     10  O   UNL     1      -1.961  -7.672  -5.062  1.00  0.00    -0.550 OA
ENDBRANCH   7   8
ENDBRANCH   6   7
ENDBRANCH   5   6
ENDBRANCH   4   5
ENDBRANCH   3   4
ENDBRANCH   2   3
ENDBRANCH   1   2
BRANCH   1  11
ATOM     11  C   UNL     1       2.614  -6.278  -4.813  1.00  0.00    -0.031 C 
ATOM     12  C   UNL     1       2.843  -4.956  -4.705  1.00  0.00    -0.027 C 
BRANCH  12  13
ATOM     13  C   UNL     1       1.990  -4.003  -3.905  1.00  0.00     0.054 C 
BRANCH  13  14
ATOM     14  C   UNL     1       2.437  -3.946  -2.471  1.00  0.00    -0.027 C 
ATOM     15  C   UNL     1       1.741  -4.549  -1.495  1.00  0.00    -0.031 C 
BRANCH  15  16
ATOM     16  C   UNL     1       2.188  -4.495  -0.059  1.00  0.00     0.027 C 
BRANCH  16  17
ATOM     17  C   UNL     1       3.393  -5.411   0.221  1.00  0.00     0.004 C 
BRANCH  17  18
ATOM     18  C   UNL     1       3.217  -6.864  -0.265  1.00  0.00     0.000 C 
BRANCH  18  19
ATOM     19  C   UNL     1       4.220  -7.312  -1.342  1.00  0.00    -0.003 C 
ATOM     20  C   UNL     1       5.249  -6.236  -1.683  1.00  0.00     0.004 C 
ENDBRANCH  18  19
ENDBRANCH  17  18
ENDBRANCH  16  17
ENDBRANCH  15  16
ENDBRANCH  13  14
ENDBRANCH  12  13
ENDBRANCH   1  11
TORSDOF 14
ENDMDL
MODEL 6
REMARK VINA RESULT:    -4.311      1.419      3.110
REMARK INTER + INTRA:         -10.521
REMARK INTER:                  -7.706
REMARK INTRA:                  -2.815
REMARK UNBOUND:                -2.681
REMARK SMILES CCCCCC=CCC=CCCCCCCCC(=O)[O-]
REMARK SMILES IDX 11 1 12 2 13 3 14 4 15 5 16 6 17 7 18 8 19 9 20 10 10 11
REMARK SMILES IDX 9 12 8 13 7 14 6 15 5 16 4 17 3 18 2 19 1 20
REMARK H PARENT
REMARK Flexibility Score: inf
ROOT
ATOM      1  C   UNL     1       0.485  -8.414  -3.265  1.00  0.00     0.027 C 
ENDROOT
BRANCH   1   2
ATOM      2  C   UNL     1       0.734  -8.771  -1.789  1.00  0.00     0.004 C 
BRANCH   2   3
ATOM      3  C   UNL     1      -0.481  -8.546  -0.869  1.00  0.00     0.000 C 
BRANCH   3   4
ATOM      4  C   UNL     1      -1.777  -8.274  -1.648  1.00  0.00     0.000 C 
BRANCH   4   5
ATOM      5  C   UNL     1      -2.326  -6.876  -1.330  1.00  0.00     0.000 C 
BRANCH   5   6
ATOM      6  C   UNL     1      -3.229  -6.313  -2.442  1.00  0.00     0.006 C 
BRANCH   6   7
ATOM      7  C   UNL     1      -2.610  -6.392  -3.849  1.00  0.00     0.053 C 
BRANCH   7   8
ATOM      8  C   UNL     1      -2.830  -5.145  -4.650  1.00  0.00     0.041 C 
ATOM      9  O   UNL     1      -1.985  -4.212  -4.619  1.00  0.00    -0.550 OA
ATOM     10  O   UNL     1      -3.987  -4.999  -5.405  1.00  0.00    -0.550 OA
ENDBRANCH   7   8
ENDBRANCH   6   7
ENDBRANCH   5   6
ENDBRANCH   4   5
ENDBRANCH   3   4
ENDBRANCH   2   3
ENDBRANCH   1   2
BRANCH   1  11
ATOM     11  C   UNL     1       1.751  -7.996  -3.972  1.00  0.00    -0.031 C 
ATOM     12  C   UNL     1       2.046  -6.732  -4.332  1.00  0.00    -0.027 C 
BRANCH  12  13
ATOM     13  C   UNL     1       1.190  -5.531  -4.017  1.00  0.00     0.054 C 
BRANCH  13  14
ATOM     14  C   UNL     1       1.676  -4.826  -2.781  1.00  0.00    -0.027 C 
ATOM     15  C   UNL     1       1.217  -5.148  -1.563  1.00  0.00    -0.031 C 
BRANCH  15  16
ATOM     16  C   UNL     1       1.705  -4.445  -0.325  1.00  0.00     0.027 C 
BRANCH  16  17
ATOM     17  C   UNL     1       3.002  -5.059   0.233  1.00  0.00     0.004 C 
BRANCH  17  18
ATOM     18  C   UNL     1       3.021  -6.601   0.252  1.00  0.00     0.000 C 
BRANCH  18  19
ATOM     19  C   UNL     1       3.848  -7.251  -0.870  1.00  0.00    -0.003 C 
ATOM     20  C   UNL     1       4.823  -6.278  -1.533  1.00  0.00     0.004 C 
ENDBRANCH  18  19
ENDBRANCH  17  18
ENDBRANCH  16  17
ENDBRANCH  15  16
ENDBRANCH  13  14
ENDBRANCH  12  13
ENDBRANCH   1  11
TORSDOF 14
ENDMDL
MODEL 7
REMARK VINA RESULT:    -4.287      2.544      5.684
REMARK INTER + INTRA:         -10.476
REMARK INTER:                  -7.465
REMARK INTRA:                  -3.011
REMARK UNBOUND:                -2.681
REMARK SMILES CCCCCC=CCC=CCCCCCCCC(=O)[O-]
REMARK SMILES IDX 11 1 12 2 13 3 14 4 15 5 16 6 17 7 18 8 19 9 20 10 10 11
REMARK SMILES IDX 9 12 8 13 7 14 6 15 5 16 4 17 3 18 2 19 1 20
REMARK H PARENT
REMARK Flexibility Score: inf
ROOT
ATOM      1  C   UNL     1       4.277  -5.039  -0.496  1.00  0.00     0.027 C 
ENDROOT
BRANCH   1   2
ATOM      2  C   UNL     1       3.221  -3.995  -0.899  1.00  0.00     0.004 C 
BRANCH   2   3
ATOM      3  C   UNL     1       1.825  -4.240  -0.296  1.00  0.00     0.000 C 
BRANCH   3   4
ATOM      4  C   UNL     1       0.807  -4.738  -1.332  1.00  0.00     0.000 C 
BRANCH   4   5
ATOM      5  C   UNL     1       0.653  -3.730  -2.480  1.00  0.00     0.000 C 
BRANCH   5   6
ATOM      6  C   UNL     1       0.798  -4.370  -3.872  1.00  0.00     0.006 C 
BRANCH   6   7
ATOM      7  C   UNL     1       1.572  -5.701  -3.870  1.00  0.00     0.053 C 
BRANCH   7   8
ATOM      8  C   UNL     1       2.740  -5.694  -4.809  1.00  0.00     0.041 C 
ATOM      9  O   UNL     1       3.594  -4.770  -4.754  1.00  0.00    -0.550 OA
ATOM     10  O   UNL     1       2.867  -6.691  -5.767  1.00  0.00    -0.550 OA
ENDBRANCH   7   8
ENDBRANCH   6   7
ENDBRANCH   5   6
ENDBRANCH   4   5
ENDBRANCH   3   4
ENDBRANCH   2   3
ENDBRANCH   1   2
BRANCH   1  11
ATOM     11  C   UNL     1       4.238  -6.262  -1.380  1.00  0.00    -0.031 C 
ATOM     12  C   UNL     1       3.705  -7.446  -1.026  1.00  0.00    -0.027 C 
BRANCH  12  13
ATOM     13  C   UNL     1       2.999  -7.710   0.280  1.00  0.00     0.054 C 
BRANCH  13  14
ATOM     14  C   UNL     1       1.569  -8.114   0.053  1.00  0.00    -0.027 C 
ATOM     15  C   UNL     1       1.111  -8.420  -1.169  1.00  0.00    -0.031 C 
BRANCH  15  16
ATOM     16  C   UNL     1      -0.320  -8.827  -1.397  1.00  0.00     0.027 C 
BRANCH  16  17
ATOM     17  C   UNL     1      -1.059  -7.879  -2.358  1.00  0.00     0.004 C 
BRANCH  17  18
ATOM     18  C   UNL     1      -1.146  -8.384  -3.813  1.00  0.00     0.000 C 
BRANCH  18  19
ATOM     19  C   UNL     1      -1.669  -7.352  -4.826  1.00  0.00    -0.003 C 
ATOM     20  C   UNL     1      -2.485  -6.236  -4.174  1.00  0.00     0.004 C 
ENDBRANCH  18  19
ENDBRANCH  17  18
ENDBRANCH  16  17
ENDBRANCH  15  16
ENDBRANCH  13  14
ENDBRANCH  12  13
ENDBRANCH   1  11
TORSDOF 14
ENDMDL
MODEL 8
REMARK VINA RESULT:    -4.266      1.929      5.622
REMARK INTER + INTRA:         -10.438
REMARK INTER:                  -7.271
REMARK INTRA:                  -3.167
REMARK UNBOUND:                -2.681
REMARK SMILES CCCCCC=CCC=CCCCCCCCC(=O)[O-]
REMARK SMILES IDX 11 1 12 2 13 3 14 4 15 5 16 6 17 7 18 8 19 9 20 10 10 11
REMARK SMILES IDX 9 12 8 13 7 14 6 15 5 16 4 17 3 18 2 19 1 20
REMARK H PARENT
REMARK Flexibility Score: inf
ROOT
ATOM      1  C   UNL     1       3.206  -5.813  -0.401  1.00  0.00     0.027 C 
ENDROOT
BRANCH   1   2
ATOM      2  C   UNL     1       2.345  -4.561  -0.641  1.00  0.00     0.004 C 
BRANCH   2   3
ATOM      3  C   UNL     1       2.097  -4.236  -2.126  1.00  0.00     0.000 C 
BRANCH   3   4
ATOM      4  C   UNL     1       0.697  -4.652  -2.601  1.00  0.00     0.000 C 
BRANCH   4   5
ATOM      5  C   UNL     1      -0.375  -3.701  -2.051  1.00  0.00     0.000 C 
BRANCH   5   6
ATOM      6  C   UNL     1      -1.400  -4.404  -1.143  1.00  0.00     0.006 C 
BRANCH   6   7
ATOM      7  C   UNL     1      -1.084  -5.888  -0.877  1.00  0.00     0.053 C 
BRANCH   7   8
ATOM      8  C   UNL     1      -2.315  -6.740  -0.809  1.00  0.00     0.041 C 
ATOM      9  O   UNL     1      -2.227  -7.962  -0.520  1.00  0.00    -0.550 OA
ATOM     10  O   UNL     1      -3.557  -6.190  -1.099  1.00  0.00    -0.550 OA
ENDBRANCH   7   8
ENDBRANCH   6   7
ENDBRANCH   5   6
ENDBRANCH   4   5
ENDBRANCH   3   4
ENDBRANCH   2   3
ENDBRANCH   1   2
BRANCH   1  11
ATOM     11  C   UNL     1       2.372  -7.022  -0.055  1.00  0.00    -0.031 C 
ATOM     12  C   UNL     1       2.075  -8.019  -0.910  1.00  0.00    -0.027 C 
BRANCH  12  13
ATOM     13  C   UNL     1       2.592  -8.116  -2.323  1.00  0.00     0.054 C 
BRANCH  13  14
ATOM     14  C   UNL     1       1.467  -8.089  -3.318  1.00  0.00    -0.027 C 
ATOM     15  C   UNL     1       0.229  -8.488  -2.989  1.00  0.00    -0.031 C 
BRANCH  15  16
ATOM     16  C   UNL     1      -0.900  -8.459  -3.984  1.00  0.00     0.027 C 
BRANCH  16  17
ATOM     17  C   UNL     1      -1.097  -7.069  -4.615  1.00  0.00     0.004 C 
BRANCH  17  18
ATOM     18  C   UNL     1      -2.539  -6.529  -4.531  1.00  0.00     0.000 C 
BRANCH  18  19
ATOM     19  C   UNL     1      -2.668  -5.003  -4.673  1.00  0.00    -0.003 C 
ATOM     20  C   UNL     1      -4.101  -4.505  -4.489  1.00  0.00     0.004 C 
ENDBRANCH  18  19
ENDBRANCH  17  18
ENDBRANCH  16  17
ENDBRANCH  15  16
ENDBRANCH  13  14
ENDBRANCH  12  13
ENDBRANCH   1  11
TORSDOF 14
ENDMDL
MODEL 9
REMARK VINA RESULT:    -4.262      1.971      3.746
REMARK INTER + INTRA:         -10.431
REMARK INTER:                  -7.756
REMARK INTRA:                  -2.675
REMARK UNBOUND:                -2.681
REMARK SMILES CCCCCC=CCC=CCCCCCCCC(=O)[O-]
REMARK SMILES IDX 11 1 12 2 13 3 14 4 15 5 16 6 17 7 18 8 19 9 20 10 10 11
REMARK SMILES IDX 9 12 8 13 7 14 6 15 5 16 4 17 3 18 2 19 1 20
REMARK H PARENT
REMARK Flexibility Score: inf
ROOT
ATOM      1  C   UNL     1      -2.474  -7.988  -3.673  1.00  0.00     0.027 C 
ENDROOT
BRANCH   1   2
ATOM      2  C   UNL     1      -1.800  -6.951  -4.588  1.00  0.00     0.004 C 
BRANCH   2   3
ATOM      3  C   UNL     1      -2.466  -5.562  -4.572  1.00  0.00     0.000 C 
BRANCH   3   4
ATOM      4  C   UNL     1      -1.481  -4.432  -4.234  1.00  0.00     0.000 C 
BRANCH   4   5
ATOM      5  C   UNL     1      -0.244  -4.981  -3.508  1.00  0.00     0.000 C 
BRANCH   5   6
ATOM      6  C   UNL     1      -0.269  -4.722  -1.990  1.00  0.00     0.006 C 
BRANCH   6   7
ATOM      7  C   UNL     1       0.680  -3.599  -1.532  1.00  0.00     0.053 C 
BRANCH   7   8
ATOM      8  C   UNL     1       0.132  -2.231  -1.804  1.00  0.00     0.041 C 
ATOM      9  O   UNL     1      -0.928  -1.847  -1.243  1.00  0.00    -0.550 OA
ATOM     10  O   UNL     1       0.776  -1.392  -2.705  1.00  0.00    -0.550 OA
ENDBRANCH   7   8
ENDBRANCH   6   7
ENDBRANCH   5   6
ENDBRANCH   4   5
ENDBRANCH   3   4
ENDBRANCH   2   3
ENDBRANCH   1   2
BRANCH   1  11
ATOM     11  C   UNL     1      -2.643  -7.481  -2.262  1.00  0.00    -0.031 C 
ATOM     12  C   UNL     1      -1.976  -7.956  -1.193  1.00  0.00    -0.027 C 
BRANCH  12  13
ATOM     13  C   UNL     1      -0.905  -9.015  -1.254  1.00  0.00     0.054 C 
BRANCH  13  14
ATOM     14  C   UNL     1       0.435  -8.416  -1.581  1.00  0.00    -0.027 C 
ATOM     15  C   UNL     1       1.075  -8.711  -2.722  1.00  0.00    -0.031 C 
BRANCH  15  16
ATOM     16  C   UNL     1       2.415  -8.110  -3.053  1.00  0.00     0.027 C 
BRANCH  16  17
ATOM     17  C   UNL     1       2.664  -6.779  -2.321  1.00  0.00     0.004 C 
BRANCH  17  18
ATOM     18  C   UNL     1       3.657  -6.873  -1.145  1.00  0.00     0.000 C 
BRANCH  18  19
ATOM     19  C   UNL     1       3.063  -6.529   0.232  1.00  0.00    -0.003 C 
ATOM     20  C   UNL     1       3.477  -5.145   0.731  1.00  0.00     0.004 C 
ENDBRANCH  18  19
ENDBRANCH  17  18
ENDBRANCH  16  17
ENDBRANCH  15  16
ENDBRANCH  13  14
ENDBRANCH  12  13
ENDBRANCH   1  11
TORSDOF 14
ENDMDL
