MODEL 1
REMARK VINA RESULT:    -5.354      0.000      0.000
REMARK INTER + INTRA:         -10.514
REMARK INTER:                  -9.736
REMARK INTRA:                  -0.778
REMARK UNBOUND:                -0.778
REMARK SMILES CCCCCCCCCCCCCCCC(=O)[O-]
REMARK SMILES IDX 9 1 10 2 11 3 12 4 13 5 14 6 15 7 16 8 17 9 18 10 8 11 7 12
REMARK SMILES IDX 6 13 5 14 4 15 3 16 2 17 1 18
REMARK H PARENT
REMARK Flexibility Score: inf
ROOT
ATOM      1  C   UNL     1       3.840 -12.189  -5.234  1.00  0.00     0.000 C 
ENDROOT
BRANCH   1   2
ATOM      2  C   UNL     1       4.272 -10.717  -5.401  1.00  0.00     0.000 C 
BRANCH   2   3
ATOM      3  C   UNL     1       4.607 -10.333  -6.852  1.00  0.00     0.000 C 
BRANCH   3   4
ATOM      4  C   UNL     1       4.652  -8.812  -7.074  1.00  0.00     0.000 C 
BRANCH   4   5
ATOM      5  C   UNL     1       3.790  -8.363  -8.264  1.00  0.00     0.000 C 
BRANCH   5   6
ATOM      6  C   UNL     1       2.434  -9.088  -8.320  1.00  0.00     0.006 C 
BRANCH   6   7
ATOM      7  C   UNL     1       1.283  -8.200  -7.828  1.00  0.00     0.053 C 
BRANCH   7   8
ATOM      8  C   UNL     1      -0.008  -8.958  -7.755  1.00  0.00     0.041 C 
ATOM      9  O   UNL     1      -1.005  -8.580  -8.423  1.00  0.00    -0.550 OA
ATOM     10  O   UNL     1      -0.118 -10.063  -6.920  1.00  0.00    -0.550 OA
ENDBRANCH   7   8
ENDBRANCH   6   7
ENDBRANCH   5   6
ENDBRANCH   4   5
ENDBRANCH   3   4
ENDBRANCH   2   3
ENDBRANCH   1   2
BRANCH   1  11
ATOM     11  C   UNL     1       5.027 -13.103  -4.881  1.00  0.00     0.000 C 
BRANCH  11  12
ATOM     12  C   UNL     1       6.029 -12.432  -3.930  1.00  0.00    -0.000 C 
BRANCH  12  13
ATOM     13  C   UNL     1       7.288 -13.288  -3.697  1.00  0.00    -0.000 C 
BRANCH  13  14
ATOM     14  C   UNL     1       7.424 -13.730  -2.224  1.00  0.00    -0.000 C 
BRANCH  14  15
ATOM     15  C   UNL     1       7.422 -12.559  -1.226  1.00  0.00    -0.000 C 
BRANCH  15  16
ATOM     16  C   UNL     1       8.683 -12.519  -0.349  1.00  0.00    -0.000 C 
BRANCH  16  17
ATOM     17  C   UNL     1       8.919 -11.138   0.282  1.00  0.00    -0.003 C 
ATOM     18  C   UNL     1       7.913 -10.090  -0.195  1.00  0.00     0.004 C 
ENDBRANCH  16  17
ENDBRANCH  15  16
ENDBRANCH  14  15
ENDBRANCH  13  14
ENDBRANCH  12  13
ENDBRANCH  11  12
ENDBRANCH   1  11
TORSDOF 14
ENDMDL
MODEL 2
REMARK VINA RESULT:    -5.326      2.424      3.382
REMARK INTER + INTRA:         -10.463
REMARK INTER:                  -9.612
REMARK INTRA:                  -0.851
REMARK UNBOUND:                -0.778
REMARK SMILES CCCCCCCCCCCCCCCC(=O)[O-]
REMARK SMILES IDX 9 1 10 2 11 3 12 4 13 5 14 6 15 7 16 8 17 9 18 10 8 11 7 12
REMARK SMILES IDX 6 13 5 14 4 15 3 16 2 17 1 18
REMARK H PARENT
REMARK Flexibility Score: inf
ROOT
ATOM      1  C   UNL     1       6.088 -12.375  -3.672  1.00  0.00     0.000 C 
ENDROOT
BRANCH   1   2
ATOM      2  C   UNL     1       4.819 -12.997  -4.292  1.00  0.00     0.000 C 
BRANCH   2   3
ATOM      3  C   UNL     1       4.522 -12.502  -5.718  1.00  0.00     0.000 C 
BRANCH   3   4
ATOM      4  C   UNL     1       4.059 -11.036  -5.758  1.00  0.00     0.000 C 
BRANCH   4   5
ATOM      5  C   UNL     1       4.664 -10.258  -6.936  1.00  0.00     0.000 C 
BRANCH   5   6
ATOM      6  C   UNL     1       3.608  -9.471  -7.731  1.00  0.00     0.006 C 
BRANCH   6   7
ATOM      7  C   UNL     1       3.484  -8.019  -7.249  1.00  0.00     0.053 C 
BRANCH   7   8
ATOM      8  C   UNL     1       4.723  -7.230  -7.543  1.00  0.00     0.041 C 
ATOM      9  O   UNL     1       5.414  -6.760  -6.602  1.00  0.00    -0.550 OA
ATOM     10  O   UNL     1       5.096  -6.987  -8.859  1.00  0.00    -0.550 OA
ENDBRANCH   7   8
ENDBRANCH   6   7
ENDBRANCH   5   6
ENDBRANCH   4   5
ENDBRANCH   3   4
ENDBRANCH   2   3
ENDBRANCH   1   2
BRANCH   1  11
ATOM     11  C   UNL     1       7.281 -13.346  -3.703  1.00  0.00     0.000 C 
BRANCH  11  12
ATOM     12  C   UNL     1       7.675 -13.847  -2.305  1.00  0.00    -0.000 C 
BRANCH  12  13
ATOM     13  C   UNL     1       7.452 -12.786  -1.212  1.00  0.00    -0.000 C 
BRANCH  13  14
ATOM     14  C   UNL     1       8.702 -12.594  -0.326  1.00  0.00    -0.000 C 
BRANCH  14  15
ATOM     15  C   UNL     1       8.833 -11.175   0.254  1.00  0.00    -0.000 C 
BRANCH  15  16
ATOM     16  C   UNL     1       8.026 -10.131  -0.534  1.00  0.00    -0.000 C 
BRANCH  16  17
ATOM     17  C   UNL     1       6.950  -9.447   0.325  1.00  0.00    -0.003 C 
ATOM     18  C   UNL     1       6.713  -7.990  -0.073  1.00  0.00     0.004 C 
ENDBRANCH  16  17
ENDBRANCH  15  16
ENDBRANCH  14  15
ENDBRANCH  13  14
ENDBRANCH  12  13
ENDBRANCH  11  12
ENDBRANCH   1  11
TORSDOF 14
ENDMDL
MODEL 3
REMARK VINA RESULT:    -5.316      2.560      5.305
REMARK INTER + INTRA:         -10.444
REMARK INTER:                  -8.410
REMARK INTRA:                  -2.034
REMARK UNBOUND:                -0.778
REMARK SMILES CCCCCCCCCCCCCCCC(=O)[O-]
REMARK SMILES IDX 9 1 10 2 11 3 12 4 13 5 14 6 15 7 16 8 17 9 18 10 8 11 7 12
REMARK SMILES IDX 6 13 5 14 4 15 3 16 2 17 1 18
REMARK H PARENT
REMARK Flexibility Score: inf
ROOT
ATOM      1  C   UNL     1       7.709 -10.278  -1.152  1.00  0.00     0.000 C 
ENDROOT
BRANCH   1   2
ATOM      2  C   UNL     1       6.955  -9.088  -0.521  1.00  0.00     0.000 C 
BRANCH   2   3
ATOM      3  C   UNL     1       5.425  -9.200  -0.630  1.00  0.00     0.000 C 
BRANCH   3   4
ATOM      4  C   UNL     1       4.968 -10.479  -1.352  1.00  0.00     0.000 C 
BRANCH   4   5
ATOM      5  C   UNL     1       3.985 -10.191  -2.497  1.00  0.00     0.000 C 
BRANCH   5   6
ATOM      6  C   UNL     1       4.689  -9.685  -3.769  1.00  0.00     0.006 C 
BRANCH   6   7
ATOM      7  C   UNL     1       3.730  -9.597  -4.964  1.00  0.00     0.053 C 
BRANCH   7   8
ATOM      8  C   UNL     1       4.451  -9.238  -6.227  1.00  0.00     0.041 C 
ATOM      9  O   UNL     1       4.824  -8.053  -6.430  1.00  0.00    -0.550 OA
ATOM     10  O   UNL     1       4.681 -10.207  -7.195  1.00  0.00    -0.550 OA
ENDBRANCH   7   8
ENDBRANCH   6   7
ENDBRANCH   5   6
ENDBRANCH   4   5
ENDBRANCH   3   4
ENDBRANCH   2   3
ENDBRANCH   1   2
BRANCH   1  11
ATOM     11  C   UNL     1       8.521 -11.066  -0.109  1.00  0.00     0.000 C 
BRANCH  11  12
ATOM     12  C   UNL     1       8.624 -12.562  -0.444  1.00  0.00    -0.000 C 
BRANCH  12  13
ATOM     13  C   UNL     1       7.387 -13.086  -1.196  1.00  0.00    -0.000 C 
BRANCH  13  14
ATOM     14  C   UNL     1       7.764 -13.762  -2.533  1.00  0.00    -0.000 C 
BRANCH  14  15
ATOM     15  C   UNL     1       7.122 -13.095  -3.761  1.00  0.00    -0.000 C 
BRANCH  15  16
ATOM     16  C   UNL     1       5.595 -13.271  -3.807  1.00  0.00    -0.000 C 
BRANCH  16  17
ATOM     17  C   UNL     1       5.027 -13.125  -5.228  1.00  0.00    -0.003 C 
ATOM     18  C   UNL     1       3.517 -13.356  -5.288  1.00  0.00     0.004 C 
ENDBRANCH  16  17
ENDBRANCH  15  16
ENDBRANCH  14  15
ENDBRANCH  13  14
ENDBRANCH  12  13
ENDBRANCH  11  12
ENDBRANCH   1  11
TORSDOF 14
ENDMDL
MODEL 4
REMARK VINA RESULT:    -5.301      4.337      5.958
REMARK INTER + INTRA:         -10.416
REMARK INTER:                  -8.846
REMARK INTRA:                  -1.570
REMARK UNBOUND:                -0.778
REMARK SMILES CCCCCCCCCCCCCCCC(=O)[O-]
REMARK SMILES IDX 9 1 10 2 11 3 12 4 13 5 14 6 15 7 16 8 17 9 18 10 8 11 7 12
REMARK SMILES IDX 6 13 5 14 4 15 3 16 2 17 1 18
REMARK H PARENT
REMARK Flexibility Score: inf
ROOT
ATOM      1  C   UNL     1       5.968 -12.523  -3.888  1.00  0.00     0.000 C 
ENDROOT
BRANCH   1   2
ATOM      2  C   UNL     1       5.179 -12.996  -5.128  1.00  0.00     0.000 C 
BRANCH   2   3
ATOM      3  C   UNL     1       3.707 -13.330  -4.832  1.00  0.00     0.000 C 
BRANCH   3   4
ATOM      4  C   UNL     1       3.384 -13.330  -3.328  1.00  0.00     0.000 C 
BRANCH   4   5
ATOM      5  C   UNL     1       3.083 -14.736  -2.788  1.00  0.00     0.000 C 
BRANCH   5   6
ATOM      6  C   UNL     1       3.611 -14.948  -1.358  1.00  0.00     0.006 C 
BRANCH   6   7
ATOM      7  C   UNL     1       3.642 -13.641  -0.554  1.00  0.00     0.053 C 
BRANCH   7   8
ATOM      8  C   UNL     1       2.437 -13.504   0.327  1.00  0.00     0.041 C 
ATOM      9  O   UNL     1       1.427 -12.872  -0.075  1.00  0.00    -0.550 OA
ATOM     10  O   UNL     1       2.446 -14.049   1.605  1.00  0.00    -0.550 OA
ENDBRANCH   7   8
ENDBRANCH   6   7
ENDBRANCH   5   6
ENDBRANCH   4   5
ENDBRANCH   3   4
ENDBRANCH   2   3
ENDBRANCH   1   2
BRANCH   1  11
ATOM     11  C   UNL     1       7.272 -13.318  -3.696  1.00  0.00     0.000 C 
BRANCH  11  12
ATOM     12  C   UNL     1       7.462 -13.804  -2.251  1.00  0.00    -0.000 C 
BRANCH  12  13
ATOM     13  C   UNL     1       7.324 -12.668  -1.221  1.00  0.00    -0.000 C 
BRANCH  13  14
ATOM     14  C   UNL     1       8.575 -12.543  -0.324  1.00  0.00    -0.000 C 
BRANCH  14  15
ATOM     15  C   UNL     1       8.813 -11.118   0.205  1.00  0.00    -0.000 C 
BRANCH  15  16
ATOM     16  C   UNL     1       7.959 -10.063  -0.517  1.00  0.00    -0.000 C 
BRANCH  16  17
ATOM     17  C   UNL     1       6.966  -9.363   0.425  1.00  0.00    -0.003 C 
ATOM     18  C   UNL     1       6.592  -7.958  -0.048  1.00  0.00     0.004 C 
ENDBRANCH  16  17
ENDBRANCH  15  16
ENDBRANCH  14  15
ENDBRANCH  13  14
ENDBRANCH  12  13
ENDBRANCH  11  12
ENDBRANCH   1  11
TORSDOF 14
ENDMDL
MODEL 5
REMARK VINA RESULT:    -5.236      2.330      3.789
REMARK INTER + INTRA:         -10.298
REMARK INTER:                  -8.638
REMARK INTRA:                  -1.660
REMARK UNBOUND:                -0.778
REMARK SMILES CCCCCCCCCCCCCCCC(=O)[O-]
REMARK SMILES IDX 9 1 10 2 11 3 12 4 13 5 14 6 15 7 16 8 17 9 18 10 8 11 7 12
REMARK SMILES IDX 6 13 5 14 4 15 3 16 2 17 1 18
REMARK H PARENT
REMARK Flexibility Score: inf
ROOT
ATOM      1  C   UNL     1       7.259 -13.402  -3.130  1.00  0.00     0.000 C 
ENDROOT
BRANCH   1   2
ATOM      2  C   UNL     1       6.517 -12.495  -4.135  1.00  0.00     0.000 C 
BRANCH   2   3
ATOM      3  C   UNL     1       5.618 -13.268  -5.115  1.00  0.00     0.000 C 
BRANCH   3   4
ATOM      4  C   UNL     1       4.385 -12.463  -5.558  1.00  0.00     0.000 C 
BRANCH   4   5
ATOM      5  C   UNL     1       4.611 -10.946  -5.478  1.00  0.00     0.000 C 
BRANCH   5   6
ATOM      6  C   UNL     1       4.568 -10.266  -6.858  1.00  0.00     0.006 C 
BRANCH   6   7
ATOM      7  C   UNL     1       4.650  -8.737  -6.753  1.00  0.00     0.053 C 
BRANCH   7   8
ATOM      8  C   UNL     1       4.625  -8.087  -8.103  1.00  0.00     0.041 C 
ATOM      9  O   UNL     1       5.286  -7.038  -8.314  1.00  0.00    -0.550 OA
ATOM     10  O   UNL     1       3.843  -8.625  -9.118  1.00  0.00    -0.550 OA
ENDBRANCH   7   8
ENDBRANCH   6   7
ENDBRANCH   5   6
ENDBRANCH   4   5
ENDBRANCH   3   4
ENDBRANCH   2   3
ENDBRANCH   1   2
BRANCH   1  11
ATOM     11  C   UNL     1       6.626 -13.348  -1.728  1.00  0.00     0.000 C 
BRANCH  11  12
ATOM     12  C   UNL     1       5.149 -12.926  -1.759  1.00  0.00    -0.000 C 
BRANCH  12  13
ATOM     13  C   UNL     1       4.874 -11.670  -0.912  1.00  0.00    -0.000 C 
BRANCH  13  14
ATOM     14  C   UNL     1       4.849 -10.386  -1.770  1.00  0.00    -0.000 C 
BRANCH  14  15
ATOM     15  C   UNL     1       5.899  -9.344  -1.347  1.00  0.00    -0.000 C 
BRANCH  15  16
ATOM     16  C   UNL     1       7.338  -9.876  -1.435  1.00  0.00    -0.000 C 
BRANCH  16  17
ATOM     17  C   UNL     1       8.046  -9.890  -0.071  1.00  0.00    -0.003 C 
ATOM     18  C   UNL     1       8.980 -11.088   0.099  1.00  0.00     0.004 C 
ENDBRANCH  16  17
ENDBRANCH  15  16
ENDBRANCH  14  15
ENDBRANCH  13  14
ENDBRANCH  12  13
ENDBRANCH  11  12
ENDBRANCH   1  11
TORSDOF 14
ENDMDL
MODEL 6
REMARK VINA RESULT:    -5.221      3.692      6.689
REMARK INTER + INTRA:         -10.272
REMARK INTER:                  -8.052
REMARK INTRA:                  -2.220
REMARK UNBOUND:                -0.778
REMARK SMILES CCCCCCCCCCCCCCCC(=O)[O-]
REMARK SMILES IDX 9 1 10 2 11 3 12 4 13 5 14 6 15 7 16 8 17 9 18 10 8 11 7 12
REMARK SMILES IDX 6 13 5 14 4 15 3 16 2 17 1 18
REMARK H PARENT
REMARK Flexibility Score: inf
ROOT
ATOM      1  C   UNL     1       8.391 -11.202  -1.145  1.00  0.00     0.000 C 
ENDROOT
BRANCH   1   2
ATOM      2  C   UNL     1       7.931 -10.179  -0.085  1.00  0.00     0.000 C 
BRANCH   2   3
ATOM      3  C   UNL     1       6.437  -9.826  -0.176  1.00  0.00     0.000 C 
BRANCH   3   4
ATOM      4  C   UNL     1       5.979  -9.530  -1.614  1.00  0.00     0.000 C 
BRANCH   4   5
ATOM      5  C   UNL     1       4.692 -10.279  -1.989  1.00  0.00     0.000 C 
BRANCH   5   6
ATOM      6  C   UNL     1       4.254 -11.283  -0.909  1.00  0.00     0.006 C 
BRANCH   6   7
ATOM      7  C   UNL     1       3.232 -12.297  -1.442  1.00  0.00     0.053 C 
BRANCH   7   8
ATOM      8  C   UNL     1       3.342 -13.616  -0.739  1.00  0.00     0.041 C 
ATOM      9  O   UNL     1       3.093 -13.702   0.491  1.00  0.00    -0.550 OA
ATOM     10  O   UNL     1       3.752 -14.744  -1.439  1.00  0.00    -0.550 OA
ENDBRANCH   7   8
ENDBRANCH   6   7
ENDBRANCH   5   6
ENDBRANCH   4   5
ENDBRANCH   3   4
ENDBRANCH   2   3
ENDBRANCH   1   2
BRANCH   1  11
ATOM     11  C   UNL     1       8.078 -12.649  -0.727  1.00  0.00     0.000 C 
BRANCH  11  12
ATOM     12  C   UNL     1       7.058 -13.327  -1.653  1.00  0.00    -0.000 C 
BRANCH  12  13
ATOM     13  C   UNL     1       7.602 -13.541  -3.078  1.00  0.00    -0.000 C 
BRANCH  13  14
ATOM     14  C   UNL     1       6.795 -12.753  -4.132  1.00  0.00    -0.000 C 
BRANCH  14  15
ATOM     15  C   UNL     1       5.347 -13.246  -4.294  1.00  0.00    -0.000 C 
BRANCH  15  16
ATOM     16  C   UNL     1       4.658 -12.675  -5.544  1.00  0.00    -0.000 C 
BRANCH  16  17
ATOM     17  C   UNL     1       4.551 -11.142  -5.509  1.00  0.00    -0.003 C 
ATOM     18  C   UNL     1       4.676 -10.508  -6.895  1.00  0.00     0.004 C 
ENDBRANCH  16  17
ENDBRANCH  15  16
ENDBRANCH  14  15
ENDBRANCH  13  14
ENDBRANCH  12  13
ENDBRANCH  11  12
ENDBRANCH   1  11
TORSDOF 14
ENDMDL
MODEL 7
REMARK VINA RESULT:    -5.217      2.217      4.043
REMARK INTER + INTRA:         -10.264
REMARK INTER:                  -8.279
REMARK INTRA:                  -1.985
REMARK UNBOUND:                -0.778
REMARK SMILES CCCCCCCCCCCCCCCC(=O)[O-]
REMARK SMILES IDX 9 1 10 2 11 3 12 4 13 5 14 6 15 7 16 8 17 9 18 10 8 11 7 12
REMARK SMILES IDX 6 13 5 14 4 15 3 16 2 17 1 18
REMARK H PARENT
REMARK Flexibility Score: inf
ROOT
ATOM      1  C   UNL     1       5.619 -13.365  -2.644  1.00  0.00     0.000 C 
ENDROOT
BRANCH   1   2
ATOM      2  C   UNL     1       6.660 -13.250  -3.777  1.00  0.00     0.000 C 
BRANCH   2   3
ATOM      3  C   UNL     1       6.069 -12.754  -5.109  1.00  0.00     0.000 C 
BRANCH   3   4
ATOM      4  C   UNL     1       4.552 -12.982  -5.212  1.00  0.00     0.000 C 
BRANCH   4   5
ATOM      5  C   UNL     1       3.822 -11.807  -5.879  1.00  0.00     0.000 C 
BRANCH   5   6
ATOM      6  C   UNL     1       4.790 -10.762  -6.460  1.00  0.00     0.006 C 
BRANCH   6   7
ATOM      7  C   UNL     1       4.413  -9.332  -6.049  1.00  0.00     0.053 C 
BRANCH   7   8
ATOM      8  C   UNL     1       4.520  -8.378  -7.199  1.00  0.00     0.041 C 
ATOM      9  O   UNL     1       5.578  -7.722  -7.383  1.00  0.00    -0.550 OA
ATOM     10  O   UNL     1       3.437  -8.190  -8.048  1.00  0.00    -0.550 OA
ENDBRANCH   7   8
ENDBRANCH   6   7
ENDBRANCH   5   6
ENDBRANCH   4   5
ENDBRANCH   3   4
ENDBRANCH   2   3
ENDBRANCH   1   2
BRANCH   1  11
ATOM     11  C   UNL     1       6.225 -13.036  -1.268  1.00  0.00     0.000 C 
BRANCH  11  12
ATOM     12  C   UNL     1       7.749 -13.222  -1.231  1.00  0.00    -0.000 C 
BRANCH  12  13
ATOM     13  C   UNL     1       8.454 -12.162  -0.365  1.00  0.00    -0.000 C 
BRANCH  13  14
ATOM     14  C   UNL     1       8.333 -10.746  -0.968  1.00  0.00    -0.000 C 
BRANCH  14  15
ATOM     15  C   UNL     1       7.559  -9.761  -0.075  1.00  0.00    -0.000 C 
BRANCH  15  16
ATOM     16  C   UNL     1       6.549  -8.909  -0.860  1.00  0.00    -0.000 C 
BRANCH  16  17
ATOM     17  C   UNL     1       6.129  -9.565  -2.185  1.00  0.00    -0.003 C 
ATOM     18  C   UNL     1       4.623  -9.815  -2.272  1.00  0.00     0.004 C 
ENDBRANCH  16  17
ENDBRANCH  15  16
ENDBRANCH  14  15
ENDBRANCH  13  14
ENDBRANCH  12  13
ENDBRANCH  11  12
ENDBRANCH   1  11
TORSDOF 14
ENDMDL
MODEL 8
REMARK VINA RESULT:    -5.147      2.524      3.512
REMARK INTER + INTRA:         -10.138
REMARK INTER:                  -8.177
REMARK INTRA:                  -1.961
REMARK UNBOUND:                -0.778
REMARK SMILES CCCCCCCCCCCCCCCC(=O)[O-]
REMARK SMILES IDX 9 1 10 2 11 3 12 4 13 5 14 6 15 7 16 8 17 9 18 10 8 11 7 12
REMARK SMILES IDX 6 13 5 14 4 15 3 16 2 17 1 18
REMARK H PARENT
REMARK Flexibility Score: inf
ROOT
ATOM      1  C   UNL     1       4.731 -13.426  -3.981  1.00  0.00     0.000 C 
ENDROOT
BRANCH   1   2
ATOM      2  C   UNL     1       3.566 -13.072  -4.930  1.00  0.00     0.000 C 
BRANCH   2   3
ATOM      3  C   UNL     1       3.861 -11.872  -5.847  1.00  0.00     0.000 C 
BRANCH   3   4
ATOM      4  C   UNL     1       2.607 -11.039  -6.163  1.00  0.00     0.000 C 
BRANCH   4   5
ATOM      5  C   UNL     1       2.885  -9.913  -7.170  1.00  0.00     0.000 C 
BRANCH   5   6
ATOM      6  C   UNL     1       4.388  -9.703  -7.424  1.00  0.00     0.006 C 
BRANCH   6   7
ATOM      7  C   UNL     1       4.898  -8.385  -6.827  1.00  0.00     0.053 C 
BRANCH   7   8
ATOM      8  C   UNL     1       4.853  -7.269  -7.826  1.00  0.00     0.041 C 
ATOM      9  O   UNL     1       5.001  -7.509  -9.052  1.00  0.00    -0.550 OA
ATOM     10  O   UNL     1       4.679  -5.960  -7.396  1.00  0.00    -0.550 OA
ENDBRANCH   7   8
ENDBRANCH   6   7
ENDBRANCH   5   6
ENDBRANCH   4   5
ENDBRANCH   3   4
ENDBRANCH   2   3
ENDBRANCH   1   2
BRANCH   1  11
ATOM     11  C   UNL     1       6.101 -13.092  -4.597  1.00  0.00     0.000 C 
BRANCH  11  12
ATOM     12  C   UNL     1       7.265 -13.339  -3.626  1.00  0.00    -0.000 C 
BRANCH  12  13
ATOM     13  C   UNL     1       6.805 -13.414  -2.158  1.00  0.00    -0.000 C 
BRANCH  13  14
ATOM     14  C   UNL     1       7.630 -12.483  -1.244  1.00  0.00    -0.000 C 
BRANCH  14  15
ATOM     15  C   UNL     1       7.370 -10.987  -1.492  1.00  0.00    -0.000 C 
BRANCH  15  16
ATOM     16  C   UNL     1       5.874 -10.634  -1.494  1.00  0.00    -0.000 C 
BRANCH  16  17
ATOM     17  C   UNL     1       5.429  -9.963  -2.803  1.00  0.00    -0.003 C 
ATOM     18  C   UNL     1       3.928  -9.673  -2.840  1.00  0.00     0.004 C 
ENDBRANCH  16  17
ENDBRANCH  15  16
ENDBRANCH  14  15
ENDBRANCH  13  14
ENDBRANCH  12  13
ENDBRANCH  11  12
ENDBRANCH   1  11
TORSDOF 14
ENDMDL
MODEL 9
REMARK VINA RESULT:    -5.131      4.780      6.037
REMARK INTER + INTRA:         -10.108
REMARK INTER:                  -8.275
REMARK INTRA:                  -1.833
REMARK UNBOUND:                -0.778
REMARK SMILES CCCCCCCCCCCCCCCC(=O)[O-]
REMARK SMILES IDX 9 1 10 2 11 3 12 4 13 5 14 6 15 7 16 8 17 9 18 10 8 11 7 12
REMARK SMILES IDX 6 13 5 14 4 15 3 16 2 17 1 18
REMARK H PARENT
REMARK Flexibility Score: inf
ROOT
ATOM      1  C   UNL     1       6.705 -13.328  -2.359  1.00  0.00     0.000 C 
ENDROOT
BRANCH   1   2
ATOM      2  C   UNL     1       6.940 -13.064  -3.862  1.00  0.00     0.000 C 
BRANCH   2   3
ATOM      3  C   UNL     1       5.646 -13.040  -4.693  1.00  0.00     0.000 C 
BRANCH   3   4
ATOM      4  C   UNL     1       4.394 -13.368  -3.862  1.00  0.00     0.000 C 
BRANCH   4   5
ATOM      5  C   UNL     1       3.185 -13.736  -4.735  1.00  0.00     0.000 C 
BRANCH   5   6
ATOM      6  C   UNL     1       2.367 -14.902  -4.153  1.00  0.00     0.006 C 
BRANCH   6   7
ATOM      7  C   UNL     1       1.944 -14.644  -2.700  1.00  0.00     0.053 C 
BRANCH   7   8
ATOM      8  C   UNL     1       2.450 -15.710  -1.778  1.00  0.00     0.041 C 
ATOM      9  O   UNL     1       2.018 -16.888  -1.871  1.00  0.00    -0.550 OA
ATOM     10  O   UNL     1       3.377 -15.392  -0.793  1.00  0.00    -0.550 OA
ENDBRANCH   7   8
ENDBRANCH   6   7
ENDBRANCH   5   6
ENDBRANCH   4   5
ENDBRANCH   3   4
ENDBRANCH   2   3
ENDBRANCH   1   2
BRANCH   1  11
ATOM     11  C   UNL     1       8.010 -13.683  -1.625  1.00  0.00     0.000 C 
BRANCH  11  12
ATOM     12  C   UNL     1       8.331 -12.709  -0.482  1.00  0.00    -0.000 C 
BRANCH  12  13
ATOM     13  C   UNL     1       8.361 -11.241  -0.946  1.00  0.00    -0.000 C 
BRANCH  13  14
ATOM     14  C   UNL     1       7.894 -10.272   0.162  1.00  0.00    -0.000 C 
BRANCH  14  15
ATOM     15  C   UNL     1       6.608  -9.506  -0.193  1.00  0.00    -0.000 C 
BRANCH  15  16
ATOM     16  C   UNL     1       6.305  -9.513  -1.700  1.00  0.00    -0.000 C 
BRANCH  16  17
ATOM     17  C   UNL     1       4.939 -10.139  -2.024  1.00  0.00    -0.003 C 
ATOM     18  C   UNL     1       4.353 -10.922  -0.848  1.00  0.00     0.004 C 
ENDBRANCH  16  17
ENDBRANCH  15  16
ENDBRANCH  14  15
ENDBRANCH  13  14
ENDBRANCH  12  13
ENDBRANCH  11  12
ENDBRANCH   1  11
TORSDOF 14
ENDMDL
