MODEL 1
REMARK VINA RESULT:    -3.540      0.000      0.000
REMARK INTER + INTRA:          -4.320
REMARK INTER:                  -4.264
REMARK INTRA:                  -0.055
REMARK UNBOUND:                -0.055
REMARK SMILES CCCCCO
REMARK SMILES IDX 4 1 3 2 2 3 1 4 5 5 6 6
REMARK H PARENT 6 7
REMARK Flexibility Score: inf
ROOT
ATOM      1  C   UNL     1       6.805  24.772  20.139  1.00  0.00     0.028 C 
ENDROOT
BRANCH   1   2
ATOM      2  C   UNL     1       5.757  23.652  20.065  1.00  0.00     0.002 C 
BRANCH   2   3
ATOM      3  C   UNL     1       6.055  22.501  21.037  1.00  0.00    -0.003 C 
ATOM      4  C   UNL     1       4.888  21.522  21.169  1.00  0.00     0.004 C 
ENDBRANCH   2   3
ENDBRANCH   1   2
BRANCH   1   5
ATOM      5  C   UNL     1       7.885  24.448  21.175  1.00  0.00     0.156 C 
BRANCH   5   6
ATOM      6  O   UNL     1       9.112  24.210  20.539  1.00  0.00    -0.396 OA
ATOM      7  H   UNL     1       9.293  23.238  20.629  1.00  0.00     0.210 HD
ENDBRANCH   5   6
ENDBRANCH   1   5
TORSDOF 4
ENDMDL
MODEL 2
REMARK VINA RESULT:    -3.224      5.276      6.888
REMARK INTER + INTRA:          -3.939
REMARK INTER:                  -3.903
REMARK INTRA:                  -0.036
REMARK UNBOUND:                -0.055
REMARK SMILES CCCCCO
REMARK SMILES IDX 4 1 3 2 2 3 1 4 5 5 6 6
REMARK H PARENT 6 7
REMARK Flexibility Score: inf
ROOT
ATOM      1  C   UNL     1       2.150  18.773  19.744  1.00  0.00     0.028 C 
ENDROOT
BRANCH   1   2
ATOM      2  C   UNL     1       3.421  18.948  20.590  1.00  0.00     0.002 C 
BRANCH   2   3
ATOM      3  C   UNL     1       3.422  20.260  21.387  1.00  0.00    -0.003 C 
ATOM      4  C   UNL     1       4.716  21.056  21.213  1.00  0.00     0.004 C 
ENDBRANCH   2   3
ENDBRANCH   1   2
BRANCH   1   5
ATOM      5  C   UNL     1       0.946  19.439  20.416  1.00  0.00     0.156 C 
BRANCH   5   6
ATOM      6  O   UNL     1      -0.217  19.204  19.669  1.00  0.00    -0.396 OA
ATOM      7  H   UNL     1       0.036  18.581  18.939  1.00  0.00     0.210 HD
ENDBRANCH   5   6
ENDBRANCH   1   5
TORSDOF 4
ENDMDL
MODEL 3
REMARK VINA RESULT:    -3.143      6.638      7.415
REMARK INTER + INTRA:          -3.842
REMARK INTER:                  -3.757
REMARK INTRA:                  -0.085
REMARK UNBOUND:                -0.055
REMARK SMILES CCCCCO
REMARK SMILES IDX 4 1 3 2 2 3 1 4 5 5 6 6
REMARK H PARENT 6 7
REMARK Flexibility Score: inf
ROOT
ATOM      1  C   UNL     1       1.479  19.419  21.192  1.00  0.00     0.028 C 
ENDROOT
BRANCH   1   2
ATOM      2  C   UNL     1       2.904  19.526  20.629  1.00  0.00     0.002 C 
BRANCH   2   3
ATOM      3  C   UNL     1       3.583  18.156  20.481  1.00  0.00    -0.003 C 
ATOM      4  C   UNL     1       3.089  17.380  19.260  1.00  0.00     0.004 C 
ENDBRANCH   2   3
ENDBRANCH   1   2
BRANCH   1   5
ATOM      5  C   UNL     1       0.443  19.850  20.150  1.00  0.00     0.156 C 
BRANCH   5   6
ATOM      6  O   UNL     1      -0.316  18.746  19.736  1.00  0.00    -0.396 OA
ATOM      7  H   UNL     1      -0.976  19.087  19.077  1.00  0.00     0.210 HD
ENDBRANCH   5   6
ENDBRANCH   1   5
TORSDOF 4
ENDMDL
MODEL 4
REMARK VINA RESULT:    -3.078      6.555      7.215
REMARK INTER + INTRA:          -3.763
REMARK INTER:                  -3.679
REMARK INTRA:                  -0.084
REMARK UNBOUND:                -0.055
REMARK SMILES CCCCCO
REMARK SMILES IDX 4 1 3 2 2 3 1 4 5 5 6 6
REMARK H PARENT 6 7
REMARK Flexibility Score: inf
ROOT
ATOM      1  C   UNL     1       3.569  18.581  20.206  1.00  0.00     0.028 C 
ENDROOT
BRANCH   1   2
ATOM      2  C   UNL     1       2.562  19.214  21.179  1.00  0.00     0.002 C 
BRANCH   2   3
ATOM      3  C   UNL     1       1.119  18.765  20.909  1.00  0.00    -0.003 C 
ATOM      4  C   UNL     1       0.329  19.781  20.083  1.00  0.00     0.004 C 
ENDBRANCH   2   3
ENDBRANCH   1   2
BRANCH   1   5
ATOM      5  C   UNL     1       3.076  17.217  19.716  1.00  0.00     0.156 C 
BRANCH   5   6
ATOM      6  O   UNL     1       2.985  17.208  18.317  1.00  0.00    -0.396 OA
ATOM      7  H   UNL     1       2.352  16.482  18.079  1.00  0.00     0.210 HD
ENDBRANCH   5   6
ENDBRANCH   1   5
TORSDOF 4
ENDMDL
MODEL 5
REMARK VINA RESULT:    -2.999      6.012      7.359
REMARK INTER + INTRA:          -3.668
REMARK INTER:                  -3.640
REMARK INTRA:                  -0.027
REMARK UNBOUND:                -0.055
REMARK SMILES CCCCCO
REMARK SMILES IDX 4 1 3 2 2 3 1 4 5 5 6 6
REMARK H PARENT 6 7
REMARK Flexibility Score: inf
ROOT
ATOM      1  C   UNL     1       7.415  28.869  18.272  1.00  0.00     0.028 C 
ENDROOT
BRANCH   1   2
ATOM      2  C   UNL     1       8.525  29.641  17.543  1.00  0.00     0.002 C 
BRANCH   2   3
ATOM      3  C   UNL     1       8.152  29.980  16.092  1.00  0.00    -0.003 C 
ATOM      4  C   UNL     1       7.143  31.125  15.993  1.00  0.00     0.004 C 
ENDBRANCH   2   3
ENDBRANCH   1   2
BRANCH   1   5
ATOM      5  C   UNL     1       7.332  29.284  19.743  1.00  0.00     0.156 C 
BRANCH   5   6
ATOM      6  O   UNL     1       7.082  28.164  20.550  1.00  0.00    -0.396 OA
ATOM      7  H   UNL     1       6.361  28.425  21.180  1.00  0.00     0.210 HD
ENDBRANCH   5   6
ENDBRANCH   1   5
TORSDOF 4
ENDMDL
MODEL 6
REMARK VINA RESULT:    -2.978      5.085      6.693
REMARK INTER + INTRA:          -3.643
REMARK INTER:                  -3.617
REMARK INTRA:                  -0.026
REMARK UNBOUND:                -0.055
REMARK SMILES CCCCCO
REMARK SMILES IDX 4 1 3 2 2 3 1 4 5 5 6 6
REMARK H PARENT 6 7
REMARK Flexibility Score: inf
ROOT
ATOM      1  C   UNL     1       2.730  18.812  19.819  1.00  0.00     0.028 C 
ENDROOT
BRANCH   1   2
ATOM      2  C   UNL     1       2.791  19.047  21.336  1.00  0.00     0.002 C 
BRANCH   2   3
ATOM      3  C   UNL     1       3.217  20.478  21.694  1.00  0.00    -0.003 C 
ATOM      4  C   UNL     1       4.581  20.852  21.112  1.00  0.00     0.004 C 
ENDBRANCH   2   3
ENDBRANCH   1   2
BRANCH   1   5
ATOM      5  C   UNL     1       2.976  17.339  19.480  1.00  0.00     0.156 C 
BRANCH   5   6
ATOM      6  O   UNL     1       2.919  17.144  18.093  1.00  0.00    -0.396 OA
ATOM      7  H   UNL     1       1.956  17.110  17.852  1.00  0.00     0.210 HD
ENDBRANCH   5   6
ENDBRANCH   1   5
TORSDOF 4
ENDMDL
MODEL 7
REMARK VINA RESULT:    -2.961     14.559     15.525
REMARK INTER + INTRA:          -3.623
REMARK INTER:                  -3.584
REMARK INTRA:                  -0.039
REMARK UNBOUND:                -0.055
REMARK SMILES CCCCCO
REMARK SMILES IDX 4 1 3 2 2 3 1 4 5 5 6 6
REMARK H PARENT 6 7
REMARK Flexibility Score: inf
ROOT
ATOM      1  C   UNL     1      -5.213  15.041  17.249  1.00  0.00     0.028 C 
ENDROOT
BRANCH   1   2
ATOM      2  C   UNL     1      -6.339  15.829  17.935  1.00  0.00     0.002 C 
BRANCH   2   3
ATOM      3  C   UNL     1      -7.467  14.921  18.446  1.00  0.00    -0.003 C 
ATOM      4  C   UNL     1      -7.485  13.556  17.758  1.00  0.00     0.004 C 
ENDBRANCH   2   3
ENDBRANCH   1   2
BRANCH   1   5
ATOM      5  C   UNL     1      -4.730  15.759  15.986  1.00  0.00     0.156 C 
BRANCH   5   6
ATOM      6  O   UNL     1      -3.336  15.657  15.874  1.00  0.00    -0.396 OA
ATOM      7  H   UNL     1      -3.156  15.096  15.074  1.00  0.00     0.210 HD
ENDBRANCH   5   6
ENDBRANCH   1   5
TORSDOF 4
ENDMDL
MODEL 8
REMARK VINA RESULT:    -2.897      6.280      7.135
REMARK INTER + INTRA:          -3.546
REMARK INTER:                  -3.536
REMARK INTRA:                  -0.010
REMARK UNBOUND:                -0.055
REMARK SMILES CCCCCO
REMARK SMILES IDX 4 1 3 2 2 3 1 4 5 5 6 6
REMARK H PARENT 6 7
REMARK Flexibility Score: inf
ROOT
ATOM      1  C   UNL     1       7.195  29.400  17.549  1.00  0.00     0.028 C 
ENDROOT
BRANCH   1   2
ATOM      2  C   UNL     1       7.912  29.687  18.877  1.00  0.00     0.002 C 
BRANCH   2   3
ATOM      3  C   UNL     1       7.229  29.010  20.074  1.00  0.00    -0.003 C 
ATOM      4  C   UNL     1       7.377  29.809  21.369  1.00  0.00     0.004 C 
ENDBRANCH   2   3
ENDBRANCH   1   2
BRANCH   1   5
ATOM      5  C   UNL     1       7.661  30.363  16.453  1.00  0.00     0.156 C 
BRANCH   5   6
ATOM      6  O   UNL     1       8.085  29.645  15.326  1.00  0.00    -0.396 OA
ATOM      7  H   UNL     1       7.335  29.669  14.676  1.00  0.00     0.210 HD
ENDBRANCH   5   6
ENDBRANCH   1   5
TORSDOF 4
ENDMDL
MODEL 9
REMARK VINA RESULT:    -2.819      4.602      5.493
REMARK INTER + INTRA:          -3.451
REMARK INTER:                  -3.391
REMARK INTRA:                  -0.060
REMARK UNBOUND:                -0.055
REMARK SMILES CCCCCO
REMARK SMILES IDX 4 1 3 2 2 3 1 4 5 5 6 6
REMARK H PARENT 6 7
REMARK Flexibility Score: inf
ROOT
ATOM      1  C   UNL     1       4.022  20.122  20.898  1.00  0.00     0.028 C 
ENDROOT
BRANCH   1   2
ATOM      2  C   UNL     1       2.905  19.162  20.461  1.00  0.00     0.002 C 
BRANCH   2   3
ATOM      3  C   UNL     1       1.542  19.529  21.068  1.00  0.00    -0.003 C 
ATOM      4  C   UNL     1       0.422  19.561  20.028  1.00  0.00     0.004 C 
ENDBRANCH   2   3
ENDBRANCH   1   2
BRANCH   1   5
ATOM      5  C   UNL     1       3.687  20.781  22.239  1.00  0.00     0.156 C 
BRANCH   5   6
ATOM      6  O   UNL     1       3.671  22.177  22.103  1.00  0.00    -0.396 OA
ATOM      7  H   UNL     1       4.452  22.520  22.610  1.00  0.00     0.210 HD
ENDBRANCH   5   6
ENDBRANCH   1   5
TORSDOF 4
ENDMDL
