MODEL 1
REMARK VINA RESULT:    -3.943      0.000      0.000
REMARK INTER + INTRA:          -5.490
REMARK INTER:                  -5.096
REMARK INTRA:                  -0.394
REMARK UNBOUND:                -0.394
REMARK SMILES CCCCCCC(=O)[O-]
REMARK SMILES IDX 5 1 6 2 7 3 8 4 9 5 4 6 3 7 2 8 1 9
REMARK H PARENT
REMARK Flexibility Score: inf
ROOT
ATOM      1  C   UNL     1      62.025   1.356  19.889  1.00  0.00     0.006 C 
ENDROOT
BRANCH   1   2
ATOM      2  C   UNL     1      63.383   1.109  19.220  1.00  0.00     0.053 C 
BRANCH   2   3
ATOM      3  C   UNL     1      64.403   2.125  19.636  1.00  0.00     0.041 C 
ATOM      4  O   UNL     1      65.002   2.813  18.768  1.00  0.00    -0.550 OA
ATOM      5  O   UNL     1      64.665   2.336  20.984  1.00  0.00    -0.550 OA
ENDBRANCH   2   3
ENDBRANCH   1   2
BRANCH   1   6
ATOM      6  C   UNL     1      61.462   2.752  19.569  1.00  0.00     0.000 C 
BRANCH   6   7
ATOM      7  C   UNL     1      61.088   3.536  20.845  1.00  0.00    -0.000 C 
BRANCH   7   8
ATOM      8  C   UNL     1      61.019   2.661  22.107  1.00  0.00    -0.003 C 
ATOM      9  C   UNL     1      61.987   3.108  23.200  1.00  0.00     0.004 C 
ENDBRANCH   7   8
ENDBRANCH   6   7
ENDBRANCH   1   6
TORSDOF 5
ENDMDL
MODEL 2
REMARK VINA RESULT:    -3.903      4.328      5.398
REMARK INTER + INTRA:          -5.438
REMARK INTER:                  -5.222
REMARK INTRA:                  -0.217
REMARK UNBOUND:                -0.394
REMARK SMILES CCCCCCC(=O)[O-]
REMARK SMILES IDX 5 1 6 2 7 3 8 4 9 5 4 6 3 7 2 8 1 9
REMARK H PARENT
REMARK Flexibility Score: inf
ROOT
ATOM      1  C   UNL     1      65.754   2.394  24.373  1.00  0.00     0.006 C 
ENDROOT
BRANCH   1   2
ATOM      2  C   UNL     1      65.189   1.562  23.214  1.00  0.00     0.053 C 
BRANCH   2   3
ATOM      3  C   UNL     1      64.259   2.362  22.355  1.00  0.00     0.041 C 
ATOM      4  O   UNL     1      64.643   2.788  21.233  1.00  0.00    -0.550 OA
ATOM      5  O   UNL     1      62.959   2.607  22.776  1.00  0.00    -0.550 OA
ENDBRANCH   2   3
ENDBRANCH   1   2
BRANCH   1   6
ATOM      6  C   UNL     1      66.777   3.440  23.897  1.00  0.00     0.000 C 
BRANCH   6   7
ATOM      7  C   UNL     1      66.401   4.869  24.343  1.00  0.00    -0.000 C 
BRANCH   7   8
ATOM      8  C   UNL     1      66.508   5.087  25.861  1.00  0.00    -0.003 C 
ATOM      9  C   UNL     1      67.900   4.785  26.412  1.00  0.00     0.004 C 
ENDBRANCH   7   8
ENDBRANCH   6   7
ENDBRANCH   1   6
TORSDOF 5
ENDMDL
MODEL 3
REMARK VINA RESULT:    -3.844      1.256      3.321
REMARK INTER + INTRA:          -5.362
REMARK INTER:                  -4.942
REMARK INTRA:                  -0.420
REMARK UNBOUND:                -0.394
REMARK SMILES CCCCCCC(=O)[O-]
REMARK SMILES IDX 5 1 6 2 7 3 8 4 9 5 4 6 3 7 2 8 1 9
REMARK H PARENT
REMARK Flexibility Score: inf
ROOT
ATOM      1  C   UNL     1      61.293   2.927  22.144  1.00  0.00     0.006 C 
ENDROOT
BRANCH   1   2
ATOM      2  C   UNL     1      62.402   3.705  22.864  1.00  0.00     0.053 C 
BRANCH   2   3
ATOM      3  C   UNL     1      63.727   3.014  22.760  1.00  0.00     0.041 C 
ATOM      4  O   UNL     1      64.036   2.112  23.582  1.00  0.00    -0.550 OA
ATOM      5  O   UNL     1      64.604   3.341  21.734  1.00  0.00    -0.550 OA
ENDBRANCH   2   3
ENDBRANCH   1   2
BRANCH   1   6
ATOM      6  C   UNL     1      60.875   3.594  20.822  1.00  0.00     0.000 C 
BRANCH   6   7
ATOM      7  C   UNL     1      61.536   2.927  19.598  1.00  0.00    -0.000 C 
BRANCH   7   8
ATOM      8  C   UNL     1      61.876   1.443  19.814  1.00  0.00    -0.003 C 
ATOM      9  C   UNL     1      63.277   1.074  19.333  1.00  0.00     0.004 C 
ENDBRANCH   7   8
ENDBRANCH   6   7
ENDBRANCH   1   6
TORSDOF 5
ENDMDL
MODEL 4
REMARK VINA RESULT:    -3.829     13.576     15.002
REMARK INTER + INTRA:          -5.343
REMARK INTER:                  -4.972
REMARK INTRA:                  -0.371
REMARK UNBOUND:                -0.394
REMARK SMILES CCCCCCC(=O)[O-]
REMARK SMILES IDX 5 1 6 2 7 3 8 4 9 5 4 6 3 7 2 8 1 9
REMARK H PARENT
REMARK Flexibility Score: inf
ROOT
ATOM      1  C   UNL     1      78.587   3.803  22.226  1.00  0.00     0.006 C 
ENDROOT
BRANCH   1   2
ATOM      2  C   UNL     1      77.674   2.956  21.331  1.00  0.00     0.053 C 
BRANCH   2   3
ATOM      3  C   UNL     1      76.266   2.926  21.841  1.00  0.00     0.041 C 
ATOM      4  O   UNL     1      75.444   2.089  21.381  1.00  0.00    -0.550 OA
ATOM      5  O   UNL     1      75.871   3.797  22.847  1.00  0.00    -0.550 OA
ENDBRANCH   2   3
ENDBRANCH   1   2
BRANCH   1   6
ATOM      6  C   UNL     1      79.252   4.957  21.456  1.00  0.00     0.000 C 
BRANCH   6   7
ATOM      7  C   UNL     1      78.216   5.911  20.824  1.00  0.00    -0.000 C 
BRANCH   7   8
ATOM      8  C   UNL     1      77.586   6.889  21.830  1.00  0.00    -0.003 C 
ATOM      9  C   UNL     1      76.095   7.116  21.589  1.00  0.00     0.004 C 
ENDBRANCH   7   8
ENDBRANCH   6   7
ENDBRANCH   1   6
TORSDOF 5
ENDMDL
MODEL 5
REMARK VINA RESULT:    -3.768     12.140     14.073
REMARK INTER + INTRA:          -5.264
REMARK INTER:                  -4.998
REMARK INTRA:                  -0.266
REMARK UNBOUND:                -0.394
REMARK SMILES CCCCCCC(=O)[O-]
REMARK SMILES IDX 5 1 6 2 7 3 8 4 9 5 4 6 3 7 2 8 1 9
REMARK H PARENT
REMARK Flexibility Score: inf
ROOT
ATOM      1  C   UNL     1      76.198   3.119  22.306  1.00  0.00     0.006 C 
ENDROOT
BRANCH   1   2
ATOM      2  C   UNL     1      75.016   3.693  21.514  1.00  0.00     0.053 C 
BRANCH   2   3
ATOM      3  C   UNL     1      73.979   2.651  21.227  1.00  0.00     0.041 C 
ATOM      4  O   UNL     1      73.012   2.486  22.018  1.00  0.00    -0.550 OA
ATOM      5  O   UNL     1      74.060   1.887  20.070  1.00  0.00    -0.550 OA
ENDBRANCH   2   3
ENDBRANCH   1   2
BRANCH   1   6
ATOM      6  C   UNL     1      77.453   2.938  21.433  1.00  0.00     0.000 C 
BRANCH   6   7
ATOM      7  C   UNL     1      78.614   3.848  21.886  1.00  0.00    -0.000 C 
BRANCH   7   8
ATOM      8  C   UNL     1      78.895   5.012  20.921  1.00  0.00    -0.003 C 
ATOM      9  C   UNL     1      78.073   6.260  21.234  1.00  0.00     0.004 C 
ENDBRANCH   7   8
ENDBRANCH   6   7
ENDBRANCH   1   6
TORSDOF 5
ENDMDL
MODEL 6
REMARK VINA RESULT:    -3.760      2.276      4.164
REMARK INTER + INTRA:          -5.253
REMARK INTER:                  -5.057
REMARK INTRA:                  -0.196
REMARK UNBOUND:                -0.394
REMARK SMILES CCCCCCC(=O)[O-]
REMARK SMILES IDX 5 1 6 2 7 3 8 4 9 5 4 6 3 7 2 8 1 9
REMARK H PARENT
REMARK Flexibility Score: inf
ROOT
ATOM      1  C   UNL     1      61.913   2.744  19.701  1.00  0.00     0.006 C 
ENDROOT
BRANCH   1   2
ATOM      2  C   UNL     1      61.221   2.347  21.012  1.00  0.00     0.053 C 
BRANCH   2   3
ATOM      3  C   UNL     1      61.471   3.347  22.099  1.00  0.00     0.041 C 
ATOM      4  O   UNL     1      61.776   2.958  23.258  1.00  0.00    -0.550 OA
ATOM      5  O   UNL     1      61.404   4.706  21.824  1.00  0.00    -0.550 OA
ENDBRANCH   2   3
ENDBRANCH   1   2
BRANCH   1   6
ATOM      6  C   UNL     1      63.184   1.918  19.438  1.00  0.00     0.000 C 
BRANCH   6   7
ATOM      7  C   UNL     1      64.461   2.646  19.906  1.00  0.00    -0.000 C 
BRANCH   7   8
ATOM      8  C   UNL     1      65.298   3.223  18.752  1.00  0.00    -0.003 C 
ATOM      9  C   UNL     1      64.808   4.592  18.284  1.00  0.00     0.004 C 
ENDBRANCH   7   8
ENDBRANCH   6   7
ENDBRANCH   1   6
TORSDOF 5
ENDMDL
MODEL 7
REMARK VINA RESULT:    -3.725      2.057      3.730
REMARK INTER + INTRA:          -5.208
REMARK INTER:                  -4.754
REMARK INTRA:                  -0.454
REMARK UNBOUND:                -0.394
REMARK SMILES CCCCCCC(=O)[O-]
REMARK SMILES IDX 5 1 6 2 7 3 8 4 9 5 4 6 3 7 2 8 1 9
REMARK H PARENT
REMARK Flexibility Score: inf
ROOT
ATOM      1  C   UNL     1      64.385   4.101  20.887  1.00  0.00     0.006 C 
ENDROOT
BRANCH   1   2
ATOM      2  C   UNL     1      63.348   4.319  21.996  1.00  0.00     0.053 C 
BRANCH   2   3
ATOM      3  C   UNL     1      63.179   3.099  22.849  1.00  0.00     0.041 C 
ATOM      4  O   UNL     1      64.163   2.347  23.080  1.00  0.00    -0.550 OA
ATOM      5  O   UNL     1      61.945   2.811  23.417  1.00  0.00    -0.550 OA
ENDBRANCH   2   3
ENDBRANCH   1   2
BRANCH   1   6
ATOM      6  C   UNL     1      63.750   3.576  19.588  1.00  0.00     0.000 C 
BRANCH   6   7
ATOM      7  C   UNL     1      64.169   2.123  19.279  1.00  0.00    -0.000 C 
BRANCH   7   8
ATOM      8  C   UNL     1      63.081   1.086  19.602  1.00  0.00    -0.003 C 
ATOM      9  C   UNL     1      61.682   1.693  19.686  1.00  0.00     0.004 C 
ENDBRANCH   7   8
ENDBRANCH   6   7
ENDBRANCH   1   6
TORSDOF 5
ENDMDL
MODEL 8
REMARK VINA RESULT:    -3.693     13.565     14.730
REMARK INTER + INTRA:          -5.167
REMARK INTER:                  -4.731
REMARK INTRA:                  -0.436
REMARK UNBOUND:                -0.394
REMARK SMILES CCCCCCC(=O)[O-]
REMARK SMILES IDX 5 1 6 2 7 3 8 4 9 5 4 6 3 7 2 8 1 9
REMARK H PARENT
REMARK Flexibility Score: inf
ROOT
ATOM      1  C   UNL     1      76.772   3.144  22.471  1.00  0.00     0.006 C 
ENDROOT
BRANCH   1   2
ATOM      2  C   UNL     1      77.856   3.128  21.385  1.00  0.00     0.053 C 
BRANCH   2   3
ATOM      3  C   UNL     1      78.835   4.248  21.559  1.00  0.00     0.041 C 
ATOM      4  O   UNL     1      79.583   4.283  22.572  1.00  0.00    -0.550 OA
ATOM      5  O   UNL     1      78.947   5.233  20.587  1.00  0.00    -0.550 OA
ENDBRANCH   2   3
ENDBRANCH   1   2
BRANCH   1   6
ATOM      6  C   UNL     1      75.931   4.432  22.437  1.00  0.00     0.000 C 
BRANCH   6   7
ATOM      7  C   UNL     1      75.159   4.591  21.111  1.00  0.00    -0.000 C 
BRANCH   7   8
ATOM      8  C   UNL     1      75.242   6.006  20.515  1.00  0.00    -0.003 C 
ATOM      9  C   UNL     1      75.958   6.998  21.429  1.00  0.00     0.004 C 
ENDBRANCH   7   8
ENDBRANCH   6   7
ENDBRANCH   1   6
TORSDOF 5
ENDMDL
