MODEL 1
REMARK VINA RESULT:    -4.311      0.000      0.000
REMARK INTER + INTRA:          -9.135
REMARK INTER:                  -8.092
REMARK INTRA:                  -1.043
REMARK UNBOUND:                -1.043
REMARK SMILES CCCCCCCCC=CCCCCCCCC(=O)[O-]
REMARK SMILES IDX 10 1 9 2 11 3 12 4 13 5 14 6 15 7 16 8 17 9 18 10 19 11
REMARK SMILES IDX 20 12 8 13 7 14 6 15 5 16 4 17 3 18 2 19 1 20
REMARK H PARENT
REMARK Flexibility Score: inf
ROOT
ATOM      1  C   UNL     1      60.686  26.821  50.463  1.00  0.00    -0.031 C 
ATOM      2  C   UNL     1      59.722  27.404  49.734  1.00  0.00    -0.031 C 
ENDROOT
BRANCH   1   3
ATOM      3  C   UNL     1      60.956  25.342  50.380  1.00  0.00     0.027 C 
BRANCH   3   4
ATOM      4  C   UNL     1      60.041  24.526  51.307  1.00  0.00     0.004 C 
BRANCH   4   5
ATOM      5  C   UNL     1      60.216  23.011  51.108  1.00  0.00     0.000 C 
BRANCH   5   6
ATOM      6  C   UNL     1      61.213  22.666  49.987  1.00  0.00     0.000 C 
BRANCH   6   7
ATOM      7  C   UNL     1      61.274  21.177  49.606  1.00  0.00     0.000 C 
BRANCH   7   8
ATOM      8  C   UNL     1      60.104  20.363  50.183  1.00  0.00     0.006 C 
BRANCH   8   9
ATOM      9  C   UNL     1      60.411  18.860  50.231  1.00  0.00     0.053 C 
BRANCH   9  10
ATOM     10  C   UNL     1      59.227  18.037  49.824  1.00  0.00     0.041 C 
ATOM     11  O   UNL     1      59.358  17.112  48.979  1.00  0.00    -0.550 OA
ATOM     12  O   UNL     1      57.974  18.307  50.359  1.00  0.00    -0.550 OA
ENDBRANCH   9  10
ENDBRANCH   8   9
ENDBRANCH   7   8
ENDBRANCH   6   7
ENDBRANCH   5   6
ENDBRANCH   4   5
ENDBRANCH   3   4
ENDBRANCH   1   3
BRANCH   2  13
ATOM     13  C   UNL     1      59.446  28.878  49.833  1.00  0.00     0.027 C 
BRANCH  13  14
ATOM     14  C   UNL     1      58.022  29.140  50.345  1.00  0.00     0.004 C 
BRANCH  14  15
ATOM     15  C   UNL     1      57.691  28.326  51.607  1.00  0.00     0.000 C 
BRANCH  15  16
ATOM     16  C   UNL     1      56.405  27.497  51.452  1.00  0.00     0.000 C 
BRANCH  16  17
ATOM     17  C   UNL     1      55.292  28.253  50.703  1.00  0.00    -0.000 C 
BRANCH  17  18
ATOM     18  C   UNL     1      54.147  27.367  50.180  1.00  0.00    -0.000 C 
BRANCH  18  19
ATOM     19  C   UNL     1      54.635  26.013  49.642  1.00  0.00    -0.003 C 
ATOM     20  C   UNL     1      53.648  24.898  49.976  1.00  0.00     0.004 C 
ENDBRANCH  18  19
ENDBRANCH  17  18
ENDBRANCH  16  17
ENDBRANCH  15  16
ENDBRANCH  14  15
ENDBRANCH  13  14
ENDBRANCH   2  13
TORSDOF 15
ENDMDL
MODEL 2
REMARK VINA RESULT:    -4.200      5.315      8.413
REMARK INTER + INTRA:          -8.925
REMARK INTER:                  -6.091
REMARK INTRA:                  -2.834
REMARK UNBOUND:                -1.043
REMARK SMILES CCCCCCCCC=CCCCCCCCC(=O)[O-]
REMARK SMILES IDX 10 1 9 2 11 3 12 4 13 5 14 6 15 7 16 8 17 9 18 10 19 11
REMARK SMILES IDX 20 12 8 13 7 14 6 15 5 16 4 17 3 18 2 19 1 20
REMARK H PARENT
REMARK Flexibility Score: inf
ROOT
ATOM      1  C   UNL     1      57.192  26.014  50.271  1.00  0.00    -0.031 C 
ATOM      2  C   UNL     1      57.975  25.540  51.251  1.00  0.00    -0.031 C 
ENDROOT
BRANCH   1   3
ATOM      3  C   UNL     1      55.689  25.960  50.363  1.00  0.00     0.027 C 
BRANCH   3   4
ATOM      4  C   UNL     1      55.182  26.164  51.799  1.00  0.00     0.004 C 
BRANCH   4   5
ATOM      5  C   UNL     1      53.837  26.911  51.838  1.00  0.00     0.000 C 
BRANCH   5   6
ATOM      6  C   UNL     1      53.437  27.494  50.471  1.00  0.00     0.000 C 
BRANCH   6   7
ATOM      7  C   UNL     1      53.140  29.004  50.469  1.00  0.00     0.000 C 
BRANCH   7   8
ATOM      8  C   UNL     1      54.326  29.847  50.967  1.00  0.00     0.006 C 
BRANCH   8   9
ATOM      9  C   UNL     1      53.911  30.845  52.056  1.00  0.00     0.053 C 
BRANCH   9  10
ATOM     10  C   UNL     1      54.671  30.626  53.329  1.00  0.00     0.041 C 
ATOM     11  O   UNL     1      54.388  29.654  54.077  1.00  0.00    -0.550 OA
ATOM     12  O   UNL     1      55.673  31.512  53.703  1.00  0.00    -0.550 OA
ENDBRANCH   9  10
ENDBRANCH   8   9
ENDBRANCH   7   8
ENDBRANCH   6   7
ENDBRANCH   5   6
ENDBRANCH   4   5
ENDBRANCH   3   4
ENDBRANCH   1   3
BRANCH   2  13
ATOM     13  C   UNL     1      59.475  25.582  51.147  1.00  0.00     0.027 C 
BRANCH  13  14
ATOM     14  C   UNL     1      59.921  26.408  49.931  1.00  0.00     0.004 C 
BRANCH  14  15
ATOM     15  C   UNL     1      61.041  27.402  50.274  1.00  0.00     0.000 C 
BRANCH  15  16
ATOM     16  C   UNL     1      60.524  28.844  50.424  1.00  0.00     0.000 C 
BRANCH  16  17
ATOM     17  C   UNL     1      59.163  29.064  49.739  1.00  0.00    -0.000 C 
BRANCH  17  18
ATOM     18  C   UNL     1      58.004  29.395  50.698  1.00  0.00    -0.000 C 
BRANCH  18  19
ATOM     19  C   UNL     1      58.462  29.569  52.153  1.00  0.00    -0.003 C 
ATOM     20  C   UNL     1      57.746  28.588  53.078  1.00  0.00     0.004 C 
ENDBRANCH  18  19
ENDBRANCH  17  18
ENDBRANCH  16  17
ENDBRANCH  15  16
ENDBRANCH  14  15
ENDBRANCH  13  14
ENDBRANCH   2  13
TORSDOF 15
ENDMDL
MODEL 3
REMARK VINA RESULT:    -4.083     12.663     15.447
REMARK INTER + INTRA:          -8.706
REMARK INTER:                  -6.207
REMARK INTRA:                  -2.500
REMARK UNBOUND:                -1.043
REMARK SMILES CCCCCCCCC=CCCCCCCCC(=O)[O-]
REMARK SMILES IDX 10 1 9 2 11 3 12 4 13 5 14 6 15 7 16 8 17 9 18 10 19 11
REMARK SMILES IDX 20 12 8 13 7 14 6 15 5 16 4 17 3 18 2 19 1 20
REMARK H PARENT
REMARK Flexibility Score: inf
ROOT
ATOM      1  C   UNL     1      63.724  34.003  60.888  1.00  0.00    -0.031 C 
ATOM      2  C   UNL     1      63.645  33.500  59.647  1.00  0.00    -0.031 C 
ENDROOT
BRANCH   1   3
ATOM      3  C   UNL     1      64.814  34.963  61.287  1.00  0.00     0.027 C 
BRANCH   3   4
ATOM      4  C   UNL     1      64.257  36.275  61.862  1.00  0.00     0.004 C 
BRANCH   4   5
ATOM      5  C   UNL     1      63.359  37.014  60.855  1.00  0.00     0.000 C 
BRANCH   5   6
ATOM      6  C   UNL     1      61.875  37.012  61.264  1.00  0.00     0.000 C 
BRANCH   6   7
ATOM      7  C   UNL     1      60.918  36.376  60.240  1.00  0.00     0.000 C 
BRANCH   7   8
ATOM      8  C   UNL     1      61.521  36.297  58.827  1.00  0.00     0.006 C 
BRANCH   8   9
ATOM      9  C   UNL     1      60.444  36.149  57.745  1.00  0.00     0.053 C 
BRANCH   9  10
ATOM     10  C   UNL     1      60.333  34.736  57.259  1.00  0.00     0.041 C 
ATOM     11  O   UNL     1      61.167  34.283  56.430  1.00  0.00    -0.550 OA
ATOM     12  O   UNL     1      59.295  33.927  57.701  1.00  0.00    -0.550 OA
ENDBRANCH   9  10
ENDBRANCH   8   9
ENDBRANCH   7   8
ENDBRANCH   6   7
ENDBRANCH   5   6
ENDBRANCH   4   5
ENDBRANCH   3   4
ENDBRANCH   1   3
BRANCH   2  13
ATOM     13  C   UNL     1      62.565  32.530  59.260  1.00  0.00     0.027 C 
BRANCH  13  14
ATOM     14  C   UNL     1      61.353  32.649  60.197  1.00  0.00     0.004 C 
BRANCH  14  15
ATOM     15  C   UNL     1      60.621  31.311  60.386  1.00  0.00     0.000 C 
BRANCH  15  16
ATOM     16  C   UNL     1      61.055  30.579  61.668  1.00  0.00     0.000 C 
BRANCH  16  17
ATOM     17  C   UNL     1      62.039  29.426  61.394  1.00  0.00    -0.000 C 
BRANCH  17  18
ATOM     18  C   UNL     1      63.526  29.823  61.433  1.00  0.00    -0.000 C 
BRANCH  18  19
ATOM     19  C   UNL     1      64.410  28.919  60.561  1.00  0.00    -0.003 C 
ATOM     20  C   UNL     1      64.934  29.671  59.340  1.00  0.00     0.004 C 
ENDBRANCH  18  19
ENDBRANCH  17  18
ENDBRANCH  16  17
ENDBRANCH  15  16
ENDBRANCH  14  15
ENDBRANCH  13  14
ENDBRANCH   2  13
TORSDOF 15
ENDMDL
MODEL 4
REMARK VINA RESULT:    -4.073     13.299     15.171
REMARK INTER + INTRA:          -8.687
REMARK INTER:                  -7.141
REMARK INTRA:                  -1.547
REMARK UNBOUND:                -1.043
REMARK SMILES CCCCCCCCC=CCCCCCCCC(=O)[O-]
REMARK SMILES IDX 10 1 9 2 11 3 12 4 13 5 14 6 15 7 16 8 17 9 18 10 19 11
REMARK SMILES IDX 20 12 8 13 7 14 6 15 5 16 4 17 3 18 2 19 1 20
REMARK H PARENT
REMARK Flexibility Score: inf
ROOT
ATOM      1  C   UNL     1      63.991  28.487  59.586  1.00  0.00    -0.031 C 
ATOM      2  C   UNL     1      63.466  28.624  60.813  1.00  0.00    -0.031 C 
ENDROOT
BRANCH   1   3
ATOM      3  C   UNL     1      65.475  28.345  59.371  1.00  0.00     0.027 C 
BRANCH   3   4
ATOM      4  C   UNL     1      66.292  28.846  60.572  1.00  0.00     0.004 C 
BRANCH   4   5
ATOM      5  C   UNL     1      67.413  27.866  60.961  1.00  0.00     0.000 C 
BRANCH   5   6
ATOM      6  C   UNL     1      68.607  28.563  61.638  1.00  0.00     0.000 C 
BRANCH   6   7
ATOM      7  C   UNL     1      69.758  28.946  60.691  1.00  0.00     0.000 C 
BRANCH   7   8
ATOM      8  C   UNL     1      70.833  29.808  61.374  1.00  0.00     0.006 C 
BRANCH   8   9
ATOM      9  C   UNL     1      71.785  30.459  60.361  1.00  0.00     0.053 C 
BRANCH   9  10
ATOM     10  C   UNL     1      71.306  31.815  59.940  1.00  0.00     0.041 C 
ATOM     11  O   UNL     1      71.612  32.833  60.615  1.00  0.00    -0.550 OA
ATOM     12  O   UNL     1      70.502  31.951  58.815  1.00  0.00    -0.550 OA
ENDBRANCH   9  10
ENDBRANCH   8   9
ENDBRANCH   7   8
ENDBRANCH   6   7
ENDBRANCH   5   6
ENDBRANCH   4   5
ENDBRANCH   3   4
ENDBRANCH   1   3
BRANCH   2  13
ATOM     13  C   UNL     1      61.986  28.782  61.020  1.00  0.00     0.027 C 
BRANCH  13  14
ATOM     14  C   UNL     1      61.666  30.105  61.732  1.00  0.00     0.004 C 
BRANCH  14  15
ATOM     15  C   UNL     1      60.621  30.942  60.978  1.00  0.00     0.000 C 
BRANCH  15  16
ATOM     16  C   UNL     1      61.253  31.845  59.904  1.00  0.00     0.000 C 
BRANCH  16  17
ATOM     17  C   UNL     1      61.616  33.243  60.436  1.00  0.00    -0.000 C 
BRANCH  17  18
ATOM     18  C   UNL     1      63.085  33.655  60.224  1.00  0.00    -0.000 C 
BRANCH  18  19
ATOM     19  C   UNL     1      64.071  32.504  60.472  1.00  0.00    -0.003 C 
ATOM     20  C   UNL     1      64.743  32.063  59.175  1.00  0.00     0.004 C 
ENDBRANCH  18  19
ENDBRANCH  17  18
ENDBRANCH  16  17
ENDBRANCH  15  16
ENDBRANCH  14  15
ENDBRANCH  13  14
ENDBRANCH   2  13
TORSDOF 15
ENDMDL
MODEL 5
REMARK VINA RESULT:    -4.070     11.238     13.288
REMARK INTER + INTRA:          -8.682
REMARK INTER:                  -5.709
REMARK INTRA:                  -2.973
REMARK UNBOUND:                -1.043
REMARK SMILES CCCCCCCCC=CCCCCCCCC(=O)[O-]
REMARK SMILES IDX 10 1 9 2 11 3 12 4 13 5 14 6 15 7 16 8 17 9 18 10 19 11
REMARK SMILES IDX 20 12 8 13 7 14 6 15 5 16 4 17 3 18 2 19 1 20
REMARK H PARENT
REMARK Flexibility Score: inf
ROOT
ATOM      1  C   UNL     1      63.010  31.478  58.493  1.00  0.00    -0.031 C 
ATOM      2  C   UNL     1      63.758  32.515  58.088  1.00  0.00    -0.031 C 
ENDROOT
BRANCH   1   3
ATOM      3  C   UNL     1      62.090  30.748  57.549  1.00  0.00     0.027 C 
BRANCH   3   4
ATOM      4  C   UNL     1      60.701  30.503  58.157  1.00  0.00     0.004 C 
BRANCH   4   5
ATOM      5  C   UNL     1      60.475  31.324  59.439  1.00  0.00     0.000 C 
BRANCH   5   6
ATOM      6  C   UNL     1      60.287  30.444  60.688  1.00  0.00     0.000 C 
BRANCH   6   7
ATOM      7  C   UNL     1      61.509  30.370  61.620  1.00  0.00     0.000 C 
BRANCH   7   8
ATOM      8  C   UNL     1      62.394  29.141  61.350  1.00  0.00     0.006 C 
BRANCH   8   9
ATOM      9  C   UNL     1      63.879  29.509  61.234  1.00  0.00     0.053 C 
BRANCH   9  10
ATOM     10  C   UNL     1      64.623  28.550  60.356  1.00  0.00     0.041 C 
ATOM     11  O   UNL     1      65.315  28.977  59.394  1.00  0.00    -0.550 OA
ATOM     12  O   UNL     1      64.533  27.183  60.585  1.00  0.00    -0.550 OA
ENDBRANCH   9  10
ENDBRANCH   8   9
ENDBRANCH   7   8
ENDBRANCH   6   7
ENDBRANCH   5   6
ENDBRANCH   4   5
ENDBRANCH   3   4
ENDBRANCH   1   3
BRANCH   2  13
ATOM     13  C   UNL     1      64.662  33.250  59.038  1.00  0.00     0.027 C 
BRANCH  13  14
ATOM     14  C   UNL     1      64.122  33.184  60.475  1.00  0.00     0.004 C 
BRANCH  14  15
ATOM     15  C   UNL     1      64.183  34.543  61.189  1.00  0.00     0.000 C 
BRANCH  15  16
ATOM     16  C   UNL     1      62.912  35.383  60.967  1.00  0.00     0.000 C 
BRANCH  16  17
ATOM     17  C   UNL     1      61.680  34.523  60.629  1.00  0.00    -0.000 C 
BRANCH  17  18
ATOM     18  C   UNL     1      60.711  35.154  59.612  1.00  0.00    -0.000 C 
BRANCH  18  19
ATOM     19  C   UNL     1      61.143  34.930  58.155  1.00  0.00    -0.003 C 
ATOM     20  C   UNL     1      60.008  34.328  57.330  1.00  0.00     0.004 C 
ENDBRANCH  18  19
ENDBRANCH  17  18
ENDBRANCH  16  17
ENDBRANCH  15  16
ENDBRANCH  14  15
ENDBRANCH  13  14
ENDBRANCH   2  13
TORSDOF 15
ENDMDL
MODEL 6
REMARK VINA RESULT:    -4.049      3.263      5.345
REMARK INTER + INTRA:          -8.642
REMARK INTER:                  -6.385
REMARK INTRA:                  -2.257
REMARK UNBOUND:                -1.043
REMARK SMILES CCCCCCCCC=CCCCCCCCC(=O)[O-]
REMARK SMILES IDX 10 1 9 2 11 3 12 4 13 5 14 6 15 7 16 8 17 9 18 10 19 11
REMARK SMILES IDX 20 12 8 13 7 14 6 15 5 16 4 17 3 18 2 19 1 20
REMARK H PARENT
REMARK Flexibility Score: inf
ROOT
ATOM      1  C   UNL     1      56.264  28.806  51.606  1.00  0.00    -0.031 C 
ATOM      2  C   UNL     1      55.376  28.378  50.697  1.00  0.00    -0.031 C 
ENDROOT
BRANCH   1   3
ATOM      3  C   UNL     1      57.697  28.341  51.594  1.00  0.00     0.027 C 
BRANCH   3   4
ATOM      4  C   UNL     1      58.661  29.430  51.096  1.00  0.00     0.004 C 
BRANCH   4   5
ATOM      5  C   UNL     1      59.255  29.092  49.718  1.00  0.00     0.000 C 
BRANCH   5   6
ATOM      6  C   UNL     1      59.767  27.643  49.626  1.00  0.00     0.000 C 
BRANCH   6   7
ATOM      7  C   UNL     1      61.264  27.461  49.932  1.00  0.00     0.000 C 
BRANCH   7   8
ATOM      8  C   UNL     1      61.560  26.184  50.736  1.00  0.00     0.006 C 
BRANCH   8   9
ATOM      9  C   UNL     1      60.428  25.837  51.711  1.00  0.00     0.053 C 
BRANCH   9  10
ATOM     10  C   UNL     1      59.867  24.472  51.450  1.00  0.00     0.041 C 
ATOM     11  O   UNL     1      60.374  23.737  50.562  1.00  0.00    -0.550 OA
ATOM     12  O   UNL     1      58.767  24.022  52.169  1.00  0.00    -0.550 OA
ENDBRANCH   9  10
ENDBRANCH   8   9
ENDBRANCH   7   8
ENDBRANCH   6   7
ENDBRANCH   5   6
ENDBRANCH   4   5
ENDBRANCH   3   4
ENDBRANCH   1   3
BRANCH   2  13
ATOM     13  C   UNL     1      53.943  28.832  50.724  1.00  0.00     0.027 C 
BRANCH  13  14
ATOM     14  C   UNL     1      53.029  27.817  50.020  1.00  0.00     0.004 C 
BRANCH  14  15
ATOM     15  C   UNL     1      53.742  26.488  49.727  1.00  0.00     0.000 C 
BRANCH  15  16
ATOM     16  C   UNL     1      52.961  25.272  50.259  1.00  0.00     0.000 C 
BRANCH  16  17
ATOM     17  C   UNL     1      53.538  24.722  51.576  1.00  0.00    -0.000 C 
BRANCH  17  18
ATOM     18  C   UNL     1      53.111  25.491  52.840  1.00  0.00    -0.000 C 
BRANCH  18  19
ATOM     19  C   UNL     1      54.285  26.192  53.540  1.00  0.00    -0.003 C 
ATOM     20  C   UNL     1      55.610  25.504  53.217  1.00  0.00     0.004 C 
ENDBRANCH  18  19
ENDBRANCH  17  18
ENDBRANCH  16  17
ENDBRANCH  15  16
ENDBRANCH  14  15
ENDBRANCH  13  14
ENDBRANCH   2  13
TORSDOF 15
ENDMDL
MODEL 7
REMARK VINA RESULT:    -4.026      1.657      3.779
REMARK INTER + INTRA:          -8.600
REMARK INTER:                  -7.515
REMARK INTRA:                  -1.085
REMARK UNBOUND:                -1.043
REMARK SMILES CCCCCCCCC=CCCCCCCCC(=O)[O-]
REMARK SMILES IDX 10 1 9 2 11 3 12 4 13 5 14 6 15 7 16 8 17 9 18 10 19 11
REMARK SMILES IDX 20 12 8 13 7 14 6 15 5 16 4 17 3 18 2 19 1 20
REMARK H PARENT
REMARK Flexibility Score: inf
ROOT
ATOM      1  C   UNL     1      61.551  22.548  50.353  1.00  0.00    -0.031 C 
ATOM      2  C   UNL     1      60.818  23.670  50.393  1.00  0.00    -0.031 C 
ENDROOT
BRANCH   1   3
ATOM      3  C   UNL     1      61.191  21.398  49.450  1.00  0.00     0.027 C 
BRANCH   3   4
ATOM      4  C   UNL     1      60.193  20.429  50.104  1.00  0.00     0.004 C 
BRANCH   4   5
ATOM      5  C   UNL     1      60.901  19.290  50.858  1.00  0.00     0.000 C 
BRANCH   5   6
ATOM      6  C   UNL     1      60.507  17.895  50.339  1.00  0.00     0.000 C 
BRANCH   6   7
ATOM      7  C   UNL     1      59.179  17.841  49.564  1.00  0.00     0.000 C 
BRANCH   7   8
ATOM      8  C   UNL     1      58.006  17.332  50.419  1.00  0.00     0.006 C 
BRANCH   8   9
ATOM      9  C   UNL     1      56.953  18.419  50.666  1.00  0.00     0.053 C 
BRANCH   9  10
ATOM     10  C   UNL     1      56.707  18.634  52.129  1.00  0.00     0.041 C 
ATOM     11  O   UNL     1      57.505  18.163  52.982  1.00  0.00    -0.550 OA
ATOM     12  O   UNL     1      55.583  19.333  52.551  1.00  0.00    -0.550 OA
ENDBRANCH   9  10
ENDBRANCH   8   9
ENDBRANCH   7   8
ENDBRANCH   6   7
ENDBRANCH   5   6
ENDBRANCH   4   5
ENDBRANCH   3   4
ENDBRANCH   1   3
BRANCH   2  13
ATOM     13  C   UNL     1      61.173  24.809  51.309  1.00  0.00     0.027 C 
BRANCH  13  14
ATOM     14  C   UNL     1      61.517  26.074  50.508  1.00  0.00     0.004 C 
BRANCH  14  15
ATOM     15  C   UNL     1      60.265  26.852  50.071  1.00  0.00     0.000 C 
BRANCH  15  16
ATOM     16  C   UNL     1      59.234  26.992  51.205  1.00  0.00     0.000 C 
BRANCH  16  17
ATOM     17  C   UNL     1      57.819  27.311  50.689  1.00  0.00    -0.000 C 
BRANCH  17  18
ATOM     18  C   UNL     1      56.900  26.087  50.521  1.00  0.00    -0.000 C 
BRANCH  18  19
ATOM     19  C   UNL     1      55.422  26.467  50.348  1.00  0.00    -0.003 C 
ATOM     20  C   UNL     1      55.191  27.942  50.664  1.00  0.00     0.004 C 
ENDBRANCH  18  19
ENDBRANCH  17  18
ENDBRANCH  16  17
ENDBRANCH  15  16
ENDBRANCH  14  15
ENDBRANCH  13  14
ENDBRANCH   2  13
TORSDOF 15
ENDMDL
MODEL 8
REMARK VINA RESULT:    -4.021     12.728     15.600
REMARK INTER + INTRA:          -8.590
REMARK INTER:                  -6.035
REMARK INTRA:                  -2.555
REMARK UNBOUND:                -1.043
REMARK SMILES CCCCCCCCC=CCCCCCCCC(=O)[O-]
REMARK SMILES IDX 10 1 9 2 11 3 12 4 13 5 14 6 15 7 16 8 17 9 18 10 19 11
REMARK SMILES IDX 20 12 8 13 7 14 6 15 5 16 4 17 3 18 2 19 1 20
REMARK H PARENT
REMARK Flexibility Score: inf
ROOT
ATOM      1  C   UNL     1      61.389  31.670  59.561  1.00  0.00    -0.031 C 
ATOM      2  C   UNL     1      60.730  31.620  60.728  1.00  0.00    -0.031 C 
ENDROOT
BRANCH   1   3
ATOM      3  C   UNL     1      61.094  32.728  58.530  1.00  0.00     0.027 C 
BRANCH   3   4
ATOM      4  C   UNL     1      62.096  33.891  58.582  1.00  0.00     0.004 C 
BRANCH   4   5
ATOM      5  C   UNL     1      61.576  35.067  59.427  1.00  0.00     0.000 C 
BRANCH   5   6
ATOM      6  C   UNL     1      62.222  35.133  60.822  1.00  0.00     0.000 C 
BRANCH   6   7
ATOM      7  C   UNL     1      63.553  34.372  60.959  1.00  0.00     0.000 C 
BRANCH   7   8
ATOM      8  C   UNL     1      64.695  35.254  61.493  1.00  0.00     0.006 C 
BRANCH   8   9
ATOM      9  C   UNL     1      64.788  36.594  60.752  1.00  0.00     0.053 C 
BRANCH   9  10
ATOM     10  C   UNL     1      65.230  36.415  59.331  1.00  0.00     0.041 C 
ATOM     11  O   UNL     1      66.340  35.879  59.075  1.00  0.00    -0.550 OA
ATOM     12  O   UNL     1      64.426  36.863  58.291  1.00  0.00    -0.550 OA
ENDBRANCH   9  10
ENDBRANCH   8   9
ENDBRANCH   7   8
ENDBRANCH   6   7
ENDBRANCH   5   6
ENDBRANCH   4   5
ENDBRANCH   3   4
ENDBRANCH   1   3
BRANCH   2  13
ATOM     13  C   UNL     1      61.017  30.552  61.747  1.00  0.00     0.027 C 
BRANCH  13  14
ATOM     14  C   UNL     1      62.385  29.901  61.494  1.00  0.00     0.004 C 
BRANCH  14  15
ATOM     15  C   UNL     1      62.275  28.396  61.200  1.00  0.00     0.000 C 
BRANCH  15  16
ATOM     16  C   UNL     1      63.553  27.827  60.559  1.00  0.00     0.000 C 
BRANCH  16  17
ATOM     17  C   UNL     1      64.446  28.916  59.938  1.00  0.00    -0.000 C 
BRANCH  17  18
ATOM     18  C   UNL     1      64.255  29.124  58.424  1.00  0.00    -0.000 C 
BRANCH  18  19
ATOM     19  C   UNL     1      64.551  30.563  57.976  1.00  0.00    -0.003 C 
ATOM     20  C   UNL     1      65.021  31.421  59.148  1.00  0.00     0.004 C 
ENDBRANCH  18  19
ENDBRANCH  17  18
ENDBRANCH  16  17
ENDBRANCH  15  16
ENDBRANCH  14  15
ENDBRANCH  13  14
ENDBRANCH   2  13
TORSDOF 15
ENDMDL
MODEL 9
REMARK VINA RESULT:    -3.993      2.430      4.528
REMARK INTER + INTRA:          -8.537
REMARK INTER:                  -5.977
REMARK INTRA:                  -2.559
REMARK UNBOUND:                -1.043
REMARK SMILES CCCCCCCCC=CCCCCCCCC(=O)[O-]
REMARK SMILES IDX 10 1 9 2 11 3 12 4 13 5 14 6 15 7 16 8 17 9 18 10 19 11
REMARK SMILES IDX 20 12 8 13 7 14 6 15 5 16 4 17 3 18 2 19 1 20
REMARK H PARENT
REMARK Flexibility Score: inf
ROOT
ATOM      1  C   UNL     1      58.076  28.357  51.089  1.00  0.00    -0.031 C 
ATOM      2  C   UNL     1      57.373  27.266  50.750  1.00  0.00    -0.031 C 
ENDROOT
BRANCH   1   3
ATOM      3  C   UNL     1      58.639  29.291  50.050  1.00  0.00     0.027 C 
BRANCH   3   4
ATOM      4  C   UNL     1      60.114  29.635  50.309  1.00  0.00     0.004 C 
BRANCH   4   5
ATOM      5  C   UNL     1      60.835  28.534  51.107  1.00  0.00     0.000 C 
BRANCH   5   6
ATOM      6  C   UNL     1      61.583  27.535  50.205  1.00  0.00     0.000 C 
BRANCH   6   7
ATOM      7  C   UNL     1      61.634  26.092  50.737  1.00  0.00     0.000 C 
BRANCH   7   8
ATOM      8  C   UNL     1      60.394  25.268  50.350  1.00  0.00     0.006 C 
BRANCH   8   9
ATOM      9  C   UNL     1      60.082  24.173  51.379  1.00  0.00     0.053 C 
BRANCH   9  10
ATOM     10  C   UNL     1      60.504  22.818  50.896  1.00  0.00     0.041 C 
ATOM     11  O   UNL     1      60.110  21.782  51.491  1.00  0.00    -0.550 OA
ATOM     12  O   UNL     1      61.354  22.703  49.803  1.00  0.00    -0.550 OA
ENDBRANCH   9  10
ENDBRANCH   8   9
ENDBRANCH   7   8
ENDBRANCH   6   7
ENDBRANCH   5   6
ENDBRANCH   4   5
ENDBRANCH   3   4
ENDBRANCH   1   3
BRANCH   2  13
ATOM     13  C   UNL     1      56.828  26.328  51.791  1.00  0.00     0.027 C 
BRANCH  13  14
ATOM     14  C   UNL     1      55.521  25.676  51.314  1.00  0.00     0.004 C 
BRANCH  14  15
ATOM     15  C   UNL     1      54.843  26.470  50.187  1.00  0.00     0.000 C 
BRANCH  15  16
ATOM     16  C   UNL     1      53.646  27.298  50.687  1.00  0.00     0.000 C 
BRANCH  16  17
ATOM     17  C   UNL     1      53.768  28.793  50.341  1.00  0.00    -0.000 C 
BRANCH  17  18
ATOM     18  C   UNL     1      54.514  29.640  51.388  1.00  0.00    -0.000 C 
BRANCH  18  19
ATOM     19  C   UNL     1      54.439  29.046  52.803  1.00  0.00    -0.003 C 
ATOM     20  C   UNL     1      55.569  29.573  53.684  1.00  0.00     0.004 C 
ENDBRANCH  18  19
ENDBRANCH  17  18
ENDBRANCH  16  17
ENDBRANCH  15  16
ENDBRANCH  14  15
ENDBRANCH  13  14
ENDBRANCH   2  13
TORSDOF 15
ENDMDL
