MODEL 1
REMARK VINA RESULT:    -3.196      0.000      0.000
REMARK INTER + INTRA:          -3.856
REMARK INTER:                  -3.757
REMARK INTRA:                  -0.099
REMARK UNBOUND:                -0.099
REMARK SMILES CCCCC(=O)[O-]
REMARK SMILES IDX 4 1 5 2 6 3 7 4 3 5 2 6 1 7
REMARK H PARENT
REMARK Flexibility Score: inf
ROOT
ATOM      1  C   UNL     1      -7.635  39.136  21.841  1.00  0.00     0.053 C 
ENDROOT
BRANCH   1   2
ATOM      2  C   UNL     1      -6.706  38.356  22.717  1.00  0.00     0.041 C 
ATOM      3  O   UNL     1      -6.642  37.103  22.615  1.00  0.00    -0.550 OA
ATOM      4  O   UNL     1      -5.874  39.017  23.611  1.00  0.00    -0.550 OA
ENDBRANCH   1   2
BRANCH   1   5
ATOM      5  C   UNL     1      -6.936  39.528  20.534  1.00  0.00     0.006 C 
BRANCH   5   6
ATOM      6  C   UNL     1      -7.148  38.494  19.418  1.00  0.00    -0.003 C 
ATOM      7  C   UNL     1      -5.838  37.881  18.923  1.00  0.00     0.004 C 
ENDBRANCH   5   6
ENDBRANCH   1   5
TORSDOF 3
ENDMDL
MODEL 2
REMARK VINA RESULT:    -3.186      1.842      2.781
REMARK INTER + INTRA:          -3.844
REMARK INTER:                  -3.752
REMARK INTRA:                  -0.092
REMARK UNBOUND:                -0.099
REMARK SMILES CCCCC(=O)[O-]
REMARK SMILES IDX 4 1 5 2 6 3 7 4 3 5 2 6 1 7
REMARK H PARENT
REMARK Flexibility Score: inf
ROOT
ATOM      1  C   UNL     1      -6.243  36.993  22.285  1.00  0.00     0.053 C 
ENDROOT
BRANCH   1   2
ATOM      2  C   UNL     1      -4.752  36.879  22.314  1.00  0.00     0.041 C 
ATOM      3  O   UNL     1      -4.037  37.915  22.343  1.00  0.00    -0.550 OA
ATOM      4  O   UNL     1      -4.151  35.627  22.359  1.00  0.00    -0.550 OA
ENDBRANCH   1   2
BRANCH   1   5
ATOM      5  C   UNL     1      -6.685  38.368  22.802  1.00  0.00     0.006 C 
BRANCH   5   6
ATOM      6  C   UNL     1      -7.589  39.110  21.807  1.00  0.00    -0.003 C 
ATOM      7  C   UNL     1      -7.250  38.793  20.350  1.00  0.00     0.004 C 
ENDBRANCH   5   6
ENDBRANCH   1   5
TORSDOF 3
ENDMDL
MODEL 3
REMARK VINA RESULT:    -3.147      2.326      3.009
REMARK INTER + INTRA:          -3.798
REMARK INTER:                  -3.754
REMARK INTRA:                  -0.043
REMARK UNBOUND:                -0.099
REMARK SMILES CCCCC(=O)[O-]
REMARK SMILES IDX 4 1 5 2 6 3 7 4 3 5 2 6 1 7
REMARK H PARENT
REMARK Flexibility Score: inf
ROOT
ATOM      1  C   UNL     1      -5.748  37.304  21.589  1.00  0.00     0.053 C 
ENDROOT
BRANCH   1   2
ATOM      2  C   UNL     1      -4.430  36.603  21.490  1.00  0.00     0.041 C 
ATOM      3  O   UNL     1      -3.569  36.987  20.655  1.00  0.00    -0.550 OA
ATOM      4  O   UNL     1      -4.132  35.557  22.354  1.00  0.00    -0.550 OA
ENDBRANCH   1   2
BRANCH   1   5
ATOM      5  C   UNL     1      -6.361  37.491  20.195  1.00  0.00     0.006 C 
BRANCH   5   6
ATOM      6  C   UNL     1      -7.212  38.765  20.090  1.00  0.00    -0.003 C 
ATOM      7  C   UNL     1      -7.611  39.323  21.456  1.00  0.00     0.004 C 
ENDBRANCH   5   6
ENDBRANCH   1   5
TORSDOF 3
ENDMDL
MODEL 4
REMARK VINA RESULT:    -3.109     15.614     16.398
REMARK INTER + INTRA:          -3.754
REMARK INTER:                  -3.674
REMARK INTRA:                  -0.080
REMARK UNBOUND:                -0.099
REMARK SMILES CCCCC(=O)[O-]
REMARK SMILES IDX 4 1 5 2 6 3 7 4 3 5 2 6 1 7
REMARK H PARENT
REMARK Flexibility Score: inf
ROOT
ATOM      1  C   UNL     1      -5.996  29.221  33.908  1.00  0.00     0.053 C 
ENDROOT
BRANCH   1   2
ATOM      2  C   UNL     1      -5.614  30.112  35.048  1.00  0.00     0.041 C 
ATOM      3  O   UNL     1      -5.161  29.619  36.114  1.00  0.00    -0.550 OA
ATOM      4  O   UNL     1      -5.711  31.492  34.914  1.00  0.00    -0.550 OA
ENDBRANCH   1   2
BRANCH   1   5
ATOM      5  C   UNL     1      -6.609  27.916  34.432  1.00  0.00     0.006 C 
BRANCH   5   6
ATOM      6  C   UNL     1      -5.907  26.669  33.875  1.00  0.00    -0.003 C 
ATOM      7  C   UNL     1      -4.899  27.000  32.775  1.00  0.00     0.004 C 
ENDBRANCH   5   6
ENDBRANCH   1   5
TORSDOF 3
ENDMDL
MODEL 5
REMARK VINA RESULT:    -3.052     15.568     16.813
REMARK INTER + INTRA:          -3.687
REMARK INTER:                  -3.596
REMARK INTRA:                  -0.091
REMARK UNBOUND:                -0.099
REMARK SMILES CCCCC(=O)[O-]
REMARK SMILES IDX 4 1 5 2 6 3 7 4 3 5 2 6 1 7
REMARK H PARENT
REMARK Flexibility Score: inf
ROOT
ATOM      1  C   UNL     1      -6.002  29.326  33.885  1.00  0.00     0.053 C 
ENDROOT
BRANCH   1   2
ATOM      2  C   UNL     1      -5.610  30.235  35.008  1.00  0.00     0.041 C 
ATOM      3  O   UNL     1      -5.905  31.458  34.965  1.00  0.00    -0.550 OA
ATOM      4  O   UNL     1      -4.964  29.721  36.125  1.00  0.00    -0.550 OA
ENDBRANCH   1   2
BRANCH   1   5
ATOM      5  C   UNL     1      -6.056  27.872  34.368  1.00  0.00     0.006 C 
BRANCH   5   6
ATOM      6  C   UNL     1      -7.489  27.395  34.649  1.00  0.00    -0.003 C 
ATOM      7  C   UNL     1      -7.916  27.627  36.099  1.00  0.00     0.004 C 
ENDBRANCH   5   6
ENDBRANCH   1   5
TORSDOF 3
ENDMDL
MODEL 6
REMARK VINA RESULT:    -3.047     17.323     18.466
REMARK INTER + INTRA:          -3.681
REMARK INTER:                  -3.603
REMARK INTRA:                  -0.078
REMARK UNBOUND:                -0.099
REMARK SMILES CCCCC(=O)[O-]
REMARK SMILES IDX 4 1 5 2 6 3 7 4 3 5 2 6 1 7
REMARK H PARENT
REMARK Flexibility Score: inf
ROOT
ATOM      1  C   UNL     1      -6.569  23.002  30.146  1.00  0.00     0.053 C 
ENDROOT
BRANCH   1   2
ATOM      2  C   UNL     1      -6.135  24.049  31.123  1.00  0.00     0.041 C 
ATOM      3  O   UNL     1      -6.251  23.848  32.360  1.00  0.00    -0.550 OA
ATOM      4  O   UNL     1      -5.556  25.228  30.668  1.00  0.00    -0.550 OA
ENDBRANCH   1   2
BRANCH   1   5
ATOM      5  C   UNL     1      -6.480  21.609  30.781  1.00  0.00     0.006 C 
BRANCH   5   6
ATOM      6  C   UNL     1      -7.861  20.991  31.044  1.00  0.00    -0.003 C 
ATOM      7  C   UNL     1      -9.007  21.875  30.554  1.00  0.00     0.004 C 
ENDBRANCH   5   6
ENDBRANCH   1   5
TORSDOF 3
ENDMDL
MODEL 7
REMARK VINA RESULT:    -3.027      2.158      2.982
REMARK INTER + INTRA:          -3.657
REMARK INTER:                  -3.526
REMARK INTRA:                  -0.131
REMARK UNBOUND:                -0.099
REMARK SMILES CCCCC(=O)[O-]
REMARK SMILES IDX 4 1 5 2 6 3 7 4 3 5 2 6 1 7
REMARK H PARENT
REMARK Flexibility Score: inf
ROOT
ATOM      1  C   UNL     1      -7.633  39.198  21.717  1.00  0.00     0.053 C 
ENDROOT
BRANCH   1   2
ATOM      2  C   UNL     1      -6.828  39.373  20.468  1.00  0.00     0.041 C 
ATOM      3  O   UNL     1      -7.223  38.870  19.383  1.00  0.00    -0.550 OA
ATOM      4  O   UNL     1      -5.666  40.134  20.490  1.00  0.00    -0.550 OA
ENDBRANCH   1   2
BRANCH   1   5
ATOM      5  C   UNL     1      -6.802  38.492  22.795  1.00  0.00     0.006 C 
BRANCH   5   6
ATOM      6  C   UNL     1      -6.360  37.083  22.371  1.00  0.00    -0.003 C 
ATOM      7  C   UNL     1      -4.840  36.922  22.351  1.00  0.00     0.004 C 
ENDBRANCH   5   6
ENDBRANCH   1   5
TORSDOF 3
ENDMDL
MODEL 8
REMARK VINA RESULT:    -2.975      2.566      3.605
REMARK INTER + INTRA:          -3.596
REMARK INTER:                  -3.529
REMARK INTRA:                  -0.067
REMARK UNBOUND:                -0.099
REMARK SMILES CCCCC(=O)[O-]
REMARK SMILES IDX 4 1 5 2 6 3 7 4 3 5 2 6 1 7
REMARK H PARENT
REMARK Flexibility Score: inf
ROOT
ATOM      1  C   UNL     1      -6.762  37.827  19.813  1.00  0.00     0.053 C 
ENDROOT
BRANCH   1   2
ATOM      2  C   UNL     1      -5.662  38.061  18.826  1.00  0.00     0.041 C 
ATOM      3  O   UNL     1      -5.682  37.485  17.707  1.00  0.00    -0.550 OA
ATOM      4  O   UNL     1      -4.639  38.954  19.123  1.00  0.00    -0.550 OA
ENDBRANCH   1   2
BRANCH   1   5
ATOM      5  C   UNL     1      -7.248  39.159  20.398  1.00  0.00     0.006 C 
BRANCH   5   6
ATOM      6  C   UNL     1      -7.538  39.072  21.904  1.00  0.00    -0.003 C 
ATOM      7  C   UNL     1      -6.795  37.922  22.583  1.00  0.00     0.004 C 
ENDBRANCH   5   6
ENDBRANCH   1   5
TORSDOF 3
ENDMDL
MODEL 9
REMARK VINA RESULT:    -2.953      9.044     10.453
REMARK INTER + INTRA:          -3.570
REMARK INTER:                  -3.521
REMARK INTRA:                  -0.048
REMARK UNBOUND:                -0.099
REMARK SMILES CCCCC(=O)[O-]
REMARK SMILES IDX 4 1 5 2 6 3 7 4 3 5 2 6 1 7
REMARK H PARENT
REMARK Flexibility Score: inf
ROOT
ATOM      1  C   UNL     1      -0.364  32.482  17.805  1.00  0.00     0.053 C 
ENDROOT
BRANCH   1   2
ATOM      2  C   UNL     1      -0.778  33.645  16.960  1.00  0.00     0.041 C 
ATOM      3  O   UNL     1      -0.184  33.882  15.875  1.00  0.00    -0.550 OA
ATOM      4  O   UNL     1      -1.852  34.438  17.344  1.00  0.00    -0.550 OA
ENDBRANCH   1   2
BRANCH   1   5
ATOM      5  C   UNL     1      -0.486  31.174  17.013  1.00  0.00     0.006 C 
BRANCH   5   6
ATOM      6  C   UNL     1       0.878  30.527  16.730  1.00  0.00    -0.003 C 
ATOM      7  C   UNL     1       0.800  29.003  16.632  1.00  0.00     0.004 C 
ENDBRANCH   5   6
ENDBRANCH   1   5
TORSDOF 3
ENDMDL
