MODEL 1
REMARK VINA RESULT:    -4.428      0.000      0.000
REMARK INTER + INTRA:         -13.253
REMARK INTER:                  -9.604
REMARK INTRA:                  -3.649
REMARK UNBOUND:                -3.649
REMARK SMILES CCCCCCCCCCCCCCCCCCCCCC(=O)[O-]
REMARK SMILES IDX 12 1 11 2 10 3 9 4 8 5 7 6 6 7 5 8 4 9 3 10 2 11 1 12 13 13
REMARK SMILES IDX 14 14 15 15 16 16 17 17 18 18 19 19 20 20 21 21 22 22 23 23
REMARK SMILES IDX 24 24
REMARK H PARENT
REMARK Flexibility Score: inf
ROOT
ATOM      1  C   UNL     1       7.185  31.650  30.786  1.00  0.00     0.000 C 
ENDROOT
BRANCH   1   2
ATOM      2  C   UNL     1       6.329  30.460  30.323  1.00  0.00     0.000 C 
BRANCH   2   3
ATOM      3  C   UNL     1       6.964  29.104  30.666  1.00  0.00     0.000 C 
BRANCH   3   4
ATOM      4  C   UNL     1       5.954  27.963  30.474  1.00  0.00    -0.000 C 
BRANCH   4   5
ATOM      5  C   UNL     1       5.953  27.399  29.041  1.00  0.00    -0.000 C 
BRANCH   5   6
ATOM      6  C   UNL     1       7.348  27.105  28.453  1.00  0.00    -0.000 C 
BRANCH   6   7
ATOM      7  C   UNL     1       7.690  27.877  27.165  1.00  0.00    -0.000 C 
BRANCH   7   8
ATOM      8  C   UNL     1       8.462  29.176  27.435  1.00  0.00    -0.000 C 
BRANCH   8   9
ATOM      9  C   UNL     1       7.691  30.394  26.911  1.00  0.00    -0.000 C 
BRANCH   9  10
ATOM     10  C   UNL     1       6.337  29.979  26.322  1.00  0.00    -0.000 C 
BRANCH  10  11
ATOM     11  C   UNL     1       5.206  30.859  26.868  1.00  0.00    -0.003 C 
ATOM     12  C   UNL     1       3.987  30.021  27.240  1.00  0.00     0.004 C 
ENDBRANCH  10  11
ENDBRANCH   9  10
ENDBRANCH   8   9
ENDBRANCH   7   8
ENDBRANCH   6   7
ENDBRANCH   5   6
ENDBRANCH   4   5
ENDBRANCH   3   4
ENDBRANCH   2   3
ENDBRANCH   1   2
BRANCH   1  13
ATOM     13  C   UNL     1       8.687  31.318  30.816  1.00  0.00     0.000 C 
BRANCH  13  14
ATOM     14  C   UNL     1       9.474  32.026  29.699  1.00  0.00     0.000 C 
BRANCH  14  15
ATOM     15  C   UNL     1      10.910  32.382  30.121  1.00  0.00     0.000 C 
BRANCH  15  16
ATOM     16  C   UNL     1      11.829  31.149  30.209  1.00  0.00     0.000 C 
BRANCH  16  17
ATOM     17  C   UNL     1      12.996  31.122  29.200  1.00  0.00     0.000 C 
BRANCH  17  18
ATOM     18  C   UNL     1      12.656  31.615  27.781  1.00  0.00     0.000 C 
BRANCH  18  19
ATOM     19  C   UNL     1      11.845  30.592  26.969  1.00  0.00     0.000 C 
BRANCH  19  20
ATOM     20  C   UNL     1      11.129  31.218  25.758  1.00  0.00     0.006 C 
BRANCH  20  21
ATOM     21  C   UNL     1      10.590  32.638  26.011  1.00  0.00     0.053 C 
BRANCH  21  22
ATOM     22  C   UNL     1      10.989  33.609  24.943  1.00  0.00     0.041 C 
ATOM     23  O   UNL     1      11.245  34.807  25.235  1.00  0.00    -0.550 OA
ATOM     24  O   UNL     1      11.044  33.199  23.616  1.00  0.00    -0.550 OA
ENDBRANCH  21  22
ENDBRANCH  20  21
ENDBRANCH  19  20
ENDBRANCH  18  19
ENDBRANCH  17  18
ENDBRANCH  16  17
ENDBRANCH  15  16
ENDBRANCH  14  15
ENDBRANCH  13  14
ENDBRANCH   1  13
TORSDOF 20
ENDMDL
MODEL 2
REMARK VINA RESULT:    -4.352      2.437      5.331
REMARK INTER + INTRA:         -13.089
REMARK INTER:                  -8.755
REMARK INTRA:                  -4.335
REMARK UNBOUND:                -3.649
REMARK SMILES CCCCCCCCCCCCCCCCCCCCCC(=O)[O-]
REMARK SMILES IDX 12 1 11 2 10 3 9 4 8 5 7 6 6 7 5 8 4 9 3 10 2 11 1 12 13 13
REMARK SMILES IDX 14 14 15 15 16 16 17 17 18 18 19 19 20 20 21 21 22 22 23 23
REMARK SMILES IDX 24 24
REMARK H PARENT
REMARK Flexibility Score: inf
ROOT
ATOM      1  C   UNL     1       6.171  29.648  26.216  1.00  0.00     0.000 C 
ENDROOT
BRANCH   1   2
ATOM      2  C   UNL     1       5.348  28.951  25.119  1.00  0.00     0.000 C 
BRANCH   2   3
ATOM      3  C   UNL     1       6.227  28.233  24.084  1.00  0.00     0.000 C 
BRANCH   3   4
ATOM      4  C   UNL     1       7.671  28.102  24.591  1.00  0.00    -0.000 C 
BRANCH   4   5
ATOM      5  C   UNL     1       8.243  26.684  24.410  1.00  0.00    -0.000 C 
BRANCH   5   6
ATOM      6  C   UNL     1       8.128  25.770  25.648  1.00  0.00    -0.000 C 
BRANCH   6   7
ATOM      7  C   UNL     1       8.644  26.384  26.963  1.00  0.00    -0.000 C 
BRANCH   7   8
ATOM      8  C   UNL     1       7.675  26.184  28.136  1.00  0.00    -0.000 C 
BRANCH   8   9
ATOM      9  C   UNL     1       6.344  25.591  27.656  1.00  0.00    -0.000 C 
BRANCH   9  10
ATOM     10  C   UNL     1       5.172  26.522  27.989  1.00  0.00    -0.000 C 
BRANCH  10  11
ATOM     11  C   UNL     1       3.960  26.223  27.099  1.00  0.00    -0.003 C 
ATOM     12  C   UNL     1       4.373  25.463  25.843  1.00  0.00     0.004 C 
ENDBRANCH  10  11
ENDBRANCH   9  10
ENDBRANCH   8   9
ENDBRANCH   7   8
ENDBRANCH   6   7
ENDBRANCH   5   6
ENDBRANCH   4   5
ENDBRANCH   3   4
ENDBRANCH   2   3
ENDBRANCH   1   2
BRANCH   1  13
ATOM     13  C   UNL     1       5.345  30.679  27.005  1.00  0.00     0.000 C 
BRANCH  13  14
ATOM     14  C   UNL     1       3.938  30.167  27.357  1.00  0.00     0.000 C 
BRANCH  14  15
ATOM     15  C   UNL     1       3.761  29.909  28.863  1.00  0.00     0.000 C 
BRANCH  15  16
ATOM     16  C   UNL     1       4.970  30.378  29.694  1.00  0.00     0.000 C 
BRANCH  16  17
ATOM     17  C   UNL     1       5.813  29.251  30.329  1.00  0.00     0.000 C 
BRANCH  17  18
ATOM     18  C   UNL     1       7.301  29.235  29.933  1.00  0.00     0.000 C 
BRANCH  18  19
ATOM     19  C   UNL     1       7.969  30.614  30.054  1.00  0.00     0.000 C 
BRANCH  19  20
ATOM     20  C   UNL     1       8.853  30.962  28.842  1.00  0.00     0.006 C 
BRANCH  20  21
ATOM     21  C   UNL     1       9.432  29.735  28.114  1.00  0.00     0.053 C 
BRANCH  21  22
ATOM     22  C   UNL     1      10.881  29.894  27.769  1.00  0.00     0.041 C 
ATOM     23  O   UNL     1      11.228  30.187  26.595  1.00  0.00    -0.550 OA
ATOM     24  O   UNL     1      11.853  29.683  28.741  1.00  0.00    -0.550 OA
ENDBRANCH  21  22
ENDBRANCH  20  21
ENDBRANCH  19  20
ENDBRANCH  18  19
ENDBRANCH  17  18
ENDBRANCH  16  17
ENDBRANCH  15  16
ENDBRANCH  14  15
ENDBRANCH  13  14
ENDBRANCH   1  13
TORSDOF 20
ENDMDL
MODEL 3
REMARK VINA RESULT:    -4.298      2.533      4.320
REMARK INTER + INTRA:         -12.973
REMARK INTER:                  -9.126
REMARK INTRA:                  -3.847
REMARK UNBOUND:                -3.649
REMARK SMILES CCCCCCCCCCCCCCCCCCCCCC(=O)[O-]
REMARK SMILES IDX 12 1 11 2 10 3 9 4 8 5 7 6 6 7 5 8 4 9 3 10 2 11 1 12 13 13
REMARK SMILES IDX 14 14 15 15 16 16 17 17 18 18 19 19 20 20 21 21 22 22 23 23
REMARK SMILES IDX 24 24
REMARK H PARENT
REMARK Flexibility Score: inf
ROOT
ATOM      1  C   UNL     1       7.901  28.755  28.462  1.00  0.00     0.000 C 
ENDROOT
BRANCH   1   2
ATOM      2  C   UNL     1       6.910  27.859  29.222  1.00  0.00     0.000 C 
BRANCH   2   3
ATOM      3  C   UNL     1       7.008  26.383  28.808  1.00  0.00     0.000 C 
BRANCH   3   4
ATOM      4  C   UNL     1       8.081  26.188  27.728  1.00  0.00    -0.000 C 
BRANCH   4   5
ATOM      5  C   UNL     1       7.576  25.379  26.520  1.00  0.00    -0.000 C 
BRANCH   5   6
ATOM      6  C   UNL     1       6.059  25.474  26.258  1.00  0.00    -0.000 C 
BRANCH   6   7
ATOM      7  C   UNL     1       5.615  26.696  25.432  1.00  0.00    -0.000 C 
BRANCH   7   8
ATOM      8  C   UNL     1       4.147  27.076  25.672  1.00  0.00    -0.000 C 
BRANCH   8   9
ATOM      9  C   UNL     1       4.029  28.175  26.735  1.00  0.00    -0.000 C 
BRANCH   9  10
ATOM     10  C   UNL     1       3.490  27.611  28.055  1.00  0.00    -0.000 C 
BRANCH  10  11
ATOM     11  C   UNL     1       2.810  28.706  28.886  1.00  0.00    -0.003 C 
ATOM     12  C   UNL     1       3.725  29.914  29.058  1.00  0.00     0.004 C 
ENDBRANCH  10  11
ENDBRANCH   9  10
ENDBRANCH   8   9
ENDBRANCH   7   8
ENDBRANCH   6   7
ENDBRANCH   5   6
ENDBRANCH   4   5
ENDBRANCH   3   4
ENDBRANCH   2   3
ENDBRANCH   1   2
BRANCH   1  13
ATOM     13  C   UNL     1       7.210  29.951  27.783  1.00  0.00     0.000 C 
BRANCH  13  14
ATOM     14  C   UNL     1       7.269  29.877  26.247  1.00  0.00     0.000 C 
BRANCH  14  15
ATOM     15  C   UNL     1       8.550  29.196  25.736  1.00  0.00     0.000 C 
BRANCH  15  16
ATOM     16  C   UNL     1       9.391  30.111  24.827  1.00  0.00     0.000 C 
BRANCH  16  17
ATOM     17  C   UNL     1       9.713  31.505  25.408  1.00  0.00     0.000 C 
BRANCH  17  18
ATOM     18  C   UNL     1      10.793  31.530  26.506  1.00  0.00     0.000 C 
BRANCH  18  19
ATOM     19  C   UNL     1      10.431  32.452  27.682  1.00  0.00     0.000 C 
BRANCH  19  20
ATOM     20  C   UNL     1      10.207  31.686  28.999  1.00  0.00     0.006 C 
BRANCH  20  21
ATOM     21  C   UNL     1      11.315  30.669  29.331  1.00  0.00     0.053 C 
BRANCH  21  22
ATOM     22  C   UNL     1      12.608  31.323  29.711  1.00  0.00     0.041 C 
ATOM     23  O   UNL     1      13.601  31.264  28.940  1.00  0.00    -0.550 OA
ATOM     24  O   UNL     1      12.726  31.968  30.937  1.00  0.00    -0.550 OA
ENDBRANCH  21  22
ENDBRANCH  20  21
ENDBRANCH  19  20
ENDBRANCH  18  19
ENDBRANCH  17  18
ENDBRANCH  16  17
ENDBRANCH  15  16
ENDBRANCH  14  15
ENDBRANCH  13  14
ENDBRANCH   1  13
TORSDOF 20
ENDMDL
MODEL 4
REMARK VINA RESULT:    -4.271      1.491      3.599
REMARK INTER + INTRA:         -12.912
REMARK INTER:                  -9.028
REMARK INTRA:                  -3.884
REMARK UNBOUND:                -3.649
REMARK SMILES CCCCCCCCCCCCCCCCCCCCCC(=O)[O-]
REMARK SMILES IDX 12 1 11 2 10 3 9 4 8 5 7 6 6 7 5 8 4 9 3 10 2 11 1 12 13 13
REMARK SMILES IDX 14 14 15 15 16 16 17 17 18 18 19 19 20 20 21 21 22 22 23 23
REMARK SMILES IDX 24 24
REMARK H PARENT
REMARK Flexibility Score: inf
ROOT
ATOM      1  C   UNL     1       5.122  26.932  29.902  1.00  0.00     0.000 C 
ENDROOT
BRANCH   1   2
ATOM      2  C   UNL     1       5.188  26.839  28.368  1.00  0.00     0.000 C 
BRANCH   2   3
ATOM      3  C   UNL     1       3.874  27.257  27.691  1.00  0.00     0.000 C 
BRANCH   3   4
ATOM      4  C   UNL     1       3.181  28.373  28.486  1.00  0.00    -0.000 C 
BRANCH   4   5
ATOM      5  C   UNL     1       3.626  29.782  28.053  1.00  0.00    -0.000 C 
BRANCH   5   6
ATOM      6  C   UNL     1       4.378  29.845  26.708  1.00  0.00    -0.000 C 
BRANCH   6   7
ATOM      7  C   UNL     1       5.704  30.629  26.738  1.00  0.00    -0.000 C 
BRANCH   7   8
ATOM      8  C   UNL     1       6.867  29.860  26.096  1.00  0.00    -0.000 C 
BRANCH   8   9
ATOM      9  C   UNL     1       6.364  28.605  25.371  1.00  0.00    -0.000 C 
BRANCH   9  10
ATOM     10  C   UNL     1       7.431  27.504  25.368  1.00  0.00    -0.000 C 
BRANCH  10  11
ATOM     11  C   UNL     1       8.360  27.634  26.581  1.00  0.00    -0.003 C 
ATOM     12  C   UNL     1       8.647  26.271  27.203  1.00  0.00     0.004 C 
ENDBRANCH  10  11
ENDBRANCH   9  10
ENDBRANCH   8   9
ENDBRANCH   7   8
ENDBRANCH   6   7
ENDBRANCH   5   6
ENDBRANCH   4   5
ENDBRANCH   3   4
ENDBRANCH   2   3
ENDBRANCH   1   2
BRANCH   1  13
ATOM     13  C   UNL     1       6.403  27.529  30.510  1.00  0.00     0.000 C 
BRANCH  13  14
ATOM     14  C   UNL     1       7.016  28.637  29.636  1.00  0.00     0.000 C 
BRANCH  14  15
ATOM     15  C   UNL     1       6.801  30.042  30.223  1.00  0.00     0.000 C 
BRANCH  15  16
ATOM     16  C   UNL     1       8.031  30.953  30.054  1.00  0.00     0.000 C 
BRANCH  16  17
ATOM     17  C   UNL     1       9.207  30.338  29.266  1.00  0.00     0.000 C 
BRANCH  17  18
ATOM     18  C   UNL     1       9.579  31.063  27.959  1.00  0.00     0.000 C 
BRANCH  18  19
ATOM     19  C   UNL     1      10.705  30.361  27.184  1.00  0.00     0.000 C 
BRANCH  19  20
ATOM     20  C   UNL     1      11.589  31.340  26.390  1.00  0.00     0.006 C 
BRANCH  20  21
ATOM     21  C   UNL     1      11.208  32.821  26.572  1.00  0.00     0.053 C 
BRANCH  21  22
ATOM     22  C   UNL     1      10.789  33.475  25.291  1.00  0.00     0.041 C 
ATOM     23  O   UNL     1      10.101  32.841  24.448  1.00  0.00    -0.550 OA
ATOM     24  O   UNL     1      11.190  34.776  25.011  1.00  0.00    -0.550 OA
ENDBRANCH  21  22
ENDBRANCH  20  21
ENDBRANCH  19  20
ENDBRANCH  18  19
ENDBRANCH  17  18
ENDBRANCH  16  17
ENDBRANCH  15  16
ENDBRANCH  14  15
ENDBRANCH  13  14
ENDBRANCH   1  13
TORSDOF 20
ENDMDL
MODEL 5
REMARK VINA RESULT:    -4.243      2.248      5.175
REMARK INTER + INTRA:         -12.853
REMARK INTER:                  -9.249
REMARK INTRA:                  -3.603
REMARK UNBOUND:                -3.649
REMARK SMILES CCCCCCCCCCCCCCCCCCCCCC(=O)[O-]
REMARK SMILES IDX 12 1 11 2 10 3 9 4 8 5 7 6 6 7 5 8 4 9 3 10 2 11 1 12 13 13
REMARK SMILES IDX 14 14 15 15 16 16 17 17 18 18 19 19 20 20 21 21 22 22 23 23
REMARK SMILES IDX 24 24
REMARK H PARENT
REMARK Flexibility Score: inf
ROOT
ATOM      1  C   UNL     1       4.326  27.466  25.462  1.00  0.00     0.000 C 
ENDROOT
BRANCH   1   2
ATOM      2  C   UNL     1       4.016  27.020  26.901  1.00  0.00     0.000 C 
BRANCH   2   3
ATOM      3  C   UNL     1       4.994  25.953  27.414  1.00  0.00     0.000 C 
BRANCH   3   4
ATOM      4  C   UNL     1       5.775  25.323  26.251  1.00  0.00    -0.000 C 
BRANCH   4   5
ATOM      5  C   UNL     1       7.274  25.157  26.557  1.00  0.00    -0.000 C 
BRANCH   5   6
ATOM      6  C   UNL     1       7.809  26.038  27.704  1.00  0.00    -0.000 C 
BRANCH   6   7
ATOM      7  C   UNL     1       8.855  27.089  27.287  1.00  0.00    -0.000 C 
BRANCH   7   8
ATOM      8  C   UNL     1       8.223  28.395  26.789  1.00  0.00    -0.000 C 
BRANCH   8   9
ATOM      9  C   UNL     1       8.350  28.523  25.265  1.00  0.00    -0.000 C 
BRANCH   9  10
ATOM     10  C   UNL     1       9.280  29.681  24.885  1.00  0.00    -0.000 C 
BRANCH  10  11
ATOM     11  C   UNL     1       9.538  30.599  26.085  1.00  0.00    -0.003 C 
ATOM     12  C   UNL     1       9.041  32.015  25.814  1.00  0.00     0.004 C 
ENDBRANCH  10  11
ENDBRANCH   9  10
ENDBRANCH   8   9
ENDBRANCH   7   8
ENDBRANCH   6   7
ENDBRANCH   5   6
ENDBRANCH   4   5
ENDBRANCH   3   4
ENDBRANCH   2   3
ENDBRANCH   1   2
BRANCH   1  13
ATOM     13  C   UNL     1       4.684  28.960  25.374  1.00  0.00     0.000 C 
BRANCH  13  14
ATOM     14  C   UNL     1       4.300  29.739  26.645  1.00  0.00     0.000 C 
BRANCH  14  15
ATOM     15  C   UNL     1       5.371  30.762  27.058  1.00  0.00     0.000 C 
BRANCH  15  16
ATOM     16  C   UNL     1       5.637  30.768  28.575  1.00  0.00     0.000 C 
BRANCH  16  17
ATOM     17  C   UNL     1       5.981  29.395  29.191  1.00  0.00     0.000 C 
BRANCH  17  18
ATOM     18  C   UNL     1       7.090  29.408  30.259  1.00  0.00     0.000 C 
BRANCH  18  19
ATOM     19  C   UNL     1       8.349  30.166  29.806  1.00  0.00     0.000 C 
BRANCH  19  20
ATOM     20  C   UNL     1       8.636  31.417  30.657  1.00  0.00     0.006 C 
BRANCH  20  21
ATOM     21  C   UNL     1      10.134  31.714  30.854  1.00  0.00     0.053 C 
BRANCH  21  22
ATOM     22  C   UNL     1      10.788  32.242  29.615  1.00  0.00     0.041 C 
ATOM     23  O   UNL     1      11.843  31.712  29.176  1.00  0.00    -0.550 OA
ATOM     24  O   UNL     1      10.251  33.346  28.962  1.00  0.00    -0.550 OA
ENDBRANCH  21  22
ENDBRANCH  20  21
ENDBRANCH  19  20
ENDBRANCH  18  19
ENDBRANCH  17  18
ENDBRANCH  16  17
ENDBRANCH  15  16
ENDBRANCH  14  15
ENDBRANCH  13  14
ENDBRANCH   1  13
TORSDOF 20
ENDMDL
MODEL 6
REMARK VINA RESULT:    -4.225      2.252      5.475
REMARK INTER + INTRA:         -12.813
REMARK INTER:                  -8.865
REMARK INTRA:                  -3.949
REMARK UNBOUND:                -3.649
REMARK SMILES CCCCCCCCCCCCCCCCCCCCCC(=O)[O-]
REMARK SMILES IDX 12 1 11 2 10 3 9 4 8 5 7 6 6 7 5 8 4 9 3 10 2 11 1 12 13 13
REMARK SMILES IDX 14 14 15 15 16 16 17 17 18 18 19 19 20 20 21 21 22 22 23 23
REMARK SMILES IDX 24 24
REMARK H PARENT
REMARK Flexibility Score: inf
ROOT
ATOM      1  C   UNL     1       5.086  25.235  25.255  1.00  0.00     0.000 C 
ENDROOT
BRANCH   1   2
ATOM      2  C   UNL     1       6.537  24.766  25.453  1.00  0.00     0.000 C 
BRANCH   2   3
ATOM      3  C   UNL     1       7.564  25.766  24.902  1.00  0.00     0.000 C 
BRANCH   3   4
ATOM      4  C   UNL     1       8.547  26.200  26.000  1.00  0.00    -0.000 C 
BRANCH   4   5
ATOM      5  C   UNL     1       8.178  25.647  27.388  1.00  0.00    -0.000 C 
BRANCH   5   6
ATOM      6  C   UNL     1       7.546  26.671  28.353  1.00  0.00    -0.000 C 
BRANCH   6   7
ATOM      7  C   UNL     1       6.633  26.068  29.438  1.00  0.00    -0.000 C 
BRANCH   7   8
ATOM      8  C   UNL     1       5.796  27.127  30.169  1.00  0.00    -0.000 C 
BRANCH   8   9
ATOM      9  C   UNL     1       6.060  28.527  29.600  1.00  0.00    -0.000 C 
BRANCH   9  10
ATOM     10  C   UNL     1       4.946  29.502  29.996  1.00  0.00    -0.000 C 
BRANCH  10  11
ATOM     11  C   UNL     1       3.563  28.878  29.777  1.00  0.00    -0.003 C 
ATOM     12  C   UNL     1       2.752  29.678  28.763  1.00  0.00     0.004 C 
ENDBRANCH  10  11
ENDBRANCH   9  10
ENDBRANCH   8   9
ENDBRANCH   7   8
ENDBRANCH   6   7
ENDBRANCH   5   6
ENDBRANCH   4   5
ENDBRANCH   3   4
ENDBRANCH   2   3
ENDBRANCH   1   2
BRANCH   1  13
ATOM     13  C   UNL     1       4.517  25.928  26.505  1.00  0.00     0.000 C 
BRANCH  13  14
ATOM     14  C   UNL     1       4.052  27.368  26.227  1.00  0.00     0.000 C 
BRANCH  14  15
ATOM     15  C   UNL     1       5.144  28.226  25.565  1.00  0.00     0.000 C 
BRANCH  15  16
ATOM     16  C   UNL     1       4.986  29.728  25.866  1.00  0.00     0.000 C 
BRANCH  16  17
ATOM     17  C   UNL     1       6.169  30.380  26.614  1.00  0.00     0.000 C 
BRANCH  17  18
ATOM     18  C   UNL     1       7.557  29.796  26.293  1.00  0.00     0.000 C 
BRANCH  18  19
ATOM     19  C   UNL     1       8.677  30.403  27.154  1.00  0.00     0.000 C 
BRANCH  19  20
ATOM     20  C   UNL     1       9.734  29.369  27.583  1.00  0.00     0.006 C 
BRANCH  20  21
ATOM     21  C   UNL     1      11.132  29.965  27.832  1.00  0.00     0.053 C 
BRANCH  21  22
ATOM     22  C   UNL     1      11.565  30.902  26.746  1.00  0.00     0.041 C 
ATOM     23  O   UNL     1      11.850  30.461  25.601  1.00  0.00    -0.550 OA
ATOM     24  O   UNL     1      11.688  32.261  27.010  1.00  0.00    -0.550 OA
ENDBRANCH  21  22
ENDBRANCH  20  21
ENDBRANCH  19  20
ENDBRANCH  18  19
ENDBRANCH  17  18
ENDBRANCH  16  17
ENDBRANCH  15  16
ENDBRANCH  14  15
ENDBRANCH  13  14
ENDBRANCH   1  13
TORSDOF 20
ENDMDL
MODEL 7
REMARK VINA RESULT:    -4.178      2.754      4.428
REMARK INTER + INTRA:         -12.712
REMARK INTER:                  -9.081
REMARK INTRA:                  -3.631
REMARK UNBOUND:                -3.649
REMARK SMILES CCCCCCCCCCCCCCCCCCCCCC(=O)[O-]
REMARK SMILES IDX 12 1 11 2 10 3 9 4 8 5 7 6 6 7 5 8 4 9 3 10 2 11 1 12 13 13
REMARK SMILES IDX 14 14 15 15 16 16 17 17 18 18 19 19 20 20 21 21 22 22 23 23
REMARK SMILES IDX 24 24
REMARK H PARENT
REMARK Flexibility Score: inf
ROOT
ATOM      1  C   UNL     1       8.772  26.865  27.369  1.00  0.00     0.000 C 
ENDROOT
BRANCH   1   2
ATOM      2  C   UNL     1       7.391  26.767  28.039  1.00  0.00     0.000 C 
BRANCH   2   3
ATOM      3  C   UNL     1       6.576  25.564  27.541  1.00  0.00     0.000 C 
BRANCH   3   4
ATOM      4  C   UNL     1       7.272  24.886  26.352  1.00  0.00    -0.000 C 
BRANCH   4   5
ATOM      5  C   UNL     1       6.507  25.063  25.029  1.00  0.00    -0.000 C 
BRANCH   5   6
ATOM      6  C   UNL     1       7.306  25.742  23.897  1.00  0.00    -0.000 C 
BRANCH   6   7
ATOM      7  C   UNL     1       6.745  27.095  23.422  1.00  0.00    -0.000 C 
BRANCH   7   8
ATOM      8  C   UNL     1       6.588  28.110  24.563  1.00  0.00    -0.000 C 
BRANCH   8   9
ATOM      9  C   UNL     1       5.141  28.607  24.663  1.00  0.00    -0.000 C 
BRANCH   9  10
ATOM     10  C   UNL     1       4.693  28.712  26.125  1.00  0.00    -0.000 C 
BRANCH  10  11
ATOM     11  C   UNL     1       4.738  30.165  26.612  1.00  0.00    -0.003 C 
ATOM     12  C   UNL     1       4.930  30.234  28.123  1.00  0.00     0.004 C 
ENDBRANCH  10  11
ENDBRANCH   9  10
ENDBRANCH   8   9
ENDBRANCH   7   8
ENDBRANCH   6   7
ENDBRANCH   5   6
ENDBRANCH   4   5
ENDBRANCH   3   4
ENDBRANCH   2   3
ENDBRANCH   1   2
BRANCH   1  13
ATOM     13  C   UNL     1       9.207  28.322  27.131  1.00  0.00     0.000 C 
BRANCH  13  14
ATOM     14  C   UNL     1       8.596  29.298  28.151  1.00  0.00     0.000 C 
BRANCH  14  15
ATOM     15  C   UNL     1       8.477  30.730  27.602  1.00  0.00     0.000 C 
BRANCH  15  16
ATOM     16  C   UNL     1       8.529  30.786  26.064  1.00  0.00     0.000 C 
BRANCH  16  17
ATOM     17  C   UNL     1       9.754  31.512  25.469  1.00  0.00     0.000 C 
BRANCH  17  18
ATOM     18  C   UNL     1      10.749  32.082  26.498  1.00  0.00     0.000 C 
BRANCH  18  19
ATOM     19  C   UNL     1      11.829  31.070  26.912  1.00  0.00     0.000 C 
BRANCH  19  20
ATOM     20  C   UNL     1      12.396  31.338  28.319  1.00  0.00     0.006 C 
BRANCH  20  21
ATOM     21  C   UNL     1      11.563  32.328  29.155  1.00  0.00     0.053 C 
BRANCH  21  22
ATOM     22  C   UNL     1      11.179  31.776  30.493  1.00  0.00     0.041 C 
ATOM     23  O   UNL     1       9.970  31.558  30.770  1.00  0.00    -0.550 OA
ATOM     24  O   UNL     1      12.157  31.536  31.452  1.00  0.00    -0.550 OA
ENDBRANCH  21  22
ENDBRANCH  20  21
ENDBRANCH  19  20
ENDBRANCH  18  19
ENDBRANCH  17  18
ENDBRANCH  16  17
ENDBRANCH  15  16
ENDBRANCH  14  15
ENDBRANCH  13  14
ENDBRANCH   1  13
TORSDOF 20
ENDMDL
MODEL 8
REMARK VINA RESULT:    -4.173      3.116      5.888
REMARK INTER + INTRA:         -12.701
REMARK INTER:                  -8.870
REMARK INTRA:                  -3.831
REMARK UNBOUND:                -3.649
REMARK SMILES CCCCCCCCCCCCCCCCCCCCCC(=O)[O-]
REMARK SMILES IDX 12 1 11 2 10 3 9 4 8 5 7 6 6 7 5 8 4 9 3 10 2 11 1 12 13 13
REMARK SMILES IDX 14 14 15 15 16 16 17 17 18 18 19 19 20 20 21 21 22 22 23 23
REMARK SMILES IDX 24 24
REMARK H PARENT
REMARK Flexibility Score: inf
ROOT
ATOM      1  C   UNL     1       4.786  26.053  27.118  1.00  0.00     0.000 C 
ENDROOT
BRANCH   1   2
ATOM      2  C   UNL     1       5.300  26.391  28.527  1.00  0.00     0.000 C 
BRANCH   2   3
ATOM      3  C   UNL     1       6.808  26.148  28.683  1.00  0.00     0.000 C 
BRANCH   3   4
ATOM      4  C   UNL     1       7.373  25.417  27.456  1.00  0.00    -0.000 C 
BRANCH   4   5
ATOM      5  C   UNL     1       8.516  26.189  26.772  1.00  0.00    -0.000 C 
BRANCH   5   6
ATOM      6  C   UNL     1       8.493  26.159  25.230  1.00  0.00    -0.000 C 
BRANCH   6   7
ATOM      7  C   UNL     1       7.321  26.917  24.579  1.00  0.00    -0.000 C 
BRANCH   7   8
ATOM      8  C   UNL     1       6.393  26.000  23.770  1.00  0.00    -0.000 C 
BRANCH   8   9
ATOM      9  C   UNL     1       7.066  24.652  23.481  1.00  0.00    -0.000 C 
BRANCH   9  10
ATOM     10  C   UNL     1       6.227  23.489  24.023  1.00  0.00    -0.000 C 
BRANCH  10  11
ATOM     11  C   UNL     1       7.016  22.675  25.054  1.00  0.00    -0.003 C 
ATOM     12  C   UNL     1       6.812  21.178  24.848  1.00  0.00     0.004 C 
ENDBRANCH  10  11
ENDBRANCH   9  10
ENDBRANCH   8   9
ENDBRANCH   7   8
ENDBRANCH   6   7
ENDBRANCH   5   6
ENDBRANCH   4   5
ENDBRANCH   3   4
ENDBRANCH   2   3
ENDBRANCH   1   2
BRANCH   1  13
ATOM     13  C   UNL     1       3.995  27.212  26.487  1.00  0.00     0.000 C 
BRANCH  13  14
ATOM     14  C   UNL     1       3.599  28.288  27.512  1.00  0.00     0.000 C 
BRANCH  14  15
ATOM     15  C   UNL     1       4.050  29.698  27.095  1.00  0.00     0.000 C 
BRANCH  15  16
ATOM     16  C   UNL     1       5.141  29.678  26.008  1.00  0.00     0.000 C 
BRANCH  16  17
ATOM     17  C   UNL     1       6.585  29.874  26.516  1.00  0.00     0.000 C 
BRANCH  17  18
ATOM     18  C   UNL     1       6.763  29.808  28.045  1.00  0.00     0.000 C 
BRANCH  18  19
ATOM     19  C   UNL     1       8.229  29.625  28.470  1.00  0.00     0.000 C 
BRANCH  19  20
ATOM     20  C   UNL     1       9.211  29.686  27.285  1.00  0.00     0.006 C 
BRANCH  20  21
ATOM     21  C   UNL     1      10.692  29.774  27.700  1.00  0.00     0.053 C 
BRANCH  21  22
ATOM     22  C   UNL     1      11.498  30.650  26.791  1.00  0.00     0.041 C 
ATOM     23  O   UNL     1      11.281  30.652  25.551  1.00  0.00    -0.550 OA
ATOM     24  O   UNL     1      12.515  31.442  27.312  1.00  0.00    -0.550 OA
ENDBRANCH  21  22
ENDBRANCH  20  21
ENDBRANCH  19  20
ENDBRANCH  18  19
ENDBRANCH  17  18
ENDBRANCH  16  17
ENDBRANCH  15  16
ENDBRANCH  14  15
ENDBRANCH  13  14
ENDBRANCH   1  13
TORSDOF 20
ENDMDL
MODEL 9
REMARK VINA RESULT:    -4.142      3.174      7.107
REMARK INTER + INTRA:         -12.633
REMARK INTER:                  -8.668
REMARK INTRA:                  -3.965
REMARK UNBOUND:                -3.649
REMARK SMILES CCCCCCCCCCCCCCCCCCCCCC(=O)[O-]
REMARK SMILES IDX 12 1 11 2 10 3 9 4 8 5 7 6 6 7 5 8 4 9 3 10 2 11 1 12 13 13
REMARK SMILES IDX 14 14 15 15 16 16 17 17 18 18 19 19 20 20 21 21 22 22 23 23
REMARK SMILES IDX 24 24
REMARK H PARENT
REMARK Flexibility Score: inf
ROOT
ATOM      1  C   UNL     1       8.530  26.532  27.378  1.00  0.00     0.000 C 
ENDROOT
BRANCH   1   2
ATOM      2  C   UNL     1       8.917  28.020  27.369  1.00  0.00     0.000 C 
BRANCH   2   3
ATOM      3  C   UNL     1       8.014  28.873  28.274  1.00  0.00     0.000 C 
BRANCH   3   4
ATOM      4  C   UNL     1       7.746  30.246  27.641  1.00  0.00    -0.000 C 
BRANCH   4   5
ATOM      5  C   UNL     1       8.240  30.342  26.186  1.00  0.00    -0.000 C 
BRANCH   5   6
ATOM      6  C   UNL     1       9.082  31.593  25.862  1.00  0.00    -0.000 C 
BRANCH   6   7
ATOM      7  C   UNL     1      10.353  31.328  25.034  1.00  0.00    -0.000 C 
BRANCH   7   8
ATOM      8  C   UNL     1      11.457  30.632  25.842  1.00  0.00    -0.000 C 
BRANCH   8   9
ATOM      9  C   UNL     1      11.687  31.338  27.184  1.00  0.00    -0.000 C 
BRANCH   9  10
ATOM     10  C   UNL     1      11.599  30.347  28.351  1.00  0.00    -0.000 C 
BRANCH  10  11
ATOM     11  C   UNL     1      10.893  30.977  29.557  1.00  0.00    -0.003 C 
ATOM     12  C   UNL     1      10.397  32.382  29.233  1.00  0.00     0.004 C 
ENDBRANCH  10  11
ENDBRANCH   9  10
ENDBRANCH   8   9
ENDBRANCH   7   8
ENDBRANCH   6   7
ENDBRANCH   5   6
ENDBRANCH   4   5
ENDBRANCH   3   4
ENDBRANCH   2   3
ENDBRANCH   1   2
BRANCH   1  13
ATOM     13  C   UNL     1       7.991  26.056  26.018  1.00  0.00     0.000 C 
BRANCH  13  14
ATOM     14  C   UNL     1       6.483  26.312  25.855  1.00  0.00     0.000 C 
BRANCH  14  15
ATOM     15  C   UNL     1       6.180  27.482  24.903  1.00  0.00     0.000 C 
BRANCH  15  16
ATOM     16  C   UNL     1       4.766  28.060  25.100  1.00  0.00     0.000 C 
BRANCH  16  17
ATOM     17  C   UNL     1       4.713  29.514  25.615  1.00  0.00     0.000 C 
BRANCH  17  18
ATOM     18  C   UNL     1       3.992  29.713  26.961  1.00  0.00     0.000 C 
BRANCH  18  19
ATOM     19  C   UNL     1       4.079  28.480  27.876  1.00  0.00     0.000 C 
BRANCH  19  20
ATOM     20  C   UNL     1       4.525  28.825  29.309  1.00  0.00     0.006 C 
BRANCH  20  21
ATOM     21  C   UNL     1       3.659  29.898  29.996  1.00  0.00     0.053 C 
BRANCH  21  22
ATOM     22  C   UNL     1       4.467  30.865  30.805  1.00  0.00     0.041 C 
ATOM     23  O   UNL     1       4.084  31.209  31.955  1.00  0.00    -0.550 OA
ATOM     24  O   UNL     1       5.629  31.415  30.275  1.00  0.00    -0.550 OA
ENDBRANCH  21  22
ENDBRANCH  20  21
ENDBRANCH  19  20
ENDBRANCH  18  19
ENDBRANCH  17  18
ENDBRANCH  16  17
ENDBRANCH  15  16
ENDBRANCH  14  15
ENDBRANCH  13  14
ENDBRANCH   1  13
TORSDOF 20
ENDMDL
