MODEL 1
REMARK VINA RESULT:    -6.354      0.000      0.000
REMARK INTER + INTRA:          -6.911
REMARK INTER:                  -6.911
REMARK INTRA:                   0.000
REMARK UNBOUND:                 0.000
REMARK SMILES Cc1cc(O)c2c(c1)C(=O)c1cc(O)cc(O)c1C2=O
REMARK SMILES IDX 1 1 2 2 8 3 7 4 6 5 4 6 3 7 19 8 20 9 18 10 11 11 9 12 10 13
REMARK SMILES IDX 12 14 13 15 15 16 16 17 5 18 17 20 14 22
REMARK H PARENT 5 19 17 21 14 23
REMARK Flexibility Score: inf
ROOT
ATOM      1  C   UNL     1       0.217  -2.587   7.505  1.00  0.00     0.044 C 
ATOM      2  C   UNL     1       1.244  -1.536   7.806  1.00  0.00    -0.047 A 
ATOM      3  C   UNL     1       1.120  -0.253   7.260  1.00  0.00     0.016 A 
ATOM      4  C   UNL     1       2.058   0.750   7.564  1.00  0.00     0.038 A 
ATOM      5  C   UNL     1       3.124   0.470   8.446  1.00  0.00     0.076 A 
ATOM      6  C   UNL     1       3.236  -0.823   9.006  1.00  0.00     0.127 A 
ATOM      7  C   UNL     1       2.295  -1.810   8.689  1.00  0.00     0.050 A 
ATOM      8  C   UNL     1       4.083   1.553   8.787  1.00  0.00     0.201 C 
ATOM      9  O   UNL     1       4.802   1.442   9.816  1.00  0.00    -0.288 OA
ATOM     10  C   UNL     1       4.112   2.808   7.985  1.00  0.00     0.076 A 
ATOM     11  C   UNL     1       3.004   3.101   7.155  1.00  0.00     0.041 A 
ATOM     12  C   UNL     1       1.929   2.099   6.968  1.00  0.00     0.194 C 
ATOM     13  O   UNL     1       0.909   2.390   6.284  1.00  0.00    -0.289 OA
ATOM     14  C   UNL     1       2.930   4.342   6.499  1.00  0.00     0.059 A 
ATOM     15  C   UNL     1       3.946   5.284   6.645  1.00  0.00     0.120 A 
ATOM     16  C   UNL     1       5.064   4.984   7.424  1.00  0.00     0.093 A 
ATOM     17  C   UNL     1       5.177   3.747   8.066  1.00  0.00     0.131 A 
ENDROOT
BRANCH   6  18
ATOM     18  O   UNL     1       4.287  -1.134   9.871  1.00  0.00    -0.507 OA
ATOM     19  H   UNL     1       5.023  -0.469  10.077  1.00  0.00     0.293 HD
ENDBRANCH   6  18
BRANCH  17  20
ATOM     20  O   UNL     1       6.375   3.483   8.736  1.00  0.00    -0.507 OA
ATOM     21  H   UNL     1       7.122   2.923   8.351  1.00  0.00     0.293 HD
ENDBRANCH  17  20
BRANCH  15  22
ATOM     22  O   UNL     1       3.841   6.514   5.998  1.00  0.00    -0.508 OA
ATOM     23  H   UNL     1       4.415   6.742   5.196  1.00  0.00     0.293 HD
ENDBRANCH  15  22
TORSDOF 3
ENDMDL
MODEL 2
REMARK VINA RESULT:    -6.300      1.032      1.403
REMARK INTER + INTRA:          -6.852
REMARK INTER:                  -6.852
REMARK INTRA:                   0.000
REMARK UNBOUND:                 0.000
REMARK SMILES Cc1cc(O)c2c(c1)C(=O)c1cc(O)cc(O)c1C2=O
REMARK SMILES IDX 1 1 2 2 8 3 7 4 6 5 4 6 3 7 19 8 20 9 18 10 11 11 9 12 10 13
REMARK SMILES IDX 12 14 13 15 15 16 16 17 5 18 17 20 14 22
REMARK H PARENT 5 19 17 21 14 23
REMARK Flexibility Score: inf
ROOT
ATOM      1  C   UNL     1       0.818  -1.305   7.478  1.00  0.00     0.044 C 
ATOM      2  C   UNL     1       1.871  -0.278   7.772  1.00  0.00    -0.047 A 
ATOM      3  C   UNL     1       1.761   1.014   7.243  1.00  0.00     0.016 A 
ATOM      4  C   UNL     1       2.725   1.994   7.541  1.00  0.00     0.038 A 
ATOM      5  C   UNL     1       3.802   1.683   8.398  1.00  0.00     0.076 A 
ATOM      6  C   UNL     1       3.900   0.381   8.940  1.00  0.00     0.127 A 
ATOM      7  C   UNL     1       2.933  -0.584   8.630  1.00  0.00     0.050 A 
ATOM      8  C   UNL     1       4.789   2.743   8.733  1.00  0.00     0.201 C 
ATOM      9  O   UNL     1       5.525   2.605   9.746  1.00  0.00    -0.288 OA
ATOM     10  C   UNL     1       4.826   4.007   7.946  1.00  0.00     0.076 A 
ATOM     11  C   UNL     1       3.709   4.332   7.141  1.00  0.00     0.041 A 
ATOM     12  C   UNL     1       2.611   3.353   6.963  1.00  0.00     0.194 C 
ATOM     13  O   UNL     1       1.583   3.672   6.303  1.00  0.00    -0.289 OA
ATOM     14  C   UNL     1       3.646   5.581   6.502  1.00  0.00     0.059 A 
ATOM     15  C   UNL     1       4.684   6.502   6.638  1.00  0.00     0.120 A 
ATOM     16  C   UNL     1       5.811   6.170   7.392  1.00  0.00     0.093 A 
ATOM     17  C   UNL     1       5.911   4.923   8.016  1.00  0.00     0.131 A 
ENDROOT
BRANCH   6  18
ATOM     18  O   UNL     1       4.961   0.039   9.780  1.00  0.00    -0.507 OA
ATOM     19  H   UNL     1       5.676   0.710  10.037  1.00  0.00     0.293 HD
ENDBRANCH   6  18
BRANCH  17  20
ATOM     20  O   UNL     1       7.117   4.628   8.660  1.00  0.00    -0.507 OA
ATOM     21  H   UNL     1       7.925   4.247   8.189  1.00  0.00     0.293 HD
ENDBRANCH  17  20
BRANCH  15  22
ATOM     22  O   UNL     1       4.590   7.741   6.009  1.00  0.00    -0.508 OA
ATOM     23  H   UNL     1       3.695   8.189   5.850  1.00  0.00     0.293 HD
ENDBRANCH  15  22
TORSDOF 3
ENDMDL
MODEL 3
REMARK VINA RESULT:    -6.223      2.266      6.197
REMARK INTER + INTRA:          -6.768
REMARK INTER:                  -6.768
REMARK INTRA:                   0.000
REMARK UNBOUND:                 0.000
REMARK SMILES Cc1cc(O)c2c(c1)C(=O)c1cc(O)cc(O)c1C2=O
REMARK SMILES IDX 1 1 2 2 8 3 7 4 6 5 4 6 3 7 19 8 20 9 18 10 11 11 9 12 10 13
REMARK SMILES IDX 12 14 13 15 15 16 16 17 5 18 17 20 14 22
REMARK H PARENT 5 19 17 21 14 23
REMARK Flexibility Score: inf
ROOT
ATOM      1  C   UNL     1       8.934   4.385   9.645  1.00  0.00     0.044 C 
ATOM      2  C   UNL     1       7.666   4.571   8.865  1.00  0.00    -0.047 A 
ATOM      3  C   UNL     1       6.582   3.710   9.068  1.00  0.00     0.016 A 
ATOM      4  C   UNL     1       5.377   3.896   8.367  1.00  0.00     0.038 A 
ATOM      5  C   UNL     1       5.249   4.973   7.464  1.00  0.00     0.076 A 
ATOM      6  C   UNL     1       6.343   5.848   7.273  1.00  0.00     0.127 A 
ATOM      7  C   UNL     1       7.536   5.645   7.978  1.00  0.00     0.050 A 
ATOM      8  C   UNL     1       3.955   5.178   6.761  1.00  0.00     0.201 C 
ATOM      9  O   UNL     1       3.700   6.301   6.249  1.00  0.00    -0.288 OA
ATOM     10  C   UNL     1       2.924   4.104   6.763  1.00  0.00     0.076 A 
ATOM     11  C   UNL     1       3.036   3.065   7.717  1.00  0.00     0.041 A 
ATOM     12  C   UNL     1       4.241   2.970   8.575  1.00  0.00     0.194 C 
ATOM     13  O   UNL     1       4.306   2.086   9.474  1.00  0.00    -0.289 OA
ATOM     14  C   UNL     1       2.006   2.119   7.845  1.00  0.00     0.059 A 
ATOM     15  C   UNL     1       0.878   2.180   7.028  1.00  0.00     0.120 A 
ATOM     16  C   UNL     1       0.783   3.173   6.052  1.00  0.00     0.093 A 
ATOM     17  C   UNL     1       1.805   4.112   5.885  1.00  0.00     0.131 A 
ENDROOT
BRANCH   6  18
ATOM     18  O   UNL     1       6.252   6.915   6.377  1.00  0.00    -0.507 OA
ATOM     19  H   UNL     1       7.075   7.325   5.950  1.00  0.00     0.293 HD
ENDBRANCH   6  18
BRANCH  17  20
ATOM     20  O   UNL     1       1.683   5.004   4.816  1.00  0.00    -0.507 OA
ATOM     21  H   UNL     1       1.013   5.759   4.788  1.00  0.00     0.293 HD
ENDBRANCH  17  20
BRANCH  15  22
ATOM     22  O   UNL     1      -0.137   1.239   7.186  1.00  0.00    -0.508 OA
ATOM     23  H   UNL     1      -1.112   1.487   7.065  1.00  0.00     0.293 HD
ENDBRANCH  15  22
TORSDOF 3
ENDMDL
MODEL 4
REMARK VINA RESULT:    -6.171      6.126      8.377
REMARK INTER + INTRA:          -6.712
REMARK INTER:                  -6.712
REMARK INTRA:                   0.000
REMARK UNBOUND:                 0.000
REMARK SMILES Cc1cc(O)c2c(c1)C(=O)c1cc(O)cc(O)c1C2=O
REMARK SMILES IDX 1 1 2 2 8 3 7 4 6 5 4 6 3 7 19 8 20 9 18 10 11 11 9 12 10 13
REMARK SMILES IDX 12 14 13 15 15 16 16 17 5 18 17 20 14 22
REMARK H PARENT 5 19 17 21 14 23
REMARK Flexibility Score: inf
ROOT
ATOM      1  C   UNL     1       9.125  -6.885   5.693  1.00  0.00     0.044 C 
ATOM      2  C   UNL     1       7.875  -6.056   5.702  1.00  0.00    -0.047 A 
ATOM      3  C   UNL     1       6.877  -6.275   4.745  1.00  0.00     0.016 A 
ATOM      4  C   UNL     1       5.687  -5.527   4.766  1.00  0.00     0.038 A 
ATOM      5  C   UNL     1       5.483  -4.559   5.773  1.00  0.00     0.076 A 
ATOM      6  C   UNL     1       6.489  -4.351   6.745  1.00  0.00     0.127 A 
ATOM      7  C   UNL     1       7.669  -5.103   6.707  1.00  0.00     0.050 A 
ATOM      8  C   UNL     1       4.202  -3.805   5.803  1.00  0.00     0.201 C 
ATOM      9  O   UNL     1       3.853  -3.220   6.862  1.00  0.00    -0.288 OA
ATOM     10  C   UNL     1       3.287  -3.838   4.628  1.00  0.00     0.076 A 
ATOM     11  C   UNL     1       3.469  -4.854   3.662  1.00  0.00     0.041 A 
ATOM     12  C   UNL     1       4.644  -5.753   3.740  1.00  0.00     0.194 C 
ATOM     13  O   UNL     1       4.766  -6.704   2.918  1.00  0.00    -0.289 OA
ATOM     14  C   UNL     1       2.537  -5.005   2.621  1.00  0.00     0.059 A 
ATOM     15  C   UNL     1       1.440  -4.151   2.519  1.00  0.00     0.120 A 
ATOM     16  C   UNL     1       1.280  -3.116   3.442  1.00  0.00     0.093 A 
ATOM     17  C   UNL     1       2.207  -2.926   4.472  1.00  0.00     0.131 A 
ENDROOT
BRANCH   6  18
ATOM     18  O   UNL     1       6.322  -3.391   7.746  1.00  0.00    -0.507 OA
ATOM     19  H   UNL     1       6.446  -2.402   7.562  1.00  0.00     0.293 HD
ENDBRANCH   6  18
BRANCH  17  20
ATOM     20  O   UNL     1       2.034  -1.803   5.285  1.00  0.00    -0.507 OA
ATOM     21  H   UNL     1       2.757  -1.424   5.881  1.00  0.00     0.293 HD
ENDBRANCH  17  20
BRANCH  15  22
ATOM     22  O   UNL     1       0.521  -4.333   1.489  1.00  0.00    -0.508 OA
ATOM     23  H   UNL     1       0.469  -3.691   0.706  1.00  0.00     0.293 HD
ENDBRANCH  15  22
TORSDOF 3
ENDMDL
MODEL 5
REMARK VINA RESULT:    -6.125      2.064      5.235
REMARK INTER + INTRA:          -6.662
REMARK INTER:                  -6.662
REMARK INTRA:                   0.000
REMARK UNBOUND:                 0.000
REMARK SMILES Cc1cc(O)c2c(c1)C(=O)c1cc(O)cc(O)c1C2=O
REMARK SMILES IDX 1 1 2 2 8 3 7 4 6 5 4 6 3 7 19 8 20 9 18 10 11 11 9 12 10 13
REMARK SMILES IDX 12 14 13 15 15 16 16 17 5 18 17 20 14 22
REMARK H PARENT 5 19 17 21 14 23
REMARK Flexibility Score: inf
ROOT
ATOM      1  C   UNL     1       7.616   6.095   9.445  1.00  0.00     0.044 C 
ATOM      2  C   UNL     1       6.575   5.059   9.138  1.00  0.00    -0.047 A 
ATOM      3  C   UNL     1       5.596   5.310   8.169  1.00  0.00     0.016 A 
ATOM      4  C   UNL     1       4.637   4.332   7.850  1.00  0.00     0.038 A 
ATOM      5  C   UNL     1       4.672   3.077   8.493  1.00  0.00     0.076 A 
ATOM      6  C   UNL     1       5.672   2.824   9.461  1.00  0.00     0.127 A 
ATOM      7  C   UNL     1       6.616   3.811   9.769  1.00  0.00     0.050 A 
ATOM      8  C   UNL     1       3.675   2.042   8.114  1.00  0.00     0.201 C 
ATOM      9  O   UNL     1       3.899   0.834   8.394  1.00  0.00    -0.288 OA
ATOM     10  C   UNL     1       2.478   2.414   7.310  1.00  0.00     0.076 A 
ATOM     11  C   UNL     1       2.488   3.650   6.621  1.00  0.00     0.041 A 
ATOM     12  C   UNL     1       3.594   4.612   6.837  1.00  0.00     0.194 C 
ATOM     13  O   UNL     1       3.638   5.682   6.167  1.00  0.00    -0.289 OA
ATOM     14  C   UNL     1       1.443   3.967   5.737  1.00  0.00     0.059 A 
ATOM     15  C   UNL     1       0.383   3.083   5.544  1.00  0.00     0.120 A 
ATOM     16  C   UNL     1       0.341   1.884   6.256  1.00  0.00     0.093 A 
ATOM     17  C   UNL     1       1.355   1.554   7.162  1.00  0.00     0.131 A 
ENDROOT
BRANCH   6  18
ATOM     18  O   UNL     1       5.724   1.597  10.125  1.00  0.00    -0.507 OA
ATOM     19  H   UNL     1       5.823   1.539  11.132  1.00  0.00     0.293 HD
ENDBRANCH   6  18
BRANCH  17  20
ATOM     20  O   UNL     1       1.183   0.389   7.914  1.00  0.00    -0.507 OA
ATOM     21  H   UNL     1       0.427  -0.265   7.771  1.00  0.00     0.293 HD
ENDBRANCH  17  20
BRANCH  15  22
ATOM     22  O   UNL     1      -0.633   3.414   4.649  1.00  0.00    -0.508 OA
ATOM     23  H   UNL     1      -0.571   3.177   3.666  1.00  0.00     0.293 HD
ENDBRANCH  15  22
TORSDOF 3
ENDMDL
MODEL 6
REMARK VINA RESULT:    -6.120      1.754      6.424
REMARK INTER + INTRA:          -6.656
REMARK INTER:                  -6.656
REMARK INTRA:                   0.000
REMARK UNBOUND:                 0.000
REMARK SMILES Cc1cc(O)c2c(c1)C(=O)c1cc(O)cc(O)c1C2=O
REMARK SMILES IDX 1 1 2 2 8 3 7 4 6 5 4 6 3 7 19 8 20 9 18 10 11 11 9 12 10 13
REMARK SMILES IDX 12 14 13 15 15 16 16 17 5 18 17 20 14 22
REMARK H PARENT 5 19 17 21 14 23
REMARK Flexibility Score: inf
ROOT
ATOM      1  C   UNL     1       4.037   5.147   7.028  1.00  0.00     0.044 C 
ATOM      2  C   UNL     1       3.300   3.846   7.139  1.00  0.00    -0.047 A 
ATOM      3  C   UNL     1       3.878   2.763   7.811  1.00  0.00     0.016 A 
ATOM      4  C   UNL     1       3.181   1.549   7.950  1.00  0.00     0.038 A 
ATOM      5  C   UNL     1       1.876   1.425   7.427  1.00  0.00     0.076 A 
ATOM      6  C   UNL     1       1.291   2.527   6.761  1.00  0.00     0.127 A 
ATOM      7  C   UNL     1       2.002   3.726   6.629  1.00  0.00     0.050 A 
ATOM      8  C   UNL     1       1.139   0.149   7.618  1.00  0.00     0.201 C 
ATOM      9  O   UNL     1      -0.114   0.132   7.490  1.00  0.00    -0.288 OA
ATOM     10  C   UNL     1       1.862  -1.073   8.068  1.00  0.00     0.076 A 
ATOM     11  C   UNL     1       3.144  -0.921   8.648  1.00  0.00     0.041 A 
ATOM     12  C   UNL     1       3.808   0.404   8.647  1.00  0.00     0.194 C 
ATOM     13  O   UNL     1       4.919   0.552   9.227  1.00  0.00    -0.289 OA
ATOM     14  C   UNL     1       3.791  -2.031   9.216  1.00  0.00     0.059 A 
ATOM     15  C   UNL     1       3.190  -3.288   9.201  1.00  0.00     0.120 A 
ATOM     16  C   UNL     1       1.947  -3.456   8.589  1.00  0.00     0.093 A 
ATOM     17  C   UNL     1       1.293  -2.374   7.992  1.00  0.00     0.131 A 
ENDROOT
BRANCH   6  18
ATOM     18  O   UNL     1       0.007   2.431   6.221  1.00  0.00    -0.507 OA
ATOM     19  H   UNL     1      -0.288   3.007   5.441  1.00  0.00     0.293 HD
ENDBRANCH   6  18
BRANCH  17  20
ATOM     20  O   UNL     1       0.106  -2.647   7.306  1.00  0.00    -0.507 OA
ATOM     21  H   UNL     1       0.014  -2.600   6.301  1.00  0.00     0.293 HD
ENDBRANCH  17  20
BRANCH  15  22
ATOM     22  O   UNL     1       3.844  -4.370   9.787  1.00  0.00    -0.508 OA
ATOM     23  H   UNL     1       4.856  -4.420   9.826  1.00  0.00     0.293 HD
ENDBRANCH  15  22
TORSDOF 3
ENDMDL
MODEL 7
REMARK VINA RESULT:    -5.902      1.440      4.003
REMARK INTER + INTRA:          -6.420
REMARK INTER:                  -6.420
REMARK INTRA:                   0.000
REMARK UNBOUND:                 0.000
REMARK SMILES Cc1cc(O)c2c(c1)C(=O)c1cc(O)cc(O)c1C2=O
REMARK SMILES IDX 1 1 2 2 8 3 7 4 6 5 4 6 3 7 19 8 20 9 18 10 11 11 9 12 10 13
REMARK SMILES IDX 12 14 13 15 15 16 16 17 5 18 17 20 14 22
REMARK H PARENT 5 19 17 21 14 23
REMARK Flexibility Score: inf
ROOT
ATOM      1  C   UNL     1       1.005  -0.729   7.537  1.00  0.00     0.044 C 
ATOM      2  C   UNL     1       1.520   0.665   7.335  1.00  0.00    -0.047 A 
ATOM      3  C   UNL     1       2.724   1.064   7.928  1.00  0.00     0.016 A 
ATOM      4  C   UNL     1       3.233   2.358   7.716  1.00  0.00     0.038 A 
ATOM      5  C   UNL     1       2.538   3.259   6.882  1.00  0.00     0.076 A 
ATOM      6  C   UNL     1       1.330   2.846   6.274  1.00  0.00     0.127 A 
ATOM      7  C   UNL     1       0.836   1.555   6.499  1.00  0.00     0.050 A 
ATOM      8  C   UNL     1       3.112   4.608   6.638  1.00  0.00     0.201 C 
ATOM      9  O   UNL     1       2.720   5.277   5.645  1.00  0.00    -0.288 OA
ATOM     10  C   UNL     1       4.222   5.116   7.492  1.00  0.00     0.076 A 
ATOM     11  C   UNL     1       4.947   4.187   8.274  1.00  0.00     0.041 A 
ATOM     12  C   UNL     1       4.499   2.777   8.361  1.00  0.00     0.194 C 
ATOM     13  O   UNL     1       5.188   1.935   9.001  1.00  0.00    -0.289 OA
ATOM     14  C   UNL     1       6.090   4.605   8.976  1.00  0.00     0.059 A 
ATOM     15  C   UNL     1       6.509   5.933   8.925  1.00  0.00     0.120 A 
ATOM     16  C   UNL     1       5.771   6.865   8.194  1.00  0.00     0.093 A 
ATOM     17  C   UNL     1       4.615   6.482   7.507  1.00  0.00     0.131 A 
ENDROOT
BRANCH   6  18
ATOM     18  O   UNL     1       0.612   3.719   5.454  1.00  0.00    -0.507 OA
ATOM     19  H   UNL     1       0.677   4.725   5.560  1.00  0.00     0.293 HD
ENDBRANCH   6  18
BRANCH  17  20
ATOM     20  O   UNL     1       3.874   7.495   6.891  1.00  0.00    -0.507 OA
ATOM     21  H   UNL     1       4.047   8.481   7.030  1.00  0.00     0.293 HD
ENDBRANCH  17  20
BRANCH  15  22
ATOM     22  O   UNL     1       7.656   6.319   9.616  1.00  0.00    -0.508 OA
ATOM     23  H   UNL     1       8.525   6.513   9.133  1.00  0.00     0.293 HD
ENDBRANCH  15  22
TORSDOF 3
ENDMDL
MODEL 8
REMARK VINA RESULT:    -5.884      2.109      3.592
REMARK INTER + INTRA:          -6.400
REMARK INTER:                  -6.400
REMARK INTRA:                   0.000
REMARK UNBOUND:                 0.000
REMARK SMILES Cc1cc(O)c2c(c1)C(=O)c1cc(O)cc(O)c1C2=O
REMARK SMILES IDX 1 1 2 2 8 3 7 4 6 5 4 6 3 7 19 8 20 9 18 10 11 11 9 12 10 13
REMARK SMILES IDX 12 14 13 15 15 16 16 17 5 18 17 20 14 22
REMARK H PARENT 5 19 17 21 14 23
REMARK Flexibility Score: inf
ROOT
ATOM      1  C   UNL     1      -0.242   3.127   5.255  1.00  0.00     0.044 C 
ATOM      2  C   UNL     1       1.029   2.959   6.035  1.00  0.00    -0.047 A 
ATOM      3  C   UNL     1       1.953   4.007   6.110  1.00  0.00     0.016 A 
ATOM      4  C   UNL     1       3.131   3.873   6.867  1.00  0.00     0.038 A 
ATOM      5  C   UNL     1       3.376   2.678   7.578  1.00  0.00     0.076 A 
ATOM      6  C   UNL     1       2.432   1.628   7.510  1.00  0.00     0.127 A 
ATOM      7  C   UNL     1       1.267   1.778   6.748  1.00  0.00     0.050 A 
ATOM      8  C   UNL     1       4.607   2.569   8.404  1.00  0.00     0.201 C 
ATOM      9  O   UNL     1       4.670   1.692   9.307  1.00  0.00    -0.288 OA
ATOM     10  C   UNL     1       5.707   3.560   8.245  1.00  0.00     0.076 A 
ATOM     11  C   UNL     1       5.424   4.778   7.584  1.00  0.00     0.041 A 
ATOM     12  C   UNL     1       4.111   4.980   6.926  1.00  0.00     0.194 C 
ATOM     13  O   UNL     1       3.836   6.094   6.399  1.00  0.00    -0.289 OA
ATOM     14  C   UNL     1       6.393   5.794   7.544  1.00  0.00     0.059 A 
ATOM     15  C   UNL     1       7.642   5.609   8.136  1.00  0.00     0.120 A 
ATOM     16  C   UNL     1       7.945   4.392   8.748  1.00  0.00     0.093 A 
ATOM     17  C   UNL     1       7.009   3.354   8.779  1.00  0.00     0.131 A 
ENDROOT
BRANCH   6  18
ATOM     18  O   UNL     1       2.653   0.429   8.191  1.00  0.00    -0.507 OA
ATOM     19  H   UNL     1       1.973  -0.323   8.181  1.00  0.00     0.293 HD
ENDBRANCH   6  18
BRANCH  17  20
ATOM     20  O   UNL     1       7.429   2.132   9.313  1.00  0.00    -0.507 OA
ATOM     21  H   UNL     1       7.821   2.029  10.238  1.00  0.00     0.293 HD
ENDBRANCH  17  20
BRANCH  15  22
ATOM     22  O   UNL     1       8.580   6.638   8.098  1.00  0.00    -0.508 OA
ATOM     23  H   UNL     1       8.941   7.057   8.946  1.00  0.00     0.293 HD
ENDBRANCH  15  22
TORSDOF 3
ENDMDL
MODEL 9
REMARK VINA RESULT:    -5.678      1.742      5.664
REMARK INTER + INTRA:          -6.176
REMARK INTER:                  -6.176
REMARK INTRA:                   0.000
REMARK UNBOUND:                 0.000
REMARK SMILES Cc1cc(O)c2c(c1)C(=O)c1cc(O)cc(O)c1C2=O
REMARK SMILES IDX 1 1 2 2 8 3 7 4 6 5 4 6 3 7 19 8 20 9 18 10 11 11 9 12 10 13
REMARK SMILES IDX 12 14 13 15 15 16 16 17 5 18 17 20 14 22
REMARK H PARENT 5 19 17 21 14 23
REMARK Flexibility Score: inf
ROOT
ATOM      1  C   UNL     1       3.595   5.590   7.977  1.00  0.00     0.044 C 
ATOM      2  C   UNL     1       3.663   4.111   8.223  1.00  0.00    -0.047 A 
ATOM      3  C   UNL     1       2.643   3.273   7.759  1.00  0.00     0.016 A 
ATOM      4  C   UNL     1       2.714   1.882   7.954  1.00  0.00     0.038 A 
ATOM      5  C   UNL     1       3.834   1.320   8.604  1.00  0.00     0.076 A 
ATOM      6  C   UNL     1       4.868   2.171   9.058  1.00  0.00     0.127 A 
ATOM      7  C   UNL     1       4.779   3.554   8.858  1.00  0.00     0.050 A 
ATOM      8  C   UNL     1       3.911  -0.156   8.766  1.00  0.00     0.201 C 
ATOM      9  O   UNL     1       5.025  -0.695   9.003  1.00  0.00    -0.288 OA
ATOM     10  C   UNL     1       2.705  -0.998   8.536  1.00  0.00     0.076 A 
ATOM     11  C   UNL     1       1.617  -0.436   7.828  1.00  0.00     0.041 A 
ATOM     12  C   UNL     1       1.622   1.004   7.477  1.00  0.00     0.194 C 
ATOM     13  O   UNL     1       0.684   1.487   6.783  1.00  0.00    -0.289 OA
ATOM     14  C   UNL     1       0.526  -1.243   7.465  1.00  0.00     0.059 A 
ATOM     15  C   UNL     1       0.494  -2.593   7.810  1.00  0.00     0.120 A 
ATOM     16  C   UNL     1       1.542  -3.144   8.551  1.00  0.00     0.093 A 
ATOM     17  C   UNL     1       2.627  -2.357   8.948  1.00  0.00     0.131 A 
ENDROOT
BRANCH   6  18
ATOM     18  O   UNL     1       5.983   1.646   9.716  1.00  0.00    -0.507 OA
ATOM     19  H   UNL     1       6.925   1.934   9.480  1.00  0.00     0.293 HD
ENDBRANCH   6  18
BRANCH  17  20
ATOM     20  O   UNL     1       3.579  -2.956   9.778  1.00  0.00    -0.507 OA
ATOM     21  H   UNL     1       4.031  -2.482  10.548  1.00  0.00     0.293 HD
ENDBRANCH  17  20
BRANCH  15  22
ATOM     22  O   UNL     1      -0.591  -3.377   7.424  1.00  0.00    -0.508 OA
ATOM     23  H   UNL     1      -0.751  -3.618   6.453  1.00  0.00     0.293 HD
ENDBRANCH  15  22
TORSDOF 3
ENDMDL
