MODEL 1
REMARK VINA RESULT:    62.882      0.000      0.000
REMARK INTER + INTRA:          89.404
REMARK INTER:                  88.614
REMARK INTRA:                   0.790
REMARK UNBOUND:                 0.790
REMARK SMILES COc1c(O[C@@H]2O[C@@H](C(=O)[O-])[C@@H](O)[C@@H](O)[C@H]2O)cc(O)c2c(=O)cc(-c3ccccc3)oc12
REMARK SMILES IDX 5 1 6 2 8 3 12 4 7 5 14 6 16 7 9 8 10 9 11 10 13 11 15 13
REMARK SMILES IDX 17 15 4 17 3 18 18 19 33 20 19 21 21 22 32 23 22 24 25 25
REMARK SMILES IDX 24 26 23 27 2 28 1 29 20 30 26 32 27 33 31 34 28 35 30 36
REMARK SMILES IDX 29 37
REMARK H PARENT 13 12 15 14 17 16 20 31
REMARK Flexibility Score: inf
ROOT
ATOM      1  O   UNL     1     -22.357  -1.977  -6.408  1.00  0.00    -0.458 OA
ENDROOT
BRANCH   1   2
ATOM      2  C   UNL     1     -22.854  -3.197  -5.836  1.00  0.00     0.339 C 
ATOM      3  C   UNL     1     -20.960  -4.442  -6.459  1.00  0.00     0.199 C 
ATOM      4  C   UNL     1     -21.744  -5.356  -7.424  1.00  0.00     0.180 C 
ATOM      5  O   UNL     1     -21.781  -4.008  -5.384  1.00  0.00    -0.328 OA
ATOM      6  C   UNL     1     -22.950  -4.582  -7.969  1.00  0.00     0.181 C 
ATOM      7  C   UNL     1     -23.774  -3.970  -6.816  1.00  0.00     0.214 C 
BRANCH   3   8
ATOM      8  C   UNL     1     -19.759  -5.158  -5.912  1.00  0.00     0.073 C 
ATOM      9  O   UNL     1     -19.882  -6.284  -5.356  1.00  0.00    -0.547 OA
ATOM     10  O   UNL     1     -18.493  -4.605  -6.070  1.00  0.00    -0.547 OA
ENDBRANCH   3   8
BRANCH   4  11
ATOM     11  O   UNL     1     -22.183  -6.517  -6.760  1.00  0.00    -0.387 OA
ATOM     12  H   UNL     1     -22.203  -7.247  -7.435  1.00  0.00     0.211 HD
ENDBRANCH   4  11
BRANCH   6  13
ATOM     13  O   UNL     1     -23.746  -5.436  -8.751  1.00  0.00    -0.387 OA
ATOM     14  H   UNL     1     -24.084  -6.146  -8.143  1.00  0.00     0.211 HD
ENDBRANCH   6  13
BRANCH   7  15
ATOM     15  O   UNL     1     -24.453  -4.976  -6.103  1.00  0.00    -0.384 OA
ATOM     16  H   UNL     1     -24.376  -4.751  -5.139  1.00  0.00     0.211 HD
ENDBRANCH   7  15
ENDBRANCH   1   2
BRANCH   1  17
ATOM     17  C   UNL     1     -22.630  -1.493  -7.702  1.00  0.00     0.172 A 
ATOM     18  C   UNL     1     -21.570  -1.013  -8.507  1.00  0.00     0.205 A 
ATOM     19  C   UNL     1     -23.936  -1.498  -8.231  1.00  0.00     0.097 A 
ATOM     20  C   UNL     1     -21.813  -0.647  -9.839  1.00  0.00     0.188 A 
ATOM     21  C   UNL     1     -24.186  -1.108  -9.552  1.00  0.00     0.134 A 
ATOM     22  C   UNL     1     -23.119  -0.693 -10.375  1.00  0.00     0.111 A 
ATOM     23  O   UNL     1     -20.793  -0.240 -10.591  1.00  0.00    -0.452 OA
ATOM     24  C   UNL     1     -23.289  -0.306 -11.719  1.00  0.00     0.197 A 
ATOM     25  C   UNL     1     -20.918   0.126 -11.863  1.00  0.00     0.138 A 
ATOM     26  C   UNL     1     -22.183   0.104 -12.465  1.00  0.00     0.100 A 
ATOM     27  O   UNL     1     -24.424  -0.319 -12.268  1.00  0.00    -0.289 OA
BRANCH  18  28
ATOM     28  O   UNL     1     -20.251  -0.882  -8.038  1.00  0.00    -0.490 OA
ATOM     29  C   UNL     1     -19.782  -1.374  -6.786  1.00  0.00     0.278 C 
ENDBRANCH  18  28
BRANCH  21  30
ATOM     30  O   UNL     1     -25.494  -1.144 -10.036  1.00  0.00    -0.507 OA
ATOM     31  H   UNL     1     -25.993  -0.302 -10.297  1.00  0.00     0.293 HD
ENDBRANCH  21  30
BRANCH  25  32
ATOM     32  C   UNL     1     -19.708   0.558 -12.605  1.00  0.00     0.017 A 
ATOM     33  C   UNL     1     -18.489  -0.138 -12.495  1.00  0.00     0.012 A 
ATOM     34  C   UNL     1     -19.762   1.717 -13.403  1.00  0.00     0.012 A 
ATOM     35  C   UNL     1     -17.362   0.309 -13.189  1.00  0.00     0.001 A 
ATOM     36  C   UNL     1     -18.630   2.155 -14.095  1.00  0.00     0.001 A 
ATOM     37  C   UNL     1     -17.430   1.449 -13.990  1.00  0.00     0.000 A 
ENDBRANCH  25  32
ENDBRANCH   1  17
TORSDOF 9
ENDMDL
MODEL 2
REMARK VINA RESULT:    64.254      2.849      7.467
REMARK INTER + INTRA:          91.338
REMARK INTER:                  89.200
REMARK INTRA:                   2.138
REMARK UNBOUND:                 0.790
REMARK SMILES COc1c(O[C@@H]2O[C@@H](C(=O)[O-])[C@@H](O)[C@@H](O)[C@H]2O)cc(O)c2c(=O)cc(-c3ccccc3)oc12
REMARK SMILES IDX 5 1 6 2 8 3 12 4 7 5 14 6 16 7 9 8 10 9 11 10 13 11 15 13
REMARK SMILES IDX 17 15 4 17 3 18 18 19 33 20 19 21 21 22 32 23 22 24 25 25
REMARK SMILES IDX 24 26 23 27 2 28 1 29 20 30 26 32 27 33 31 34 28 35 30 36
REMARK SMILES IDX 29 37
REMARK H PARENT 13 12 15 14 17 16 20 31
REMARK Flexibility Score: inf
ROOT
ATOM      1  O   UNL     1     -20.817   0.497 -14.178  1.00  0.00    -0.458 OA
ENDROOT
BRANCH   1   2
ATOM      2  C   UNL     1     -19.900   1.589 -14.009  1.00  0.00     0.339 C 
ATOM      3  C   UNL     1     -18.262   0.257 -12.975  1.00  0.00     0.199 C 
ATOM      4  C   UNL     1     -18.357   0.998 -11.625  1.00  0.00     0.180 C 
ATOM      5  O   UNL     1     -18.559   1.126 -14.058  1.00  0.00    -0.328 OA
ATOM      6  C   UNL     1     -19.773   1.562 -11.467  1.00  0.00     0.181 C 
ATOM      7  C   UNL     1     -20.175   2.388 -12.708  1.00  0.00     0.214 C 
BRANCH   3   8
ATOM      8  C   UNL     1     -16.892  -0.325 -13.163  1.00  0.00     0.073 C 
ATOM      9  O   UNL     1     -15.868   0.312 -12.793  1.00  0.00    -0.547 OA
ATOM     10  O   UNL     1     -16.750  -1.602 -13.697  1.00  0.00    -0.547 OA
ENDBRANCH   3   8
BRANCH   4  11
ATOM     11  O   UNL     1     -17.417   2.045 -11.568  1.00  0.00    -0.387 OA
ATOM     12  H   UNL     1     -17.271   2.355 -12.502  1.00  0.00     0.211 HD
ENDBRANCH   4  11
BRANCH   6  13
ATOM     13  O   UNL     1     -19.843   2.347 -10.304  1.00  0.00    -0.387 OA
ATOM     14  H   UNL     1     -19.732   1.728  -9.534  1.00  0.00     0.211 HD
ENDBRANCH   6  13
BRANCH   7  15
ATOM     15  O   UNL     1     -19.453   3.595 -12.756  1.00  0.00    -0.384 OA
ATOM     16  H   UNL     1     -19.589   4.049 -11.884  1.00  0.00     0.211 HD
ENDBRANCH   7  15
ENDBRANCH   1   2
BRANCH   1  17
ATOM     17  C   UNL     1     -21.838   0.122 -13.284  1.00  0.00     0.172 A 
ATOM     18  C   UNL     1     -21.515  -0.622 -12.125  1.00  0.00     0.205 A 
ATOM     19  C   UNL     1     -23.180   0.493 -13.501  1.00  0.00     0.097 A 
ATOM     20  C   UNL     1     -22.504  -0.892 -11.168  1.00  0.00     0.188 A 
ATOM     21  C   UNL     1     -24.175   0.202 -12.561  1.00  0.00     0.134 A 
ATOM     22  C   UNL     1     -23.840  -0.481 -11.373  1.00  0.00     0.111 A 
ATOM     23  O   UNL     1     -22.168  -1.555 -10.064  1.00  0.00    -0.452 OA
ATOM     24  C   UNL     1     -24.782  -0.791 -10.372  1.00  0.00     0.197 A 
ATOM     25  C   UNL     1     -23.029  -1.858  -9.098  1.00  0.00     0.138 A 
ATOM     26  C   UNL     1     -24.373  -1.481  -9.230  1.00  0.00     0.100 A 
ATOM     27  O   UNL     1     -25.992  -0.459 -10.483  1.00  0.00    -0.289 OA
BRANCH  18  28
ATOM     28  O   UNL     1     -20.225  -1.117 -11.868  1.00  0.00    -0.490 OA
ATOM     29  C   UNL     1     -19.897  -2.496 -11.723  1.00  0.00     0.278 C 
ENDBRANCH  18  28
BRANCH  21  30
ATOM     30  O   UNL     1     -25.488   0.603 -12.812  1.00  0.00    -0.507 OA
ATOM     31  H   UNL     1     -25.964   0.370 -13.675  1.00  0.00     0.293 HD
ENDBRANCH  21  30
BRANCH  25  32
ATOM     32  C   UNL     1     -22.540  -2.598  -7.910  1.00  0.00     0.017 A 
ATOM     33  C   UNL     1     -21.467  -2.119  -7.134  1.00  0.00     0.012 A 
ATOM     34  C   UNL     1     -23.127  -3.833  -7.572  1.00  0.00     0.012 A 
ATOM     35  C   UNL     1     -21.014  -2.852  -6.034  1.00  0.00     0.001 A 
ATOM     36  C   UNL     1     -22.670  -4.558  -6.469  1.00  0.00     0.001 A 
ATOM     37  C   UNL     1     -21.614  -4.067  -5.698  1.00  0.00     0.000 A 
ENDBRANCH  25  32
ENDBRANCH   1  17
TORSDOF 9
ENDMDL
MODEL 3
REMARK VINA RESULT:    64.274      2.321      6.856
REMARK INTER + INTRA:          91.366
REMARK INTER:                  92.299
REMARK INTRA:                  -0.932
REMARK UNBOUND:                 0.790
REMARK SMILES COc1c(O[C@@H]2O[C@@H](C(=O)[O-])[C@@H](O)[C@@H](O)[C@H]2O)cc(O)c2c(=O)cc(-c3ccccc3)oc12
REMARK SMILES IDX 5 1 6 2 8 3 12 4 7 5 14 6 16 7 9 8 10 9 11 10 13 11 15 13
REMARK SMILES IDX 17 15 4 17 3 18 18 19 33 20 19 21 21 22 32 23 22 24 25 25
REMARK SMILES IDX 24 26 23 27 2 28 1 29 20 30 26 32 27 33 31 34 28 35 30 36
REMARK SMILES IDX 29 37
REMARK H PARENT 13 12 15 14 17 16 20 31
REMARK Flexibility Score: inf
ROOT
ATOM      1  O   UNL     1     -24.976  -1.655  -9.544  1.00  0.00    -0.458 OA
ENDROOT
BRANCH   1   2
ATOM      2  C   UNL     1     -25.374  -1.875 -10.906  1.00  0.00     0.339 C 
ATOM      3  C   UNL     1     -23.705  -0.471 -11.783  1.00  0.00     0.199 C 
ATOM      4  C   UNL     1     -24.712   0.550 -12.353  1.00  0.00     0.180 C 
ATOM      5  O   UNL     1     -24.254  -1.780 -11.773  1.00  0.00    -0.328 OA
ATOM      6  C   UNL     1     -25.983   0.524 -11.496  1.00  0.00     0.181 C 
ATOM      7  C   UNL     1     -26.512  -0.919 -11.346  1.00  0.00     0.214 C 
BRANCH   3   8
ATOM      8  C   UNL     1     -22.437  -0.467 -12.586  1.00  0.00     0.073 C 
ATOM      9  O   UNL     1     -21.315  -0.403 -12.014  1.00  0.00    -0.547 OA
ATOM     10  O   UNL     1     -22.495  -0.592 -13.970  1.00  0.00    -0.547 OA
ENDBRANCH   3   8
BRANCH   4  11
ATOM     11  O   UNL     1     -25.030   0.238 -13.689  1.00  0.00    -0.387 OA
ATOM     12  H   UNL     1     -24.282  -0.312 -14.045  1.00  0.00     0.211 HD
ENDBRANCH   4  11
BRANCH   6  13
ATOM     13  O   UNL     1     -26.959   1.354 -12.073  1.00  0.00    -0.387 OA
ATOM     14  H   UNL     1     -27.819   0.855 -12.030  1.00  0.00     0.211 HD
ENDBRANCH   6  13
BRANCH   7  15
ATOM     15  O   UNL     1     -27.048  -1.380 -12.562  1.00  0.00    -0.384 OA
ATOM     16  H   UNL     1     -26.919  -2.365 -12.581  1.00  0.00     0.211 HD
ENDBRANCH   7  15
ENDBRANCH   1   2
BRANCH   1  17
ATOM     17  C   UNL     1     -24.012  -2.391  -8.830  1.00  0.00     0.172 A 
ATOM     18  C   UNL     1     -22.852  -1.740  -8.346  1.00  0.00     0.205 A 
ATOM     19  C   UNL     1     -24.182  -3.763  -8.559  1.00  0.00     0.097 A 
ATOM     20  C   UNL     1     -21.949  -2.435  -7.529  1.00  0.00     0.188 A 
ATOM     21  C   UNL     1     -23.269  -4.467  -7.765  1.00  0.00     0.134 A 
ATOM     22  C   UNL     1     -22.149  -3.800  -7.228  1.00  0.00     0.111 A 
ATOM     23  O   UNL     1     -20.888  -1.790  -7.049  1.00  0.00    -0.452 OA
ATOM     24  C   UNL     1     -21.198  -4.435  -6.404  1.00  0.00     0.197 A 
ATOM     25  C   UNL     1     -19.976  -2.357  -6.265  1.00  0.00     0.138 A 
ATOM     26  C   UNL     1     -20.109  -3.710  -5.920  1.00  0.00     0.100 A 
ATOM     27  O   UNL     1     -21.308  -5.652  -6.092  1.00  0.00    -0.289 OA
BRANCH  18  28
ATOM     28  O   UNL     1     -22.546  -0.401  -8.643  1.00  0.00    -0.490 OA
ATOM     29  C   UNL     1     -23.469   0.682  -8.555  1.00  0.00     0.278 C 
ENDBRANCH  18  28
BRANCH  21  30
ATOM     30  O   UNL     1     -23.490  -5.821  -7.511  1.00  0.00    -0.507 OA
ATOM     31  H   UNL     1     -23.044  -6.549  -8.057  1.00  0.00     0.293 HD
ENDBRANCH  21  30
BRANCH  25  32
ATOM     32  C   UNL     1     -18.836  -1.538  -5.786  1.00  0.00     0.017 A 
ATOM     33  C   UNL     1     -18.116  -1.885  -4.627  1.00  0.00     0.012 A 
ATOM     34  C   UNL     1     -18.491  -0.360  -6.475  1.00  0.00     0.012 A 
ATOM     35  C   UNL     1     -17.061  -1.080  -4.189  1.00  0.00     0.001 A 
ATOM     36  C   UNL     1     -17.434   0.438  -6.032  1.00  0.00     0.001 A 
ATOM     37  C   UNL     1     -16.717   0.077  -4.889  1.00  0.00     0.000 A 
ENDBRANCH  25  32
ENDBRANCH   1  17
TORSDOF 9
ENDMDL
