MODEL 1
REMARK VINA RESULT:    -3.210      0.000      0.000
REMARK INTER + INTRA:          -9.201
REMARK INTER:                  -6.212
REMARK INTRA:                  -2.989
REMARK UNBOUND:                -2.989
REMARK SMILES CCCCCCCCCCCCCCCCCC(=O)[O-]
REMARK SMILES IDX 10 1 11 2 12 3 13 4 14 5 15 6 16 7 17 8 18 9 19 10 20 11
REMARK SMILES IDX 9 12 8 13 7 14 6 15 5 16 4 17 3 18 2 19 1 20
REMARK H PARENT
REMARK Flexibility Score: inf
ROOT
ATOM      1  C   UNL     1       4.394 108.473 178.751  1.00  0.00     0.000 C 
ENDROOT
BRANCH   1   2
ATOM      2  C   UNL     1       5.411 107.321 178.704  1.00  0.00     0.000 C 
BRANCH   2   3
ATOM      3  C   UNL     1       5.653 106.686 180.083  1.00  0.00     0.000 C 
BRANCH   3   4
ATOM      4  C   UNL     1       4.382 106.000 180.600  1.00  0.00     0.000 C 
BRANCH   4   5
ATOM      5  C   UNL     1       3.825 106.730 181.832  1.00  0.00     0.000 C 
BRANCH   5   6
ATOM      6  C   UNL     1       4.930 107.368 182.689  1.00  0.00     0.000 C 
BRANCH   6   7
ATOM      7  C   UNL     1       4.707 108.873 182.917  1.00  0.00     0.006 C 
BRANCH   7   8
ATOM      8  C   UNL     1       3.445 109.385 182.212  1.00  0.00     0.053 C 
BRANCH   8   9
ATOM      9  C   UNL     1       2.539 110.112 183.158  1.00  0.00     0.041 C 
ATOM     10  O   UNL     1       2.856 111.253 183.589  1.00  0.00    -0.550 OA
ATOM     11  O   UNL     1       1.361 109.516 183.591  1.00  0.00    -0.550 OA
ENDBRANCH   8   9
ENDBRANCH   7   8
ENDBRANCH   6   7
ENDBRANCH   5   6
ENDBRANCH   4   5
ENDBRANCH   3   4
ENDBRANCH   2   3
ENDBRANCH   1   2
BRANCH   1  12
ATOM     12  C   UNL     1       3.623 108.634 177.428  1.00  0.00     0.000 C 
BRANCH  12  13
ATOM     13  C   UNL     1       2.098 108.635 177.629  1.00  0.00    -0.000 C 
BRANCH  13  14
ATOM     14  C   UNL     1       1.691 108.229 179.057  1.00  0.00    -0.000 C 
BRANCH  14  15
ATOM     15  C   UNL     1       0.934 106.890 179.094  1.00  0.00    -0.000 C 
BRANCH  15  16
ATOM     16  C   UNL     1       0.383 106.485 177.716  1.00  0.00    -0.000 C 
BRANCH  16  17
ATOM     17  C   UNL     1       1.073 105.233 177.142  1.00  0.00    -0.000 C 
BRANCH  17  18
ATOM     18  C   UNL     1       2.369 104.808 177.862  1.00  0.00    -0.000 C 
BRANCH  18  19
ATOM     19  C   UNL     1       3.624 104.769 176.973  1.00  0.00    -0.003 C 
ATOM     20  C   UNL     1       4.643 103.727 177.428  1.00  0.00     0.004 C 
ENDBRANCH  18  19
ENDBRANCH  17  18
ENDBRANCH  16  17
ENDBRANCH  15  16
ENDBRANCH  14  15
ENDBRANCH  13  14
ENDBRANCH  12  13
ENDBRANCH   1  12
TORSDOF 16
ENDMDL
MODEL 2
REMARK VINA RESULT:    -3.087      2.765      5.206
REMARK INTER + INTRA:          -8.963
REMARK INTER:                  -6.309
REMARK INTRA:                  -2.653
REMARK UNBOUND:                -2.989
REMARK SMILES CCCCCCCCCCCCCCCCCC(=O)[O-]
REMARK SMILES IDX 10 1 11 2 12 3 13 4 14 5 15 6 16 7 17 8 18 9 19 10 20 11
REMARK SMILES IDX 9 12 8 13 7 14 6 15 5 16 4 17 3 18 2 19 1 20
REMARK H PARENT
REMARK Flexibility Score: inf
ROOT
ATOM      1  C   UNL     1       4.998 105.306 176.555  1.00  0.00     0.000 C 
ENDROOT
BRANCH   1   2
ATOM      2  C   UNL     1       3.676 104.729 176.021  1.00  0.00     0.000 C 
BRANCH   2   3
ATOM      3  C   UNL     1       2.445 105.497 176.527  1.00  0.00     0.000 C 
BRANCH   3   4
ATOM      4  C   UNL     1       1.756 104.737 177.668  1.00  0.00     0.000 C 
BRANCH   4   5
ATOM      5  C   UNL     1       1.828 105.533 178.980  1.00  0.00     0.000 C 
BRANCH   5   6
ATOM      6  C   UNL     1       2.993 105.087 179.877  1.00  0.00     0.000 C 
BRANCH   6   7
ATOM      7  C   UNL     1       3.954 106.239 180.217  1.00  0.00     0.006 C 
BRANCH   7   8
ATOM      8  C   UNL     1       3.709 106.803 181.622  1.00  0.00     0.053 C 
BRANCH   8   9
ATOM      9  C   UNL     1       3.279 108.238 181.576  1.00  0.00     0.041 C 
ATOM     10  O   UNL     1       3.983 109.090 180.973  1.00  0.00    -0.550 OA
ATOM     11  O   UNL     1       2.120 108.639 182.228  1.00  0.00    -0.550 OA
ENDBRANCH   8   9
ENDBRANCH   7   8
ENDBRANCH   6   7
ENDBRANCH   5   6
ENDBRANCH   4   5
ENDBRANCH   3   4
ENDBRANCH   2   3
ENDBRANCH   1   2
BRANCH   1  12
ATOM     12  C   UNL     1       5.830 104.263 177.323  1.00  0.00     0.000 C 
BRANCH  12  13
ATOM     13  C   UNL     1       5.434 102.819 176.973  1.00  0.00    -0.000 C 
BRANCH  13  14
ATOM     14  C   UNL     1       6.625 101.985 176.467  1.00  0.00    -0.000 C 
BRANCH  14  15
ATOM     15  C   UNL     1       6.341 101.315 175.113  1.00  0.00    -0.000 C 
BRANCH  15  16
ATOM     16  C   UNL     1       4.919 101.602 174.599  1.00  0.00    -0.000 C 
BRANCH  16  17
ATOM     17  C   UNL     1       4.911 102.392 173.277  1.00  0.00    -0.000 C 
BRANCH  17  18
ATOM     18  C   UNL     1       6.251 103.058 172.900  1.00  0.00    -0.000 C 
BRANCH  18  19
ATOM     19  C   UNL     1       6.371 104.542 173.287  1.00  0.00    -0.003 C 
ATOM     20  C   UNL     1       7.679 104.866 174.006  1.00  0.00     0.004 C 
ENDBRANCH  18  19
ENDBRANCH  17  18
ENDBRANCH  16  17
ENDBRANCH  15  16
ENDBRANCH  14  15
ENDBRANCH  13  14
ENDBRANCH  12  13
ENDBRANCH   1  12
TORSDOF 16
ENDMDL
MODEL 3
REMARK VINA RESULT:    -3.056      3.160      7.142
REMARK INTER + INTRA:          -8.903
REMARK INTER:                  -6.503
REMARK INTRA:                  -2.401
REMARK UNBOUND:                -2.989
REMARK SMILES CCCCCCCCCCCCCCCCCC(=O)[O-]
REMARK SMILES IDX 10 1 11 2 12 3 13 4 14 5 15 6 16 7 17 8 18 9 19 10 20 11
REMARK SMILES IDX 9 12 8 13 7 14 6 15 5 16 4 17 3 18 2 19 1 20
REMARK H PARENT
REMARK Flexibility Score: inf
ROOT
ATOM      1  C   UNL     1       4.247 106.930 182.169  1.00  0.00     0.000 C 
ENDROOT
BRANCH   1   2
ATOM      2  C   UNL     1       3.204 107.898 182.751  1.00  0.00     0.000 C 
BRANCH   2   3
ATOM      3  C   UNL     1       2.513 108.745 181.670  1.00  0.00     0.000 C 
BRANCH   3   4
ATOM      4  C   UNL     1       2.604 108.064 180.298  1.00  0.00     0.000 C 
BRANCH   4   5
ATOM      5  C   UNL     1       1.213 107.931 179.658  1.00  0.00     0.000 C 
BRANCH   5   6
ATOM      6  C   UNL     1       0.968 106.536 179.063  1.00  0.00     0.000 C 
BRANCH   6   7
ATOM      7  C   UNL     1       2.072 105.531 179.436  1.00  0.00     0.006 C 
BRANCH   7   8
ATOM      8  C   UNL     1       2.543 104.712 178.226  1.00  0.00     0.053 C 
BRANCH   8   9
ATOM      9  C   UNL     1       4.026 104.500 178.246  1.00  0.00     0.041 C 
ATOM     10  O   UNL     1       4.545 103.591 177.545  1.00  0.00    -0.550 OA
ATOM     11  O   UNL     1       4.831 105.283 179.063  1.00  0.00    -0.550 OA
ENDBRANCH   8   9
ENDBRANCH   7   8
ENDBRANCH   6   7
ENDBRANCH   5   6
ENDBRANCH   4   5
ENDBRANCH   3   4
ENDBRANCH   2   3
ENDBRANCH   1   2
BRANCH   1  12
ATOM     12  C   UNL     1       5.546 106.896 182.996  1.00  0.00     0.000 C 
BRANCH  12  13
ATOM     13  C   UNL     1       5.620 108.036 184.026  1.00  0.00    -0.000 C 
BRANCH  13  14
ATOM     14  C   UNL     1       6.901 108.878 183.885  1.00  0.00    -0.000 C 
BRANCH  14  15
ATOM     15  C   UNL     1       7.125 109.371 182.446  1.00  0.00    -0.000 C 
BRANCH  15  16
ATOM     16  C   UNL     1       6.751 110.853 182.265  1.00  0.00    -0.000 C 
BRANCH  16  17
ATOM     17  C   UNL     1       5.457 111.047 181.453  1.00  0.00    -0.000 C 
BRANCH  17  18
ATOM     18  C   UNL     1       4.405 111.970 182.101  1.00  0.00    -0.000 C 
BRANCH  18  19
ATOM     19  C   UNL     1       3.975 111.568 183.522  1.00  0.00    -0.003 C 
ATOM     20  C   UNL     1       4.331 112.619 184.572  1.00  0.00     0.004 C 
ENDBRANCH  18  19
ENDBRANCH  17  18
ENDBRANCH  16  17
ENDBRANCH  15  16
ENDBRANCH  14  15
ENDBRANCH  13  14
ENDBRANCH  12  13
ENDBRANCH   1  12
TORSDOF 16
ENDMDL
MODEL 4
REMARK VINA RESULT:    -2.999      3.540      6.652
REMARK INTER + INTRA:          -8.793
REMARK INTER:                  -5.761
REMARK INTRA:                  -3.032
REMARK UNBOUND:                -2.989
REMARK SMILES CCCCCCCCCCCCCCCCCC(=O)[O-]
REMARK SMILES IDX 10 1 11 2 12 3 13 4 14 5 15 6 16 7 17 8 18 9 19 10 20 11
REMARK SMILES IDX 9 12 8 13 7 14 6 15 5 16 4 17 3 18 2 19 1 20
REMARK H PARENT
REMARK Flexibility Score: inf
ROOT
ATOM      1  C   UNL     1       3.693 108.476 178.026  1.00  0.00     0.000 C 
ENDROOT
BRANCH   1   2
ATOM      2  C   UNL     1       2.167 108.589 178.182  1.00  0.00     0.000 C 
BRANCH   2   3
ATOM      3  C   UNL     1       1.654 107.945 179.480  1.00  0.00     0.000 C 
BRANCH   3   4
ATOM      4  C   UNL     1       0.855 106.669 179.180  1.00  0.00     0.000 C 
BRANCH   4   5
ATOM      5  C   UNL     1       1.762 105.430 179.225  1.00  0.00     0.000 C 
BRANCH   5   6
ATOM      6  C   UNL     1       1.976 104.805 177.837  1.00  0.00     0.000 C 
BRANCH   6   7
ATOM      7  C   UNL     1       3.464 104.647 177.482  1.00  0.00     0.006 C 
BRANCH   7   8
ATOM      8  C   UNL     1       3.766 105.089 176.044  1.00  0.00     0.053 C 
BRANCH   8   9
ATOM      9  C   UNL     1       4.973 104.393 175.493  1.00  0.00     0.041 C 
ATOM     10  O   UNL     1       4.839 103.446 174.673  1.00  0.00    -0.550 OA
ATOM     11  O   UNL     1       6.244 104.766 175.912  1.00  0.00    -0.550 OA
ENDBRANCH   8   9
ENDBRANCH   7   8
ENDBRANCH   6   7
ENDBRANCH   5   6
ENDBRANCH   4   5
ENDBRANCH   3   4
ENDBRANCH   2   3
ENDBRANCH   1   2
BRANCH   1  12
ATOM     12  C   UNL     1       4.403 108.180 179.359  1.00  0.00     0.000 C 
BRANCH  12  13
ATOM     13  C   UNL     1       5.526 107.140 179.211  1.00  0.00    -0.000 C 
BRANCH  13  14
ATOM     14  C   UNL     1       5.435 106.019 180.262  1.00  0.00    -0.000 C 
BRANCH  14  15
ATOM     15  C   UNL     1       4.498 106.380 181.428  1.00  0.00    -0.000 C 
BRANCH  15  16
ATOM     16  C   UNL     1       5.266 106.795 182.695  1.00  0.00    -0.000 C 
BRANCH  16  17
ATOM     17  C   UNL     1       4.713 108.082 183.334  1.00  0.00    -0.000 C 
BRANCH  17  18
ATOM     18  C   UNL     1       3.211 108.340 183.096  1.00  0.00    -0.000 C 
BRANCH  18  19
ATOM     19  C   UNL     1       2.868 109.742 182.565  1.00  0.00    -0.003 C 
ATOM     20  C   UNL     1       4.103 110.539 182.148  1.00  0.00     0.004 C 
ENDBRANCH  18  19
ENDBRANCH  17  18
ENDBRANCH  16  17
ENDBRANCH  15  16
ENDBRANCH  14  15
ENDBRANCH  13  14
ENDBRANCH  12  13
ENDBRANCH   1  12
TORSDOF 16
ENDMDL
MODEL 5
REMARK VINA RESULT:    -2.983      2.078      3.433
REMARK INTER + INTRA:          -8.761
REMARK INTER:                  -6.540
REMARK INTRA:                  -2.221
REMARK UNBOUND:                -2.989
REMARK SMILES CCCCCCCCCCCCCCCCCC(=O)[O-]
REMARK SMILES IDX 10 1 11 2 12 3 13 4 14 5 15 6 16 7 17 8 18 9 19 10 20 11
REMARK SMILES IDX 9 12 8 13 7 14 6 15 5 16 4 17 3 18 2 19 1 20
REMARK H PARENT
REMARK Flexibility Score: inf
ROOT
ATOM      1  C   UNL     1       4.211 107.079 182.347  1.00  0.00     0.000 C 
ENDROOT
BRANCH   1   2
ATOM      2  C   UNL     1       5.523 106.787 183.094  1.00  0.00     0.000 C 
BRANCH   2   3
ATOM      3  C   UNL     1       6.755 107.355 182.374  1.00  0.00     0.000 C 
BRANCH   3   4
ATOM      4  C   UNL     1       7.041 108.793 182.828  1.00  0.00     0.000 C 
BRANCH   4   5
ATOM      5  C   UNL     1       6.733 108.968 184.323  1.00  0.00     0.000 C 
BRANCH   5   6
ATOM      6  C   UNL     1       6.252 110.387 184.664  1.00  0.00     0.000 C 
BRANCH   6   7
ATOM      7  C   UNL     1       5.704 111.137 183.437  1.00  0.00     0.006 C 
BRANCH   7   8
ATOM      8  C   UNL     1       4.264 111.622 183.651  1.00  0.00     0.053 C 
BRANCH   8   9
ATOM      9  C   UNL     1       4.225 112.950 184.345  1.00  0.00     0.041 C 
ATOM     10  O   UNL     1       5.235 113.702 184.331  1.00  0.00    -0.550 OA
ATOM     11  O   UNL     1       3.085 113.341 185.036  1.00  0.00    -0.550 OA
ENDBRANCH   8   9
ENDBRANCH   7   8
ENDBRANCH   6   7
ENDBRANCH   5   6
ENDBRANCH   4   5
ENDBRANCH   3   4
ENDBRANCH   2   3
ENDBRANCH   1   2
BRANCH   1  12
ATOM     12  C   UNL     1       3.311 108.075 183.101  1.00  0.00     0.000 C 
BRANCH  12  13
ATOM     13  C   UNL     1       2.425 108.903 182.155  1.00  0.00    -0.000 C 
BRANCH  13  14
ATOM     14  C   UNL     1       2.616 108.517 180.678  1.00  0.00    -0.000 C 
BRANCH  14  15
ATOM     15  C   UNL     1       1.302 108.076 180.011  1.00  0.00    -0.000 C 
BRANCH  15  16
ATOM     16  C   UNL     1       1.413 108.005 178.478  1.00  0.00    -0.000 C 
BRANCH  16  17
ATOM     17  C   UNL     1       2.022 106.679 177.984  1.00  0.00    -0.000 C 
BRANCH  17  18
ATOM     18  C   UNL     1       1.764 105.459 178.892  1.00  0.00    -0.000 C 
BRANCH  18  19
ATOM     19  C   UNL     1       3.012 104.896 179.593  1.00  0.00    -0.003 C 
ATOM     20  C   UNL     1       4.315 105.476 179.046  1.00  0.00     0.004 C 
ENDBRANCH  18  19
ENDBRANCH  17  18
ENDBRANCH  16  17
ENDBRANCH  15  16
ENDBRANCH  14  15
ENDBRANCH  13  14
ENDBRANCH  12  13
ENDBRANCH   1  12
TORSDOF 16
ENDMDL
MODEL 6
REMARK VINA RESULT:    -2.978      3.403      6.909
REMARK INTER + INTRA:          -8.753
REMARK INTER:                  -6.119
REMARK INTRA:                  -2.634
REMARK UNBOUND:                -2.989
REMARK SMILES CCCCCCCCCCCCCCCCCC(=O)[O-]
REMARK SMILES IDX 10 1 11 2 12 3 13 4 14 5 15 6 16 7 17 8 18 9 19 10 20 11
REMARK SMILES IDX 9 12 8 13 7 14 6 15 5 16 4 17 3 18 2 19 1 20
REMARK H PARENT
REMARK Flexibility Score: inf
ROOT
ATOM      1  C   UNL     1       3.204 108.012 182.759  1.00  0.00     0.000 C 
ENDROOT
BRANCH   1   2
ATOM      2  C   UNL     1       2.117 108.564 181.823  1.00  0.00     0.000 C 
BRANCH   2   3
ATOM      3  C   UNL     1       2.354 108.190 180.351  1.00  0.00     0.000 C 
BRANCH   3   4
ATOM      4  C   UNL     1       1.035 107.819 179.661  1.00  0.00     0.000 C 
BRANCH   4   5
ATOM      5  C   UNL     1       1.199 106.553 178.806  1.00  0.00     0.000 C 
BRANCH   5   6
ATOM      6  C   UNL     1       2.000 105.456 179.524  1.00  0.00     0.000 C 
BRANCH   6   7
ATOM      7  C   UNL     1       2.994 104.742 178.591  1.00  0.00     0.006 C 
BRANCH   7   8
ATOM      8  C   UNL     1       4.427 105.260 178.767  1.00  0.00     0.053 C 
BRANCH   8   9
ATOM      9  C   UNL     1       5.370 104.620 177.795  1.00  0.00     0.041 C 
ATOM     10  O   UNL     1       6.421 105.219 177.442  1.00  0.00    -0.550 OA
ATOM     11  O   UNL     1       5.071 103.377 177.251  1.00  0.00    -0.550 OA
ENDBRANCH   8   9
ENDBRANCH   7   8
ENDBRANCH   6   7
ENDBRANCH   5   6
ENDBRANCH   4   5
ENDBRANCH   3   4
ENDBRANCH   2   3
ENDBRANCH   1   2
BRANCH   1  12
ATOM     12  C   UNL     1       4.035 106.893 182.104  1.00  0.00     0.000 C 
BRANCH  12  13
ATOM     13  C   UNL     1       5.482 106.852 182.622  1.00  0.00    -0.000 C 
BRANCH  13  14
ATOM     14  C   UNL     1       5.673 107.673 183.910  1.00  0.00    -0.000 C 
BRANCH  14  15
ATOM     15  C   UNL     1       6.924 108.566 183.859  1.00  0.00    -0.000 C 
BRANCH  15  16
ATOM     16  C   UNL     1       6.681 109.957 184.471  1.00  0.00    -0.000 C 
BRANCH  16  17
ATOM     17  C   UNL     1       5.544 110.727 183.775  1.00  0.00    -0.000 C 
BRANCH  17  18
ATOM     18  C   UNL     1       5.889 111.289 182.381  1.00  0.00    -0.000 C 
BRANCH  18  19
ATOM     19  C   UNL     1       5.061 110.707 181.222  1.00  0.00    -0.003 C 
ATOM     20  C   UNL     1       5.871 109.778 180.320  1.00  0.00     0.004 C 
ENDBRANCH  18  19
ENDBRANCH  17  18
ENDBRANCH  16  17
ENDBRANCH  15  16
ENDBRANCH  14  15
ENDBRANCH  13  14
ENDBRANCH  12  13
ENDBRANCH   1  12
TORSDOF 16
ENDMDL
MODEL 7
REMARK VINA RESULT:    -2.978      1.457      2.458
REMARK INTER + INTRA:          -8.752
REMARK INTER:                  -6.067
REMARK INTRA:                  -2.684
REMARK UNBOUND:                -2.989
REMARK SMILES CCCCCCCCCCCCCCCCCC(=O)[O-]
REMARK SMILES IDX 10 1 11 2 12 3 13 4 14 5 15 6 16 7 17 8 18 9 19 10 20 11
REMARK SMILES IDX 9 12 8 13 7 14 6 15 5 16 4 17 3 18 2 19 1 20
REMARK H PARENT
REMARK Flexibility Score: inf
ROOT
ATOM      1  C   UNL     1       3.369 108.781 180.407  1.00  0.00     0.000 C 
ENDROOT
BRANCH   1   2
ATOM      2  C   UNL     1       3.109 107.939 181.667  1.00  0.00     0.000 C 
BRANCH   2   3
ATOM      3  C   UNL     1       3.982 106.676 181.728  1.00  0.00     0.000 C 
BRANCH   3   4
ATOM      4  C   UNL     1       5.424 107.024 182.120  1.00  0.00     0.000 C 
BRANCH   4   5
ATOM      5  C   UNL     1       5.541 107.254 183.635  1.00  0.00     0.000 C 
BRANCH   5   6
ATOM      6  C   UNL     1       6.340 108.521 183.979  1.00  0.00     0.000 C 
BRANCH   6   7
ATOM      7  C   UNL     1       6.062 109.680 183.007  1.00  0.00     0.006 C 
BRANCH   7   8
ATOM      8  C   UNL     1       5.382 110.868 183.701  1.00  0.00     0.053 C 
BRANCH   8   9
ATOM      9  C   UNL     1       4.164 111.321 182.956  1.00  0.00     0.041 C 
ATOM     10  O   UNL     1       4.281 111.944 181.868  1.00  0.00    -0.550 OA
ATOM     11  O   UNL     1       2.899 111.084 183.481  1.00  0.00    -0.550 OA
ENDBRANCH   8   9
ENDBRANCH   7   8
ENDBRANCH   6   7
ENDBRANCH   5   6
ENDBRANCH   4   5
ENDBRANCH   3   4
ENDBRANCH   2   3
ENDBRANCH   1   2
BRANCH   1  12
ATOM     12  C   UNL     1       2.428 108.412 179.245  1.00  0.00     0.000 C 
BRANCH  12  13
ATOM     13  C   UNL     1       1.003 108.087 179.721  1.00  0.00    -0.000 C 
BRANCH  13  14
ATOM     14  C   UNL     1       0.506 106.721 179.212  1.00  0.00    -0.000 C 
BRANCH  14  15
ATOM     15  C   UNL     1       1.489 106.069 178.225  1.00  0.00    -0.000 C 
BRANCH  15  16
ATOM     16  C   UNL     1       2.346 104.974 178.882  1.00  0.00    -0.000 C 
BRANCH  16  17
ATOM     17  C   UNL     1       3.572 104.586 178.034  1.00  0.00    -0.000 C 
BRANCH  17  18
ATOM     18  C   UNL     1       4.935 105.020 178.612  1.00  0.00    -0.000 C 
BRANCH  18  19
ATOM     19  C   UNL     1       5.374 106.447 178.241  1.00  0.00    -0.003 C 
ATOM     20  C   UNL     1       4.903 106.872 176.852  1.00  0.00     0.004 C 
ENDBRANCH  18  19
ENDBRANCH  17  18
ENDBRANCH  16  17
ENDBRANCH  15  16
ENDBRANCH  14  15
ENDBRANCH  13  14
ENDBRANCH  12  13
ENDBRANCH   1  12
TORSDOF 16
ENDMDL
MODEL 8
REMARK VINA RESULT:    -2.922      1.558      3.029
REMARK INTER + INTRA:          -8.645
REMARK INTER:                  -5.756
REMARK INTRA:                  -2.888
REMARK UNBOUND:                -2.989
REMARK SMILES CCCCCCCCCCCCCCCCCC(=O)[O-]
REMARK SMILES IDX 10 1 11 2 12 3 13 4 14 5 15 6 16 7 17 8 18 9 19 10 20 11
REMARK SMILES IDX 9 12 8 13 7 14 6 15 5 16 4 17 3 18 2 19 1 20
REMARK H PARENT
REMARK Flexibility Score: inf
ROOT
ATOM      1  C   UNL     1       4.640 105.308 178.452  1.00  0.00     0.000 C 
ENDROOT
BRANCH   1   2
ATOM      2  C   UNL     1       4.149 105.607 179.878  1.00  0.00     0.000 C 
BRANCH   2   3
ATOM      3  C   UNL     1       5.265 106.139 180.791  1.00  0.00     0.000 C 
BRANCH   3   4
ATOM      4  C   UNL     1       4.691 107.046 181.887  1.00  0.00     0.000 C 
BRANCH   4   5
ATOM      5  C   UNL     1       3.206 107.347 181.630  1.00  0.00     0.000 C 
BRANCH   5   6
ATOM      6  C   UNL     1       2.831 108.799 181.966  1.00  0.00     0.000 C 
BRANCH   6   7
ATOM      7  C   UNL     1       3.924 109.802 181.558  1.00  0.00     0.006 C 
BRANCH   7   8
ATOM      8  C   UNL     1       3.930 111.047 182.455  1.00  0.00     0.053 C 
BRANCH   8   9
ATOM      9  C   UNL     1       4.958 110.942 183.540  1.00  0.00     0.041 C 
ATOM     10  O   UNL     1       5.723 109.943 183.594  1.00  0.00    -0.550 OA
ATOM     11  O   UNL     1       5.049 111.931 184.512  1.00  0.00    -0.550 OA
ENDBRANCH   8   9
ENDBRANCH   7   8
ENDBRANCH   6   7
ENDBRANCH   5   6
ENDBRANCH   4   5
ENDBRANCH   3   4
ENDBRANCH   2   3
ENDBRANCH   1   2
BRANCH   1  12
ATOM     12  C   UNL     1       3.560 104.634 177.585  1.00  0.00     0.000 C 
BRANCH  12  13
ATOM     13  C   UNL     1       2.153 104.762 178.191  1.00  0.00    -0.000 C 
BRANCH  13  14
ATOM     14  C   UNL     1       1.089 105.135 177.142  1.00  0.00    -0.000 C 
BRANCH  14  15
ATOM     15  C   UNL     1       0.195 106.299 177.600  1.00  0.00    -0.000 C 
BRANCH  15  16
ATOM     16  C   UNL     1       0.754 107.022 178.838  1.00  0.00    -0.000 C 
BRANCH  16  17
ATOM     17  C   UNL     1       1.239 108.450 178.527  1.00  0.00    -0.000 C 
BRANCH  17  18
ATOM     18  C   UNL     1       2.744 108.581 178.216  1.00  0.00    -0.000 C 
BRANCH  18  19
ATOM     19  C   UNL     1       3.125 108.357 176.742  1.00  0.00    -0.003 C 
ATOM     20  C   UNL     1       4.632 108.412 176.502  1.00  0.00     0.004 C 
ENDBRANCH  18  19
ENDBRANCH  17  18
ENDBRANCH  16  17
ENDBRANCH  15  16
ENDBRANCH  14  15
ENDBRANCH  13  14
ENDBRANCH  12  13
ENDBRANCH   1  12
TORSDOF 16
ENDMDL
MODEL 9
REMARK VINA RESULT:    -2.866      2.909      6.007
REMARK INTER + INTRA:          -8.537
REMARK INTER:                  -5.612
REMARK INTRA:                  -2.924
REMARK UNBOUND:                -2.989
REMARK SMILES CCCCCCCCCCCCCCCCCC(=O)[O-]
REMARK SMILES IDX 10 1 11 2 12 3 13 4 14 5 15 6 16 7 17 8 18 9 19 10 20 11
REMARK SMILES IDX 9 12 8 13 7 14 6 15 5 16 4 17 3 18 2 19 1 20
REMARK H PARENT
REMARK Flexibility Score: inf
ROOT
ATOM      1  C   UNL     1       2.459 105.300 176.859  1.00  0.00     0.000 C 
ENDROOT
BRANCH   1   2
ATOM      2  C   UNL     1       0.982 105.029 177.191  1.00  0.00     0.000 C 
BRANCH   2   3
ATOM      3  C   UNL     1       0.093 106.268 177.000  1.00  0.00     0.000 C 
BRANCH   3   4
ATOM      4  C   UNL     1      -0.125 106.997 178.333  1.00  0.00     0.000 C 
BRANCH   4   5
ATOM      5  C   UNL     1       0.562 108.371 178.327  1.00  0.00     0.000 C 
BRANCH   5   6
ATOM      6  C   UNL     1       1.811 108.410 179.220  1.00  0.00     0.000 C 
BRANCH   6   7
ATOM      7  C   UNL     1       3.102 108.670 178.423  1.00  0.00     0.006 C 
BRANCH   7   8
ATOM      8  C   UNL     1       2.842 109.489 177.152  1.00  0.00     0.053 C 
BRANCH   8   9
ATOM      9  C   UNL     1       3.295 108.761 175.923  1.00  0.00     0.041 C 
ATOM     10  O   UNL     1       2.455 108.392 175.059  1.00  0.00    -0.550 OA
ATOM     11  O   UNL     1       4.639 108.459 175.748  1.00  0.00    -0.550 OA
ENDBRANCH   8   9
ENDBRANCH   7   8
ENDBRANCH   6   7
ENDBRANCH   5   6
ENDBRANCH   4   5
ENDBRANCH   3   4
ENDBRANCH   2   3
ENDBRANCH   1   2
BRANCH   1  12
ATOM     12  C   UNL     1       3.400 104.951 178.027  1.00  0.00     0.000 C 
BRANCH  12  13
ATOM     13  C   UNL     1       2.646 104.746 179.351  1.00  0.00    -0.000 C 
BRANCH  13  14
ATOM     14  C   UNL     1       3.277 105.527 180.518  1.00  0.00    -0.000 C 
BRANCH  14  15
ATOM     15  C   UNL     1       4.753 105.875 180.262  1.00  0.00    -0.000 C 
BRANCH  15  16
ATOM     16  C   UNL     1       5.209 107.122 181.040  1.00  0.00    -0.000 C 
BRANCH  16  17
ATOM     17  C   UNL     1       4.871 107.046 182.540  1.00  0.00    -0.000 C 
BRANCH  17  18
ATOM     18  C   UNL     1       4.612 108.404 183.225  1.00  0.00    -0.000 C 
BRANCH  18  19
ATOM     19  C   UNL     1       3.549 109.283 182.544  1.00  0.00    -0.003 C 
ATOM     20  C   UNL     1       2.121 108.863 182.885  1.00  0.00     0.004 C 
ENDBRANCH  18  19
ENDBRANCH  17  18
ENDBRANCH  16  17
ENDBRANCH  15  16
ENDBRANCH  14  15
ENDBRANCH  13  14
ENDBRANCH  12  13
ENDBRANCH   1  12
TORSDOF 16
ENDMDL
