MODEL 1
REMARK VINA RESULT:    -4.800      0.000      0.000
REMARK INTER + INTRA:          -6.104
REMARK INTER:                  -5.922
REMARK INTRA:                  -0.182
REMARK UNBOUND:                -0.182
REMARK SMILES CCCCC=CC(C)=O
REMARK SMILES IDX 4 1 3 2 2 3 1 4 5 5 6 6 7 7 9 8 8 9
REMARK H PARENT
REMARK Flexibility Score: inf
ROOT
ATOM      1  C   UNL     1     -14.620 -31.339  28.487  1.00  0.00     0.027 C 
ENDROOT
BRANCH   1   2
ATOM      2  C   UNL     1     -15.098 -31.303  29.947  1.00  0.00     0.004 C 
BRANCH   2   3
ATOM      3  C   UNL     1     -14.428 -32.381  30.813  1.00  0.00    -0.003 C 
ATOM      4  C   UNL     1     -14.761 -32.237  32.298  1.00  0.00     0.004 C 
ENDBRANCH   2   3
ENDBRANCH   1   2
BRANCH   1   5
ATOM      5  C   UNL     1     -13.576 -32.399  28.285  1.00  0.00    -0.023 C 
ATOM      6  C   UNL     1     -13.664 -33.284  27.285  1.00  0.00     0.042 C 
BRANCH   6   7
ATOM      7  C   UNL     1     -12.656 -34.340  27.076  1.00  0.00     0.152 C 
ATOM      8  O   UNL     1     -12.611 -35.349  27.831  1.00  0.00    -0.295 OA
ATOM      9  C   UNL     1     -11.673 -34.212  25.957  1.00  0.00     0.093 C 
ENDBRANCH   6   7
ENDBRANCH   1   5
TORSDOF 4
ENDMDL
MODEL 2
REMARK VINA RESULT:    -4.628      1.696      4.956
REMARK INTER + INTRA:          -5.893
REMARK INTER:                  -5.758
REMARK INTRA:                  -0.134
REMARK UNBOUND:                -0.182
REMARK SMILES CCCCC=CC(C)=O
REMARK SMILES IDX 4 1 3 2 2 3 1 4 5 5 6 6 7 7 9 8 8 9
REMARK H PARENT
REMARK Flexibility Score: inf
ROOT
ATOM      1  C   UNL     1     -13.927 -32.454  27.946  1.00  0.00     0.027 C 
ENDROOT
BRANCH   1   2
ATOM      2  C   UNL     1     -13.635 -33.536  26.894  1.00  0.00     0.004 C 
BRANCH   2   3
ATOM      3  C   UNL     1     -12.271 -34.211  27.107  1.00  0.00    -0.003 C 
ATOM      4  C   UNL     1     -11.471 -34.345  25.812  1.00  0.00     0.004 C 
ENDBRANCH   2   3
ENDBRANCH   1   2
BRANCH   1   5
ATOM      5  C   UNL     1     -13.950 -33.036  29.330  1.00  0.00    -0.023 C 
ATOM      6  C   UNL     1     -14.380 -32.326  30.380  1.00  0.00     0.042 C 
BRANCH   6   7
ATOM      7  C   UNL     1     -14.399 -32.874  31.748  1.00  0.00     0.152 C 
ATOM      8  O   UNL     1     -13.980 -34.040  31.982  1.00  0.00    -0.295 OA
ATOM      9  C   UNL     1     -14.923 -32.039  32.872  1.00  0.00     0.093 C 
ENDBRANCH   6   7
ENDBRANCH   1   5
TORSDOF 4
ENDMDL
MODEL 3
REMARK VINA RESULT:    -4.603      3.021      3.964
REMARK INTER + INTRA:          -5.861
REMARK INTER:                  -5.637
REMARK INTRA:                  -0.225
REMARK UNBOUND:                -0.182
REMARK SMILES CCCCC=CC(C)=O
REMARK SMILES IDX 4 1 3 2 2 3 1 4 5 5 6 6 7 7 9 8 8 9
REMARK H PARENT
REMARK Flexibility Score: inf
ROOT
ATOM      1  C   UNL     1     -13.973 -33.597  31.773  1.00  0.00     0.027 C 
ENDROOT
BRANCH   1   2
ATOM      2  C   UNL     1     -14.368 -32.459  30.820  1.00  0.00     0.004 C 
BRANCH   2   3
ATOM      3  C   UNL     1     -13.965 -32.742  29.365  1.00  0.00    -0.003 C 
ATOM      4  C   UNL     1     -14.388 -31.628  28.408  1.00  0.00     0.004 C 
ENDBRANCH   2   3
ENDBRANCH   1   2
BRANCH   1   5
ATOM      5  C   UNL     1     -13.473 -34.792  31.013  1.00  0.00    -0.023 C 
ATOM      6  C   UNL     1     -13.610 -36.033  31.493  1.00  0.00     0.042 C 
BRANCH   6   7
ATOM      7  C   UNL     1     -13.116 -37.218  30.768  1.00  0.00     0.152 C 
ATOM      8  O   UNL     1     -12.535 -38.155  31.381  1.00  0.00    -0.295 OA
ATOM      9  C   UNL     1     -13.302 -37.309  29.287  1.00  0.00     0.093 C 
ENDBRANCH   6   7
ENDBRANCH   1   5
TORSDOF 4
ENDMDL
MODEL 4
REMARK VINA RESULT:    -4.531      2.323      3.254
REMARK INTER + INTRA:          -5.773
REMARK INTER:                  -5.573
REMARK INTRA:                  -0.200
REMARK UNBOUND:                -0.182
REMARK SMILES CCCCC=CC(C)=O
REMARK SMILES IDX 4 1 3 2 2 3 1 4 5 5 6 6 7 7 9 8 8 9
REMARK H PARENT
REMARK Flexibility Score: inf
ROOT
ATOM      1  C   UNL     1     -13.957 -33.389  27.319  1.00  0.00     0.027 C 
ENDROOT
BRANCH   1   2
ATOM      2  C   UNL     1     -13.334 -32.496  28.403  1.00  0.00     0.004 C 
BRANCH   2   3
ATOM      3  C   UNL     1     -14.386 -31.889  29.343  1.00  0.00    -0.003 C 
ATOM      4  C   UNL     1     -15.183 -30.762  28.687  1.00  0.00     0.004 C 
ENDBRANCH   2   3
ENDBRANCH   1   2
BRANCH   1   5
ATOM      5  C   UNL     1     -14.369 -34.718  27.882  1.00  0.00    -0.023 C 
ATOM      6  C   UNL     1     -13.464 -35.617  28.285  1.00  0.00     0.042 C 
BRANCH   6   7
ATOM      7  C   UNL     1     -13.847 -36.932  28.830  1.00  0.00     0.152 C 
ATOM      8  O   UNL     1     -14.397 -37.799  28.098  1.00  0.00    -0.295 OA
ATOM      9  C   UNL     1     -13.582 -37.243  30.268  1.00  0.00     0.093 C 
ENDBRANCH   6   7
ENDBRANCH   1   5
TORSDOF 4
ENDMDL
MODEL 5
REMARK VINA RESULT:    -4.492      2.547      3.871
REMARK INTER + INTRA:          -5.725
REMARK INTER:                  -5.454
REMARK INTRA:                  -0.270
REMARK UNBOUND:                -0.182
REMARK SMILES CCCCC=CC(C)=O
REMARK SMILES IDX 4 1 3 2 2 3 1 4 5 5 6 6 7 7 9 8 8 9
REMARK H PARENT
REMARK Flexibility Score: inf
ROOT
ATOM      1  C   UNL     1     -13.690 -33.589  31.743  1.00  0.00     0.027 C 
ENDROOT
BRANCH   1   2
ATOM      2  C   UNL     1     -12.892 -34.807  31.253  1.00  0.00     0.004 C 
BRANCH   2   3
ATOM      3  C   UNL     1     -13.615 -36.134  31.527  1.00  0.00    -0.003 C 
ATOM      4  C   UNL     1     -13.681 -37.036  30.294  1.00  0.00     0.004 C 
ENDBRANCH   2   3
ENDBRANCH   1   2
BRANCH   1   5
ATOM      5  C   UNL     1     -14.196 -32.772  30.588  1.00  0.00    -0.023 C 
ATOM      6  C   UNL     1     -13.880 -33.078  29.324  1.00  0.00     0.042 C 
BRANCH   6   7
ATOM      7  C   UNL     1     -14.356 -32.283  28.178  1.00  0.00     0.152 C 
ATOM      8  O   UNL     1     -14.319 -32.751  27.007  1.00  0.00    -0.295 OA
ATOM      9  C   UNL     1     -14.888 -30.905  28.404  1.00  0.00     0.093 C 
ENDBRANCH   6   7
ENDBRANCH   1   5
TORSDOF 4
ENDMDL
MODEL 6
REMARK VINA RESULT:    -4.382      2.571      3.497
REMARK INTER + INTRA:          -5.589
REMARK INTER:                  -5.369
REMARK INTRA:                  -0.220
REMARK UNBOUND:                -0.182
REMARK SMILES CCCCC=CC(C)=O
REMARK SMILES IDX 4 1 3 2 2 3 1 4 5 5 6 6 7 7 9 8 8 9
REMARK H PARENT
REMARK Flexibility Score: inf
ROOT
ATOM      1  C   UNL     1     -13.825 -33.100  30.211  1.00  0.00     0.027 C 
ENDROOT
BRANCH   1   2
ATOM      2  C   UNL     1     -13.323 -32.641  28.833  1.00  0.00     0.004 C 
BRANCH   2   3
ATOM      3  C   UNL     1     -14.431 -31.995  27.988  1.00  0.00    -0.003 C 
ATOM      4  C   UNL     1     -15.080 -30.797  28.681  1.00  0.00     0.004 C 
ENDBRANCH   2   3
ENDBRANCH   1   2
BRANCH   1   5
ATOM      5  C   UNL     1     -13.592 -34.570  30.411  1.00  0.00    -0.023 C 
ATOM      6  C   UNL     1     -13.561 -35.419  29.377  1.00  0.00     0.042 C 
BRANCH   6   7
ATOM      7  C   UNL     1     -13.345 -36.867  29.553  1.00  0.00     0.152 C 
ATOM      8  O   UNL     1     -13.542 -37.669  28.600  1.00  0.00    -0.295 OA
ATOM      9  C   UNL     1     -12.891 -37.391  30.877  1.00  0.00     0.093 C 
ENDBRANCH   6   7
ENDBRANCH   1   5
TORSDOF 4
ENDMDL
MODEL 7
REMARK VINA RESULT:    -4.358      2.193      3.107
REMARK INTER + INTRA:          -5.559
REMARK INTER:                  -5.286
REMARK INTRA:                  -0.273
REMARK UNBOUND:                -0.182
REMARK SMILES CCCCC=CC(C)=O
REMARK SMILES IDX 4 1 3 2 2 3 1 4 5 5 6 6 7 7 9 8 8 9
REMARK H PARENT
REMARK Flexibility Score: inf
ROOT
ATOM      1  C   UNL     1     -12.757 -34.083  30.764  1.00  0.00     0.027 C 
ENDROOT
BRANCH   1   2
ATOM      2  C   UNL     1     -13.037 -33.608  32.198  1.00  0.00     0.004 C 
BRANCH   2   3
ATOM      3  C   UNL     1     -14.539 -33.463  32.487  1.00  0.00    -0.003 C 
ATOM      4  C   UNL     1     -14.941 -32.025  32.815  1.00  0.00     0.004 C 
ENDBRANCH   2   3
ENDBRANCH   1   2
BRANCH   1   5
ATOM      5  C   UNL     1     -13.173 -33.047  29.759  1.00  0.00    -0.023 C 
ATOM      6  C   UNL     1     -14.070 -33.320  28.804  1.00  0.00     0.042 C 
BRANCH   6   7
ATOM      7  C   UNL     1     -14.482 -32.322  27.802  1.00  0.00     0.152 C 
ATOM      8  O   UNL     1     -14.567 -32.628  26.581  1.00  0.00    -0.295 OA
ATOM      9  C   UNL     1     -14.803 -30.927  28.235  1.00  0.00     0.093 C 
ENDBRANCH   6   7
ENDBRANCH   1   5
TORSDOF 4
ENDMDL
MODEL 8
REMARK VINA RESULT:    -4.290      3.233      4.824
REMARK INTER + INTRA:          -5.475
REMARK INTER:                  -5.268
REMARK INTRA:                  -0.207
REMARK UNBOUND:                -0.182
REMARK SMILES CCCCC=CC(C)=O
REMARK SMILES IDX 4 1 3 2 2 3 1 4 5 5 6 6 7 7 9 8 8 9
REMARK H PARENT
REMARK Flexibility Score: inf
ROOT
ATOM      1  C   UNL     1     -13.385 -35.554  31.378  1.00  0.00     0.027 C 
ENDROOT
BRANCH   1   2
ATOM      2  C   UNL     1     -13.390 -36.951  30.738  1.00  0.00     0.004 C 
BRANCH   2   3
ATOM      3  C   UNL     1     -13.157 -36.903  29.220  1.00  0.00    -0.003 C 
ATOM      4  C   UNL     1     -14.297 -37.542  28.428  1.00  0.00     0.004 C 
ENDBRANCH   2   3
ENDBRANCH   1   2
BRANCH   1   5
ATOM      5  C   UNL     1     -13.920 -34.521  30.429  1.00  0.00    -0.023 C 
ATOM      6  C   UNL     1     -13.794 -33.212  30.678  1.00  0.00     0.042 C 
BRANCH   6   7
ATOM      7  C   UNL     1     -14.322 -32.182  29.765  1.00  0.00     0.152 C 
ATOM      8  O   UNL     1     -15.121 -31.298  30.181  1.00  0.00    -0.295 OA
ATOM      9  C   UNL     1     -13.908 -32.184  28.329  1.00  0.00     0.093 C 
ENDBRANCH   6   7
ENDBRANCH   1   5
TORSDOF 4
ENDMDL
MODEL 9
REMARK VINA RESULT:    -4.224      2.581      4.001
REMARK INTER + INTRA:          -5.395
REMARK INTER:                  -5.175
REMARK INTRA:                  -0.220
REMARK UNBOUND:                -0.182
REMARK SMILES CCCCC=CC(C)=O
REMARK SMILES IDX 4 1 3 2 2 3 1 4 5 5 6 6 7 7 9 8 8 9
REMARK H PARENT
REMARK Flexibility Score: inf
ROOT
ATOM      1  C   UNL     1     -14.375 -32.341  30.615  1.00  0.00     0.027 C 
ENDROOT
BRANCH   1   2
ATOM      2  C   UNL     1     -14.511 -31.794  29.185  1.00  0.00     0.004 C 
BRANCH   2   3
ATOM      3  C   UNL     1     -13.602 -32.525  28.186  1.00  0.00    -0.003 C 
ATOM      4  C   UNL     1     -14.351 -32.993  26.939  1.00  0.00     0.004 C 
ENDBRANCH   2   3
ENDBRANCH   1   2
BRANCH   1   5
ATOM      5  C   UNL     1     -13.847 -33.747  30.609  1.00  0.00    -0.023 C 
ATOM      6  C   UNL     1     -12.869 -34.129  31.439  1.00  0.00     0.042 C 
BRANCH   6   7
ATOM      7  C   UNL     1     -12.329 -35.501  31.441  1.00  0.00     0.152 C 
ATOM      8  O   UNL     1     -11.085 -35.705  31.487  1.00  0.00    -0.295 OA
ATOM      9  C   UNL     1     -13.266 -36.665  31.386  1.00  0.00     0.093 C 
ENDBRANCH   6   7
ENDBRANCH   1   5
TORSDOF 4
ENDMDL
