MODEL 1
REMARK VINA RESULT:    -6.345      0.000      0.000
REMARK INTER + INTRA:          -7.774
REMARK INTER:                  -7.643
REMARK INTRA:                  -0.131
REMARK UNBOUND:                -0.131
REMARK SMILES O=c1c(O)c(-c2ccc(O)c(O)c2)oc2cc(O)cc(O)c12
REMARK SMILES IDX 5 1 3 2 2 3 1 4 22 5 20 6 19 7 17 8 16 9 15 10 14 11 6 12
REMARK SMILES IDX 7 13 8 14 9 15 13 16 11 17 10 18 12 20 4 22 21 24 18 26
REMARK H PARENT 10 19 12 21 4 23 21 25 18 27
REMARK Flexibility Score: inf
ROOT
ATOM      1  C   UNL     1       5.441   9.583  35.165  1.00  0.00     0.180 A 
ATOM      2  C   UNL     1       4.038   9.669  35.113  1.00  0.00     0.208 A 
ATOM      3  C   UNL     1       3.308   9.638  36.312  1.00  0.00     0.238 A 
ATOM      4  O   UNL     1       2.058   9.769  36.262  1.00  0.00    -0.285 OA
ATOM      5  C   UNL     1       3.988   9.506  37.546  1.00  0.00     0.111 A 
ATOM      6  C   UNL     1       3.348   9.423  38.819  1.00  0.00     0.134 A 
ATOM      7  C   UNL     1       4.124   9.426  39.985  1.00  0.00     0.093 A 
ATOM      8  C   UNL     1       5.520   9.443  39.920  1.00  0.00     0.123 A 
ATOM      9  C   UNL     1       6.154   9.463  38.681  1.00  0.00     0.094 A 
ATOM     10  C   UNL     1       5.407   9.497  37.502  1.00  0.00     0.146 A 
ATOM     11  O   UNL     1       6.052   9.527  36.342  1.00  0.00    -0.452 OA
ENDROOT
BRANCH   1  12
ATOM     12  C   UNL     1       6.276   9.584  33.942  1.00  0.00     0.025 A 
ATOM     13  C   UNL     1       7.186  10.623  33.679  1.00  0.00     0.016 A 
ATOM     14  C   UNL     1       7.947  10.616  32.506  1.00  0.00     0.051 A 
ATOM     15  C   UNL     1       7.800   9.580  31.576  1.00  0.00     0.157 A 
ATOM     16  C   UNL     1       6.119   8.559  32.997  1.00  0.00     0.062 A 
ATOM     17  C   UNL     1       6.879   8.547  31.821  1.00  0.00     0.158 A 
BRANCH  15  18
ATOM     18  O   UNL     1       8.562   9.574  30.408  1.00  0.00    -0.504 OA
ATOM     19  H   UNL     1       9.381   8.986  30.311  1.00  0.00     0.293 HD
ENDBRANCH  15  18
BRANCH  17  20
ATOM     20  O   UNL     1       6.705   7.506  30.911  1.00  0.00    -0.504 OA
ATOM     21  H   UNL     1       7.478   7.114  30.386  1.00  0.00     0.293 HD
ENDBRANCH  17  20
ENDBRANCH   1  12
BRANCH   2  22
ATOM     22  O   UNL     1       3.388   9.821  33.884  1.00  0.00    -0.502 OA
ATOM     23  H   UNL     1       3.512  10.639  33.301  1.00  0.00     0.293 HD
ENDBRANCH   2  22
BRANCH   6  24
ATOM     24  O   UNL     1       1.966   9.310  38.991  1.00  0.00    -0.507 OA
ATOM     25  H   UNL     1       1.442   8.453  38.892  1.00  0.00     0.293 HD
ENDBRANCH   6  24
BRANCH   8  26
ATOM     26  O   UNL     1       6.286   9.429  41.085  1.00  0.00    -0.508 OA
ATOM     27  H   UNL     1       6.489  10.280  41.595  1.00  0.00     0.293 HD
ENDBRANCH   8  26
TORSDOF 6
ENDMDL
MODEL 2
REMARK VINA RESULT:    -6.024      1.679      2.601
REMARK INTER + INTRA:          -7.387
REMARK INTER:                  -7.199
REMARK INTRA:                  -0.188
REMARK UNBOUND:                -0.131
REMARK SMILES O=c1c(O)c(-c2ccc(O)c(O)c2)oc2cc(O)cc(O)c12
REMARK SMILES IDX 5 1 3 2 2 3 1 4 22 5 20 6 19 7 17 8 16 9 15 10 14 11 6 12
REMARK SMILES IDX 7 13 8 14 9 15 13 16 11 17 10 18 12 20 4 22 21 24 18 26
REMARK H PARENT 10 19 12 21 4 23 21 25 18 27
REMARK Flexibility Score: inf
ROOT
ATOM      1  C   UNL     1       5.937   8.754  34.746  1.00  0.00     0.180 A 
ATOM      2  C   UNL     1       6.101   7.602  35.535  1.00  0.00     0.208 A 
ATOM      3  C   UNL     1       5.430   7.518  36.765  1.00  0.00     0.238 A 
ATOM      4  O   UNL     1       5.538   6.462  37.442  1.00  0.00    -0.285 OA
ATOM      5  C   UNL     1       4.617   8.592  37.199  1.00  0.00     0.111 A 
ATOM      6  C   UNL     1       3.923   8.632  38.445  1.00  0.00     0.134 A 
ATOM      7  C   UNL     1       3.042   9.688  38.712  1.00  0.00     0.093 A 
ATOM      8  C   UNL     1       2.882  10.739  37.806  1.00  0.00     0.123 A 
ATOM      9  C   UNL     1       3.601  10.739  36.613  1.00  0.00     0.094 A 
ATOM     10  C   UNL     1       4.459   9.682  36.302  1.00  0.00     0.146 A 
ATOM     11  O   UNL     1       5.116   9.716  35.149  1.00  0.00    -0.452 OA
ENDROOT
BRANCH   1  12
ATOM     12  C   UNL     1       6.632   8.925  33.449  1.00  0.00     0.025 A 
ATOM     13  C   UNL     1       7.618   9.911  33.272  1.00  0.00     0.016 A 
ATOM     14  C   UNL     1       8.243  10.071  32.032  1.00  0.00     0.051 A 
ATOM     15  C   UNL     1       7.882   9.259  30.949  1.00  0.00     0.157 A 
ATOM     16  C   UNL     1       6.259   8.128  32.355  1.00  0.00     0.062 A 
ATOM     17  C   UNL     1       6.883   8.285  31.111  1.00  0.00     0.158 A 
BRANCH  15  18
ATOM     18  O   UNL     1       8.509   9.420  29.714  1.00  0.00    -0.504 OA
ATOM     19  H   UNL     1       8.107   9.045  28.863  1.00  0.00     0.293 HD
ENDBRANCH  15  18
BRANCH  17  20
ATOM     20  O   UNL     1       6.496   7.466  30.051  1.00  0.00    -0.504 OA
ATOM     21  H   UNL     1       7.138   6.821  29.606  1.00  0.00     0.293 HD
ENDBRANCH  17  20
ENDBRANCH   1  12
BRANCH   2  22
ATOM     22  O   UNL     1       6.892   6.543  35.078  1.00  0.00    -0.502 OA
ATOM     23  H   UNL     1       6.685   5.576  35.298  1.00  0.00     0.293 HD
ENDBRANCH   2  22
BRANCH   6  24
ATOM     24  O   UNL     1       4.082   7.682  39.457  1.00  0.00    -0.507 OA
ATOM     25  H   UNL     1       4.688   6.877  39.400  1.00  0.00     0.293 HD
ENDBRANCH   6  24
BRANCH   8  26
ATOM     26  O   UNL     1       2.017  11.795  38.086  1.00  0.00    -0.508 OA
ATOM     27  H   UNL     1       1.256  11.694  38.748  1.00  0.00     0.293 HD
ENDBRANCH   8  26
TORSDOF 6
ENDMDL
MODEL 3
REMARK VINA RESULT:    -5.996      1.513      6.880
REMARK INTER + INTRA:          -7.354
REMARK INTER:                  -7.019
REMARK INTRA:                  -0.335
REMARK UNBOUND:                -0.131
REMARK SMILES O=c1c(O)c(-c2ccc(O)c(O)c2)oc2cc(O)cc(O)c12
REMARK SMILES IDX 5 1 3 2 2 3 1 4 22 5 20 6 19 7 17 8 16 9 15 10 14 11 6 12
REMARK SMILES IDX 7 13 8 14 9 15 13 16 11 17 10 18 12 20 4 22 21 24 18 26
REMARK H PARENT 10 19 12 21 4 23 21 25 18 27
REMARK Flexibility Score: inf
ROOT
ATOM      1  C   UNL     1       5.273   9.560  35.360  1.00  0.00     0.180 A 
ATOM      2  C   UNL     1       4.862   8.342  34.791  1.00  0.00     0.208 A 
ATOM      3  C   UNL     1       5.369   7.972  33.535  1.00  0.00     0.238 A 
ATOM      4  O   UNL     1       5.039   6.856  33.055  1.00  0.00    -0.285 OA
ATOM      5  C   UNL     1       6.267   8.831  32.857  1.00  0.00     0.111 A 
ATOM      6  C   UNL     1       6.812   8.576  31.563  1.00  0.00     0.134 A 
ATOM      7  C   UNL     1       7.793   9.431  31.045  1.00  0.00     0.093 A 
ATOM      8  C   UNL     1       8.200  10.568  31.747  1.00  0.00     0.123 A 
ATOM      9  C   UNL     1       7.630  10.858  32.984  1.00  0.00     0.094 A 
ATOM     10  C   UNL     1       6.676  10.005  33.543  1.00  0.00     0.146 A 
ATOM     11  O   UNL     1       6.167  10.312  34.730  1.00  0.00    -0.452 OA
ENDROOT
BRANCH   1  12
ATOM     12  C   UNL     1       4.763  10.030  36.669  1.00  0.00     0.025 A 
ATOM     13  C   UNL     1       3.589  10.797  36.765  1.00  0.00     0.016 A 
ATOM     14  C   UNL     1       3.140  11.250  38.008  1.00  0.00     0.051 A 
ATOM     15  C   UNL     1       3.863  10.955  39.171  1.00  0.00     0.157 A 
ATOM     16  C   UNL     1       5.495   9.754  37.835  1.00  0.00     0.062 A 
ATOM     17  C   UNL     1       5.049  10.206  39.083  1.00  0.00     0.158 A 
BRANCH  15  18
ATOM     18  O   UNL     1       3.412  11.407  40.410  1.00  0.00    -0.504 OA
ATOM     19  H   UNL     1       3.035  10.770  41.102  1.00  0.00     0.293 HD
ENDBRANCH  15  18
BRANCH  17  20
ATOM     20  O   UNL     1       5.795   9.902  40.221  1.00  0.00    -0.504 OA
ATOM     21  H   UNL     1       6.165   8.975  40.391  1.00  0.00     0.293 HD
ENDBRANCH  17  20
ENDBRANCH   1  12
BRANCH   2  22
ATOM     22  O   UNL     1       3.991   7.499  35.487  1.00  0.00    -0.502 OA
ATOM     23  H   UNL     1       3.033   7.348  35.197  1.00  0.00     0.293 HD
ENDBRANCH   2  22
BRANCH   6  24
ATOM     24  O   UNL     1       6.407   7.520  30.741  1.00  0.00    -0.507 OA
ATOM     25  H   UNL     1       5.565   7.514  30.184  1.00  0.00     0.293 HD
ENDBRANCH   6  24
BRANCH   8  26
ATOM     26  O   UNL     1       9.165  11.423  31.217  1.00  0.00    -0.508 OA
ATOM     27  H   UNL     1       9.747  11.998  31.814  1.00  0.00     0.293 HD
ENDBRANCH   8  26
TORSDOF 6
ENDMDL
MODEL 4
REMARK VINA RESULT:    -5.881      0.718      1.468
REMARK INTER + INTRA:          -7.215
REMARK INTER:                  -6.940
REMARK INTRA:                  -0.275
REMARK UNBOUND:                -0.131
REMARK SMILES O=c1c(O)c(-c2ccc(O)c(O)c2)oc2cc(O)cc(O)c12
REMARK SMILES IDX 5 1 3 2 2 3 1 4 22 5 20 6 19 7 17 8 16 9 15 10 14 11 6 12
REMARK SMILES IDX 7 13 8 14 9 15 13 16 11 17 10 18 12 20 4 22 21 24 18 26
REMARK H PARENT 10 19 12 21 4 23 21 25 18 27
REMARK Flexibility Score: inf
ROOT
ATOM      1  C   UNL     1       5.200   9.508  35.423  1.00  0.00     0.180 A 
ATOM      2  C   UNL     1       3.803   9.656  35.487  1.00  0.00     0.208 A 
ATOM      3  C   UNL     1       3.181   9.717  36.744  1.00  0.00     0.238 A 
ATOM      4  O   UNL     1       1.938   9.904  36.794  1.00  0.00    -0.285 OA
ATOM      5  C   UNL     1       3.961   9.613  37.921  1.00  0.00     0.111 A 
ATOM      6  C   UNL     1       3.432   9.621  39.246  1.00  0.00     0.134 A 
ATOM      7  C   UNL     1       4.307   9.644  40.340  1.00  0.00     0.093 A 
ATOM      8  C   UNL     1       5.691   9.591  40.155  1.00  0.00     0.123 A 
ATOM      9  C   UNL     1       6.215   9.522  38.866  1.00  0.00     0.094 A 
ATOM     10  C   UNL     1       5.369   9.535  37.755  1.00  0.00     0.146 A 
ATOM     11  O   UNL     1       5.910   9.479  36.544  1.00  0.00    -0.452 OA
ENDROOT
BRANCH   1  12
ATOM     12  C   UNL     1       5.924   9.411  34.135  1.00  0.00     0.025 A 
ATOM     13  C   UNL     1       5.876   8.243  33.354  1.00  0.00     0.016 A 
ATOM     14  C   UNL     1       6.587   8.166  32.153  1.00  0.00     0.051 A 
ATOM     15  C   UNL     1       7.366   9.247  31.722  1.00  0.00     0.157 A 
ATOM     16  C   UNL     1       6.723  10.484  33.708  1.00  0.00     0.062 A 
ATOM     17  C   UNL     1       7.437  10.411  32.506  1.00  0.00     0.158 A 
BRANCH  15  18
ATOM     18  O   UNL     1       8.073   9.167  30.523  1.00  0.00    -0.504 OA
ATOM     19  H   UNL     1       7.867   9.781  29.744  1.00  0.00     0.293 HD
ENDBRANCH  15  18
BRANCH  17  20
ATOM     20  O   UNL     1       8.209  11.501  32.109  1.00  0.00    -0.504 OA
ATOM     21  H   UNL     1       8.749  12.049  32.768  1.00  0.00     0.293 HD
ENDBRANCH  17  20
ENDBRANCH   1  12
BRANCH   2  22
ATOM     22  O   UNL     1       3.055   9.780  34.312  1.00  0.00    -0.502 OA
ATOM     23  H   UNL     1       2.983   9.033  33.633  1.00  0.00     0.293 HD
ENDBRANCH   2  22
BRANCH   6  24
ATOM     24  O   UNL     1       2.067   9.581  39.542  1.00  0.00    -0.507 OA
ATOM     25  H   UNL     1       1.669   9.766  40.451  1.00  0.00     0.293 HD
ENDBRANCH   6  24
BRANCH   8  26
ATOM     26  O   UNL     1       6.555   9.597  41.248  1.00  0.00    -0.508 OA
ATOM     27  H   UNL     1       6.527  10.336  41.941  1.00  0.00     0.293 HD
ENDBRANCH   8  26
TORSDOF 6
ENDMDL
MODEL 5
REMARK VINA RESULT:    -5.782      1.918      2.236
REMARK INTER + INTRA:          -7.096
REMARK INTER:                  -7.340
REMARK INTRA:                   0.244
REMARK UNBOUND:                -0.131
REMARK SMILES O=c1c(O)c(-c2ccc(O)c(O)c2)oc2cc(O)cc(O)c12
REMARK SMILES IDX 5 1 3 2 2 3 1 4 22 5 20 6 19 7 17 8 16 9 15 10 14 11 6 12
REMARK SMILES IDX 7 13 8 14 9 15 13 16 11 17 10 18 12 20 4 22 21 24 18 26
REMARK H PARENT 10 19 12 21 4 23 21 25 18 27
REMARK Flexibility Score: inf
ROOT
ATOM      1  C   UNL     1       6.401   9.124  34.491  1.00  0.00     0.180 A 
ATOM      2  C   UNL     1       5.658   7.963  34.211  1.00  0.00     0.208 A 
ATOM      3  C   UNL     1       4.955   7.337  35.253  1.00  0.00     0.238 A 
ATOM      4  O   UNL     1       4.249   6.330  34.985  1.00  0.00    -0.285 OA
ATOM      5  C   UNL     1       5.016   7.868  36.563  1.00  0.00     0.111 A 
ATOM      6  C   UNL     1       4.377   7.293  37.702  1.00  0.00     0.134 A 
ATOM      7  C   UNL     1       4.397   7.976  38.925  1.00  0.00     0.093 A 
ATOM      8  C   UNL     1       5.090   9.181  39.065  1.00  0.00     0.123 A 
ATOM      9  C   UNL     1       5.767   9.720  37.974  1.00  0.00     0.094 A 
ATOM     10  C   UNL     1       5.735   9.081  36.732  1.00  0.00     0.146 A 
ATOM     11  O   UNL     1       6.385   9.635  35.716  1.00  0.00    -0.452 OA
ENDROOT
BRANCH   1  12
ATOM     12  C   UNL     1       7.187   9.826  33.451  1.00  0.00     0.025 A 
ATOM     13  C   UNL     1       7.275  11.229  33.422  1.00  0.00     0.016 A 
ATOM     14  C   UNL     1       8.003  11.870  32.416  1.00  0.00     0.051 A 
ATOM     15  C   UNL     1       8.641  11.123  31.419  1.00  0.00     0.157 A 
ATOM     16  C   UNL     1       7.812   9.082  32.437  1.00  0.00     0.062 A 
ATOM     17  C   UNL     1       8.542   9.721  31.428  1.00  0.00     0.158 A 
BRANCH  15  18
ATOM     18  O   UNL     1       9.368  11.766  30.418  1.00  0.00    -0.504 OA
ATOM     19  H   UNL     1       8.922  12.111  29.577  1.00  0.00     0.293 HD
ENDBRANCH  15  18
BRANCH  17  20
ATOM     20  O   UNL     1       9.160   8.949  30.445  1.00  0.00    -0.504 OA
ATOM     21  H   UNL     1       9.744   9.359  29.726  1.00  0.00     0.293 HD
ENDBRANCH  17  20
ENDBRANCH   1  12
BRANCH   2  22
ATOM     22  O   UNL     1       5.593   7.468  32.905  1.00  0.00    -0.502 OA
ATOM     23  H   UNL     1       4.955   6.730  32.635  1.00  0.00     0.293 HD
ENDBRANCH   2  22
BRANCH   6  24
ATOM     24  O   UNL     1       3.737   6.050  37.692  1.00  0.00    -0.507 OA
ATOM     25  H   UNL     1       4.155   5.185  38.000  1.00  0.00     0.293 HD
ENDBRANCH   6  24
BRANCH   8  26
ATOM     26  O   UNL     1       5.120   9.846  40.289  1.00  0.00    -0.508 OA
ATOM     27  H   UNL     1       4.896  10.832  40.362  1.00  0.00     0.293 HD
ENDBRANCH   8  26
TORSDOF 6
ENDMDL
MODEL 6
REMARK VINA RESULT:    -5.535      1.758      2.167
REMARK INTER + INTRA:          -6.799
REMARK INTER:                  -6.481
REMARK INTRA:                  -0.318
REMARK UNBOUND:                -0.131
REMARK SMILES O=c1c(O)c(-c2ccc(O)c(O)c2)oc2cc(O)cc(O)c12
REMARK SMILES IDX 5 1 3 2 2 3 1 4 22 5 20 6 19 7 17 8 16 9 15 10 14 11 6 12
REMARK SMILES IDX 7 13 8 14 9 15 13 16 11 17 10 18 12 20 4 22 21 24 18 26
REMARK H PARENT 10 19 12 21 4 23 21 25 18 27
REMARK Flexibility Score: inf
ROOT
ATOM      1  C   UNL     1       5.040   8.747  35.258  1.00  0.00     0.180 A 
ATOM      2  C   UNL     1       3.662   9.022  35.291  1.00  0.00     0.208 A 
ATOM      3  C   UNL     1       2.911   8.610  36.403  1.00  0.00     0.238 A 
ATOM      4  O   UNL     1       1.689   8.906  36.451  1.00  0.00    -0.285 OA
ATOM      5  C   UNL     1       3.544   7.915  37.462  1.00  0.00     0.111 A 
ATOM      6  C   UNL     1       2.874   7.415  38.619  1.00  0.00     0.134 A 
ATOM      7  C   UNL     1       3.622   6.859  39.664  1.00  0.00     0.093 A 
ATOM      8  C   UNL     1       5.009   6.724  39.564  1.00  0.00     0.123 A 
ATOM      9  C   UNL     1       5.665   7.154  38.414  1.00  0.00     0.094 A 
ATOM     10  C   UNL     1       4.951   7.746  37.370  1.00  0.00     0.146 A 
ATOM     11  O   UNL     1       5.617   8.152  36.296  1.00  0.00    -0.452 OA
ENDROOT
BRANCH   1  12
ATOM     12  C   UNL     1       5.893   9.128  34.109  1.00  0.00     0.025 A 
ATOM     13  C   UNL     1       6.187   8.215  33.081  1.00  0.00     0.016 A 
ATOM     14  C   UNL     1       7.013   8.589  32.018  1.00  0.00     0.051 A 
ATOM     15  C   UNL     1       7.568   9.874  31.973  1.00  0.00     0.157 A 
ATOM     16  C   UNL     1       6.468  10.408  34.069  1.00  0.00     0.062 A 
ATOM     17  C   UNL     1       7.297  10.787  33.006  1.00  0.00     0.158 A 
BRANCH  15  18
ATOM     18  O   UNL     1       8.391  10.244  30.910  1.00  0.00    -0.504 OA
ATOM     19  H   UNL     1       8.486   9.665  30.085  1.00  0.00     0.293 HD
ENDBRANCH  15  18
BRANCH  17  20
ATOM     20  O   UNL     1       7.840  12.071  32.994  1.00  0.00    -0.504 OA
ATOM     21  H   UNL     1       7.305  12.880  32.700  1.00  0.00     0.293 HD
ENDBRANCH  17  20
ENDBRANCH   1  12
BRANCH   2  22
ATOM     22  O   UNL     1       3.061   9.729  34.245  1.00  0.00    -0.502 OA
ATOM     23  H   UNL     1       2.717  10.674  34.355  1.00  0.00     0.293 HD
ENDBRANCH   2  22
BRANCH   6  24
ATOM     24  O   UNL     1       1.486   7.418  38.778  1.00  0.00    -0.507 OA
ATOM     25  H   UNL     1       0.854   6.767  38.335  1.00  0.00     0.293 HD
ENDBRANCH   6  24
BRANCH   8  26
ATOM     26  O   UNL     1       5.744   6.153  40.602  1.00  0.00    -0.508 OA
ATOM     27  H   UNL     1       5.581   5.200  40.905  1.00  0.00     0.293 HD
ENDBRANCH   8  26
TORSDOF 6
ENDMDL
MODEL 7
REMARK VINA RESULT:    -5.430     10.217     13.205
REMARK INTER + INTRA:          -6.671
REMARK INTER:                  -6.341
REMARK INTRA:                  -0.331
REMARK UNBOUND:                -0.131
REMARK SMILES O=c1c(O)c(-c2ccc(O)c(O)c2)oc2cc(O)cc(O)c12
REMARK SMILES IDX 5 1 3 2 2 3 1 4 22 5 20 6 19 7 17 8 16 9 15 10 14 11 6 12
REMARK SMILES IDX 7 13 8 14 9 15 13 16 11 17 10 18 12 20 4 22 21 24 18 26
REMARK H PARENT 10 19 12 21 4 23 21 25 18 27
REMARK Flexibility Score: inf
ROOT
ATOM      1  C   UNL     1      12.938  13.883  43.857  1.00  0.00     0.180 A 
ATOM      2  C   UNL     1      12.303  14.569  44.907  1.00  0.00     0.208 A 
ATOM      3  C   UNL     1      12.831  15.797  45.336  1.00  0.00     0.238 A 
ATOM      4  O   UNL     1      12.228  16.432  46.240  1.00  0.00    -0.285 OA
ATOM      5  C   UNL     1      13.996  16.316  44.721  1.00  0.00     0.111 A 
ATOM      6  C   UNL     1      14.641  17.531  45.103  1.00  0.00     0.134 A 
ATOM      7  C   UNL     1      15.711  18.014  44.339  1.00  0.00     0.093 A 
ATOM      8  C   UNL     1      16.200  17.292  43.247  1.00  0.00     0.123 A 
ATOM      9  C   UNL     1      15.616  16.076  42.904  1.00  0.00     0.094 A 
ATOM     10  C   UNL     1      14.524  15.586  43.624  1.00  0.00     0.146 A 
ATOM     11  O   UNL     1      13.990  14.427  43.257  1.00  0.00    -0.452 OA
ENDROOT
BRANCH   1  12
ATOM     12  C   UNL     1      12.454  12.572  43.366  1.00  0.00     0.025 A 
ATOM     13  C   UNL     1      12.932  11.366  43.909  1.00  0.00     0.016 A 
ATOM     14  C   UNL     1      12.479  10.140  43.413  1.00  0.00     0.051 A 
ATOM     15  C   UNL     1      11.555  10.101  42.362  1.00  0.00     0.157 A 
ATOM     16  C   UNL     1      11.543  12.527  42.299  1.00  0.00     0.062 A 
ATOM     17  C   UNL     1      11.087  11.301  41.800  1.00  0.00     0.158 A 
BRANCH  15  18
ATOM     18  O   UNL     1      11.104   8.876  41.871  1.00  0.00    -0.504 OA
ATOM     19  H   UNL     1      10.146   8.746  41.570  1.00  0.00     0.293 HD
ENDBRANCH  15  18
BRANCH  17  20
ATOM     20  O   UNL     1      10.173  11.295  40.747  1.00  0.00    -0.504 OA
ATOM     21  H   UNL     1       9.172  11.330  40.903  1.00  0.00     0.293 HD
ENDBRANCH  17  20
ENDBRANCH   1  12
BRANCH   2  22
ATOM     22  O   UNL     1      11.141  14.049  45.486  1.00  0.00    -0.502 OA
ATOM     23  H   UNL     1      11.144  13.576  46.380  1.00  0.00     0.293 HD
ENDBRANCH   2  22
BRANCH   6  24
ATOM     24  O   UNL     1      14.290  18.280  46.228  1.00  0.00    -0.507 OA
ATOM     25  H   UNL     1      14.079  17.892  47.136  1.00  0.00     0.293 HD
ENDBRANCH   6  24
BRANCH   8  26
ATOM     26  O   UNL     1      17.276  17.772  42.502  1.00  0.00    -0.508 OA
ATOM     27  H   UNL     1      18.168  17.291  42.489  1.00  0.00     0.293 HD
ENDBRANCH   8  26
TORSDOF 6
ENDMDL
MODEL 8
REMARK VINA RESULT:    -5.382      9.750     13.225
REMARK INTER + INTRA:          -6.614
REMARK INTER:                  -6.306
REMARK INTRA:                  -0.308
REMARK UNBOUND:                -0.131
REMARK SMILES O=c1c(O)c(-c2ccc(O)c(O)c2)oc2cc(O)cc(O)c12
REMARK SMILES IDX 5 1 3 2 2 3 1 4 22 5 20 6 19 7 17 8 16 9 15 10 14 11 6 12
REMARK SMILES IDX 7 13 8 14 9 15 13 16 11 17 10 18 12 20 4 22 21 24 18 26
REMARK H PARENT 10 19 12 21 4 23 21 25 18 27
REMARK Flexibility Score: inf
ROOT
ATOM      1  C   UNL     1      13.332  13.993  43.857  1.00  0.00     0.180 A 
ATOM      2  C   UNL     1      13.952  12.896  44.481  1.00  0.00     0.208 A 
ATOM      3  C   UNL     1      13.483  11.602  44.208  1.00  0.00     0.238 A 
ATOM      4  O   UNL     1      14.077  10.622  44.728  1.00  0.00    -0.285 OA
ATOM      5  C   UNL     1      12.390  11.420  43.328  1.00  0.00     0.111 A 
ATOM      6  C   UNL     1      11.805  10.157  43.011  1.00  0.00     0.134 A 
ATOM      7  C   UNL     1      10.812  10.083  42.026  1.00  0.00     0.093 A 
ATOM      8  C   UNL     1      10.336  11.235  41.396  1.00  0.00     0.123 A 
ATOM      9  C   UNL     1      10.858  12.479  41.742  1.00  0.00     0.094 A 
ATOM     10  C   UNL     1      11.875  12.581  42.694  1.00  0.00     0.146 A 
ATOM     11  O   UNL     1      12.351  13.785  42.986  1.00  0.00    -0.452 OA
ENDROOT
BRANCH   1  12
ATOM     12  C   UNL     1      13.754  15.389  44.114  1.00  0.00     0.025 A 
ATOM     13  C   UNL     1      14.662  16.046  43.265  1.00  0.00     0.016 A 
ATOM     14  C   UNL     1      15.065  17.356  43.541  1.00  0.00     0.051 A 
ATOM     15  C   UNL     1      14.580  18.021  44.673  1.00  0.00     0.157 A 
ATOM     16  C   UNL     1      13.286  16.053  45.259  1.00  0.00     0.062 A 
ATOM     17  C   UNL     1      13.687  17.365  45.538  1.00  0.00     0.158 A 
BRANCH  15  18
ATOM     18  O   UNL     1      14.982  19.328  44.944  1.00  0.00    -0.504 OA
ATOM     19  H   UNL     1      15.148  19.647  45.891  1.00  0.00     0.293 HD
ENDBRANCH  15  18
BRANCH  17  20
ATOM     20  O   UNL     1      13.192  17.998  46.677  1.00  0.00    -0.504 OA
ATOM     21  H   UNL     1      12.832  17.479  47.469  1.00  0.00     0.293 HD
ENDBRANCH  17  20
ENDBRANCH   1  12
BRANCH   2  22
ATOM     22  O   UNL     1      15.045  13.097  45.330  1.00  0.00    -0.502 OA
ATOM     23  H   UNL     1      15.795  12.423  45.420  1.00  0.00     0.293 HD
ENDBRANCH   2  22
BRANCH   6  24
ATOM     24  O   UNL     1      12.144   8.960  43.647  1.00  0.00    -0.507 OA
ATOM     25  H   UNL     1      11.647   8.565  44.432  1.00  0.00     0.293 HD
ENDBRANCH   6  24
BRANCH   8  26
ATOM     26  O   UNL     1       9.335  11.154  40.429  1.00  0.00    -0.508 OA
ATOM     27  H   UNL     1       8.354  11.153  40.681  1.00  0.00     0.293 HD
ENDBRANCH   8  26
TORSDOF 6
ENDMDL
MODEL 9
REMARK VINA RESULT:    -5.354     11.698     13.982
REMARK INTER + INTRA:          -6.580
REMARK INTER:                  -6.279
REMARK INTRA:                  -0.301
REMARK UNBOUND:                -0.131
REMARK SMILES O=c1c(O)c(-c2ccc(O)c(O)c2)oc2cc(O)cc(O)c12
REMARK SMILES IDX 5 1 3 2 2 3 1 4 22 5 20 6 19 7 17 8 16 9 15 10 14 11 6 12
REMARK SMILES IDX 7 13 8 14 9 15 13 16 11 17 10 18 12 20 4 22 21 24 18 26
REMARK H PARENT 10 19 12 21 4 23 21 25 18 27
REMARK Flexibility Score: inf
ROOT
ATOM      1  C   UNL     1      14.817  15.454  43.402  1.00  0.00     0.180 A 
ATOM      2  C   UNL     1      14.077  14.316  43.038  1.00  0.00     0.208 A 
ATOM      3  C   UNL     1      12.685  14.320  43.223  1.00  0.00     0.238 A 
ATOM      4  O   UNL     1      12.022  13.319  42.846  1.00  0.00    -0.285 OA
ATOM      5  C   UNL     1      12.053  15.456  43.784  1.00  0.00     0.111 A 
ATOM      6  C   UNL     1      10.655  15.555  44.054  1.00  0.00     0.134 A 
ATOM      7  C   UNL     1      10.120  16.774  44.488  1.00  0.00     0.093 A 
ATOM      8  C   UNL     1      10.943  17.878  44.725  1.00  0.00     0.123 A 
ATOM      9  C   UNL     1      12.316  17.773  44.522  1.00  0.00     0.094 A 
ATOM     10  C   UNL     1      12.875  16.582  44.054  1.00  0.00     0.146 A 
ATOM     11  O   UNL     1      14.187  16.528  43.864  1.00  0.00    -0.452 OA
ENDROOT
BRANCH   1  12
ATOM     12  C   UNL     1      16.290  15.515  43.259  1.00  0.00     0.025 A 
ATOM     13  C   UNL     1      17.141  15.312  44.360  1.00  0.00     0.016 A 
ATOM     14  C   UNL     1      18.527  15.398  44.206  1.00  0.00     0.051 A 
ATOM     15  C   UNL     1      19.083  15.702  42.957  1.00  0.00     0.157 A 
ATOM     16  C   UNL     1      16.851  15.839  42.014  1.00  0.00     0.062 A 
ATOM     17  C   UNL     1      18.239  15.927  41.856  1.00  0.00     0.158 A 
BRANCH  15  18
ATOM     18  O   UNL     1      20.466  15.785  42.807  1.00  0.00    -0.504 OA
ATOM     19  H   UNL     1      21.097  15.260  43.401  1.00  0.00     0.293 HD
ENDBRANCH  15  18
BRANCH  17  20
ATOM     20  O   UNL     1      18.761  16.238  40.601  1.00  0.00    -0.504 OA
ATOM     21  H   UNL     1      18.764  17.184  40.238  1.00  0.00     0.293 HD
ENDBRANCH  17  20
ENDBRANCH   1  12
BRANCH   2  22
ATOM     22  O   UNL     1      14.718  13.213  42.465  1.00  0.00    -0.502 OA
ATOM     23  H   UNL     1      15.077  12.445  43.019  1.00  0.00     0.293 HD
ENDBRANCH   2  22
BRANCH   6  24
ATOM     24  O   UNL     1       9.761  14.487  43.939  1.00  0.00    -0.507 OA
ATOM     25  H   UNL     1      10.026  13.534  43.738  1.00  0.00     0.293 HD
ENDBRANCH   6  24
BRANCH   8  26
ATOM     26  O   UNL     1      10.404  19.083  45.173  1.00  0.00    -0.508 OA
ATOM     27  H   UNL     1       9.781  19.632  44.593  1.00  0.00     0.293 HD
ENDBRANCH   8  26
TORSDOF 6
ENDMDL
