MODEL 1
REMARK VINA RESULT:    -3.854      0.000      0.000
REMARK INTER + INTRA:          -4.568
REMARK INTER:                  -4.530
REMARK INTRA:                  -0.038
REMARK UNBOUND:                -0.038
REMARK SMILES O=C([O-])CCC(=O)[O-]
REMARK SMILES IDX 4 1 2 2 1 3 3 4 5 5 6 6 7 7 8 8
REMARK H PARENT
REMARK Flexibility Score: inf
ROOT
ATOM      1  C   UNL     1      -2.903  37.876  16.469  1.00  0.00     0.059 C 
ENDROOT
BRANCH   1   2
ATOM      2  C   UNL     1      -2.805  37.643  14.996  1.00  0.00     0.042 C 
ATOM      3  O   UNL     1      -1.729  37.232  14.489  1.00  0.00    -0.550 OA
ATOM      4  O   UNL     1      -3.888  37.929  14.173  1.00  0.00    -0.550 OA
ENDBRANCH   1   2
BRANCH   1   5
ATOM      5  C   UNL     1      -1.583  37.524  17.156  1.00  0.00     0.059 C 
BRANCH   5   6
ATOM      6  C   UNL     1      -1.524  38.132  18.522  1.00  0.00     0.042 C 
ATOM      7  O   UNL     1      -0.419  38.487  19.011  1.00  0.00    -0.550 OA
ATOM      8  O   UNL     1      -2.684  38.261  19.276  1.00  0.00    -0.550 OA
ENDBRANCH   5   6
ENDBRANCH   1   5
TORSDOF 3
ENDMDL
MODEL 2
REMARK VINA RESULT:    -3.831      2.193      2.681
REMARK INTER + INTRA:          -4.541
REMARK INTER:                  -4.457
REMARK INTRA:                  -0.084
REMARK UNBOUND:                -0.038
REMARK SMILES O=C([O-])CCC(=O)[O-]
REMARK SMILES IDX 4 1 2 2 1 3 3 4 5 5 6 6 7 7 8 8
REMARK H PARENT
REMARK Flexibility Score: inf
ROOT
ATOM      1  C   UNL     1      -2.097  37.896  18.112  1.00  0.00     0.059 C 
ENDROOT
BRANCH   1   2
ATOM      2  C   UNL     1      -2.162  37.676  16.635  1.00  0.00     0.042 C 
ATOM      3  O   UNL     1      -1.445  36.795  16.093  1.00  0.00    -0.550 OA
ATOM      4  O   UNL     1      -2.980  38.478  15.847  1.00  0.00    -0.550 OA
ENDBRANCH   1   2
BRANCH   1   5
ATOM      5  C   UNL     1      -3.499  37.860  18.721  1.00  0.00     0.059 C 
BRANCH   5   6
ATOM      6  C   UNL     1      -3.855  36.468  19.139  1.00  0.00     0.042 C 
ATOM      7  O   UNL     1      -3.733  36.117  20.342  1.00  0.00    -0.550 OA
ATOM      8  O   UNL     1      -4.273  35.544  18.191  1.00  0.00    -0.550 OA
ENDBRANCH   5   6
ENDBRANCH   1   5
TORSDOF 3
ENDMDL
MODEL 3
REMARK VINA RESULT:    -3.822      2.185      3.823
REMARK INTER + INTRA:          -4.530
REMARK INTER:                  -4.448
REMARK INTRA:                  -0.082
REMARK UNBOUND:                -0.038
REMARK SMILES O=C([O-])CCC(=O)[O-]
REMARK SMILES IDX 4 1 2 2 1 3 3 4 5 5 6 6 7 7 8 8
REMARK H PARENT
REMARK Flexibility Score: inf
ROOT
ATOM      1  C   UNL     1      -3.513  37.885  18.710  1.00  0.00     0.059 C 
ENDROOT
BRANCH   1   2
ATOM      2  C   UNL     1      -3.870  36.504  19.157  1.00  0.00     0.042 C 
ATOM      3  O   UNL     1      -3.772  36.185  20.370  1.00  0.00    -0.550 OA
ATOM      4  O   UNL     1      -4.266  35.551  18.225  1.00  0.00    -0.550 OA
ENDBRANCH   1   2
BRANCH   1   5
ATOM      5  C   UNL     1      -2.105  37.908  18.114  1.00  0.00     0.059 C 
BRANCH   5   6
ATOM      6  C   UNL     1      -2.155  37.662  16.639  1.00  0.00     0.042 C 
ATOM      7  O   UNL     1      -1.416  36.786  16.117  1.00  0.00    -0.550 OA
ATOM      8  O   UNL     1      -2.981  38.436  15.834  1.00  0.00    -0.550 OA
ENDBRANCH   5   6
ENDBRANCH   1   5
TORSDOF 3
ENDMDL
MODEL 4
REMARK VINA RESULT:    -3.793      0.561      4.010
REMARK INTER + INTRA:          -4.496
REMARK INTER:                  -4.443
REMARK INTRA:                  -0.053
REMARK UNBOUND:                -0.038
REMARK SMILES O=C([O-])CCC(=O)[O-]
REMARK SMILES IDX 4 1 2 2 1 3 3 4 5 5 6 6 7 7 8 8
REMARK H PARENT
REMARK Flexibility Score: inf
ROOT
ATOM      1  C   UNL     1      -1.473  37.459  17.229  1.00  0.00     0.059 C 
ENDROOT
BRANCH   1   2
ATOM      2  C   UNL     1      -1.678  38.189  18.517  1.00  0.00     0.042 C 
ATOM      3  O   UNL     1      -0.698  38.703  19.117  1.00  0.00    -0.550 OA
ATOM      4  O   UNL     1      -2.946  38.261  19.081  1.00  0.00    -0.550 OA
ENDBRANCH   1   2
BRANCH   1   5
ATOM      5  C   UNL     1      -2.809  37.239  16.518  1.00  0.00     0.059 C 
BRANCH   5   6
ATOM      6  C   UNL     1      -2.778  37.835  15.146  1.00  0.00     0.042 C 
ATOM      7  O   UNL     1      -2.010  37.363  14.267  1.00  0.00    -0.550 OA
ATOM      8  O   UNL     1      -3.560  38.946  14.853  1.00  0.00    -0.550 OA
ENDBRANCH   5   6
ENDBRANCH   1   5
TORSDOF 3
ENDMDL
MODEL 5
REMARK VINA RESULT:    -3.757      2.148      3.978
REMARK INTER + INTRA:          -4.454
REMARK INTER:                  -4.373
REMARK INTRA:                  -0.081
REMARK UNBOUND:                -0.038
REMARK SMILES O=C([O-])CCC(=O)[O-]
REMARK SMILES IDX 4 1 2 2 1 3 3 4 5 5 6 6 7 7 8 8
REMARK H PARENT
REMARK Flexibility Score: inf
ROOT
ATOM      1  C   UNL     1      -3.504  37.883  18.642  1.00  0.00     0.059 C 
ENDROOT
BRANCH   1   2
ATOM      2  C   UNL     1      -3.843  36.495  19.082  1.00  0.00     0.042 C 
ATOM      3  O   UNL     1      -4.173  35.624  18.235  1.00  0.00    -0.550 OA
ATOM      4  O   UNL     1      -3.843  36.175  20.434  1.00  0.00    -0.550 OA
ENDBRANCH   1   2
BRANCH   1   5
ATOM      5  C   UNL     1      -2.109  37.922  18.018  1.00  0.00     0.059 C 
BRANCH   5   6
ATOM      6  C   UNL     1      -2.196  37.793  16.529  1.00  0.00     0.042 C 
ATOM      7  O   UNL     1      -3.032  38.477  15.882  1.00  0.00    -0.550 OA
ATOM      8  O   UNL     1      -1.388  36.880  15.863  1.00  0.00    -0.550 OA
ENDBRANCH   5   6
ENDBRANCH   1   5
TORSDOF 3
ENDMDL
MODEL 6
REMARK VINA RESULT:    -3.694      2.631      3.664
REMARK INTER + INTRA:          -4.379
REMARK INTER:                  -4.267
REMARK INTRA:                  -0.113
REMARK UNBOUND:                -0.038
REMARK SMILES O=C([O-])CCC(=O)[O-]
REMARK SMILES IDX 4 1 2 2 1 3 3 4 5 5 6 6 7 7 8 8
REMARK H PARENT
REMARK Flexibility Score: inf
ROOT
ATOM      1  C   UNL     1      -3.488  36.953  19.513  1.00  0.00     0.059 C 
ENDROOT
BRANCH   1   2
ATOM      2  C   UNL     1      -4.539  36.034  18.980  1.00  0.00     0.042 C 
ATOM      3  O   UNL     1      -4.293  35.295  17.992  1.00  0.00    -0.550 OA
ATOM      4  O   UNL     1      -5.809  36.029  19.544  1.00  0.00    -0.550 OA
ENDBRANCH   1   2
BRANCH   1   5
ATOM      5  C   UNL     1      -3.166  38.048  18.495  1.00  0.00     0.059 C 
BRANCH   5   6
ATOM      6  C   UNL     1      -1.778  37.877  17.961  1.00  0.00     0.042 C 
ATOM      7  O   UNL     1      -1.592  37.331  16.842  1.00  0.00    -0.550 OA
ATOM      8  O   UNL     1      -0.687  38.274  18.723  1.00  0.00    -0.550 OA
ENDBRANCH   5   6
ENDBRANCH   1   5
TORSDOF 3
ENDMDL
MODEL 7
REMARK VINA RESULT:    -3.594      3.018      5.055
REMARK INTER + INTRA:          -4.262
REMARK INTER:                  -4.233
REMARK INTRA:                  -0.029
REMARK UNBOUND:                -0.038
REMARK SMILES O=C([O-])CCC(=O)[O-]
REMARK SMILES IDX 4 1 2 2 1 3 3 4 5 5 6 6 7 7 8 8
REMARK H PARENT
REMARK Flexibility Score: inf
ROOT
ATOM      1  C   UNL     1      -4.578  38.108  19.849  1.00  0.00     0.059 C 
ENDROOT
BRANCH   1   2
ATOM      2  C   UNL     1      -5.063  37.467  21.110  1.00  0.00     0.042 C 
ATOM      3  O   UNL     1      -5.816  36.460  21.060  1.00  0.00    -0.550 OA
ATOM      4  O   UNL     1      -4.725  38.014  22.342  1.00  0.00    -0.550 OA
ENDBRANCH   1   2
BRANCH   1   5
ATOM      5  C   UNL     1      -3.517  37.235  19.179  1.00  0.00     0.059 C 
BRANCH   5   6
ATOM      6  C   UNL     1      -2.579  38.076  18.371  1.00  0.00     0.042 C 
ATOM      7  O   UNL     1      -2.722  38.164  17.123  1.00  0.00    -0.550 OA
ATOM      8  O   UNL     1      -1.517  38.722  18.990  1.00  0.00    -0.550 OA
ENDBRANCH   5   6
ENDBRANCH   1   5
TORSDOF 3
ENDMDL
MODEL 8
REMARK VINA RESULT:    -3.591      3.044      4.222
REMARK INTER + INTRA:          -4.258
REMARK INTER:                  -4.229
REMARK INTRA:                  -0.029
REMARK UNBOUND:                -0.038
REMARK SMILES O=C([O-])CCC(=O)[O-]
REMARK SMILES IDX 4 1 2 2 1 3 3 4 5 5 6 6 7 7 8 8
REMARK H PARENT
REMARK Flexibility Score: inf
ROOT
ATOM      1  C   UNL     1      -3.534  37.261  19.230  1.00  0.00     0.059 C 
ENDROOT
BRANCH   1   2
ATOM      2  C   UNL     1      -2.600  38.085  18.403  1.00  0.00     0.042 C 
ATOM      3  O   UNL     1      -2.760  38.166  17.157  1.00  0.00    -0.550 OA
ATOM      4  O   UNL     1      -1.522  38.725  19.002  1.00  0.00    -0.550 OA
ENDBRANCH   1   2
BRANCH   1   5
ATOM      5  C   UNL     1      -4.624  38.140  19.845  1.00  0.00     0.059 C 
BRANCH   5   6
ATOM      6  C   UNL     1      -5.127  37.537  21.119  1.00  0.00     0.042 C 
ATOM      7  O   UNL     1      -4.771  38.014  22.229  1.00  0.00    -0.550 OA
ATOM      8  O   UNL     1      -5.949  36.418  21.081  1.00  0.00    -0.550 OA
ENDBRANCH   5   6
ENDBRANCH   1   5
TORSDOF 3
ENDMDL
MODEL 9
REMARK VINA RESULT:    -3.587      3.033      4.188
REMARK INTER + INTRA:          -4.254
REMARK INTER:                  -4.217
REMARK INTRA:                  -0.037
REMARK UNBOUND:                -0.038
REMARK SMILES O=C([O-])CCC(=O)[O-]
REMARK SMILES IDX 4 1 2 2 1 3 3 4 5 5 6 6 7 7 8 8
REMARK H PARENT
REMARK Flexibility Score: inf
ROOT
ATOM      1  C   UNL     1      -3.598  37.230  19.146  1.00  0.00     0.059 C 
ENDROOT
BRANCH   1   2
ATOM      2  C   UNL     1      -2.587  38.064  18.426  1.00  0.00     0.042 C 
ATOM      3  O   UNL     1      -1.682  38.656  19.068  1.00  0.00    -0.550 OA
ATOM      4  O   UNL     1      -2.674  38.227  17.048  1.00  0.00    -0.550 OA
ENDBRANCH   1   2
BRANCH   1   5
ATOM      5  C   UNL     1      -4.668  38.116  19.783  1.00  0.00     0.059 C 
BRANCH   5   6
ATOM      6  C   UNL     1      -5.094  37.557  21.104  1.00  0.00     0.042 C 
ATOM      7  O   UNL     1      -5.852  36.552  21.152  1.00  0.00    -0.550 OA
ATOM      8  O   UNL     1      -4.696  38.177  22.282  1.00  0.00    -0.550 OA
ENDBRANCH   5   6
ENDBRANCH   1   5
TORSDOF 3
ENDMDL
