MODEL 1
REMARK VINA RESULT:    -4.238      0.000      0.000
REMARK INTER + INTRA:          -6.073
REMARK INTER:                  -5.724
REMARK INTRA:                  -0.349
REMARK UNBOUND:                -0.349
REMARK SMILES CCCCCCCC(=O)[O-]
REMARK SMILES IDX 5 1 6 2 7 3 8 4 9 5 10 6 4 7 3 8 2 9 1 10
REMARK H PARENT
REMARK Flexibility Score: inf
ROOT
ATOM      1  C   UNL     1      -9.672  -5.881  -7.013  1.00  0.00     0.000 C 
ENDROOT
BRANCH   1   2
ATOM      2  C   UNL     1     -10.604  -6.466  -5.938  1.00  0.00     0.006 C 
BRANCH   2   3
ATOM      3  C   UNL     1     -11.013  -5.419  -4.893  1.00  0.00     0.053 C 
BRANCH   3   4
ATOM      4  C   UNL     1     -12.492  -5.180  -4.891  1.00  0.00     0.041 C 
ATOM      5  O   UNL     1     -13.096  -4.946  -5.970  1.00  0.00    -0.550 OA
ATOM      6  O   UNL     1     -13.206  -5.245  -3.701  1.00  0.00    -0.550 OA
ENDBRANCH   3   4
ENDBRANCH   2   3
ENDBRANCH   1   2
BRANCH   1   7
ATOM      7  C   UNL     1     -10.423  -5.482  -8.293  1.00  0.00     0.000 C 
BRANCH   7   8
ATOM      8  C   UNL     1     -10.754  -3.983  -8.345  1.00  0.00    -0.000 C 
BRANCH   8   9
ATOM      9  C   UNL     1     -11.388  -3.608  -9.689  1.00  0.00    -0.003 C 
ATOM     10  C   UNL     1     -11.004  -4.605 -10.778  1.00  0.00     0.004 C 
ENDBRANCH   8   9
ENDBRANCH   7   8
ENDBRANCH   1   7
TORSDOF 6
ENDMDL
MODEL 2
REMARK VINA RESULT:    -4.193      1.022      1.490
REMARK INTER + INTRA:          -6.013
REMARK INTER:                  -5.630
REMARK INTRA:                  -0.383
REMARK UNBOUND:                -0.349
REMARK SMILES CCCCCCCC(=O)[O-]
REMARK SMILES IDX 5 1 6 2 7 3 8 4 9 5 10 6 4 7 3 8 2 9 1 10
REMARK H PARENT
REMARK Flexibility Score: inf
ROOT
ATOM      1  C   UNL     1      -9.681  -5.988  -6.538  1.00  0.00     0.000 C 
ENDROOT
BRANCH   1   2
ATOM      2  C   UNL     1     -10.304  -5.870  -5.136  1.00  0.00     0.006 C 
BRANCH   2   3
ATOM      3  C   UNL     1     -11.577  -5.013  -5.138  1.00  0.00     0.053 C 
BRANCH   3   4
ATOM      4  C   UNL     1     -12.738  -5.736  -4.527  1.00  0.00     0.041 C 
ATOM      5  O   UNL     1     -13.320  -5.260  -3.518  1.00  0.00    -0.550 OA
ATOM      6  O   UNL     1     -13.196  -6.921  -5.092  1.00  0.00    -0.550 OA
ENDBRANCH   3   4
ENDBRANCH   2   3
ENDBRANCH   1   2
BRANCH   1   7
ATOM      7  C   UNL     1     -10.702  -6.412  -7.605  1.00  0.00     0.000 C 
BRANCH   7   8
ATOM      8  C   UNL     1     -10.587  -5.589  -8.897  1.00  0.00    -0.000 C 
BRANCH   8   9
ATOM      9  C   UNL     1     -10.743  -4.092  -8.608  1.00  0.00    -0.003 C 
ATOM     10  C   UNL     1     -11.484  -3.385  -9.740  1.00  0.00     0.004 C 
ENDBRANCH   8   9
ENDBRANCH   7   8
ENDBRANCH   1   7
TORSDOF 6
ENDMDL
MODEL 3
REMARK VINA RESULT:    -4.142      1.448      3.018
REMARK INTER + INTRA:          -5.944
REMARK INTER:                  -5.428
REMARK INTRA:                  -0.516
REMARK UNBOUND:                -0.349
REMARK SMILES CCCCCCCC(=O)[O-]
REMARK SMILES IDX 5 1 6 2 7 3 8 4 9 5 10 6 4 7 3 8 2 9 1 10
REMARK H PARENT
REMARK Flexibility Score: inf
ROOT
ATOM      1  C   UNL     1     -11.153  -3.896  -7.281  1.00  0.00     0.000 C 
ENDROOT
BRANCH   1   2
ATOM      2  C   UNL     1     -12.409  -4.332  -6.506  1.00  0.00     0.006 C 
BRANCH   2   3
ATOM      3  C   UNL     1     -12.115  -4.590  -5.023  1.00  0.00     0.053 C 
BRANCH   3   4
ATOM      4  C   UNL     1     -12.942  -5.713  -4.476  1.00  0.00     0.041 C 
ATOM      5  O   UNL     1     -13.634  -5.542  -3.439  1.00  0.00    -0.550 OA
ATOM      6  O   UNL     1     -12.971  -6.939  -5.129  1.00  0.00    -0.550 OA
ENDBRANCH   3   4
ENDBRANCH   2   3
ENDBRANCH   1   2
BRANCH   1   7
ATOM      7  C   UNL     1     -10.734  -4.916  -8.351  1.00  0.00     0.000 C 
BRANCH   7   8
ATOM      8  C   UNL     1     -10.379  -6.288  -7.757  1.00  0.00    -0.000 C 
BRANCH   8   9
ATOM      9  C   UNL     1      -9.274  -6.159  -6.703  1.00  0.00    -0.003 C 
ATOM     10  C   UNL     1      -9.474  -7.161  -5.569  1.00  0.00     0.004 C 
ENDBRANCH   8   9
ENDBRANCH   7   8
ENDBRANCH   1   7
TORSDOF 6
ENDMDL
MODEL 4
REMARK VINA RESULT:    -4.052      1.879      2.336
REMARK INTER + INTRA:          -5.823
REMARK INTER:                  -5.411
REMARK INTRA:                  -0.412
REMARK UNBOUND:                -0.349
REMARK SMILES CCCCCCCC(=O)[O-]
REMARK SMILES IDX 5 1 6 2 7 3 8 4 9 5 10 6 4 7 3 8 2 9 1 10
REMARK H PARENT
REMARK Flexibility Score: inf
ROOT
ATOM      1  C   UNL     1     -11.553  -3.786  -6.526  1.00  0.00     0.000 C 
ENDROOT
BRANCH   1   2
ATOM      2  C   UNL     1     -12.697  -4.742  -6.145  1.00  0.00     0.006 C 
BRANCH   2   3
ATOM      3  C   UNL     1     -12.270  -5.761  -5.080  1.00  0.00     0.053 C 
BRANCH   3   4
ATOM      4  C   UNL     1     -11.090  -6.570  -5.523  1.00  0.00     0.041 C 
ATOM      5  O   UNL     1     -11.223  -7.447  -6.416  1.00  0.00    -0.550 OA
ATOM      6  O   UNL     1      -9.837  -6.336  -4.970  1.00  0.00    -0.550 OA
ENDBRANCH   3   4
ENDBRANCH   2   3
ENDBRANCH   1   2
BRANCH   1   7
ATOM      7  C   UNL     1     -11.375  -3.654  -8.047  1.00  0.00     0.000 C 
BRANCH   7   8
ATOM      8  C   UNL     1     -10.455  -4.735  -8.634  1.00  0.00    -0.000 C 
BRANCH   8   9
ATOM      9  C   UNL     1     -11.164  -5.511  -9.748  1.00  0.00    -0.003 C 
ATOM     10  C   UNL     1     -11.124  -4.745 -11.068  1.00  0.00     0.004 C 
ENDBRANCH   8   9
ENDBRANCH   7   8
ENDBRANCH   1   7
TORSDOF 6
ENDMDL
MODEL 5
REMARK VINA RESULT:    -4.029      2.252      2.808
REMARK INTER + INTRA:          -5.792
REMARK INTER:                  -5.543
REMARK INTRA:                  -0.248
REMARK UNBOUND:                -0.349
REMARK SMILES CCCCCCCC(=O)[O-]
REMARK SMILES IDX 5 1 6 2 7 3 8 4 9 5 10 6 4 7 3 8 2 9 1 10
REMARK H PARENT
REMARK Flexibility Score: inf
ROOT
ATOM      1  C   UNL     1     -11.063  -5.218  -7.622  1.00  0.00     0.000 C 
ENDROOT
BRANCH   1   2
ATOM      2  C   UNL     1      -9.730  -5.868  -7.211  1.00  0.00     0.006 C 
BRANCH   2   3
ATOM      3  C   UNL     1      -9.681  -6.191  -5.712  1.00  0.00     0.053 C 
BRANCH   3   4
ATOM      4  C   UNL     1      -9.844  -7.657  -5.450  1.00  0.00     0.041 C 
ATOM      5  O   UNL     1      -8.913  -8.311  -4.912  1.00  0.00    -0.550 OA
ATOM      6  O   UNL     1     -11.036  -8.294  -5.773  1.00  0.00    -0.550 OA
ENDBRANCH   3   4
ENDBRANCH   2   3
ENDBRANCH   1   2
BRANCH   1   7
ATOM      7  C   UNL     1     -10.886  -3.782  -8.138  1.00  0.00     0.000 C 
BRANCH   7   8
ATOM      8  C   UNL     1     -11.473  -3.580  -9.544  1.00  0.00    -0.000 C 
BRANCH   8   9
ATOM      9  C   UNL     1     -10.762  -4.472 -10.567  1.00  0.00    -0.003 C 
ATOM     10  C   UNL     1     -11.707  -5.533 -11.125  1.00  0.00     0.004 C 
ENDBRANCH   8   9
ENDBRANCH   7   8
ENDBRANCH   1   7
TORSDOF 6
ENDMDL
MODEL 6
REMARK VINA RESULT:    -3.997      1.883      4.523
REMARK INTER + INTRA:          -5.749
REMARK INTER:                  -5.422
REMARK INTRA:                  -0.327
REMARK UNBOUND:                -0.349
REMARK SMILES CCCCCCCC(=O)[O-]
REMARK SMILES IDX 5 1 6 2 7 3 8 4 9 5 10 6 4 7 3 8 2 9 1 10
REMARK H PARENT
REMARK Flexibility Score: inf
ROOT
ATOM      1  C   UNL     1      -9.623  -6.033  -6.644  1.00  0.00     0.000 C 
ENDROOT
BRANCH   1   2
ATOM      2  C   UNL     1     -10.654  -6.179  -7.777  1.00  0.00     0.006 C 
BRANCH   2   3
ATOM      3  C   UNL     1     -10.387  -5.205  -8.932  1.00  0.00     0.053 C 
BRANCH   3   4
ATOM      4  C   UNL     1     -11.234  -3.974  -8.833  1.00  0.00     0.041 C 
ATOM      5  O   UNL     1     -11.967  -3.790  -7.826  1.00  0.00    -0.550 OA
ATOM      6  O   UNL     1     -11.191  -3.015  -9.837  1.00  0.00    -0.550 OA
ENDBRANCH   3   4
ENDBRANCH   2   3
ENDBRANCH   1   2
BRANCH   1   7
ATOM      7  C   UNL     1     -10.250  -6.183  -5.249  1.00  0.00     0.000 C 
BRANCH   7   8
ATOM      8  C   UNL     1     -11.771  -6.397  -5.302  1.00  0.00    -0.000 C 
BRANCH   8   9
ATOM      9  C   UNL     1     -12.515  -5.186  -4.731  1.00  0.00    -0.003 C 
ATOM     10  C   UNL     1     -13.441  -5.594  -3.589  1.00  0.00     0.004 C 
ENDBRANCH   8   9
ENDBRANCH   7   8
ENDBRANCH   1   7
TORSDOF 6
ENDMDL
MODEL 7
REMARK VINA RESULT:    -3.987      2.500      4.662
REMARK INTER + INTRA:          -5.734
REMARK INTER:                  -5.231
REMARK INTRA:                  -0.503
REMARK UNBOUND:                -0.349
REMARK SMILES CCCCCCCC(=O)[O-]
REMARK SMILES IDX 5 1 6 2 7 3 8 4 9 5 10 6 4 7 3 8 2 9 1 10
REMARK H PARENT
REMARK Flexibility Score: inf
ROOT
ATOM      1  C   UNL     1     -12.389  -4.040  -6.689  1.00  0.00     0.000 C 
ENDROOT
BRANCH   1   2
ATOM      2  C   UNL     1     -11.059  -3.766  -7.413  1.00  0.00     0.006 C 
BRANCH   2   3
ATOM      3  C   UNL     1     -11.204  -3.844  -8.938  1.00  0.00     0.053 C 
BRANCH   3   4
ATOM      4  C   UNL     1     -10.927  -5.223  -9.456  1.00  0.00     0.041 C 
ATOM      5  O   UNL     1     -10.243  -6.029  -8.773  1.00  0.00    -0.550 OA
ATOM      6  O   UNL     1     -11.449  -5.626 -10.679  1.00  0.00    -0.550 OA
ENDBRANCH   3   4
ENDBRANCH   2   3
ENDBRANCH   1   2
BRANCH   1   7
ATOM      7  C   UNL     1     -12.327  -5.283  -5.787  1.00  0.00     0.000 C 
BRANCH   7   8
ATOM      8  C   UNL     1     -10.960  -5.456  -5.107  1.00  0.00    -0.000 C 
BRANCH   8   9
ATOM      9  C   UNL     1     -10.351  -6.822  -5.440  1.00  0.00    -0.003 C 
ATOM     10  C   UNL     1     -11.410  -7.785  -5.969  1.00  0.00     0.004 C 
ENDBRANCH   8   9
ENDBRANCH   7   8
ENDBRANCH   1   7
TORSDOF 6
ENDMDL
MODEL 8
REMARK VINA RESULT:    -3.960      2.297      4.012
REMARK INTER + INTRA:          -5.698
REMARK INTER:                  -5.239
REMARK INTRA:                  -0.459
REMARK UNBOUND:                -0.349
REMARK SMILES CCCCCCCC(=O)[O-]
REMARK SMILES IDX 5 1 6 2 7 3 8 4 9 5 10 6 4 7 3 8 2 9 1 10
REMARK H PARENT
REMARK Flexibility Score: inf
ROOT
ATOM      1  C   UNL     1     -10.868  -4.625  -7.922  1.00  0.00     0.000 C 
ENDROOT
BRANCH   1   2
ATOM      2  C   UNL     1     -10.233  -6.012  -7.713  1.00  0.00     0.006 C 
BRANCH   2   3
ATOM      3  C   UNL     1      -9.444  -6.095  -6.400  1.00  0.00     0.053 C 
BRANCH   3   4
ATOM      4  C   UNL     1      -9.752  -7.350  -5.642  1.00  0.00     0.041 C 
ATOM      5  O   UNL     1     -10.861  -7.925  -5.794  1.00  0.00    -0.550 OA
ATOM      6  O   UNL     1      -8.803  -7.901  -4.790  1.00  0.00    -0.550 OA
ENDBRANCH   3   4
ENDBRANCH   2   3
ENDBRANCH   1   2
BRANCH   1   7
ATOM      7  C   UNL     1     -11.430  -4.030  -6.621  1.00  0.00     0.000 C 
BRANCH   7   8
ATOM      8  C   UNL     1     -12.717  -4.727  -6.157  1.00  0.00    -0.000 C 
BRANCH   8   9
ATOM      9  C   UNL     1     -12.636  -5.094  -4.671  1.00  0.00    -0.003 C 
ATOM     10  C   UNL     1     -13.439  -6.356  -4.369  1.00  0.00     0.004 C 
ENDBRANCH   8   9
ENDBRANCH   7   8
ENDBRANCH   1   7
TORSDOF 6
ENDMDL
MODEL 9
REMARK VINA RESULT:    -3.799      2.656      5.037
REMARK INTER + INTRA:          -5.481
REMARK INTER:                  -5.323
REMARK INTRA:                  -0.158
REMARK UNBOUND:                -0.349
REMARK SMILES CCCCCCCC(=O)[O-]
REMARK SMILES IDX 5 1 6 2 7 3 8 4 9 5 10 6 4 7 3 8 2 9 1 10
REMARK H PARENT
REMARK Flexibility Score: inf
ROOT
ATOM      1  C   UNL     1      -9.646  -6.251  -6.603  1.00  0.00     0.000 C 
ENDROOT
BRANCH   1   2
ATOM      2  C   UNL     1     -10.654  -6.242  -7.766  1.00  0.00     0.006 C 
BRANCH   2   3
ATOM      3  C   UNL     1     -10.324  -5.170  -8.812  1.00  0.00     0.053 C 
BRANCH   3   4
ATOM      4  C   UNL     1     -11.253  -3.997  -8.723  1.00  0.00     0.041 C 
ATOM      5  O   UNL     1     -11.382  -3.217  -9.701  1.00  0.00    -0.550 OA
ATOM      6  O   UNL     1     -11.999  -3.785  -7.570  1.00  0.00    -0.550 OA
ENDBRANCH   3   4
ENDBRANCH   2   3
ENDBRANCH   1   2
BRANCH   1   7
ATOM      7  C   UNL     1     -10.031  -7.243  -5.495  1.00  0.00     0.000 C 
BRANCH   7   8
ATOM      8  C   UNL     1      -8.808  -7.886  -4.823  1.00  0.00    -0.000 C 
BRANCH   8   9
ATOM      9  C   UNL     1      -8.781  -9.399  -5.068  1.00  0.00    -0.003 C 
ATOM     10  C   UNL     1      -7.349  -9.927  -5.103  1.00  0.00     0.004 C 
ENDBRANCH   8   9
ENDBRANCH   7   8
ENDBRANCH   1   7
TORSDOF 6
ENDMDL
