MODEL 1
REMARK VINA RESULT:    -6.226      0.000      0.000
REMARK INTER + INTRA:          -8.921
REMARK INTER:                  -8.410
REMARK INTRA:                  -0.511
REMARK UNBOUND:                -0.511
REMARK SMILES COc1ccc(-c2cc(=O)c3c(OC)c(OC)c(OC)c(OC)c3o2)cc1
REMARK SMILES IDX 7 1 8 2 9 3 10 4 11 5 24 6 25 7 21 8 18 9 15 10 12 11 6 12
REMARK SMILES IDX 3 13 4 14 27 15 5 16 26 17 2 18 1 19 22 20 23 21 13 22 14 23
REMARK SMILES IDX 19 24 20 25 16 26 17 27
REMARK H PARENT
REMARK Flexibility Score: inf
ROOT
ATOM      1  C   UNL     1       7.077  10.099 -15.537  1.00  0.00     0.138 A 
ATOM      2  C   UNL     1       6.381   9.681 -16.678  1.00  0.00     0.100 A 
ATOM      3  C   UNL     1       6.582  10.349 -17.884  1.00  0.00     0.197 A 
ATOM      4  O   UNL     1       5.944   9.960 -18.900  1.00  0.00    -0.289 OA
ATOM      5  C   UNL     1       7.486  11.438 -17.945  1.00  0.00     0.115 A 
ATOM      6  C   UNL     1       8.167  11.780 -16.760  1.00  0.00     0.188 A 
ATOM      7  O   UNL     1       7.936  11.110 -15.632  1.00  0.00    -0.452 OA
ATOM      8  C   UNL     1       9.085  12.836 -16.746  1.00  0.00     0.209 A 
ATOM      9  C   UNL     1       9.283  13.627 -17.900  1.00  0.00     0.211 A 
ATOM     10  C   UNL     1       8.612  13.284 -19.106  1.00  0.00     0.208 A 
ATOM     11  C   UNL     1       7.724  12.173 -19.132  1.00  0.00     0.179 A 
ENDROOT
BRANCH   1  12
ATOM     12  C   UNL     1       6.889   9.434 -14.222  1.00  0.00     0.018 A 
ATOM     13  C   UNL     1       6.552   8.129 -11.739  1.00  0.00     0.118 A 
ATOM     14  C   UNL     1       6.676   9.520 -11.797  1.00  0.00     0.047 A 
ATOM     15  C   UNL     1       6.609   7.386 -12.933  1.00  0.00     0.047 A 
ATOM     16  C   UNL     1       6.847  10.170 -13.023  1.00  0.00     0.016 A 
ATOM     17  C   UNL     1       6.781   8.034 -14.159  1.00  0.00     0.016 A 
BRANCH  13  18
ATOM     18  O   UNL     1       6.379   7.526 -10.484  1.00  0.00    -0.497 OA
ATOM     19  C   UNL     1       6.956   8.009  -9.275  1.00  0.00     0.278 C 
ENDBRANCH  13  18
ENDBRANCH   1  12
BRANCH   8  20
ATOM     20  O   UNL     1       9.791  13.102 -15.568  1.00  0.00    -0.490 OA
ATOM     21  C   UNL     1       9.280  13.972 -14.563  1.00  0.00     0.278 C 
ENDBRANCH   8  20
BRANCH  11  22
ATOM     22  O   UNL     1       7.047  11.764 -20.302  1.00  0.00    -0.492 OA
ATOM     23  C   UNL     1       5.875  12.336 -20.874  1.00  0.00     0.278 C 
ENDBRANCH  11  22
BRANCH   9  24
ATOM     24  O   UNL     1      10.131  14.751 -17.899  1.00  0.00    -0.490 OA
ATOM     25  C   UNL     1       9.787  16.090 -17.560  1.00  0.00     0.279 C 
ENDBRANCH   9  24
BRANCH  10  26
ATOM     26  O   UNL     1       8.779  14.019 -20.297  1.00  0.00    -0.490 OA
ATOM     27  C   UNL     1       8.131  15.230 -20.676  1.00  0.00     0.278 C 
ENDBRANCH  10  26
TORSDOF 6
ENDMDL
MODEL 2
REMARK VINA RESULT:    -6.125      0.984      3.486
REMARK INTER + INTRA:          -8.784
REMARK INTER:                  -8.311
REMARK INTRA:                  -0.473
REMARK UNBOUND:                -0.511
REMARK SMILES COc1ccc(-c2cc(=O)c3c(OC)c(OC)c(OC)c(OC)c3o2)cc1
REMARK SMILES IDX 7 1 8 2 9 3 10 4 11 5 24 6 25 7 21 8 18 9 15 10 12 11 6 12
REMARK SMILES IDX 3 13 4 14 27 15 5 16 26 17 2 18 1 19 22 20 23 21 13 22 14 23
REMARK SMILES IDX 19 24 20 25 16 26 17 27
REMARK H PARENT
REMARK Flexibility Score: inf
ROOT
ATOM      1  C   UNL     1       7.712  11.190 -14.391  1.00  0.00     0.138 A 
ATOM      2  C   UNL     1       8.542  12.242 -13.986  1.00  0.00     0.100 A 
ATOM      3  C   UNL     1       8.938  13.199 -14.919  1.00  0.00     0.197 A 
ATOM      4  O   UNL     1       9.688  14.138 -14.535  1.00  0.00    -0.289 OA
ATOM      5  C   UNL     1       8.497  13.100 -16.261  1.00  0.00     0.115 A 
ATOM      6  C   UNL     1       7.642  12.026 -16.583  1.00  0.00     0.188 A 
ATOM      7  O   UNL     1       7.296  11.137 -15.653  1.00  0.00    -0.452 OA
ATOM      8  C   UNL     1       7.155  11.870 -17.885  1.00  0.00     0.209 A 
ATOM      9  C   UNL     1       7.578  12.739 -18.916  1.00  0.00     0.211 A 
ATOM     10  C   UNL     1       8.429  13.834 -18.602  1.00  0.00     0.208 A 
ATOM     11  C   UNL     1       8.874  14.025 -17.264  1.00  0.00     0.179 A 
ENDROOT
BRANCH   1  12
ATOM     12  C   UNL     1       7.274  10.134 -13.443  1.00  0.00     0.018 A 
ATOM     13  C   UNL     1       6.460   8.091 -11.668  1.00  0.00     0.118 A 
ATOM     14  C   UNL     1       6.663   9.394 -11.204  1.00  0.00     0.047 A 
ATOM     15  C   UNL     1       6.678   7.808 -13.029  1.00  0.00     0.047 A 
ATOM     16  C   UNL     1       7.069  10.407 -12.078  1.00  0.00     0.016 A 
ATOM     17  C   UNL     1       7.085   8.820 -13.903  1.00  0.00     0.016 A 
BRANCH  13  18
ATOM     18  O   UNL     1       6.050   7.112 -10.751  1.00  0.00    -0.497 OA
ATOM     19  C   UNL     1       6.291   7.174  -9.349  1.00  0.00     0.278 C 
ENDBRANCH  13  18
ENDBRANCH   1  12
BRANCH   8  20
ATOM     20  O   UNL     1       6.257  10.832 -18.150  1.00  0.00    -0.490 OA
ATOM     21  C   UNL     1       6.685   9.481 -18.291  1.00  0.00     0.278 C 
ENDBRANCH   8  20
BRANCH  11  22
ATOM     22  O   UNL     1       9.699  15.105 -16.881  1.00  0.00    -0.492 OA
ATOM     23  C   UNL     1      11.073  15.306 -17.195  1.00  0.00     0.278 C 
ENDBRANCH  11  22
BRANCH   9  24
ATOM     24  O   UNL     1       7.180  12.560 -20.254  1.00  0.00    -0.490 OA
ATOM     25  C   UNL     1       5.903  12.841 -20.819  1.00  0.00     0.279 C 
ENDBRANCH   9  24
BRANCH  10  26
ATOM     26  O   UNL     1       8.872  14.749 -19.578  1.00  0.00    -0.490 OA
ATOM     27  C   UNL     1       8.220  15.934 -20.028  1.00  0.00     0.278 C 
ENDBRANCH  10  26
TORSDOF 6
ENDMDL
MODEL 3
REMARK VINA RESULT:    -6.056      2.026      8.537
REMARK INTER + INTRA:          -8.691
REMARK INTER:                  -8.361
REMARK INTRA:                  -0.331
REMARK UNBOUND:                -0.511
REMARK SMILES COc1ccc(-c2cc(=O)c3c(OC)c(OC)c(OC)c(OC)c3o2)cc1
REMARK SMILES IDX 7 1 8 2 9 3 10 4 11 5 24 6 25 7 21 8 18 9 15 10 12 11 6 12
REMARK SMILES IDX 3 13 4 14 27 15 5 16 26 17 2 18 1 19 22 20 23 21 13 22 14 23
REMARK SMILES IDX 19 24 20 25 16 26 17 27
REMARK H PARENT
REMARK Flexibility Score: inf
ROOT
ATOM      1  C   UNL     1       8.334  13.887 -18.426  1.00  0.00     0.138 A 
ATOM      2  C   UNL     1       8.790  14.419 -17.214  1.00  0.00     0.100 A 
ATOM      3  C   UNL     1       8.717  13.645 -16.057  1.00  0.00     0.197 A 
ATOM      4  O   UNL     1       9.130  14.144 -14.975  1.00  0.00    -0.289 OA
ATOM      5  C   UNL     1       8.188  12.334 -16.118  1.00  0.00     0.115 A 
ATOM      6  C   UNL     1       7.775  11.861 -17.381  1.00  0.00     0.188 A 
ATOM      7  O   UNL     1       7.864  12.643 -18.456  1.00  0.00    -0.452 OA
ATOM      8  C   UNL     1       7.253  10.571 -17.523  1.00  0.00     0.209 A 
ATOM      9  C   UNL     1       7.057   9.750 -16.389  1.00  0.00     0.211 A 
ATOM     10  C   UNL     1       7.482  10.209 -15.112  1.00  0.00     0.208 A 
ATOM     11  C   UNL     1       8.067  11.499 -14.981  1.00  0.00     0.179 A 
ENDROOT
BRANCH   1  12
ATOM     12  C   UNL     1       8.373  14.673 -19.685  1.00  0.00     0.018 A 
ATOM     13  C   UNL     1       8.466  16.206 -22.058  1.00  0.00     0.118 A 
ATOM     14  C   UNL     1       8.497  14.809 -22.115  1.00  0.00     0.047 A 
ATOM     15  C   UNL     1       8.399  16.838 -20.803  1.00  0.00     0.047 A 
ATOM     16  C   UNL     1       8.455  14.047 -20.944  1.00  0.00     0.016 A 
ATOM     17  C   UNL     1       8.358  16.077 -19.631  1.00  0.00     0.016 A 
BRANCH  13  18
ATOM     18  O   UNL     1       8.507  16.924 -23.262  1.00  0.00    -0.497 OA
ATOM     19  C   UNL     1       9.098  16.442 -24.465  1.00  0.00     0.278 C 
ENDBRANCH  13  18
ENDBRANCH   1  12
BRANCH   8  20
ATOM     20  O   UNL     1       6.917  10.115 -18.801  1.00  0.00    -0.490 OA
ATOM     21  C   UNL     1       5.875  10.712 -19.565  1.00  0.00     0.278 C 
ENDBRANCH   8  20
BRANCH  11  22
ATOM     22  O   UNL     1       8.533  12.004 -13.747  1.00  0.00    -0.492 OA
ATOM     23  C   UNL     1       7.766  12.316 -12.588  1.00  0.00     0.278 C 
ENDBRANCH  11  22
BRANCH   9  24
ATOM     24  O   UNL     1       6.454   8.482 -16.480  1.00  0.00    -0.490 OA
ATOM     25  C   UNL     1       7.049   7.275 -16.949  1.00  0.00     0.279 C 
ENDBRANCH   9  24
BRANCH  10  26
ATOM     26  O   UNL     1       7.334   9.434 -13.944  1.00  0.00    -0.490 OA
ATOM     27  C   UNL     1       8.242   8.476 -13.408  1.00  0.00     0.278 C 
ENDBRANCH  10  26
TORSDOF 6
ENDMDL
MODEL 4
REMARK VINA RESULT:    -5.989      2.639      7.638
REMARK INTER + INTRA:          -8.600
REMARK INTER:                  -8.019
REMARK INTRA:                  -0.581
REMARK UNBOUND:                -0.511
REMARK SMILES COc1ccc(-c2cc(=O)c3c(OC)c(OC)c(OC)c(OC)c3o2)cc1
REMARK SMILES IDX 7 1 8 2 9 3 10 4 11 5 24 6 25 7 21 8 18 9 15 10 12 11 6 12
REMARK SMILES IDX 3 13 4 14 27 15 5 16 26 17 2 18 1 19 22 20 23 21 13 22 14 23
REMARK SMILES IDX 19 24 20 25 16 26 17 27
REMARK H PARENT
REMARK Flexibility Score: inf
ROOT
ATOM      1  C   UNL     1       8.538  13.998 -17.175  1.00  0.00     0.138 A 
ATOM      2  C   UNL     1       9.109  13.138 -18.122  1.00  0.00     0.100 A 
ATOM      3  C   UNL     1       9.306  11.798 -17.797  1.00  0.00     0.197 A 
ATOM      4  O   UNL     1       9.824  11.040 -18.662  1.00  0.00    -0.289 OA
ATOM      5  C   UNL     1       8.928  11.319 -16.519  1.00  0.00     0.115 A 
ATOM      6  C   UNL     1       8.336  12.241 -15.632  1.00  0.00     0.188 A 
ATOM      7  O   UNL     1       8.172  13.513 -15.992  1.00  0.00    -0.452 OA
ATOM      8  C   UNL     1       7.925  11.839 -14.357  1.00  0.00     0.209 A 
ATOM      9  C   UNL     1       8.170  10.521 -13.908  1.00  0.00     0.211 A 
ATOM     10  C   UNL     1       8.754   9.577 -14.798  1.00  0.00     0.208 A 
ATOM     11  C   UNL     1       9.117   9.975 -16.115  1.00  0.00     0.179 A 
ENDROOT
BRANCH   1  12
ATOM     12  C   UNL     1       8.320  15.439 -17.462  1.00  0.00     0.018 A 
ATOM     13  C   UNL     1       7.939  18.178 -18.044  1.00  0.00     0.118 A 
ATOM     14  C   UNL     1       6.905  17.422 -17.482  1.00  0.00     0.047 A 
ATOM     15  C   UNL     1       9.168  17.554 -18.326  1.00  0.00     0.047 A 
ATOM     16  C   UNL     1       7.088  16.066 -17.196  1.00  0.00     0.016 A 
ATOM     17  C   UNL     1       9.352  16.197 -18.042  1.00  0.00     0.016 A 
BRANCH  13  18
ATOM     18  O   UNL     1       7.705  19.536 -18.308  1.00  0.00    -0.497 OA
ATOM     19  C   UNL     1       8.289  20.608 -17.577  1.00  0.00     0.278 C 
ENDBRANCH  13  18
ENDBRANCH   1  12
BRANCH   8  20
ATOM     20  O   UNL     1       7.281  12.765 -13.531  1.00  0.00    -0.490 OA
ATOM     21  C   UNL     1       5.886  13.027 -13.635  1.00  0.00     0.278 C 
ENDBRANCH   8  20
BRANCH  11  22
ATOM     22  O   UNL     1       9.676   9.082 -17.055  1.00  0.00    -0.492 OA
ATOM     23  C   UNL     1      11.009   8.581 -17.094  1.00  0.00     0.278 C 
ENDBRANCH  11  22
BRANCH   9  24
ATOM     24  O   UNL     1       7.851  10.105 -12.602  1.00  0.00    -0.490 OA
ATOM     25  C   UNL     1       6.622   9.544 -12.152  1.00  0.00     0.279 C 
ENDBRANCH   9  24
BRANCH  10  26
ATOM     26  O   UNL     1       9.008   8.243 -14.422  1.00  0.00    -0.490 OA
ATOM     27  C   UNL     1       8.180   7.102 -14.628  1.00  0.00     0.278 C 
ENDBRANCH  10  26
TORSDOF 6
ENDMDL
MODEL 5
REMARK VINA RESULT:    -5.789      1.684      2.051
REMARK INTER + INTRA:          -8.331
REMARK INTER:                  -7.818
REMARK INTRA:                  -0.513
REMARK UNBOUND:                -0.511
REMARK SMILES COc1ccc(-c2cc(=O)c3c(OC)c(OC)c(OC)c(OC)c3o2)cc1
REMARK SMILES IDX 7 1 8 2 9 3 10 4 11 5 24 6 25 7 21 8 18 9 15 10 12 11 6 12
REMARK SMILES IDX 3 13 4 14 27 15 5 16 26 17 2 18 1 19 22 20 23 21 13 22 14 23
REMARK SMILES IDX 19 24 20 25 16 26 17 27
REMARK H PARENT
REMARK Flexibility Score: inf
ROOT
ATOM      1  C   UNL     1       7.727  10.322 -15.151  1.00  0.00     0.138 A 
ATOM      2  C   UNL     1       8.291   9.698 -16.271  1.00  0.00     0.100 A 
ATOM      3  C   UNL     1       8.678  10.473 -17.363  1.00  0.00     0.197 A 
ATOM      4  O   UNL     1       9.181   9.892 -18.363  1.00  0.00    -0.289 OA
ATOM      5  C   UNL     1       8.499  11.877 -17.330  1.00  0.00     0.115 A 
ATOM      6  C   UNL     1       7.949  12.432 -16.156  1.00  0.00     0.188 A 
ATOM      7  O   UNL     1       7.594  11.645 -15.141  1.00  0.00    -0.452 OA
ATOM      8  C   UNL     1       7.755  13.812 -16.045  1.00  0.00     0.209 A 
ATOM      9  C   UNL     1       8.032  14.665 -17.138  1.00  0.00     0.211 A 
ATOM     10  C   UNL     1       8.600  14.120 -18.322  1.00  0.00     0.208 A 
ATOM     11  C   UNL     1       8.851  12.723 -18.410  1.00  0.00     0.179 A 
ENDROOT
BRANCH   1  12
ATOM     12  C   UNL     1       7.283   9.544 -13.967  1.00  0.00     0.018 A 
ATOM     13  C   UNL     1       6.417   8.104 -11.695  1.00  0.00     0.118 A 
ATOM     14  C   UNL     1       6.625   7.449 -12.913  1.00  0.00     0.047 A 
ATOM     15  C   UNL     1       6.633   9.492 -11.619  1.00  0.00     0.047 A 
ATOM     16  C   UNL     1       7.050   8.158 -14.040  1.00  0.00     0.016 A 
ATOM     17  C   UNL     1       7.057  10.202 -12.746  1.00  0.00     0.016 A 
BRANCH  13  18
ATOM     18  O   UNL     1       5.993   7.346 -10.593  1.00  0.00    -0.497 OA
ATOM     19  C   UNL     1       6.334   7.634  -9.242  1.00  0.00     0.278 C 
ENDBRANCH  13  18
ENDBRANCH   1  12
BRANCH   8  20
ATOM     20  O   UNL     1       7.270  14.331 -14.840  1.00  0.00    -0.490 OA
ATOM     21  C   UNL     1       5.875  14.433 -14.570  1.00  0.00     0.278 C 
ENDBRANCH   8  20
BRANCH  11  22
ATOM     22  O   UNL     1       9.437  12.122 -19.546  1.00  0.00    -0.492 OA
ATOM     23  C   UNL     1       8.878  11.999 -20.851  1.00  0.00     0.278 C 
ENDBRANCH  11  22
BRANCH   9  24
ATOM     24  O   UNL     1       7.766  16.046 -17.094  1.00  0.00    -0.490 OA
ATOM     25  C   UNL     1       6.544  16.700 -17.419  1.00  0.00     0.279 C 
ENDBRANCH   9  24
BRANCH  10  26
ATOM     26  O   UNL     1       8.917  14.915 -19.441  1.00  0.00    -0.490 OA
ATOM     27  C   UNL     1       8.044  15.360 -20.476  1.00  0.00     0.278 C 
ENDBRANCH  10  26
TORSDOF 6
ENDMDL
MODEL 6
REMARK VINA RESULT:    -5.763      2.089      7.295
REMARK INTER + INTRA:          -8.295
REMARK INTER:                  -7.791
REMARK INTRA:                  -0.504
REMARK UNBOUND:                -0.511
REMARK SMILES COc1ccc(-c2cc(=O)c3c(OC)c(OC)c(OC)c(OC)c3o2)cc1
REMARK SMILES IDX 7 1 8 2 9 3 10 4 11 5 24 6 25 7 21 8 18 9 15 10 12 11 6 12
REMARK SMILES IDX 3 13 4 14 27 15 5 16 26 17 2 18 1 19 22 20 23 21 13 22 14 23
REMARK SMILES IDX 19 24 20 25 16 26 17 27
REMARK H PARENT
REMARK Flexibility Score: inf
ROOT
ATOM      1  C   UNL     1       7.661  12.951 -17.523  1.00  0.00     0.138 A 
ATOM      2  C   UNL     1       7.021  12.214 -18.528  1.00  0.00     0.100 A 
ATOM      3  C   UNL     1       6.673  10.887 -18.285  1.00  0.00     0.197 A 
ATOM      4  O   UNL     1       6.100  10.239 -19.203  1.00  0.00    -0.289 OA
ATOM      5  C   UNL     1       6.965  10.299 -17.031  1.00  0.00     0.115 A 
ATOM      6  C   UNL     1       7.587  11.114 -16.063  1.00  0.00     0.188 A 
ATOM      7  O   UNL     1       7.901  12.377 -16.347  1.00  0.00    -0.452 OA
ATOM      8  C   UNL     1       7.895  10.608 -14.796  1.00  0.00     0.209 A 
ATOM      9  C   UNL     1       7.661   9.246 -14.494  1.00  0.00     0.211 A 
ATOM     10  C   UNL     1       7.022   8.417 -15.456  1.00  0.00     0.208 A 
ATOM     11  C   UNL     1       6.656   8.951 -16.722  1.00  0.00     0.179 A 
ENDROOT
BRANCH   1  12
ATOM     12  C   UNL     1       8.070  14.363 -17.733  1.00  0.00     0.018 A 
ATOM     13  C   UNL     1       8.892  17.035 -18.147  1.00  0.00     0.118 A 
ATOM     14  C   UNL     1       7.539  16.689 -18.228  1.00  0.00     0.047 A 
ATOM     15  C   UNL     1       9.839  16.033 -17.867  1.00  0.00     0.047 A 
ATOM     16  C   UNL     1       7.129  15.367 -18.028  1.00  0.00     0.016 A 
ATOM     17  C   UNL     1       9.430  14.711 -17.668  1.00  0.00     0.016 A 
BRANCH  13  18
ATOM     18  O   UNL     1       9.251  18.376 -18.353  1.00  0.00    -0.497 OA
ATOM     19  C   UNL     1       8.377  19.481 -18.149  1.00  0.00     0.278 C 
ENDBRANCH  13  18
ENDBRANCH   1  12
BRANCH   8  20
ATOM     20  O   UNL     1       8.450  11.466 -13.842  1.00  0.00    -0.490 OA
ATOM     21  C   UNL     1       7.665  12.055 -12.810  1.00  0.00     0.278 C 
ENDBRANCH   8  20
BRANCH  11  22
ATOM     22  O   UNL     1       5.997   8.189 -17.711  1.00  0.00    -0.492 OA
ATOM     23  C   UNL     1       6.539   7.140 -18.507  1.00  0.00     0.278 C 
ENDBRANCH  11  22
BRANCH   9  24
ATOM     24  O   UNL     1       8.039   8.679 -13.262  1.00  0.00    -0.490 OA
ATOM     25  C   UNL     1       7.191   8.360 -12.164  1.00  0.00     0.279 C 
ENDBRANCH   9  24
BRANCH  10  26
ATOM     26  O   UNL     1       6.743   7.057 -15.212  1.00  0.00    -0.490 OA
ATOM     27  C   UNL     1       7.669   5.982 -15.085  1.00  0.00     0.278 C 
ENDBRANCH  10  26
TORSDOF 6
ENDMDL
MODEL 7
REMARK VINA RESULT:    -5.751      2.343      8.057
REMARK INTER + INTRA:          -8.279
REMARK INTER:                  -7.708
REMARK INTRA:                  -0.571
REMARK UNBOUND:                -0.511
REMARK SMILES COc1ccc(-c2cc(=O)c3c(OC)c(OC)c(OC)c(OC)c3o2)cc1
REMARK SMILES IDX 7 1 8 2 9 3 10 4 11 5 24 6 25 7 21 8 18 9 15 10 12 11 6 12
REMARK SMILES IDX 3 13 4 14 27 15 5 16 26 17 2 18 1 19 22 20 23 21 13 22 14 23
REMARK SMILES IDX 19 24 20 25 16 26 17 27
REMARK H PARENT
REMARK Flexibility Score: inf
ROOT
ATOM      1  C   UNL     1       8.503  12.874 -18.899  1.00  0.00     0.138 A 
ATOM      2  C   UNL     1       9.310  11.749 -19.103  1.00  0.00     0.100 A 
ATOM      3  C   UNL     1       9.344  10.747 -18.134  1.00  0.00     0.197 A 
ATOM      4  O   UNL     1      10.079   9.743 -18.334  1.00  0.00    -0.289 OA
ATOM      5  C   UNL     1       8.563  10.876 -16.960  1.00  0.00     0.115 A 
ATOM      6  C   UNL     1       7.756  12.026 -16.842  1.00  0.00     0.188 A 
ATOM      7  O   UNL     1       7.763  12.955 -17.797  1.00  0.00    -0.452 OA
ATOM      8  C   UNL     1       6.948  12.217 -15.717  1.00  0.00     0.209 A 
ATOM      9  C   UNL     1       6.988  11.298 -14.643  1.00  0.00     0.211 A 
ATOM     10  C   UNL     1       7.787  10.127 -14.755  1.00  0.00     0.208 A 
ATOM     11  C   UNL     1       8.562   9.907 -15.927  1.00  0.00     0.179 A 
ENDROOT
BRANCH   1  12
ATOM     12  C   UNL     1       8.442  13.979 -19.890  1.00  0.00     0.018 A 
ATOM     13  C   UNL     1       8.346  16.111 -21.743  1.00  0.00     0.118 A 
ATOM     14  C   UNL     1       8.423  14.788 -22.188  1.00  0.00     0.047 A 
ATOM     15  C   UNL     1       8.327  16.367 -20.359  1.00  0.00     0.047 A 
ATOM     16  C   UNL     1       8.474  13.730 -21.275  1.00  0.00     0.016 A 
ATOM     17  C   UNL     1       8.380  15.311 -19.446  1.00  0.00     0.016 A 
BRANCH  13  18
ATOM     18  O   UNL     1       8.293  17.135 -22.700  1.00  0.00    -0.497 OA
ATOM     19  C   UNL     1       8.704  16.989 -24.055  1.00  0.00     0.278 C 
ENDBRANCH  13  18
ENDBRANCH   1  12
BRANCH   8  20
ATOM     20  O   UNL     1       6.112  13.336 -15.667  1.00  0.00    -0.490 OA
ATOM     21  C   UNL     1       6.589  14.617 -15.268  1.00  0.00     0.278 C 
ENDBRANCH   8  20
BRANCH  11  22
ATOM     22  O   UNL     1       9.356   8.754 -16.112  1.00  0.00    -0.492 OA
ATOM     23  C   UNL     1      10.522   8.374 -15.388  1.00  0.00     0.278 C 
ENDBRANCH  11  22
BRANCH   9  24
ATOM     24  O   UNL     1       6.256  11.502 -13.458  1.00  0.00    -0.490 OA
ATOM     25  C   UNL     1       6.633  12.296 -12.337  1.00  0.00     0.279 C 
ENDBRANCH   9  24
BRANCH  10  26
ATOM     26  O   UNL     1       7.858   9.162 -13.730  1.00  0.00    -0.490 OA
ATOM     27  C   UNL     1       6.990   8.053 -13.510  1.00  0.00     0.278 C 
ENDBRANCH  10  26
TORSDOF 6
ENDMDL
MODEL 8
REMARK VINA RESULT:    -5.740      3.207      5.230
REMARK INTER + INTRA:          -8.264
REMARK INTER:                  -7.814
REMARK INTRA:                  -0.450
REMARK UNBOUND:                -0.511
REMARK SMILES COc1ccc(-c2cc(=O)c3c(OC)c(OC)c(OC)c(OC)c3o2)cc1
REMARK SMILES IDX 7 1 8 2 9 3 10 4 11 5 24 6 25 7 21 8 18 9 15 10 12 11 6 12
REMARK SMILES IDX 3 13 4 14 27 15 5 16 26 17 2 18 1 19 22 20 23 21 13 22 14 23
REMARK SMILES IDX 19 24 20 25 16 26 17 27
REMARK H PARENT
REMARK Flexibility Score: inf
ROOT
ATOM      1  C   UNL     1       7.183   7.809 -15.258  1.00  0.00     0.138 A 
ATOM      2  C   UNL     1       6.693   8.265 -14.028  1.00  0.00     0.100 A 
ATOM      3  C   UNL     1       6.856   9.605 -13.681  1.00  0.00     0.197 A 
ATOM      4  O   UNL     1       6.410   9.995 -12.568  1.00  0.00    -0.289 OA
ATOM      5  C   UNL     1       7.510  10.489 -14.573  1.00  0.00     0.115 A 
ATOM      6  C   UNL     1       7.951   9.959 -15.803  1.00  0.00     0.188 A 
ATOM      7  O   UNL     1       7.773   8.669 -16.084  1.00  0.00    -0.452 OA
ATOM      8  C   UNL     1       8.593  10.775 -16.740  1.00  0.00     0.209 A 
ATOM      9  C   UNL     1       8.883  12.125 -16.435  1.00  0.00     0.211 A 
ATOM     10  C   UNL     1       8.432  12.675 -15.204  1.00  0.00     0.208 A 
ATOM     11  C   UNL     1       7.726  11.858 -14.278  1.00  0.00     0.179 A 
ENDROOT
BRANCH   1  12
ATOM     12  C   UNL     1       7.052   6.389 -15.671  1.00  0.00     0.018 A 
ATOM     13  C   UNL     1       6.811   3.699 -16.504  1.00  0.00     0.118 A 
ATOM     14  C   UNL     1       7.234   4.004 -15.206  1.00  0.00     0.047 A 
ATOM     15  C   UNL     1       6.518   4.749 -17.393  1.00  0.00     0.047 A 
ATOM     16  C   UNL     1       7.358   5.333 -14.791  1.00  0.00     0.016 A 
ATOM     17  C   UNL     1       6.644   6.079 -16.979  1.00  0.00     0.016 A 
BRANCH  13  18
ATOM     18  O   UNL     1       6.700   2.349 -16.869  1.00  0.00    -0.497 OA
ATOM     19  C   UNL     1       6.729   1.875 -18.211  1.00  0.00     0.278 C 
ENDBRANCH  13  18
ENDBRANCH   1  12
BRANCH   8  20
ATOM     20  O   UNL     1       8.956  10.229 -17.975  1.00  0.00    -0.490 OA
ATOM     21  C   UNL     1      10.213   9.592 -18.178  1.00  0.00     0.278 C 
ENDBRANCH   8  20
BRANCH  11  22
ATOM     22  O   UNL     1       7.229  12.348 -13.051  1.00  0.00    -0.492 OA
ATOM     23  C   UNL     1       6.030  13.085 -12.830  1.00  0.00     0.278 C 
ENDBRANCH  11  22
BRANCH   9  24
ATOM     24  O   UNL     1       9.606  12.951 -17.316  1.00  0.00    -0.490 OA
ATOM     25  C   UNL     1       9.084  13.749 -18.374  1.00  0.00     0.279 C 
ENDBRANCH   9  24
BRANCH  10  26
ATOM     26  O   UNL     1       8.670  14.017 -14.846  1.00  0.00    -0.490 OA
ATOM     27  C   UNL     1       9.916  14.631 -14.530  1.00  0.00     0.278 C 
ENDBRANCH  10  26
TORSDOF 6
ENDMDL
MODEL 9
REMARK VINA RESULT:    -5.721      2.299      4.326
REMARK INTER + INTRA:          -8.239
REMARK INTER:                  -7.656
REMARK INTRA:                  -0.583
REMARK UNBOUND:                -0.511
REMARK SMILES COc1ccc(-c2cc(=O)c3c(OC)c(OC)c(OC)c(OC)c3o2)cc1
REMARK SMILES IDX 7 1 8 2 9 3 10 4 11 5 24 6 25 7 21 8 18 9 15 10 12 11 6 12
REMARK SMILES IDX 3 13 4 14 27 15 5 16 26 17 2 18 1 19 22 20 23 21 13 22 14 23
REMARK SMILES IDX 19 24 20 25 16 26 17 27
REMARK H PARENT
REMARK Flexibility Score: inf
ROOT
ATOM      1  C   UNL     1       7.858   9.835 -15.822  1.00  0.00     0.138 A 
ATOM      2  C   UNL     1       8.179  10.551 -14.663  1.00  0.00     0.100 A 
ATOM      3  C   UNL     1       8.578  11.882 -14.770  1.00  0.00     0.197 A 
ATOM      4  O   UNL     1       8.867  12.509 -13.715  1.00  0.00    -0.289 OA
ATOM      5  C   UNL     1       8.652  12.496 -16.044  1.00  0.00     0.115 A 
ATOM      6  C   UNL     1       8.287  11.715 -17.160  1.00  0.00     0.188 A 
ATOM      7  O   UNL     1       7.915  10.446 -17.002  1.00  0.00    -0.452 OA
ATOM      8  C   UNL     1       8.322  12.256 -18.450  1.00  0.00     0.209 A 
ATOM      9  C   UNL     1       8.802  13.568 -18.662  1.00  0.00     0.211 A 
ATOM     10  C   UNL     1       9.161  14.371 -17.544  1.00  0.00     0.208 A 
ATOM     11  C   UNL     1       9.067  13.837 -16.229  1.00  0.00     0.179 A 
ENDROOT
BRANCH   1  12
ATOM     12  C   UNL     1       7.443   8.410 -15.768  1.00  0.00     0.018 A 
ATOM     13  C   UNL     1       6.669   5.696 -15.617  1.00  0.00     0.118 A 
ATOM     14  C   UNL     1       6.027   6.568 -16.502  1.00  0.00     0.047 A 
ATOM     15  C   UNL     1       7.698   6.190 -14.795  1.00  0.00     0.047 A 
ATOM     16  C   UNL     1       6.404   7.913 -16.577  1.00  0.00     0.016 A 
ATOM     17  C   UNL     1       8.075   7.534 -14.868  1.00  0.00     0.016 A 
BRANCH  13  18
ATOM     18  O   UNL     1       6.255   4.356 -15.584  1.00  0.00    -0.497 OA
ATOM     19  C   UNL     1       6.850   3.312 -16.347  1.00  0.00     0.278 C 
ENDBRANCH  13  18
ENDBRANCH   1  12
BRANCH   8  20
ATOM     20  O   UNL     1       7.888  11.472 -19.523  1.00  0.00    -0.490 OA
ATOM     21  C   UNL     1       6.537  11.490 -19.973  1.00  0.00     0.278 C 
ENDBRANCH   8  20
BRANCH  11  22
ATOM     22  O   UNL     1       9.383  14.588 -15.076  1.00  0.00    -0.492 OA
ATOM     23  C   UNL     1      10.676  14.928 -14.586  1.00  0.00     0.278 C 
ENDBRANCH  11  22
BRANCH   9  24
ATOM     24  O   UNL     1       8.935  14.115 -19.952  1.00  0.00    -0.490 OA
ATOM     25  C   UNL     1       7.934  14.783 -20.713  1.00  0.00     0.279 C 
ENDBRANCH   9  24
BRANCH  10  26
ATOM     26  O   UNL     1       9.628  15.692 -17.684  1.00  0.00    -0.490 OA
ATOM     27  C   UNL     1       8.859  16.882 -17.840  1.00  0.00     0.278 C 
ENDBRANCH  10  26
TORSDOF 6
ENDMDL
