MODEL 1
REMARK VINA RESULT:    -5.754      0.000      0.000
REMARK INTER + INTRA:          -6.476
REMARK INTER:                  -6.427
REMARK INTRA:                  -0.049
REMARK UNBOUND:                -0.049
REMARK SMILES COc1cc2ccc(=O)oc2c(O)c1O
REMARK SMILES IDX 3 1 14 2 12 3 11 4 5 5 4 6 6 7 7 8 8 9 9 10 10 11 2 12 1 13
REMARK SMILES IDX 15 14 13 16
REMARK H PARENT 15 15 13 17
REMARK Flexibility Score: inf
ROOT
ATOM      1  C   UNL     1      -3.489  15.119   9.049  1.00  0.00     0.165 A 
ATOM      2  C   UNL     1      -4.677  15.042   9.802  1.00  0.00     0.204 A 
ATOM      3  C   UNL     1      -5.874  14.613   9.199  1.00  0.00     0.205 A 
ATOM      4  C   UNL     1      -5.886  14.261   7.843  1.00  0.00     0.184 A 
ATOM      5  C   UNL     1      -4.700  14.337   7.085  1.00  0.00     0.025 A 
ATOM      6  C   UNL     1      -3.509  14.763   7.686  1.00  0.00     0.062 A 
ATOM      7  C   UNL     1      -4.746  13.977   5.734  1.00  0.00     0.020 A 
ATOM      8  C   UNL     1      -5.954  13.557   5.178  1.00  0.00     0.094 A 
ATOM      9  C   UNL     1      -7.091  13.508   5.990  1.00  0.00     0.336 A 
ATOM     10  O   UNL     1      -8.192  13.132   5.508  1.00  0.00    -0.246 OA
ATOM     11  O   UNL     1      -7.019  13.855   7.273  1.00  0.00    -0.419 OA
ENDROOT
BRANCH   1  12
ATOM     12  O   UNL     1      -2.313  15.551   9.684  1.00  0.00    -0.493 OA
ATOM     13  C   UNL     1      -1.000  15.362   9.169  1.00  0.00     0.278 C 
ENDBRANCH   1  12
BRANCH   2  14
ATOM     14  O   UNL     1      -4.683  15.390  11.155  1.00  0.00    -0.502 OA
ATOM     15  H   UNL     1      -5.494  15.799  11.606  1.00  0.00     0.293 HD
ENDBRANCH   2  14
BRANCH   3  16
ATOM     16  O   UNL     1      -7.059  14.532   9.932  1.00  0.00    -0.502 OA
ATOM     17  H   UNL     1      -7.843  15.150   9.762  1.00  0.00     0.293 HD
ENDBRANCH   3  16
TORSDOF 3
ENDMDL
MODEL 2
REMARK VINA RESULT:    -5.600      2.888      4.588
REMARK INTER + INTRA:          -6.304
REMARK INTER:                  -6.235
REMARK INTRA:                  -0.068
REMARK UNBOUND:                -0.049
REMARK SMILES COc1cc2ccc(=O)oc2c(O)c1O
REMARK SMILES IDX 3 1 14 2 12 3 11 4 5 5 4 6 6 7 7 8 8 9 9 10 10 11 2 12 1 13
REMARK SMILES IDX 15 14 13 16
REMARK H PARENT 15 15 13 17
REMARK Flexibility Score: inf
ROOT
ATOM      1  C   UNL     1      -5.699  14.822   6.242  1.00  0.00     0.165 A 
ATOM      2  C   UNL     1      -6.413  13.969   5.376  1.00  0.00     0.204 A 
ATOM      3  C   UNL     1      -7.791  14.162   5.166  1.00  0.00     0.205 A 
ATOM      4  C   UNL     1      -8.459  15.205   5.820  1.00  0.00     0.184 A 
ATOM      5  C   UNL     1      -7.749  16.061   6.687  1.00  0.00     0.025 A 
ATOM      6  C   UNL     1      -6.378  15.869   6.895  1.00  0.00     0.062 A 
ATOM      7  C   UNL     1      -8.446  17.093   7.323  1.00  0.00     0.020 A 
ATOM      8  C   UNL     1      -9.811  17.247   7.086  1.00  0.00     0.094 A 
ATOM      9  C   UNL     1     -10.449  16.360   6.213  1.00  0.00     0.336 A 
ATOM     10  O   UNL     1     -11.682  16.481   5.984  1.00  0.00    -0.246 OA
ATOM     11  O   UNL     1      -9.763  15.387   5.620  1.00  0.00    -0.419 OA
ENDROOT
BRANCH   1  12
ATOM     12  O   UNL     1      -4.325  14.600   6.428  1.00  0.00    -0.493 OA
ATOM     13  C   UNL     1      -3.746  14.061   7.611  1.00  0.00     0.278 C 
ENDBRANCH   1  12
BRANCH   2  14
ATOM     14  O   UNL     1      -5.763  12.923   4.717  1.00  0.00    -0.502 OA
ATOM     15  H   UNL     1      -5.209  12.233   5.210  1.00  0.00     0.293 HD
ENDBRANCH   2  14
BRANCH   3  16
ATOM     16  O   UNL     1      -8.510  13.325   4.311  1.00  0.00    -0.502 OA
ATOM     17  H   UNL     1      -8.679  13.561   3.341  1.00  0.00     0.293 HD
ENDBRANCH   3  16
TORSDOF 3
ENDMDL
MODEL 3
REMARK VINA RESULT:    -5.433      3.105      5.482
REMARK INTER + INTRA:          -6.117
REMARK INTER:                  -6.062
REMARK INTRA:                  -0.055
REMARK UNBOUND:                -0.049
REMARK SMILES COc1cc2ccc(=O)oc2c(O)c1O
REMARK SMILES IDX 3 1 14 2 12 3 11 4 5 5 4 6 6 7 7 8 8 9 9 10 10 11 2 12 1 13
REMARK SMILES IDX 15 14 13 16
REMARK H PARENT 15 15 13 17
REMARK Flexibility Score: inf
ROOT
ATOM      1  C   UNL     1      -9.869  16.122   6.213  1.00  0.00     0.165 A 
ATOM      2  C   UNL     1      -9.327  16.577   7.432  1.00  0.00     0.204 A 
ATOM      3  C   UNL     1      -8.039  16.175   7.830  1.00  0.00     0.205 A 
ATOM      4  C   UNL     1      -7.290  15.318   7.014  1.00  0.00     0.184 A 
ATOM      5  C   UNL     1      -7.828  14.861   5.793  1.00  0.00     0.025 A 
ATOM      6  C   UNL     1      -9.109  15.261   5.397  1.00  0.00     0.062 A 
ATOM      7  C   UNL     1      -7.053  14.007   5.001  1.00  0.00     0.020 A 
ATOM      8  C   UNL     1      -5.781  13.635   5.435  1.00  0.00     0.094 A 
ATOM      9  C   UNL     1      -5.313  14.128   6.657  1.00  0.00     0.336 A 
ATOM     10  O   UNL     1      -4.168  13.804   7.068  1.00  0.00    -0.246 OA
ATOM     11  O   UNL     1      -6.071  14.939   7.391  1.00  0.00    -0.419 OA
ENDROOT
BRANCH   1  12
ATOM     12  O   UNL     1     -11.158  16.543   5.847  1.00  0.00    -0.493 OA
ATOM     13  C   UNL     1     -12.358  15.850   6.173  1.00  0.00     0.278 C 
ENDBRANCH   1  12
BRANCH   2  14
ATOM     14  O   UNL     1     -10.061  17.430   8.259  1.00  0.00    -0.502 OA
ATOM     15  H   UNL     1     -11.055  17.583   8.135  1.00  0.00     0.293 HD
ENDBRANCH   2  14
BRANCH   3  16
ATOM     16  O   UNL     1      -7.490  16.617   9.035  1.00  0.00    -0.502 OA
ATOM     17  H   UNL     1      -6.647  17.178   9.070  1.00  0.00     0.293 HD
ENDBRANCH   3  16
TORSDOF 3
ENDMDL
MODEL 4
REMARK VINA RESULT:    -5.285      2.518      5.359
REMARK INTER + INTRA:          -5.952
REMARK INTER:                  -5.882
REMARK INTRA:                  -0.069
REMARK UNBOUND:                -0.049
REMARK SMILES COc1cc2ccc(=O)oc2c(O)c1O
REMARK SMILES IDX 3 1 14 2 12 3 11 4 5 5 4 6 6 7 7 8 8 9 9 10 10 11 2 12 1 13
REMARK SMILES IDX 15 14 13 16
REMARK H PARENT 15 15 13 17
REMARK Flexibility Score: inf
ROOT
ATOM      1  C   UNL     1      -8.632  16.185   6.698  1.00  0.00     0.165 A 
ATOM      2  C   UNL     1      -8.508  14.894   6.145  1.00  0.00     0.204 A 
ATOM      3  C   UNL     1      -7.326  14.154   6.329  1.00  0.00     0.205 A 
ATOM      4  C   UNL     1      -6.265  14.700   7.062  1.00  0.00     0.184 A 
ATOM      5  C   UNL     1      -6.385  15.991   7.617  1.00  0.00     0.025 A 
ATOM      6  C   UNL     1      -7.561  16.727   7.435  1.00  0.00     0.062 A 
ATOM      7  C   UNL     1      -5.307  16.507   8.345  1.00  0.00     0.020 A 
ATOM      8  C   UNL     1      -4.154  15.737   8.501  1.00  0.00     0.094 A 
ATOM      9  C   UNL     1      -4.107  14.465   7.923  1.00  0.00     0.336 A 
ATOM     10  O   UNL     1      -3.076  13.754   8.052  1.00  0.00    -0.246 OA
ATOM     11  O   UNL     1      -5.147  13.999   7.236  1.00  0.00    -0.419 OA
ENDROOT
BRANCH   1  12
ATOM     12  O   UNL     1      -9.826  16.895   6.495  1.00  0.00    -0.493 OA
ATOM     13  C   UNL     1     -10.865  17.023   7.460  1.00  0.00     0.278 C 
ENDBRANCH   1  12
BRANCH   2  14
ATOM     14  O   UNL     1      -9.555  14.334   5.410  1.00  0.00    -0.502 OA
ATOM     15  H   UNL     1      -9.444  14.039   4.447  1.00  0.00     0.293 HD
ENDBRANCH   2  14
BRANCH   3  16
ATOM     16  O   UNL     1      -7.189  12.874   5.788  1.00  0.00    -0.502 OA
ATOM     17  H   UNL     1      -7.713  12.081   6.138  1.00  0.00     0.293 HD
ENDBRANCH   3  16
TORSDOF 3
ENDMDL
MODEL 5
REMARK VINA RESULT:    -5.176      3.638      5.581
REMARK INTER + INTRA:          -5.830
REMARK INTER:                  -5.787
REMARK INTRA:                  -0.043
REMARK UNBOUND:                -0.049
REMARK SMILES COc1cc2ccc(=O)oc2c(O)c1O
REMARK SMILES IDX 3 1 14 2 12 3 11 4 5 5 4 6 6 7 7 8 8 9 9 10 10 11 2 12 1 13
REMARK SMILES IDX 15 14 13 16
REMARK H PARENT 15 15 13 17
REMARK Flexibility Score: inf
ROOT
ATOM      1  C   UNL     1     -10.234  17.029   7.064  1.00  0.00     0.165 A 
ATOM      2  C   UNL     1      -9.395  17.172   8.188  1.00  0.00     0.204 A 
ATOM      3  C   UNL     1      -8.165  16.491   8.246  1.00  0.00     0.205 A 
ATOM      4  C   UNL     1      -7.771  15.666   7.186  1.00  0.00     0.184 A 
ATOM      5  C   UNL     1      -8.607  15.520   6.060  1.00  0.00     0.025 A 
ATOM      6  C   UNL     1      -9.831  16.198   6.001  1.00  0.00     0.062 A 
ATOM      7  C   UNL     1      -8.183  14.689   5.017  1.00  0.00     0.020 A 
ATOM      8  C   UNL     1      -6.956  14.034   5.118  1.00  0.00     0.094 A 
ATOM      9  C   UNL     1      -6.180  14.227   6.265  1.00  0.00     0.336 A 
ATOM     10  O   UNL     1      -5.069  13.645   6.376  1.00  0.00    -0.246 OA
ATOM     11  O   UNL     1      -6.606  15.023   7.242  1.00  0.00    -0.419 OA
ENDROOT
BRANCH   1  12
ATOM     12  O   UNL     1     -11.455  17.723   7.040  1.00  0.00    -0.493 OA
ATOM     13  C   UNL     1     -12.676  17.230   7.580  1.00  0.00     0.278 C 
ENDBRANCH   1  12
BRANCH   2  14
ATOM     14  O   UNL     1      -9.772  17.990   9.255  1.00  0.00    -0.502 OA
ATOM     15  H   UNL     1     -10.743  18.184   9.472  1.00  0.00     0.293 HD
ENDBRANCH   2  14
BRANCH   3  16
ATOM     16  O   UNL     1      -7.324  16.624   9.352  1.00  0.00    -0.502 OA
ATOM     17  H   UNL     1      -6.835  17.487   9.558  1.00  0.00     0.293 HD
ENDBRANCH   3  16
TORSDOF 3
ENDMDL
MODEL 6
REMARK VINA RESULT:    -5.132      2.611      4.347
REMARK INTER + INTRA:          -5.782
REMARK INTER:                  -5.724
REMARK INTRA:                  -0.057
REMARK UNBOUND:                -0.049
REMARK SMILES COc1cc2ccc(=O)oc2c(O)c1O
REMARK SMILES IDX 3 1 14 2 12 3 11 4 5 5 4 6 6 7 7 8 8 9 9 10 10 11 2 12 1 13
REMARK SMILES IDX 15 14 13 16
REMARK H PARENT 15 15 13 17
REMARK Flexibility Score: inf
ROOT
ATOM      1  C   UNL     1      -0.169  15.641   8.611  1.00  0.00     0.165 A 
ATOM      2  C   UNL     1      -0.179  16.467   7.469  1.00  0.00     0.204 A 
ATOM      3  C   UNL     1      -1.347  16.591   6.694  1.00  0.00     0.205 A 
ATOM      4  C   UNL     1      -2.505  15.892   7.057  1.00  0.00     0.184 A 
ATOM      5  C   UNL     1      -2.500  15.065   8.199  1.00  0.00     0.025 A 
ATOM      6  C   UNL     1      -1.338  14.941   8.970  1.00  0.00     0.062 A 
ATOM      7  C   UNL     1      -3.674  14.382   8.534  1.00  0.00     0.020 A 
ATOM      8  C   UNL     1      -4.807  14.536   7.737  1.00  0.00     0.094 A 
ATOM      9  C   UNL     1      -4.740  15.373   6.619  1.00  0.00     0.336 A 
ATOM     10  O   UNL     1      -5.752  15.526   5.886  1.00  0.00    -0.246 OA
ATOM     11  O   UNL     1      -3.611  16.012   6.323  1.00  0.00    -0.419 OA
ENDROOT
BRANCH   1  12
ATOM     12  O   UNL     1       1.014  15.540   9.360  1.00  0.00    -0.493 OA
ATOM     13  C   UNL     1       1.090  15.683  10.774  1.00  0.00     0.278 C 
ENDBRANCH   1  12
BRANCH   2  14
ATOM     14  O   UNL     1       0.966  17.170   7.092  1.00  0.00    -0.502 OA
ATOM     15  H   UNL     1       1.353  17.116   6.156  1.00  0.00     0.293 HD
ENDBRANCH   2  14
BRANCH   3  16
ATOM     16  O   UNL     1      -1.373  17.406   5.560  1.00  0.00    -0.502 OA
ATOM     17  H   UNL     1      -0.975  17.112   4.676  1.00  0.00     0.293 HD
ENDBRANCH   3  16
TORSDOF 3
ENDMDL
MODEL 7
REMARK VINA RESULT:    -5.115      1.448      4.863
REMARK INTER + INTRA:          -5.763
REMARK INTER:                  -5.707
REMARK INTRA:                  -0.056
REMARK UNBOUND:                -0.049
REMARK SMILES COc1cc2ccc(=O)oc2c(O)c1O
REMARK SMILES IDX 3 1 14 2 12 3 11 4 5 5 4 6 6 7 7 8 8 9 9 10 10 11 2 12 1 13
REMARK SMILES IDX 15 14 13 16
REMARK H PARENT 15 15 13 17
REMARK Flexibility Score: inf
ROOT
ATOM      1  C   UNL     1      -5.727  15.028   6.691  1.00  0.00     0.165 A 
ATOM      2  C   UNL     1      -5.737  14.419   7.962  1.00  0.00     0.204 A 
ATOM      3  C   UNL     1      -4.584  14.440   8.768  1.00  0.00     0.205 A 
ATOM      4  C   UNL     1      -3.419  15.066   8.307  1.00  0.00     0.184 A 
ATOM      5  C   UNL     1      -3.404  15.676   7.036  1.00  0.00     0.025 A 
ATOM      6  C   UNL     1      -4.552  15.656   6.234  1.00  0.00     0.062 A 
ATOM      7  C   UNL     1      -2.225  16.295   6.606  1.00  0.00     0.020 A 
ATOM      8  C   UNL     1      -1.106  16.290   7.438  1.00  0.00     0.094 A 
ATOM      9  C   UNL     1      -1.194  15.666   8.686  1.00  0.00     0.336 A 
ATOM     10  O   UNL     1      -0.196  15.650   9.453  1.00  0.00    -0.246 OA
ATOM     11  O   UNL     1      -2.328  15.086   9.071  1.00  0.00    -0.419 OA
ENDROOT
BRANCH   1  12
ATOM     12  O   UNL     1      -6.896  14.988   5.913  1.00  0.00    -0.493 OA
ATOM     13  C   UNL     1      -7.205  13.967   4.971  1.00  0.00     0.278 C 
ENDBRANCH   1  12
BRANCH   2  14
ATOM     14  O   UNL     1      -6.889  13.789   8.437  1.00  0.00    -0.502 OA
ATOM     15  H   UNL     1      -7.389  14.119   9.255  1.00  0.00     0.293 HD
ENDBRANCH   2  14
BRANCH   3  16
ATOM     16  O   UNL     1      -4.579  13.841  10.029  1.00  0.00    -0.502 OA
ATOM     17  H   UNL     1      -4.354  12.863  10.161  1.00  0.00     0.293 HD
ENDBRANCH   3  16
TORSDOF 3
ENDMDL
MODEL 8
REMARK VINA RESULT:    -5.101      2.342      3.219
REMARK INTER + INTRA:          -5.747
REMARK INTER:                  -5.698
REMARK INTRA:                  -0.049
REMARK UNBOUND:                -0.049
REMARK SMILES COc1cc2ccc(=O)oc2c(O)c1O
REMARK SMILES IDX 3 1 14 2 12 3 11 4 5 5 4 6 6 7 7 8 8 9 9 10 10 11 2 12 1 13
REMARK SMILES IDX 15 14 13 16
REMARK H PARENT 15 15 13 17
REMARK Flexibility Score: inf
ROOT
ATOM      1  C   UNL     1      -4.939  15.317   8.818  1.00  0.00     0.165 A 
ATOM      2  C   UNL     1      -4.841  14.356   7.792  1.00  0.00     0.204 A 
ATOM      3  C   UNL     1      -5.858  14.242   6.827  1.00  0.00     0.205 A 
ATOM      4  C   UNL     1      -6.975  15.085   6.884  1.00  0.00     0.184 A 
ATOM      5  C   UNL     1      -7.077  16.048   7.909  1.00  0.00     0.025 A 
ATOM      6  C   UNL     1      -6.064  16.162   8.869  1.00  0.00     0.062 A 
ATOM      7  C   UNL     1      -8.205  16.876   7.937  1.00  0.00     0.020 A 
ATOM      8  C   UNL     1      -9.188  16.727   6.960  1.00  0.00     0.094 A 
ATOM      9  C   UNL     1      -9.020  15.750   5.974  1.00  0.00     0.336 A 
ATOM     10  O   UNL     1      -9.896  15.600   5.082  1.00  0.00    -0.246 OA
ATOM     11  O   UNL     1      -7.937  14.977   5.970  1.00  0.00    -0.419 OA
ENDROOT
BRANCH   1  12
ATOM     12  O   UNL     1      -3.905  15.403   9.764  1.00  0.00    -0.493 OA
ATOM     13  C   UNL     1      -3.789  16.428  10.744  1.00  0.00     0.278 C 
ENDBRANCH   1  12
BRANCH   2  14
ATOM     14  O   UNL     1      -3.735  13.506   7.720  1.00  0.00    -0.502 OA
ATOM     15  H   UNL     1      -3.602  12.733   8.362  1.00  0.00     0.293 HD
ENDBRANCH   2  14
BRANCH   3  16
ATOM     16  O   UNL     1      -5.775  13.294   5.805  1.00  0.00    -0.502 OA
ATOM     17  H   UNL     1      -6.107  13.482   4.866  1.00  0.00     0.293 HD
ENDBRANCH   3  16
TORSDOF 3
ENDMDL
MODEL 9
REMARK VINA RESULT:    -5.086      2.000      2.618
REMARK INTER + INTRA:          -5.730
REMARK INTER:                  -5.677
REMARK INTRA:                  -0.052
REMARK UNBOUND:                -0.049
REMARK SMILES COc1cc2ccc(=O)oc2c(O)c1O
REMARK SMILES IDX 3 1 14 2 12 3 11 4 5 5 4 6 6 7 7 8 8 9 9 10 10 11 2 12 1 13
REMARK SMILES IDX 15 14 13 16
REMARK H PARENT 15 15 13 17
REMARK Flexibility Score: inf
ROOT
ATOM      1  C   UNL     1      -4.852  16.265  11.044  1.00  0.00     0.165 A 
ATOM      2  C   UNL     1      -5.722  15.156  11.061  1.00  0.00     0.204 A 
ATOM      3  C   UNL     1      -5.944  14.411   9.889  1.00  0.00     0.205 A 
ATOM      4  C   UNL     1      -5.300  14.770   8.698  1.00  0.00     0.184 A 
ATOM      5  C   UNL     1      -4.429  15.879   8.677  1.00  0.00     0.025 A 
ATOM      6  C   UNL     1      -4.207  16.620   9.844  1.00  0.00     0.062 A 
ATOM      7  C   UNL     1      -3.800  16.211   7.472  1.00  0.00     0.020 A 
ATOM      8  C   UNL     1      -4.050  15.443   6.334  1.00  0.00     0.094 A 
ATOM      9  C   UNL     1      -4.926  14.358   6.431  1.00  0.00     0.336 A 
ATOM     10  O   UNL     1      -5.166  13.652   5.416  1.00  0.00    -0.246 OA
ATOM     11  O   UNL     1      -5.510  14.064   7.589  1.00  0.00    -0.419 OA
ENDROOT
BRANCH   1  12
ATOM     12  O   UNL     1      -4.654  16.986  12.233  1.00  0.00    -0.493 OA
ATOM     13  C   UNL     1      -3.418  17.571  12.627  1.00  0.00     0.278 C 
ENDBRANCH   1  12
BRANCH   2  14
ATOM     14  O   UNL     1      -6.373  14.784  12.239  1.00  0.00    -0.502 OA
ATOM     15  H   UNL     1      -5.905  14.772  13.138  1.00  0.00     0.293 HD
ENDBRANCH   2  14
BRANCH   3  16
ATOM     16  O   UNL     1      -6.803  13.310   9.890  1.00  0.00    -0.502 OA
ATOM     17  H   UNL     1      -7.059  12.824   9.039  1.00  0.00     0.293 HD
ENDBRANCH   3  16
TORSDOF 3
ENDMDL
