MODEL 1
REMARK VINA RESULT:    -2.683      0.000      0.000
REMARK INTER + INTRA:          -3.605
REMARK INTER:                  -3.310
REMARK INTRA:                  -0.295
REMARK UNBOUND:                -0.295
REMARK SMILES CCCCC=CC(C)=O
REMARK SMILES IDX 4 1 3 2 2 3 1 4 5 5 6 6 7 7 9 8 8 9
REMARK H PARENT
REMARK Flexibility Score: inf
ROOT
ATOM      1  C   UNL     1       9.678  14.283  -0.320  1.00  0.00     0.027 C 
ENDROOT
BRANCH   1   2
ATOM      2  C   UNL     1      10.790  13.331  -0.803  1.00  0.00     0.004 C 
BRANCH   2   3
ATOM      3  C   UNL     1      12.159  13.593  -0.151  1.00  0.00    -0.003 C 
ATOM      4  C   UNL     1      12.335  12.875   1.187  1.00  0.00     0.004 C 
ENDBRANCH   2   3
ENDBRANCH   1   2
BRANCH   1   5
ATOM      5  C   UNL     1       9.233  14.010   1.094  1.00  0.00    -0.023 C 
ATOM      6  C   UNL     1       9.290  14.872   2.122  1.00  0.00     0.042 C 
BRANCH   6   7
ATOM      7  C   UNL     1       9.714  16.286   2.059  1.00  0.00     0.152 C 
ATOM      8  O   UNL     1       8.826  17.175   1.974  1.00  0.00    -0.295 OA
ATOM      9  C   UNL     1      11.153  16.701   2.023  1.00  0.00     0.093 C 
ENDBRANCH   6   7
ENDBRANCH   1   5
TORSDOF 4
ENDMDL
MODEL 2
REMARK VINA RESULT:    -2.510      0.894      2.237
REMARK INTER + INTRA:          -3.391
REMARK INTER:                  -3.536
REMARK INTRA:                   0.145
REMARK UNBOUND:                -0.295
REMARK SMILES CCCCC=CC(C)=O
REMARK SMILES IDX 4 1 3 2 2 3 1 4 5 5 6 6 7 7 9 8 8 9
REMARK H PARENT
REMARK Flexibility Score: inf
ROOT
ATOM      1  C   UNL     1      11.458  13.575   1.817  1.00  0.00     0.027 C 
ENDROOT
BRANCH   1   2
ATOM      2  C   UNL     1      12.327  12.971   0.696  1.00  0.00     0.004 C 
BRANCH   2   3
ATOM      3  C   UNL     1      11.857  13.340  -0.722  1.00  0.00    -0.003 C 
ATOM      4  C   UNL     1      10.351  13.586  -0.811  1.00  0.00     0.004 C 
ENDBRANCH   2   3
ENDBRANCH   1   2
BRANCH   1   5
ATOM      5  C   UNL     1      11.794  15.012   2.122  1.00  0.00    -0.023 C 
ATOM      6  C   UNL     1      10.936  16.046   2.110  1.00  0.00     0.042 C 
BRANCH   6   7
ATOM      7  C   UNL     1       9.478  15.973   1.885  1.00  0.00     0.152 C 
ATOM      8  O   UNL     1       8.871  17.019   1.536  1.00  0.00    -0.295 OA
ATOM      9  C   UNL     1       8.681  14.726   2.121  1.00  0.00     0.093 C 
ENDBRANCH   6   7
ENDBRANCH   1   5
TORSDOF 4
ENDMDL
MODEL 3
REMARK VINA RESULT:    -2.391      2.348      4.238
REMARK INTER + INTRA:          -3.245
REMARK INTER:                  -3.019
REMARK INTRA:                  -0.227
REMARK UNBOUND:                -0.295
REMARK SMILES CCCCC=CC(C)=O
REMARK SMILES IDX 4 1 3 2 2 3 1 4 5 5 6 6 7 7 9 8 8 9
REMARK H PARENT
REMARK Flexibility Score: inf
ROOT
ATOM      1  C   UNL     1      10.736  15.706   1.784  1.00  0.00     0.027 C 
ENDROOT
BRANCH   1   2
ATOM      2  C   UNL     1       9.229  15.797   2.095  1.00  0.00     0.004 C 
BRANCH   2   3
ATOM      3  C   UNL     1       8.516  14.432   2.122  1.00  0.00    -0.003 C 
ATOM      4  C   UNL     1       6.997  14.545   1.988  1.00  0.00     0.004 C 
ENDBRANCH   2   3
ENDBRANCH   1   2
BRANCH   1   5
ATOM      5  C   UNL     1      11.332  14.362   2.117  1.00  0.00    -0.023 C 
ATOM      6  C   UNL     1      11.660  13.402   1.237  1.00  0.00     0.042 C 
BRANCH   6   7
ATOM      7  C   UNL     1      11.587  13.498  -0.235  1.00  0.00     0.152 C 
ATOM      8  O   UNL     1      12.663  13.526  -0.888  1.00  0.00    -0.295 OA
ATOM      9  C   UNL     1      10.293  13.633  -0.977  1.00  0.00     0.093 C 
ENDBRANCH   6   7
ENDBRANCH   1   5
TORSDOF 4
ENDMDL
MODEL 4
REMARK VINA RESULT:    -1.654      2.041      3.666
REMARK INTER + INTRA:          -2.335
REMARK INTER:                  -2.861
REMARK INTRA:                   0.526
REMARK UNBOUND:                -0.295
REMARK SMILES CCCCC=CC(C)=O
REMARK SMILES IDX 4 1 3 2 2 3 1 4 5 5 6 6 7 7 9 8 8 9
REMARK H PARENT
REMARK Flexibility Score: inf
ROOT
ATOM      1  C   UNL     1       8.930  14.786   1.857  1.00  0.00     0.027 C 
ENDROOT
BRANCH   1   2
ATOM      2  C   UNL     1       9.338  16.248   2.121  1.00  0.00     0.004 C 
BRANCH   2   3
ATOM      3  C   UNL     1      10.543  16.718   1.286  1.00  0.00    -0.003 C 
ATOM      4  C   UNL     1      11.797  16.963   2.125  1.00  0.00     0.004 C 
ENDBRANCH   2   3
ENDBRANCH   1   2
BRANCH   1   5
ATOM      5  C   UNL     1       9.098  14.372   0.418  1.00  0.00    -0.023 C 
ATOM      6  C   UNL     1      10.218  13.884  -0.140  1.00  0.00     0.042 C 
BRANCH   6   7
ATOM      7  C   UNL     1      11.481  13.570   0.558  1.00  0.00     0.152 C 
ATOM      8  O   UNL     1      12.532  13.455  -0.125  1.00  0.00    -0.295 OA
ATOM      9  C   UNL     1      11.552  13.316   2.033  1.00  0.00     0.093 C 
ENDBRANCH   6   7
ENDBRANCH   1   5
TORSDOF 4
ENDMDL
MODEL 5
REMARK VINA RESULT:    -0.296     15.450     16.226
REMARK INTER + INTRA:          -0.660
REMARK INTER:                  -0.532
REMARK INTRA:                  -0.128
REMARK UNBOUND:                -0.295
REMARK SMILES CCCCC=CC(C)=O
REMARK SMILES IDX 4 1 3 2 2 3 1 4 5 5 6 6 7 7 9 8 8 9
REMARK H PARENT
REMARK Flexibility Score: inf
ROOT
ATOM      1  C   UNL     1      18.292  17.051 -12.892  1.00  0.00     0.027 C 
ENDROOT
BRANCH   1   2
ATOM      2  C   UNL     1      17.505  15.727 -12.958  1.00  0.00     0.004 C 
BRANCH   2   3
ATOM      3  C   UNL     1      18.227  14.612 -13.736  1.00  0.00    -0.003 C 
ATOM      4  C   UNL     1      19.282  13.884 -12.903  1.00  0.00     0.004 C 
ENDBRANCH   2   3
ENDBRANCH   1   2
BRANCH   1   5
ATOM      5  C   UNL     1      18.213  17.724 -11.546  1.00  0.00    -0.023 C 
ATOM      6  C   UNL     1      18.446  19.023 -11.296  1.00  0.00     0.042 C 
BRANCH   6   7
ATOM      7  C   UNL     1      18.738  20.071 -12.296  1.00  0.00     0.152 C 
ATOM      8  O   UNL     1      17.864  20.333 -13.163  1.00  0.00    -0.295 OA
ATOM      9  C   UNL     1      20.054  20.783 -12.364  1.00  0.00     0.093 C 
ENDBRANCH   6   7
ENDBRANCH   1   5
TORSDOF 4
ENDMDL
MODEL 6
REMARK VINA RESULT:     0.123      1.653      2.794
REMARK INTER + INTRA:          -0.143
REMARK INTER:                  -0.495
REMARK INTRA:                   0.352
REMARK UNBOUND:                -0.295
REMARK SMILES CCCCC=CC(C)=O
REMARK SMILES IDX 4 1 3 2 2 3 1 4 5 5 6 6 7 7 9 8 8 9
REMARK H PARENT
REMARK Flexibility Score: inf
ROOT
ATOM      1  C   UNL     1      11.617  13.759  -0.317  1.00  0.00     0.027 C 
ENDROOT
BRANCH   1   2
ATOM      2  C   UNL     1      10.184  13.357  -0.719  1.00  0.00     0.004 C 
BRANCH   2   3
ATOM      3  C   UNL     1       9.127  14.433  -0.412  1.00  0.00    -0.003 C 
ATOM      4  C   UNL     1       8.669  14.426   1.046  1.00  0.00     0.004 C 
ENDBRANCH   2   3
ENDBRANCH   1   2
BRANCH   1   5
ATOM      5  C   UNL     1      11.964  13.386   1.101  1.00  0.00    -0.023 C 
ATOM      6  C   UNL     1      12.147  14.239   2.122  1.00  0.00     0.042 C 
BRANCH   6   7
ATOM      7  C   UNL     1      11.957  15.703   2.087  1.00  0.00     0.152 C 
ATOM      8  O   UNL     1      12.976  16.441   2.125  1.00  0.00    -0.295 OA
ATOM      9  C   UNL     1      10.604  16.347   2.076  1.00  0.00     0.093 C 
ENDBRANCH   6   7
ENDBRANCH   1   5
TORSDOF 4
ENDMDL
