MODEL 1
REMARK VINA RESULT:    -4.586      0.000      0.000
REMARK INTER + INTRA:          -9.624
REMARK INTER:                  -8.340
REMARK INTRA:                  -1.284
REMARK UNBOUND:                -1.284
REMARK SMILES CCCCCCCCCCCCCCCC(=O)[O-]
REMARK SMILES IDX 9 1 10 2 11 3 12 4 13 5 14 6 15 7 16 8 17 9 18 10 8 11 7 12
REMARK SMILES IDX 6 13 5 14 4 15 3 16 2 17 1 18
REMARK H PARENT
REMARK Flexibility Score: inf
ROOT
ATOM      1  C   UNL     1      23.646  26.761  21.856  1.00  0.00     0.000 C 
ENDROOT
BRANCH   1   2
ATOM      2  C   UNL     1      24.446  25.568  21.307  1.00  0.00     0.000 C 
BRANCH   2   3
ATOM      3  C   UNL     1      23.614  24.279  21.234  1.00  0.00     0.000 C 
BRANCH   3   4
ATOM      4  C   UNL     1      24.112  23.246  22.253  1.00  0.00     0.000 C 
BRANCH   4   5
ATOM      5  C   UNL     1      25.558  23.536  22.672  1.00  0.00     0.000 C 
BRANCH   5   6
ATOM      6  C   UNL     1      26.516  22.480  22.107  1.00  0.00     0.006 C 
BRANCH   6   7
ATOM      7  C   UNL     1      27.808  23.129  21.599  1.00  0.00     0.053 C 
BRANCH   7   8
ATOM      8  C   UNL     1      27.561  23.847  20.310  1.00  0.00     0.041 C 
ATOM      9  O   UNL     1      27.244  23.204  19.276  1.00  0.00    -0.550 OA
ATOM     10  O   UNL     1      27.729  25.225  20.241  1.00  0.00    -0.550 OA
ENDBRANCH   7   8
ENDBRANCH   6   7
ENDBRANCH   5   6
ENDBRANCH   4   5
ENDBRANCH   3   4
ENDBRANCH   2   3
ENDBRANCH   1   2
BRANCH   1  11
ATOM     11  C   UNL     1      24.536  27.788  22.578  1.00  0.00     0.000 C 
BRANCH  11  12
ATOM     12  C   UNL     1      25.918  27.218  22.938  1.00  0.00    -0.000 C 
BRANCH  12  13
ATOM     13  C   UNL     1      26.993  28.313  23.054  1.00  0.00    -0.000 C 
BRANCH  13  14
ATOM     14  C   UNL     1      27.518  28.489  24.490  1.00  0.00    -0.000 C 
BRANCH  14  15
ATOM     15  C   UNL     1      27.541  29.939  25.008  1.00  0.00    -0.000 C 
BRANCH  15  16
ATOM     16  C   UNL     1      26.152  30.599  25.007  1.00  0.00    -0.000 C 
BRANCH  16  17
ATOM     17  C   UNL     1      26.201  32.076  25.425  1.00  0.00    -0.003 C 
ATOM     18  C   UNL     1      27.219  32.345  26.532  1.00  0.00     0.004 C 
ENDBRANCH  16  17
ENDBRANCH  15  16
ENDBRANCH  14  15
ENDBRANCH  13  14
ENDBRANCH  12  13
ENDBRANCH  11  12
ENDBRANCH   1  11
TORSDOF 14
ENDMDL
MODEL 2
REMARK VINA RESULT:    -4.437      3.123      6.794
REMARK INTER + INTRA:          -9.352
REMARK INTER:                  -7.861
REMARK INTRA:                  -1.491
REMARK UNBOUND:                -1.284
REMARK SMILES CCCCCCCCCCCCCCCC(=O)[O-]
REMARK SMILES IDX 9 1 10 2 11 3 12 4 13 5 14 6 15 7 16 8 17 9 18 10 8 11 7 12
REMARK SMILES IDX 6 13 5 14 4 15 3 16 2 17 1 18
REMARK H PARENT
REMARK Flexibility Score: inf
ROOT
ATOM      1  C   UNL     1      23.244  25.622  21.249  1.00  0.00     0.000 C 
ENDROOT
BRANCH   1   2
ATOM      2  C   UNL     1      24.169  26.677  21.878  1.00  0.00     0.000 C 
BRANCH   2   3
ATOM      3  C   UNL     1      25.547  26.112  22.252  1.00  0.00     0.000 C 
BRANCH   3   4
ATOM      4  C   UNL     1      26.397  27.168  22.970  1.00  0.00     0.000 C 
BRANCH   4   5
ATOM      5  C   UNL     1      27.089  26.574  24.203  1.00  0.00     0.000 C 
BRANCH   5   6
ATOM      6  C   UNL     1      27.985  27.615  24.885  1.00  0.00     0.006 C 
BRANCH   6   7
ATOM      7  C   UNL     1      27.805  28.996  24.246  1.00  0.00     0.053 C 
BRANCH   7   8
ATOM      8  C   UNL     1      27.446  30.011  25.285  1.00  0.00     0.041 C 
ATOM      9  O   UNL     1      28.117  30.097  26.345  1.00  0.00    -0.550 OA
ATOM     10  O   UNL     1      26.337  30.828  25.102  1.00  0.00    -0.550 OA
ENDBRANCH   7   8
ENDBRANCH   6   7
ENDBRANCH   5   6
ENDBRANCH   4   5
ENDBRANCH   3   4
ENDBRANCH   2   3
ENDBRANCH   1   2
BRANCH   1  11
ATOM     11  C   UNL     1      23.940  24.262  21.061  1.00  0.00     0.000 C 
BRANCH  11  12
ATOM     12  C   UNL     1      23.724  23.320  22.256  1.00  0.00    -0.000 C 
BRANCH  12  13
ATOM     13  C   UNL     1      24.815  22.239  22.358  1.00  0.00    -0.000 C 
BRANCH  13  14
ATOM     14  C   UNL     1      25.946  22.619  23.330  1.00  0.00    -0.000 C 
BRANCH  14  15
ATOM     15  C   UNL     1      27.335  22.790  22.687  1.00  0.00    -0.000 C 
BRANCH  15  16
ATOM     16  C   UNL     1      27.440  22.132  21.301  1.00  0.00    -0.000 C 
BRANCH  16  17
ATOM     17  C   UNL     1      28.116  23.045  20.267  1.00  0.00    -0.003 C 
ATOM     18  C   UNL     1      27.143  24.024  19.613  1.00  0.00     0.004 C 
ENDBRANCH  16  17
ENDBRANCH  15  16
ENDBRANCH  14  15
ENDBRANCH  13  14
ENDBRANCH  12  13
ENDBRANCH  11  12
ENDBRANCH   1  11
TORSDOF 14
ENDMDL
MODEL 3
REMARK VINA RESULT:    -4.305      3.341      7.017
REMARK INTER + INTRA:          -9.113
REMARK INTER:                  -7.831
REMARK INTRA:                  -1.282
REMARK UNBOUND:                -1.284
REMARK SMILES CCCCCCCCCCCCCCCC(=O)[O-]
REMARK SMILES IDX 9 1 10 2 11 3 12 4 13 5 14 6 15 7 16 8 17 9 18 10 8 11 7 12
REMARK SMILES IDX 6 13 5 14 4 15 3 16 2 17 1 18
REMARK H PARENT
REMARK Flexibility Score: inf
ROOT
ATOM      1  C   UNL     1      24.417  26.449  21.962  1.00  0.00     0.000 C 
ENDROOT
BRANCH   1   2
ATOM      2  C   UNL     1      25.867  25.936  21.955  1.00  0.00     0.000 C 
BRANCH   2   3
ATOM      3  C   UNL     1      26.693  26.476  23.132  1.00  0.00     0.000 C 
BRANCH   3   4
ATOM      4  C   UNL     1      27.904  27.273  22.631  1.00  0.00     0.000 C 
BRANCH   4   5
ATOM      5  C   UNL     1      28.001  28.632  23.337  1.00  0.00     0.000 C 
BRANCH   5   6
ATOM      6  C   UNL     1      27.045  28.699  24.534  1.00  0.00     0.006 C 
BRANCH   6   7
ATOM      7  C   UNL     1      26.173  29.957  24.469  1.00  0.00     0.053 C 
BRANCH   7   8
ATOM      8  C   UNL     1      26.684  30.997  25.415  1.00  0.00     0.041 C 
ATOM      9  O   UNL     1      26.078  32.093  25.540  1.00  0.00    -0.550 OA
ATOM     10  O   UNL     1      27.858  30.774  26.124  1.00  0.00    -0.550 OA
ENDBRANCH   7   8
ENDBRANCH   6   7
ENDBRANCH   5   6
ENDBRANCH   4   5
ENDBRANCH   3   4
ENDBRANCH   2   3
ENDBRANCH   1   2
BRANCH   1  11
ATOM     11  C   UNL     1      23.450  25.499  21.232  1.00  0.00     0.000 C 
BRANCH  11  12
ATOM     12  C   UNL     1      23.996  24.065  21.135  1.00  0.00    -0.000 C 
BRANCH  12  13
ATOM     13  C   UNL     1      23.723  23.244  22.408  1.00  0.00    -0.000 C 
BRANCH  13  14
ATOM     14  C   UNL     1      24.542  21.942  22.469  1.00  0.00    -0.000 C 
BRANCH  14  15
ATOM     15  C   UNL     1      26.065  22.118  22.321  1.00  0.00    -0.000 C 
BRANCH  15  16
ATOM     16  C   UNL     1      26.828  21.875  23.635  1.00  0.00    -0.000 C 
BRANCH  16  17
ATOM     17  C   UNL     1      27.106  23.176  24.403  1.00  0.00    -0.003 C 
ATOM     18  C   UNL     1      27.428  22.938  25.877  1.00  0.00     0.004 C 
ENDBRANCH  16  17
ENDBRANCH  15  16
ENDBRANCH  14  15
ENDBRANCH  13  14
ENDBRANCH  12  13
ENDBRANCH  11  12
ENDBRANCH   1  11
TORSDOF 14
ENDMDL
MODEL 4
REMARK VINA RESULT:    -4.268      2.568      2.930
REMARK INTER + INTRA:          -9.045
REMARK INTER:                  -7.946
REMARK INTRA:                  -1.098
REMARK UNBOUND:                -1.284
REMARK SMILES CCCCCCCCCCCCCCCC(=O)[O-]
REMARK SMILES IDX 9 1 10 2 11 3 12 4 13 5 14 6 15 7 16 8 17 9 18 10 8 11 7 12
REMARK SMILES IDX 6 13 5 14 4 15 3 16 2 17 1 18
REMARK H PARENT
REMARK Flexibility Score: inf
ROOT
ATOM      1  C   UNL     1      23.340  25.497  20.809  1.00  0.00     0.000 C 
ENDROOT
BRANCH   1   2
ATOM      2  C   UNL     1      24.219  24.258  21.045  1.00  0.00     0.000 C 
BRANCH   2   3
ATOM      3  C   UNL     1      23.660  23.332  22.136  1.00  0.00     0.000 C 
BRANCH   3   4
ATOM      4  C   UNL     1      24.779  22.832  23.058  1.00  0.00     0.000 C 
BRANCH   4   5
ATOM      5  C   UNL     1      26.158  23.232  22.520  1.00  0.00     0.000 C 
BRANCH   5   6
ATOM      6  C   UNL     1      27.277  22.708  23.428  1.00  0.00     0.006 C 
BRANCH   6   7
ATOM      7  C   UNL     1      27.773  23.805  24.375  1.00  0.00     0.053 C 
BRANCH   7   8
ATOM      8  C   UNL     1      27.532  23.417  25.799  1.00  0.00     0.041 C 
ATOM      9  O   UNL     1      27.040  22.292  26.075  1.00  0.00    -0.550 OA
ATOM     10  O   UNL     1      27.807  24.318  26.821  1.00  0.00    -0.550 OA
ENDBRANCH   7   8
ENDBRANCH   6   7
ENDBRANCH   5   6
ENDBRANCH   4   5
ENDBRANCH   3   4
ENDBRANCH   2   3
ENDBRANCH   1   2
BRANCH   1  11
ATOM     11  C   UNL     1      23.566  26.593  21.866  1.00  0.00     0.000 C 
BRANCH  11  12
ATOM     12  C   UNL     1      25.045  26.730  22.263  1.00  0.00    -0.000 C 
BRANCH  12  13
ATOM     13  C   UNL     1      25.335  28.045  23.008  1.00  0.00    -0.000 C 
BRANCH  13  14
ATOM     14  C   UNL     1      26.837  28.278  23.251  1.00  0.00    -0.000 C 
BRANCH  14  15
ATOM     15  C   UNL     1      27.206  28.757  24.668  1.00  0.00    -0.000 C 
BRANCH  15  16
ATOM     16  C   UNL     1      27.492  30.267  24.736  1.00  0.00    -0.000 C 
BRANCH  16  17
ATOM     17  C   UNL     1      26.293  31.069  25.264  1.00  0.00    -0.003 C 
ATOM     18  C   UNL     1      26.710  32.329  26.022  1.00  0.00     0.004 C 
ENDBRANCH  16  17
ENDBRANCH  15  16
ENDBRANCH  14  15
ENDBRANCH  13  14
ENDBRANCH  12  13
ENDBRANCH  11  12
ENDBRANCH   1  11
TORSDOF 14
ENDMDL
MODEL 5
REMARK VINA RESULT:    -4.239     17.144     19.185
REMARK INTER + INTRA:          -8.991
REMARK INTER:                  -7.091
REMARK INTRA:                  -1.901
REMARK UNBOUND:                -1.284
REMARK SMILES CCCCCCCCCCCCCCCC(=O)[O-]
REMARK SMILES IDX 9 1 10 2 11 3 12 4 13 5 14 6 15 7 16 8 17 9 18 10 8 11 7 12
REMARK SMILES IDX 6 13 5 14 4 15 3 16 2 17 1 18
REMARK H PARENT
REMARK Flexibility Score: inf
ROOT
ATOM      1  C   UNL     1      12.344  35.033  21.665  1.00  0.00     0.000 C 
ENDROOT
BRANCH   1   2
ATOM      2  C   UNL     1      13.491  36.041  21.841  1.00  0.00     0.000 C 
BRANCH   2   3
ATOM      3  C   UNL     1      13.002  37.497  21.878  1.00  0.00     0.000 C 
BRANCH   3   4
ATOM      4  C   UNL     1      13.057  38.059  23.304  1.00  0.00     0.000 C 
BRANCH   4   5
ATOM      5  C   UNL     1      11.774  38.826  23.644  1.00  0.00     0.000 C 
BRANCH   5   6
ATOM      6  C   UNL     1      10.847  37.983  24.529  1.00  0.00     0.006 C 
BRANCH   6   7
ATOM      7  C   UNL     1       9.386  38.408  24.352  1.00  0.00     0.053 C 
BRANCH   7   8
ATOM      8  C   UNL     1       8.930  39.217  25.525  1.00  0.00     0.041 C 
ATOM      9  O   UNL     1       9.148  40.456  25.563  1.00  0.00    -0.550 OA
ATOM     10  O   UNL     1       8.309  38.593  26.600  1.00  0.00    -0.550 OA
ENDBRANCH   7   8
ENDBRANCH   6   7
ENDBRANCH   5   6
ENDBRANCH   4   5
ENDBRANCH   3   4
ENDBRANCH   2   3
ENDBRANCH   1   2
BRANCH   1  11
ATOM     11  C   UNL     1      10.965  35.712  21.594  1.00  0.00     0.000 C 
BRANCH  11  12
ATOM     12  C   UNL     1      10.047  35.305  22.758  1.00  0.00    -0.000 C 
BRANCH  12  13
ATOM     13  C   UNL     1       9.268  34.010  22.468  1.00  0.00    -0.000 C 
BRANCH  13  14
ATOM     14  C   UNL     1       9.639  32.860  23.422  1.00  0.00    -0.000 C 
BRANCH  14  15
ATOM     15  C   UNL     1      11.064  32.922  24.002  1.00  0.00    -0.000 C 
BRANCH  15  16
ATOM     16  C   UNL     1      11.084  33.070  25.533  1.00  0.00    -0.000 C 
BRANCH  16  17
ATOM     17  C   UNL     1      11.562  34.459  25.983  1.00  0.00    -0.003 C 
ATOM     18  C   UNL     1      12.894  34.861  25.354  1.00  0.00     0.004 C 
ENDBRANCH  16  17
ENDBRANCH  15  16
ENDBRANCH  14  15
ENDBRANCH  13  14
ENDBRANCH  12  13
ENDBRANCH  11  12
ENDBRANCH   1  11
TORSDOF 14
ENDMDL
MODEL 6
REMARK VINA RESULT:    -4.212     17.164     19.298
REMARK INTER + INTRA:          -8.942
REMARK INTER:                  -7.441
REMARK INTRA:                  -1.502
REMARK UNBOUND:                -1.284
REMARK SMILES CCCCCCCCCCCCCCCC(=O)[O-]
REMARK SMILES IDX 9 1 10 2 11 3 12 4 13 5 14 6 15 7 16 8 17 9 18 10 8 11 7 12
REMARK SMILES IDX 6 13 5 14 4 15 3 16 2 17 1 18
REMARK H PARENT
REMARK Flexibility Score: inf
ROOT
ATOM      1  C   UNL     1      10.358  32.862  23.088  1.00  0.00     0.000 C 
ENDROOT
BRANCH   1   2
ATOM      2  C   UNL     1       9.069  33.680  22.907  1.00  0.00     0.000 C 
BRANCH   2   3
ATOM      3  C   UNL     1       9.230  34.828  21.900  1.00  0.00     0.000 C 
BRANCH   3   4
ATOM      4  C   UNL     1       8.582  36.115  22.426  1.00  0.00     0.000 C 
BRANCH   4   5
ATOM      5  C   UNL     1       9.537  36.874  23.355  1.00  0.00     0.000 C 
BRANCH   5   6
ATOM      6  C   UNL     1       8.802  37.990  24.106  1.00  0.00     0.006 C 
BRANCH   6   7
ATOM      7  C   UNL     1       9.758  38.752  25.029  1.00  0.00     0.053 C 
BRANCH   7   8
ATOM      8  C   UNL     1       9.000  39.708  25.894  1.00  0.00     0.041 C 
ATOM      9  O   UNL     1       9.251  40.940  25.849  1.00  0.00    -0.550 OA
ATOM     10  O   UNL     1       8.049  39.231  26.788  1.00  0.00    -0.550 OA
ENDBRANCH   7   8
ENDBRANCH   6   7
ENDBRANCH   5   6
ENDBRANCH   4   5
ENDBRANCH   3   4
ENDBRANCH   2   3
ENDBRANCH   1   2
BRANCH   1  11
ATOM     11  C   UNL     1      10.723  32.654  24.569  1.00  0.00     0.000 C 
BRANCH  11  12
ATOM     12  C   UNL     1      11.264  33.933  25.228  1.00  0.00    -0.000 C 
BRANCH  12  13
ATOM     13  C   UNL     1      12.670  34.305  24.724  1.00  0.00    -0.000 C 
BRANCH  13  14
ATOM     14  C   UNL     1      12.670  35.539  23.804  1.00  0.00    -0.000 C 
BRANCH  14  15
ATOM     15  C   UNL     1      12.811  35.237  22.300  1.00  0.00    -0.000 C 
BRANCH  15  16
ATOM     16  C   UNL     1      12.545  36.465  21.413  1.00  0.00    -0.000 C 
BRANCH  16  17
ATOM     17  C   UNL     1      13.435  37.662  21.782  1.00  0.00    -0.003 C 
ATOM     18  C   UNL     1      12.853  38.506  22.915  1.00  0.00     0.004 C 
ENDBRANCH  16  17
ENDBRANCH  15  16
ENDBRANCH  14  15
ENDBRANCH  13  14
ENDBRANCH  12  13
ENDBRANCH  11  12
ENDBRANCH   1  11
TORSDOF 14
ENDMDL
MODEL 7
REMARK VINA RESULT:    -4.190      2.091      3.073
REMARK INTER + INTRA:          -8.903
REMARK INTER:                  -7.726
REMARK INTRA:                  -1.177
REMARK UNBOUND:                -1.284
REMARK SMILES CCCCCCCCCCCCCCCC(=O)[O-]
REMARK SMILES IDX 9 1 10 2 11 3 12 4 13 5 14 6 15 7 16 8 17 9 18 10 8 11 7 12
REMARK SMILES IDX 6 13 5 14 4 15 3 16 2 17 1 18
REMARK H PARENT
REMARK Flexibility Score: inf
ROOT
ATOM      1  C   UNL     1      27.030  25.640  23.328  1.00  0.00     0.000 C 
ENDROOT
BRANCH   1   2
ATOM      2  C   UNL     1      27.888  24.475  23.847  1.00  0.00     0.000 C 
BRANCH   2   3
ATOM      3  C   UNL     1      27.052  23.241  24.218  1.00  0.00     0.000 C 
BRANCH   3   4
ATOM      4  C   UNL     1      26.475  22.572  22.964  1.00  0.00     0.000 C 
BRANCH   4   5
ATOM      5  C   UNL     1      25.041  22.086  23.208  1.00  0.00     0.000 C 
BRANCH   5   6
ATOM      6  C   UNL     1      24.022  23.041  22.577  1.00  0.00     0.006 C 
BRANCH   6   7
ATOM      7  C   UNL     1      24.587  23.684  21.306  1.00  0.00     0.053 C 
BRANCH   7   8
ATOM      8  C   UNL     1      23.841  24.938  20.977  1.00  0.00     0.041 C 
ATOM      9  O   UNL     1      24.025  25.982  21.655  1.00  0.00    -0.550 OA
ATOM     10  O   UNL     1      22.904  24.939  19.952  1.00  0.00    -0.550 OA
ENDBRANCH   7   8
ENDBRANCH   6   7
ENDBRANCH   5   6
ENDBRANCH   4   5
ENDBRANCH   3   4
ENDBRANCH   2   3
ENDBRANCH   1   2
BRANCH   1  11
ATOM     11  C   UNL     1      27.809  26.572  22.383  1.00  0.00     0.000 C 
BRANCH  11  12
ATOM     12  C   UNL     1      27.928  28.003  22.933  1.00  0.00    -0.000 C 
BRANCH  12  13
ATOM     13  C   UNL     1      28.043  28.035  24.467  1.00  0.00    -0.000 C 
BRANCH  13  14
ATOM     14  C   UNL     1      27.552  29.361  25.077  1.00  0.00    -0.000 C 
BRANCH  14  15
ATOM     15  C   UNL     1      26.244  29.913  24.481  1.00  0.00    -0.000 C 
BRANCH  15  16
ATOM     16  C   UNL     1      25.755  31.190  25.187  1.00  0.00    -0.000 C 
BRANCH  16  17
ATOM     17  C   UNL     1      26.870  32.233  25.355  1.00  0.00    -0.003 C 
ATOM     18  C   UNL     1      27.020  32.714  26.797  1.00  0.00     0.004 C 
ENDBRANCH  16  17
ENDBRANCH  15  16
ENDBRANCH  14  15
ENDBRANCH  13  14
ENDBRANCH  12  13
ENDBRANCH  11  12
ENDBRANCH   1  11
TORSDOF 14
ENDMDL
MODEL 8
REMARK VINA RESULT:    -4.161      3.736      7.540
REMARK INTER + INTRA:          -8.851
REMARK INTER:                  -7.803
REMARK INTRA:                  -1.048
REMARK UNBOUND:                -1.284
REMARK SMILES CCCCCCCCCCCCCCCC(=O)[O-]
REMARK SMILES IDX 9 1 10 2 11 3 12 4 13 5 14 6 15 7 16 8 17 9 18 10 8 11 7 12
REMARK SMILES IDX 6 13 5 14 4 15 3 16 2 17 1 18
REMARK H PARENT
REMARK Flexibility Score: inf
ROOT
ATOM      1  C   UNL     1      27.112  25.671  22.380  1.00  0.00     0.000 C 
ENDROOT
BRANCH   1   2
ATOM      2  C   UNL     1      28.125  26.828  22.410  1.00  0.00     0.000 C 
BRANCH   2   3
ATOM      3  C   UNL     1      27.794  27.880  23.478  1.00  0.00     0.000 C 
BRANCH   3   4
ATOM      4  C   UNL     1      26.294  27.882  23.800  1.00  0.00     0.000 C 
BRANCH   4   5
ATOM      5  C   UNL     1      25.800  29.299  24.117  1.00  0.00     0.000 C 
BRANCH   5   6
ATOM      6  C   UNL     1      26.870  30.099  24.870  1.00  0.00     0.006 C 
BRANCH   6   7
ATOM      7  C   UNL     1      26.351  31.489  25.248  1.00  0.00     0.053 C 
BRANCH   7   8
ATOM      8  C   UNL     1      27.472  32.354  25.729  1.00  0.00     0.041 C 
ATOM      9  O   UNL     1      27.990  32.152  26.858  1.00  0.00    -0.550 OA
ATOM     10  O   UNL     1      27.913  33.417  24.949  1.00  0.00    -0.550 OA
ENDBRANCH   7   8
ENDBRANCH   6   7
ENDBRANCH   5   6
ENDBRANCH   4   5
ENDBRANCH   3   4
ENDBRANCH   2   3
ENDBRANCH   1   2
BRANCH   1  11
ATOM     11  C   UNL     1      27.763  24.307  22.667  1.00  0.00     0.000 C 
BRANCH  11  12
ATOM     12  C   UNL     1      26.999  23.502  23.731  1.00  0.00    -0.000 C 
BRANCH  12  13
ATOM     13  C   UNL     1      26.580  22.109  23.228  1.00  0.00    -0.000 C 
BRANCH  13  14
ATOM     14  C   UNL     1      25.854  22.156  21.871  1.00  0.00    -0.000 C 
BRANCH  14  15
ATOM     15  C   UNL     1      24.541  22.961  21.856  1.00  0.00    -0.000 C 
BRANCH  15  16
ATOM     16  C   UNL     1      24.557  24.117  20.841  1.00  0.00    -0.000 C 
BRANCH  16  17
ATOM     17  C   UNL     1      23.246  24.918  20.842  1.00  0.00    -0.003 C 
ATOM     18  C   UNL     1      23.382  26.277  21.526  1.00  0.00     0.004 C 
ENDBRANCH  16  17
ENDBRANCH  15  16
ENDBRANCH  14  15
ENDBRANCH  13  14
ENDBRANCH  12  13
ENDBRANCH  11  12
ENDBRANCH   1  11
TORSDOF 14
ENDMDL
MODEL 9
REMARK VINA RESULT:    -3.966     16.594     18.341
REMARK INTER + INTRA:          -8.495
REMARK INTER:                  -7.099
REMARK INTRA:                  -1.396
REMARK UNBOUND:                -1.284
REMARK SMILES CCCCCCCCCCCCCCCC(=O)[O-]
REMARK SMILES IDX 9 1 10 2 11 3 12 4 13 5 14 6 15 7 16 8 17 9 18 10 8 11 7 12
REMARK SMILES IDX 6 13 5 14 4 15 3 16 2 17 1 18
REMARK H PARENT
REMARK Flexibility Score: inf
ROOT
ATOM      1  C   UNL     1      13.134  37.072  21.168  1.00  0.00     0.000 C 
ENDROOT
BRANCH   1   2
ATOM      2  C   UNL     1      12.756  35.616  20.846  1.00  0.00     0.000 C 
BRANCH   2   3
ATOM      3  C   UNL     1      12.212  34.859  22.066  1.00  0.00     0.000 C 
BRANCH   3   4
ATOM      4  C   UNL     1      10.683  34.961  22.138  1.00  0.00     0.000 C 
BRANCH   4   5
ATOM      5  C   UNL     1      10.157  34.425  23.475  1.00  0.00     0.000 C 
BRANCH   5   6
ATOM      6  C   UNL     1      10.844  33.106  23.848  1.00  0.00     0.006 C 
BRANCH   6   7
ATOM      7  C   UNL     1      11.228  33.088  25.331  1.00  0.00     0.053 C 
BRANCH   7   8
ATOM      8  C   UNL     1      11.827  34.399  25.732  1.00  0.00     0.041 C 
ATOM      9  O   UNL     1      12.957  34.741  25.295  1.00  0.00    -0.550 OA
ATOM     10  O   UNL     1      11.158  35.222  26.630  1.00  0.00    -0.550 OA
ENDBRANCH   7   8
ENDBRANCH   6   7
ENDBRANCH   5   6
ENDBRANCH   4   5
ENDBRANCH   3   4
ENDBRANCH   2   3
ENDBRANCH   1   2
BRANCH   1  11
ATOM     11  C   UNL     1      13.318  37.314  22.677  1.00  0.00     0.000 C 
BRANCH  11  12
ATOM     12  C   UNL     1      13.126  38.790  23.064  1.00  0.00    -0.000 C 
BRANCH  12  13
ATOM     13  C   UNL     1      11.905  39.004  23.975  1.00  0.00    -0.000 C 
BRANCH  13  14
ATOM     14  C   UNL     1      10.767  38.005  23.698  1.00  0.00    -0.000 C 
BRANCH  14  15
ATOM     15  C   UNL     1       9.753  37.830  24.845  1.00  0.00    -0.000 C 
BRANCH  15  16
ATOM     16  C   UNL     1       8.562  38.798  24.746  1.00  0.00    -0.000 C 
BRANCH  16  17
ATOM     17  C   UNL     1       8.257  39.492  26.082  1.00  0.00    -0.003 C 
ATOM     18  C   UNL     1       9.173  40.684  26.354  1.00  0.00     0.004 C 
ENDBRANCH  16  17
ENDBRANCH  15  16
ENDBRANCH  14  15
ENDBRANCH  13  14
ENDBRANCH  12  13
ENDBRANCH  11  12
ENDBRANCH   1  11
TORSDOF 14
ENDMDL
