MODEL 1
REMARK VINA RESULT:    -3.852      0.000      0.000
REMARK INTER + INTRA:          -5.859
REMARK INTER:                  -5.204
REMARK INTRA:                  -0.656
REMARK UNBOUND:                -0.656
REMARK SMILES CCCCCCCC(=O)[O-]
REMARK SMILES IDX 5 1 6 2 7 3 8 4 9 5 10 6 4 7 3 8 2 9 1 10
REMARK H PARENT
REMARK Flexibility Score: inf
ROOT
ATOM      1  C   UNL     1       8.247   8.527  13.124  1.00  0.00     0.000 C 
ENDROOT
BRANCH   1   2
ATOM      2  C   UNL     1       8.327   7.528  14.290  1.00  0.00     0.006 C 
BRANCH   2   3
ATOM      3  C   UNL     1       7.160   7.674  15.274  1.00  0.00     0.053 C 
BRANCH   3   4
ATOM      4  C   UNL     1       6.385   6.396  15.358  1.00  0.00     0.041 C 
ATOM      5  O   UNL     1       6.910   5.312  14.988  1.00  0.00    -0.550 OA
ATOM      6  O   UNL     1       5.069   6.408  15.799  1.00  0.00    -0.550 OA
ENDBRANCH   3   4
ENDBRANCH   2   3
ENDBRANCH   1   2
BRANCH   1   7
ATOM      7  C   UNL     1       7.662   7.903  11.850  1.00  0.00     0.000 C 
BRANCH   7   8
ATOM      8  C   UNL     1       7.893   6.386  11.825  1.00  0.00    -0.000 C 
BRANCH   8   9
ATOM      9  C   UNL     1       6.619   5.642  11.408  1.00  0.00    -0.003 C 
ATOM     10  C   UNL     1       5.371   6.421  11.810  1.00  0.00     0.004 C 
ENDBRANCH   8   9
ENDBRANCH   7   8
ENDBRANCH   1   7
TORSDOF 6
ENDMDL
MODEL 2
REMARK VINA RESULT:    -3.777     14.016     15.918
REMARK INTER + INTRA:          -5.757
REMARK INTER:                  -5.150
REMARK INTRA:                  -0.607
REMARK UNBOUND:                -0.656
REMARK SMILES CCCCCCCC(=O)[O-]
REMARK SMILES IDX 5 1 6 2 7 3 8 4 9 5 10 6 4 7 3 8 2 9 1 10
REMARK H PARENT
REMARK Flexibility Score: inf
ROOT
ATOM      1  C   UNL     1      10.234   4.334  27.397  1.00  0.00     0.000 C 
ENDROOT
BRANCH   1   2
ATOM      2  C   UNL     1      10.444   5.724  26.774  1.00  0.00     0.006 C 
BRANCH   2   3
ATOM      3  C   UNL     1      11.637   6.470  27.386  1.00  0.00     0.053 C 
BRANCH   3   4
ATOM      4  C   UNL     1      12.879   5.642  27.280  1.00  0.00     0.041 C 
ATOM      5  O   UNL     1      13.524   5.331  28.316  1.00  0.00    -0.550 OA
ATOM      6  O   UNL     1      13.352   5.255  26.033  1.00  0.00    -0.550 OA
ENDBRANCH   3   4
ENDBRANCH   2   3
ENDBRANCH   1   2
BRANCH   1   7
ATOM      7  C   UNL     1       9.406   4.383  28.689  1.00  0.00     0.000 C 
BRANCH   7   8
ATOM      8  C   UNL     1      10.270   4.033  29.907  1.00  0.00    -0.000 C 
BRANCH   8   9
ATOM      9  C   UNL     1      10.298   5.190  30.913  1.00  0.00    -0.003 C 
ATOM     10  C   UNL     1       9.367   6.318  30.480  1.00  0.00     0.004 C 
ENDBRANCH   8   9
ENDBRANCH   7   8
ENDBRANCH   1   7
TORSDOF 6
ENDMDL
MODEL 3
REMARK VINA RESULT:    -3.763      1.521      1.836
REMARK INTER + INTRA:          -5.739
REMARK INTER:                  -5.153
REMARK INTRA:                  -0.585
REMARK UNBOUND:                -0.656
REMARK SMILES CCCCCCCC(=O)[O-]
REMARK SMILES IDX 5 1 6 2 7 3 8 4 9 5 10 6 4 7 3 8 2 9 1 10
REMARK H PARENT
REMARK Flexibility Score: inf
ROOT
ATOM      1  C   UNL     1       8.139   7.523  14.599  1.00  0.00     0.000 C 
ENDROOT
BRANCH   1   2
ATOM      2  C   UNL     1       6.903   6.945  15.307  1.00  0.00     0.006 C 
BRANCH   2   3
ATOM      3  C   UNL     1       5.645   7.795  15.087  1.00  0.00     0.053 C 
BRANCH   3   4
ATOM      4  C   UNL     1       4.465   6.917  14.811  1.00  0.00     0.041 C 
ATOM      5  O   UNL     1       4.048   6.770  13.631  1.00  0.00    -0.550 OA
ATOM      6  O   UNL     1       3.797   6.300  15.859  1.00  0.00    -0.550 OA
ENDBRANCH   3   4
ENDBRANCH   2   3
ENDBRANCH   1   2
BRANCH   1   7
ATOM      7  C   UNL     1       8.230   7.097  13.127  1.00  0.00     0.000 C 
BRANCH   7   8
ATOM      8  C   UNL     1       7.855   5.618  12.960  1.00  0.00    -0.000 C 
BRANCH   8   9
ATOM      9  C   UNL     1       6.790   5.441  11.872  1.00  0.00    -0.003 C 
ATOM     10  C   UNL     1       6.547   6.747  11.122  1.00  0.00     0.004 C 
ENDBRANCH   8   9
ENDBRANCH   7   8
ENDBRANCH   1   7
TORSDOF 6
ENDMDL
MODEL 4
REMARK VINA RESULT:    -3.736      1.783      2.895
REMARK INTER + INTRA:          -5.703
REMARK INTER:                  -5.238
REMARK INTRA:                  -0.465
REMARK UNBOUND:                -0.656
REMARK SMILES CCCCCCCC(=O)[O-]
REMARK SMILES IDX 5 1 6 2 7 3 8 4 9 5 10 6 4 7 3 8 2 9 1 10
REMARK H PARENT
REMARK Flexibility Score: inf
ROOT
ATOM      1  C   UNL     1       7.044   7.565  15.398  1.00  0.00     0.000 C 
ENDROOT
BRANCH   1   2
ATOM      2  C   UNL     1       6.262   6.242  15.368  1.00  0.00     0.006 C 
BRANCH   2   3
ATOM      3  C   UNL     1       4.756   6.440  15.584  1.00  0.00     0.053 C 
BRANCH   3   4
ATOM      4  C   UNL     1       4.115   6.957  14.333  1.00  0.00     0.041 C 
ATOM      5  O   UNL     1       3.132   7.741  14.403  1.00  0.00    -0.550 OA
ATOM      6  O   UNL     1       4.573   6.535  13.092  1.00  0.00    -0.550 OA
ENDBRANCH   3   4
ENDBRANCH   2   3
ENDBRANCH   1   2
BRANCH   1   7
ATOM      7  C   UNL     1       8.251   7.560  14.451  1.00  0.00     0.000 C 
BRANCH   7   8
ATOM      8  C   UNL     1       8.102   6.473  13.377  1.00  0.00    -0.000 C 
BRANCH   8   9
ATOM      9  C   UNL     1       7.914   7.095  11.988  1.00  0.00    -0.003 C 
ATOM     10  C   UNL     1       8.321   8.565  11.983  1.00  0.00     0.004 C 
ENDBRANCH   8   9
ENDBRANCH   7   8
ENDBRANCH   1   7
TORSDOF 6
ENDMDL
MODEL 5
REMARK VINA RESULT:    -3.685     14.281     16.084
REMARK INTER + INTRA:          -5.633
REMARK INTER:                  -5.185
REMARK INTRA:                  -0.448
REMARK UNBOUND:                -0.656
REMARK SMILES CCCCCCCC(=O)[O-]
REMARK SMILES IDX 5 1 6 2 7 3 8 4 9 5 10 6 4 7 3 8 2 9 1 10
REMARK H PARENT
REMARK Flexibility Score: inf
ROOT
ATOM      1  C   UNL     1       9.284   5.382  27.852  1.00  0.00     0.000 C 
ENDROOT
BRANCH   1   2
ATOM      2  C   UNL     1      10.557   5.209  27.008  1.00  0.00     0.006 C 
BRANCH   2   3
ATOM      3  C   UNL     1      11.663   6.198  27.398  1.00  0.00     0.053 C 
BRANCH   3   4
ATOM      4  C   UNL     1      13.007   5.552  27.272  1.00  0.00     0.041 C 
ATOM      5  O   UNL     1      13.341   4.990  26.196  1.00  0.00    -0.550 OA
ATOM      6  O   UNL     1      13.873   5.529  28.358  1.00  0.00    -0.550 OA
ENDBRANCH   3   4
ENDBRANCH   2   3
ENDBRANCH   1   2
BRANCH   1   7
ATOM      7  C   UNL     1       9.500   6.293  29.068  1.00  0.00     0.000 C 
BRANCH   7   8
ATOM      8  C   UNL     1       9.389   5.498  30.377  1.00  0.00    -0.000 C 
BRANCH   8   9
ATOM      9  C   UNL     1      10.216   4.210  30.309  1.00  0.00    -0.003 C 
ATOM     10  C   UNL     1      11.622   4.428  30.859  1.00  0.00     0.004 C 
ENDBRANCH   8   9
ENDBRANCH   7   8
ENDBRANCH   1   7
TORSDOF 6
ENDMDL
MODEL 6
REMARK VINA RESULT:    -3.681     14.852     16.225
REMARK INTER + INTRA:          -5.628
REMARK INTER:                  -5.044
REMARK INTRA:                  -0.584
REMARK UNBOUND:                -0.656
REMARK SMILES CCCCCCCC(=O)[O-]
REMARK SMILES IDX 5 1 6 2 7 3 8 4 9 5 10 6 4 7 3 8 2 9 1 10
REMARK H PARENT
REMARK Flexibility Score: inf
ROOT
ATOM      1  C   UNL     1      10.286   5.837  27.246  1.00  0.00     0.000 C 
ENDROOT
BRANCH   1   2
ATOM      2  C   UNL     1      10.268   7.209  27.939  1.00  0.00     0.006 C 
BRANCH   2   3
ATOM      3  C   UNL     1       8.990   7.441  28.755  1.00  0.00     0.053 C 
BRANCH   3   4
ATOM      4  C   UNL     1       9.317   8.087  30.064  1.00  0.00     0.041 C 
ATOM      5  O   UNL     1       9.332   7.403  31.122  1.00  0.00    -0.550 OA
ATOM      6  O   UNL     1       9.560   9.453  30.125  1.00  0.00    -0.550 OA
ENDBRANCH   3   4
ENDBRANCH   2   3
ENDBRANCH   1   2
BRANCH   1   7
ATOM      7  C   UNL     1       9.235   4.873  27.815  1.00  0.00     0.000 C 
BRANCH   7   8
ATOM      8  C   UNL     1       9.900   3.749  28.620  1.00  0.00    -0.000 C 
BRANCH   8   9
ATOM      9  C   UNL     1       9.972   4.108  30.109  1.00  0.00    -0.003 C 
ATOM     10  C   UNL     1      11.400   4.444  30.527  1.00  0.00     0.004 C 
ENDBRANCH   8   9
ENDBRANCH   7   8
ENDBRANCH   1   7
TORSDOF 6
ENDMDL
MODEL 7
REMARK VINA RESULT:    -3.648     14.442     15.661
REMARK INTER + INTRA:          -5.583
REMARK INTER:                  -5.061
REMARK INTRA:                  -0.522
REMARK UNBOUND:                -0.656
REMARK SMILES CCCCCCCC(=O)[O-]
REMARK SMILES IDX 5 1 6 2 7 3 8 4 9 5 10 6 4 7 3 8 2 9 1 10
REMARK H PARENT
REMARK Flexibility Score: inf
ROOT
ATOM      1  C   UNL     1       8.998   5.929  27.854  1.00  0.00     0.000 C 
ENDROOT
BRANCH   1   2
ATOM      2  C   UNL     1       9.730   4.586  28.006  1.00  0.00     0.006 C 
BRANCH   2   3
ATOM      3  C   UNL     1       9.726   4.072  29.452  1.00  0.00     0.053 C 
BRANCH   3   4
ATOM      4  C   UNL     1      10.729   4.820  30.273  1.00  0.00     0.041 C 
ATOM      5  O   UNL     1      11.947   4.502  30.228  1.00  0.00    -0.550 OA
ATOM      6  O   UNL     1      10.314   5.836  31.124  1.00  0.00    -0.550 OA
ENDBRANCH   3   4
ENDBRANCH   2   3
ENDBRANCH   1   2
BRANCH   1   7
ATOM      7  C   UNL     1       9.920   7.051  27.358  1.00  0.00     0.000 C 
BRANCH   7   8
ATOM      8  C   UNL     1      11.007   6.497  26.427  1.00  0.00    -0.000 C 
BRANCH   8   9
ATOM      9  C   UNL     1      12.399   6.962  26.869  1.00  0.00    -0.003 C 
ATOM     10  C   UNL     1      13.288   5.775  27.230  1.00  0.00     0.004 C 
ENDBRANCH   8   9
ENDBRANCH   7   8
ENDBRANCH   1   7
TORSDOF 6
ENDMDL
MODEL 8
REMARK VINA RESULT:    -3.635     13.890     15.137
REMARK INTER + INTRA:          -5.566
REMARK INTER:                  -5.076
REMARK INTRA:                  -0.490
REMARK UNBOUND:                -0.656
REMARK SMILES CCCCCCCC(=O)[O-]
REMARK SMILES IDX 5 1 6 2 7 3 8 4 9 5 10 6 4 7 3 8 2 9 1 10
REMARK H PARENT
REMARK Flexibility Score: inf
ROOT
ATOM      1  C   UNL     1      10.272   7.290  27.715  1.00  0.00     0.000 C 
ENDROOT
BRANCH   1   2
ATOM      2  C   UNL     1      11.079   6.856  26.481  1.00  0.00     0.006 C 
BRANCH   2   3
ATOM      3  C   UNL     1      12.593   7.008  26.682  1.00  0.00     0.053 C 
BRANCH   3   4
ATOM      4  C   UNL     1      13.210   5.685  27.008  1.00  0.00     0.041 C 
ATOM      5  O   UNL     1      13.548   4.898  26.084  1.00  0.00    -0.550 OA
ATOM      6  O   UNL     1      13.370   5.299  28.333  1.00  0.00    -0.550 OA
ENDBRANCH   3   4
ENDBRANCH   2   3
ENDBRANCH   1   2
BRANCH   1   7
ATOM      7  C   UNL     1       9.114   6.333  28.030  1.00  0.00     0.000 C 
BRANCH   7   8
ATOM      8  C   UNL     1       9.377   5.564  29.332  1.00  0.00    -0.000 C 
BRANCH   8   9
ATOM      9  C   UNL     1      10.052   4.217  29.048  1.00  0.00    -0.003 C 
ATOM     10  C   UNL     1       9.619   3.659  27.696  1.00  0.00     0.004 C 
ENDBRANCH   8   9
ENDBRANCH   7   8
ENDBRANCH   1   7
TORSDOF 6
ENDMDL
MODEL 9
REMARK VINA RESULT:    -3.513      2.214      3.632
REMARK INTER + INTRA:          -5.401
REMARK INTER:                  -4.849
REMARK INTRA:                  -0.552
REMARK UNBOUND:                -0.656
REMARK SMILES CCCCCCCC(=O)[O-]
REMARK SMILES IDX 5 1 6 2 7 3 8 4 9 5 10 6 4 7 3 8 2 9 1 10
REMARK H PARENT
REMARK Flexibility Score: inf
ROOT
ATOM      1  C   UNL     1       7.029   8.255  14.344  1.00  0.00     0.000 C 
ENDROOT
BRANCH   1   2
ATOM      2  C   UNL     1       8.192   7.590  13.590  1.00  0.00     0.006 C 
BRANCH   2   3
ATOM      3  C   UNL     1       8.005   7.624  12.068  1.00  0.00     0.053 C 
BRANCH   3   4
ATOM      4  C   UNL     1       6.959   6.638  11.650  1.00  0.00     0.041 C 
ATOM      5  O   UNL     1       6.018   6.996  10.893  1.00  0.00    -0.550 OA
ATOM      6  O   UNL     1       6.997   5.337  12.134  1.00  0.00    -0.550 OA
ENDBRANCH   3   4
ENDBRANCH   2   3
ENDBRANCH   1   2
BRANCH   1   7
ATOM      7  C   UNL     1       6.585   7.450  15.573  1.00  0.00     0.000 C 
BRANCH   7   8
ATOM      8  C   UNL     1       5.515   6.417  15.196  1.00  0.00    -0.000 C 
BRANCH   8   9
ATOM      9  C   UNL     1       4.427   7.047  14.319  1.00  0.00    -0.003 C 
ATOM     10  C   UNL     1       3.394   7.784  15.167  1.00  0.00     0.004 C 
ENDBRANCH   8   9
ENDBRANCH   7   8
ENDBRANCH   1   7
TORSDOF 6
ENDMDL
