MODEL 1
REMARK VINA RESULT:    -1.501      0.000      0.000
REMARK INTER + INTRA:          -4.394
REMARK INTER:                  -2.598
REMARK INTRA:                  -1.797
REMARK UNBOUND:                -1.797
REMARK SMILES CCCCCCCCCCCCCCO
REMARK SMILES IDX 8 1 7 2 6 3 5 4 4 5 3 6 2 7 1 8 9 9 10 10 11 11 12 12 13 13
REMARK SMILES IDX 14 14 15 15
REMARK H PARENT 15 16
REMARK Flexibility Score: inf
ROOT
ATOM      1  C   UNL     1     124.204 111.365 133.106  1.00  0.00     0.000 C 
ENDROOT
BRANCH   1   2
ATOM      2  C   UNL     1     124.957 110.884 131.854  1.00  0.00    -0.000 C 
BRANCH   2   3
ATOM      3  C   UNL     1     125.323 109.393 131.922  1.00  0.00    -0.000 C 
BRANCH   3   4
ATOM      4  C   UNL     1     126.824 109.159 132.146  1.00  0.00    -0.000 C 
BRANCH   4   5
ATOM      5  C   UNL     1     127.125 108.912 133.631  1.00  0.00    -0.000 C 
BRANCH   5   6
ATOM      6  C   UNL     1     125.989 108.121 134.297  1.00  0.00    -0.000 C 
BRANCH   6   7
ATOM      7  C   UNL     1     125.551 108.734 135.636  1.00  0.00    -0.003 C 
ATOM      8  C   UNL     1     125.922 107.862 136.836  1.00  0.00     0.004 C 
ENDBRANCH   6   7
ENDBRANCH   5   6
ENDBRANCH   4   5
ENDBRANCH   3   4
ENDBRANCH   2   3
ENDBRANCH   1   2
BRANCH   1   9
ATOM      9  C   UNL     1     124.827 112.630 133.716  1.00  0.00     0.000 C 
BRANCH   9  10
ATOM     10  C   UNL     1     126.353 112.688 133.525  1.00  0.00     0.000 C 
BRANCH  10  11
ATOM     11  C   UNL     1     127.125 112.286 134.794  1.00  0.00     0.000 C 
BRANCH  11  12
ATOM     12  C   UNL     1     126.337 112.448 136.108  1.00  0.00     0.002 C 
BRANCH  12  13
ATOM     13  C   UNL     1     126.972 111.716 137.309  1.00  0.00     0.028 C 
BRANCH  13  14
ATOM     14  C   UNL     1     127.023 112.591 138.569  1.00  0.00     0.156 C 
BRANCH  14  15
ATOM     15  O   UNL     1     126.601 113.893 138.270  1.00  0.00    -0.396 OA
ATOM     16  H   UNL     1     127.193 114.506 138.778  1.00  0.00     0.210 HD
ENDBRANCH  14  15
ENDBRANCH  13  14
ENDBRANCH  12  13
ENDBRANCH  11  12
ENDBRANCH  10  11
ENDBRANCH   9  10
ENDBRANCH   1   9
TORSDOF 13
ENDMDL
MODEL 2
REMARK VINA RESULT:    -1.439      2.708      4.941
REMARK INTER + INTRA:          -4.288
REMARK INTER:                  -2.596
REMARK INTRA:                  -1.692
REMARK UNBOUND:                -1.797
REMARK SMILES CCCCCCCCCCCCCCO
REMARK SMILES IDX 8 1 7 2 6 3 5 4 4 5 3 6 2 7 1 8 9 9 10 10 11 11 12 12 13 13
REMARK SMILES IDX 14 14 15 15
REMARK H PARENT 15 16
REMARK Flexibility Score: inf
ROOT
ATOM      1  C   UNL     1     125.613 112.070 135.999  1.00  0.00     0.000 C 
ENDROOT
BRANCH   1   2
ATOM      2  C   UNL     1     126.845 111.699 136.843  1.00  0.00    -0.000 C 
BRANCH   2   3
ATOM      3  C   UNL     1     126.473 110.946 138.131  1.00  0.00    -0.000 C 
BRANCH   3   4
ATOM      4  C   UNL     1     124.997 111.121 138.516  1.00  0.00    -0.000 C 
BRANCH   4   5
ATOM      5  C   UNL     1     124.361 109.773 138.883  1.00  0.00    -0.000 C 
BRANCH   5   6
ATOM      6  C   UNL     1     122.861 109.765 138.553  1.00  0.00    -0.000 C 
BRANCH   6   7
ATOM      7  C   UNL     1     122.560 109.120 137.191  1.00  0.00    -0.003 C 
ATOM      8  C   UNL     1     122.427 110.147 136.067  1.00  0.00     0.004 C 
ENDBRANCH   6   7
ENDBRANCH   5   6
ENDBRANCH   4   5
ENDBRANCH   3   4
ENDBRANCH   2   3
ENDBRANCH   1   2
BRANCH   1   9
ATOM      9  C   UNL     1     125.622 111.393 134.619  1.00  0.00     0.000 C 
BRANCH   9  10
ATOM     10  C   UNL     1     126.838 110.471 134.422  1.00  0.00     0.000 C 
BRANCH  10  11
ATOM     11  C   UNL     1     126.483 109.174 133.676  1.00  0.00     0.000 C 
BRANCH  11  12
ATOM     12  C   UNL     1     126.505 107.902 134.545  1.00  0.00     0.002 C 
BRANCH  12  13
ATOM     13  C   UNL     1     125.829 108.077 135.922  1.00  0.00     0.028 C 
BRANCH  13  14
ATOM     14  C   UNL     1     126.063 106.876 136.848  1.00  0.00     0.156 C 
BRANCH  14  15
ATOM     15  O   UNL     1     126.692 107.291 138.028  1.00  0.00    -0.396 OA
ATOM     16  H   UNL     1     127.110 108.170 137.832  1.00  0.00     0.210 HD
ENDBRANCH  14  15
ENDBRANCH  13  14
ENDBRANCH  12  13
ENDBRANCH  11  12
ENDBRANCH  10  11
ENDBRANCH   9  10
ENDBRANCH   1   9
TORSDOF 13
ENDMDL
MODEL 3
REMARK VINA RESULT:    -1.435      1.541      4.047
REMARK INTER + INTRA:          -4.280
REMARK INTER:                  -2.606
REMARK INTRA:                  -1.674
REMARK UNBOUND:                -1.797
REMARK SMILES CCCCCCCCCCCCCCO
REMARK SMILES IDX 8 1 7 2 6 3 5 4 4 5 3 6 2 7 1 8 9 9 10 10 11 11 12 12 13 13
REMARK SMILES IDX 14 14 15 15
REMARK H PARENT 15 16
REMARK Flexibility Score: inf
ROOT
ATOM      1  C   UNL     1     123.904 107.686 136.107  1.00  0.00     0.000 C 
ENDROOT
BRANCH   1   2
ATOM      2  C   UNL     1     124.330 108.458 134.846  1.00  0.00    -0.000 C 
BRANCH   2   3
ATOM      3  C   UNL     1     125.516 107.799 134.123  1.00  0.00    -0.000 C 
BRANCH   3   4
ATOM      4  C   UNL     1     126.725 108.736 133.989  1.00  0.00    -0.000 C 
BRANCH   4   5
ATOM      5  C   UNL     1     126.505 110.033 134.780  1.00  0.00    -0.000 C 
BRANCH   5   6
ATOM      6  C   UNL     1     127.124 111.234 134.050  1.00  0.00    -0.000 C 
BRANCH   6   7
ATOM      7  C   UNL     1     126.214 112.472 134.072  1.00  0.00    -0.003 C 
ATOM      8  C   UNL     1     124.729 112.113 134.110  1.00  0.00     0.004 C 
ENDBRANCH   6   7
ENDBRANCH   5   6
ENDBRANCH   4   5
ENDBRANCH   3   4
ENDBRANCH   2   3
ENDBRANCH   1   2
BRANCH   1   9
ATOM      9  C   UNL     1     125.103 107.266 136.971  1.00  0.00     0.000 C 
BRANCH   9  10
ATOM     10  C   UNL     1     125.125 107.975 138.336  1.00  0.00     0.000 C 
BRANCH  10  11
ATOM     11  C   UNL     1     126.526 108.484 138.717  1.00  0.00     0.000 C 
BRANCH  11  12
ATOM     12  C   UNL     1     126.665 110.018 138.762  1.00  0.00     0.002 C 
BRANCH  12  13
ATOM     13  C   UNL     1     125.443 110.771 138.193  1.00  0.00     0.028 C 
BRANCH  13  14
ATOM     14  C   UNL     1     125.766 112.229 137.839  1.00  0.00     0.156 C 
BRANCH  14  15
ATOM     15  O   UNL     1     127.125 112.360 137.524  1.00  0.00    -0.396 OA
ATOM     16  H   UNL     1     127.202 112.230 136.544  1.00  0.00     0.210 HD
ENDBRANCH  14  15
ENDBRANCH  13  14
ENDBRANCH  12  13
ENDBRANCH  11  12
ENDBRANCH  10  11
ENDBRANCH   9  10
ENDBRANCH   1   9
TORSDOF 13
ENDMDL
MODEL 4
REMARK VINA RESULT:    -1.402      2.289      3.815
REMARK INTER + INTRA:          -4.222
REMARK INTER:                  -2.449
REMARK INTRA:                  -1.773
REMARK UNBOUND:                -1.797
REMARK SMILES CCCCCCCCCCCCCCO
REMARK SMILES IDX 8 1 7 2 6 3 5 4 4 5 3 6 2 7 1 8 9 9 10 10 11 11 12 12 13 13
REMARK SMILES IDX 14 14 15 15
REMARK H PARENT 15 16
REMARK Flexibility Score: inf
ROOT
ATOM      1  C   UNL     1     126.665 109.883 133.874  1.00  0.00     0.000 C 
ENDROOT
BRANCH   1   2
ATOM      2  C   UNL     1     126.388 109.403 135.310  1.00  0.00    -0.000 C 
BRANCH   2   3
ATOM      3  C   UNL     1     125.279 108.340 135.373  1.00  0.00    -0.000 C 
BRANCH   3   4
ATOM      4  C   UNL     1     125.512 107.304 136.482  1.00  0.00    -0.000 C 
BRANCH   4   5
ATOM      5  C   UNL     1     126.178 107.949 137.705  1.00  0.00    -0.000 C 
BRANCH   5   6
ATOM      6  C   UNL     1     125.139 108.656 138.588  1.00  0.00    -0.000 C 
BRANCH   6   7
ATOM      7  C   UNL     1     125.634 110.014 139.109  1.00  0.00    -0.003 C 
ATOM      8  C   UNL     1     127.118 110.249 138.831  1.00  0.00     0.004 C 
ENDBRANCH   6   7
ENDBRANCH   5   6
ENDBRANCH   4   5
ENDBRANCH   3   4
ENDBRANCH   2   3
ENDBRANCH   1   2
BRANCH   1   9
ATOM      9  C   UNL     1     127.059 111.367 133.818  1.00  0.00     0.000 C 
BRANCH   9  10
ATOM     10  C   UNL     1     127.123 112.015 135.212  1.00  0.00     0.000 C 
BRANCH  10  11
ATOM     11  C   UNL     1     126.002 113.043 135.439  1.00  0.00     0.000 C 
BRANCH  11  12
ATOM     12  C   UNL     1     124.974 112.651 136.518  1.00  0.00     0.002 C 
BRANCH  12  13
ATOM     13  C   UNL     1     123.754 111.883 135.966  1.00  0.00     0.028 C 
BRANCH  13  14
ATOM     14  C   UNL     1     123.356 112.349 134.559  1.00  0.00     0.156 C 
BRANCH  14  15
ATOM     15  O   UNL     1     123.610 111.336 133.625  1.00  0.00    -0.396 OA
ATOM     16  H   UNL     1     123.324 111.686 132.742  1.00  0.00     0.210 HD
ENDBRANCH  14  15
ENDBRANCH  13  14
ENDBRANCH  12  13
ENDBRANCH  11  12
ENDBRANCH  10  11
ENDBRANCH   9  10
ENDBRANCH   1   9
TORSDOF 13
ENDMDL
MODEL 5
REMARK VINA RESULT:    -1.392      2.529      3.716
REMARK INTER + INTRA:          -4.205
REMARK INTER:                  -2.352
REMARK INTRA:                  -1.853
REMARK UNBOUND:                -1.797
REMARK SMILES CCCCCCCCCCCCCCO
REMARK SMILES IDX 8 1 7 2 6 3 5 4 4 5 3 6 2 7 1 8 9 9 10 10 11 11 12 12 13 13
REMARK SMILES IDX 14 14 15 15
REMARK H PARENT 15 16
REMARK Flexibility Score: inf
ROOT
ATOM      1  C   UNL     1     123.559 111.848 136.545  1.00  0.00     0.000 C 
ENDROOT
BRANCH   1   2
ATOM      2  C   UNL     1     122.668 111.358 135.390  1.00  0.00    -0.000 C 
BRANCH   2   3
ATOM      3  C   UNL     1     122.501 109.830 135.381  1.00  0.00    -0.000 C 
BRANCH   3   4
ATOM      4  C   UNL     1     123.604 109.108 136.169  1.00  0.00    -0.000 C 
BRANCH   4   5
ATOM      5  C   UNL     1     124.505 108.292 135.231  1.00  0.00    -0.000 C 
BRANCH   5   6
ATOM      6  C   UNL     1     125.984 108.648 135.443  1.00  0.00    -0.000 C 
BRANCH   6   7
ATOM      7  C   UNL     1     126.711 108.955 134.124  1.00  0.00    -0.003 C 
ATOM      8  C   UNL     1     126.458 110.378 133.627  1.00  0.00     0.004 C 
ENDBRANCH   6   7
ENDBRANCH   5   6
ENDBRANCH   4   5
ENDBRANCH   3   4
ENDBRANCH   2   3
ENDBRANCH   1   2
BRANCH   1   9
ATOM      9  C   UNL     1     124.753 112.680 136.052  1.00  0.00     0.000 C 
BRANCH   9  10
ATOM     10  C   UNL     1     125.841 112.848 137.127  1.00  0.00     0.000 C 
BRANCH  10  11
ATOM     11  C   UNL     1     126.807 111.653 137.186  1.00  0.00     0.000 C 
BRANCH  11  12
ATOM     12  C   UNL     1     127.044 111.082 138.597  1.00  0.00     0.002 C 
BRANCH  12  13
ATOM     13  C   UNL     1     126.080 109.938 138.976  1.00  0.00     0.028 C 
BRANCH  13  14
ATOM     14  C   UNL     1     126.799 108.590 139.125  1.00  0.00     0.156 C 
BRANCH  14  15
ATOM     15  O   UNL     1     125.889 107.538 138.959  1.00  0.00    -0.396 OA
ATOM     16  H   UNL     1     125.451 107.678 138.079  1.00  0.00     0.210 HD
ENDBRANCH  14  15
ENDBRANCH  13  14
ENDBRANCH  12  13
ENDBRANCH  11  12
ENDBRANCH  10  11
ENDBRANCH   9  10
ENDBRANCH   1   9
TORSDOF 13
ENDMDL
MODEL 6
REMARK VINA RESULT:    -1.370      2.584      4.072
REMARK INTER + INTRA:          -4.168
REMARK INTER:                  -2.392
REMARK INTRA:                  -1.776
REMARK UNBOUND:                -1.797
REMARK SMILES CCCCCCCCCCCCCCO
REMARK SMILES IDX 8 1 7 2 6 3 5 4 4 5 3 6 2 7 1 8 9 9 10 10 11 11 12 12 13 13
REMARK SMILES IDX 14 14 15 15
REMARK H PARENT 15 16
REMARK Flexibility Score: inf
ROOT
ATOM      1  C   UNL     1     123.192 111.254 136.251  1.00  0.00     0.000 C 
ENDROOT
BRANCH   1   2
ATOM      2  C   UNL     1     124.047 110.775 135.065  1.00  0.00    -0.000 C 
BRANCH   2   3
ATOM      3  C   UNL     1     125.247 111.697 134.792  1.00  0.00    -0.000 C 
BRANCH   3   4
ATOM      4  C   UNL     1     126.577 110.933 134.715  1.00  0.00    -0.000 C 
BRANCH   4   5
ATOM      5  C   UNL     1     126.339 109.418 134.673  1.00  0.00    -0.000 C 
BRANCH   5   6
ATOM      6  C   UNL     1     127.125 108.770 133.523  1.00  0.00    -0.000 C 
BRANCH   6   7
ATOM      7  C   UNL     1     126.240 108.457 132.306  1.00  0.00    -0.003 C 
ATOM      8  C   UNL     1     126.226 109.588 131.279  1.00  0.00     0.004 C 
ENDBRANCH   6   7
ENDBRANCH   5   6
ENDBRANCH   4   5
ENDBRANCH   3   4
ENDBRANCH   2   3
ENDBRANCH   1   2
BRANCH   1   9
ATOM      9  C   UNL     1     123.943 112.246 137.152  1.00  0.00     0.000 C 
BRANCH   9  10
ATOM     10  C   UNL     1     124.516 111.580 138.416  1.00  0.00     0.000 C 
BRANCH  10  11
ATOM     11  C   UNL     1     126.054 111.561 138.430  1.00  0.00     0.000 C 
BRANCH  11  12
ATOM     12  C   UNL     1     126.682 110.155 138.470  1.00  0.00     0.002 C 
BRANCH  12  13
ATOM     13  C   UNL     1     125.664 109.012 138.265  1.00  0.00     0.028 C 
BRANCH  13  14
ATOM     14  C   UNL     1     126.341 107.641 138.131  1.00  0.00     0.156 C 
BRANCH  14  15
ATOM     15  O   UNL     1     125.702 106.882 137.142  1.00  0.00    -0.396 OA
ATOM     16  H   UNL     1     125.490 106.004 137.551  1.00  0.00     0.210 HD
ENDBRANCH  14  15
ENDBRANCH  13  14
ENDBRANCH  12  13
ENDBRANCH  11  12
ENDBRANCH  10  11
ENDBRANCH   9  10
ENDBRANCH   1   9
TORSDOF 13
ENDMDL
MODEL 7
REMARK VINA RESULT:    -1.366      2.348      3.590
REMARK INTER + INTRA:          -4.161
REMARK INTER:                  -2.162
REMARK INTRA:                  -1.998
REMARK UNBOUND:                -1.797
REMARK SMILES CCCCCCCCCCCCCCO
REMARK SMILES IDX 8 1 7 2 6 3 5 4 4 5 3 6 2 7 1 8 9 9 10 10 11 11 12 12 13 13
REMARK SMILES IDX 14 14 15 15
REMARK H PARENT 15 16
REMARK Flexibility Score: inf
ROOT
ATOM      1  C   UNL     1     126.712 111.098 134.814  1.00  0.00     0.000 C 
ENDROOT
BRANCH   1   2
ATOM      2  C   UNL     1     126.668 109.682 134.214  1.00  0.00    -0.000 C 
BRANCH   2   3
ATOM      3  C   UNL     1     125.233 109.168 134.019  1.00  0.00    -0.000 C 
BRANCH   3   4
ATOM      4  C   UNL     1     124.850 108.077 135.030  1.00  0.00    -0.000 C 
BRANCH   4   5
ATOM      5  C   UNL     1     126.066 107.214 135.393  1.00  0.00    -0.000 C 
BRANCH   5   6
ATOM      6  C   UNL     1     126.229 107.106 136.917  1.00  0.00    -0.000 C 
BRANCH   6   7
ATOM      7  C   UNL     1     125.154 107.894 137.682  1.00  0.00    -0.003 C 
ATOM      8  C   UNL     1     125.700 108.574 138.937  1.00  0.00     0.004 C 
ENDBRANCH   6   7
ENDBRANCH   5   6
ENDBRANCH   4   5
ENDBRANCH   3   4
ENDBRANCH   2   3
ENDBRANCH   1   2
BRANCH   1   9
ATOM      9  C   UNL     1     126.474 111.100 136.332  1.00  0.00     0.000 C 
BRANCH   9  10
ATOM     10  C   UNL     1     126.061 112.483 136.865  1.00  0.00     0.000 C 
BRANCH  10  11
ATOM     11  C   UNL     1     124.540 112.622 137.040  1.00  0.00     0.000 C 
BRANCH  11  12
ATOM     12  C   UNL     1     123.779 111.287 137.156  1.00  0.00     0.002 C 
BRANCH  12  13
ATOM     13  C   UNL     1     122.765 111.046 136.017  1.00  0.00     0.028 C 
BRANCH  13  14
ATOM     14  C   UNL     1     122.875 112.096 134.903  1.00  0.00     0.156 C 
BRANCH  14  15
ATOM     15  O   UNL     1     121.718 112.884 134.866  1.00  0.00    -0.396 OA
ATOM     16  H   UNL     1     121.561 113.200 135.793  1.00  0.00     0.210 HD
ENDBRANCH  14  15
ENDBRANCH  13  14
ENDBRANCH  12  13
ENDBRANCH  11  12
ENDBRANCH  10  11
ENDBRANCH   9  10
ENDBRANCH   1   9
TORSDOF 13
ENDMDL
MODEL 8
REMARK VINA RESULT:    -1.312      2.601      5.803
REMARK INTER + INTRA:          -4.067
REMARK INTER:                  -2.583
REMARK INTRA:                  -1.484
REMARK UNBOUND:                -1.797
REMARK SMILES CCCCCCCCCCCCCCO
REMARK SMILES IDX 8 1 7 2 6 3 5 4 4 5 3 6 2 7 1 8 9 9 10 10 11 11 12 12 13 13
REMARK SMILES IDX 14 14 15 15
REMARK H PARENT 15 16
REMARK Flexibility Score: inf
ROOT
ATOM      1  C   UNL     1     124.438 108.963 137.196  1.00  0.00     0.000 C 
ENDROOT
BRANCH   1   2
ATOM      2  C   UNL     1     124.893 109.658 138.492  1.00  0.00    -0.000 C 
BRANCH   2   3
ATOM      3  C   UNL     1     126.026 110.669 138.253  1.00  0.00    -0.000 C 
BRANCH   3   4
ATOM      4  C   UNL     1     125.796 111.535 137.005  1.00  0.00    -0.000 C 
BRANCH   4   5
ATOM      5  C   UNL     1     127.124 111.852 136.304  1.00  0.00    -0.000 C 
BRANCH   5   6
ATOM      6  C   UNL     1     126.898 112.179 134.821  1.00  0.00    -0.000 C 
BRANCH   6   7
ATOM      7  C   UNL     1     125.425 112.470 134.498  1.00  0.00    -0.003 C 
ATOM      8  C   UNL     1     125.107 112.333 133.009  1.00  0.00     0.004 C 
ENDBRANCH   6   7
ENDBRANCH   5   6
ENDBRANCH   4   5
ENDBRANCH   3   4
ENDBRANCH   2   3
ENDBRANCH   1   2
BRANCH   1   9
ATOM      9  C   UNL     1     125.314 107.751 136.843  1.00  0.00     0.000 C 
BRANCH   9  10
ATOM     10  C   UNL     1     125.463 107.553 135.324  1.00  0.00     0.000 C 
BRANCH  10  11
ATOM     11  C   UNL     1     126.325 108.643 134.665  1.00  0.00     0.000 C 
BRANCH  11  12
ATOM     12  C   UNL     1     127.118 108.180 133.428  1.00  0.00     0.002 C 
BRANCH  12  13
ATOM     13  C   UNL     1     127.125 109.204 132.274  1.00  0.00     0.028 C 
BRANCH  13  14
ATOM     14  C   UNL     1     125.864 109.116 131.403  1.00  0.00     0.156 C 
BRANCH  14  15
ATOM     15  O   UNL     1     126.001 109.931 130.272  1.00  0.00    -0.396 OA
ATOM     16  H   UNL     1     126.964 109.926 130.034  1.00  0.00     0.210 HD
ENDBRANCH  14  15
ENDBRANCH  13  14
ENDBRANCH  12  13
ENDBRANCH  11  12
ENDBRANCH  10  11
ENDBRANCH   9  10
ENDBRANCH   1   9
TORSDOF 13
ENDMDL
MODEL 9
REMARK VINA RESULT:    -1.302      2.437      3.465
REMARK INTER + INTRA:          -4.049
REMARK INTER:                  -1.854
REMARK INTRA:                  -2.195
REMARK UNBOUND:                -1.797
REMARK SMILES CCCCCCCCCCCCCCO
REMARK SMILES IDX 8 1 7 2 6 3 5 4 4 5 3 6 2 7 1 8 9 9 10 10 11 11 12 12 13 13
REMARK SMILES IDX 14 14 15 15
REMARK H PARENT 15 16
REMARK Flexibility Score: inf
ROOT
ATOM      1  C   UNL     1     123.056 109.396 132.374  1.00  0.00     0.000 C 
ENDROOT
BRANCH   1   2
ATOM      2  C   UNL     1     123.037 108.056 133.131  1.00  0.00    -0.000 C 
BRANCH   2   3
ATOM      3  C   UNL     1     123.872 106.971 132.432  1.00  0.00    -0.000 C 
BRANCH   3   4
ATOM      4  C   UNL     1     125.349 106.997 132.851  1.00  0.00    -0.000 C 
BRANCH   4   5
ATOM      5  C   UNL     1     125.487 107.234 134.361  1.00  0.00    -0.000 C 
BRANCH   5   6
ATOM      6  C   UNL     1     126.485 108.366 134.651  1.00  0.00    -0.000 C 
BRANCH   6   7
ATOM      7  C   UNL     1     127.064 108.984 133.369  1.00  0.00    -0.003 C 
ATOM      8  C   UNL     1     127.125 110.510 133.423  1.00  0.00     0.004 C 
ENDBRANCH   6   7
ENDBRANCH   5   6
ENDBRANCH   4   5
ENDBRANCH   3   4
ENDBRANCH   2   3
ENDBRANCH   1   2
BRANCH   1   9
ATOM      9  C   UNL     1     123.465 110.572 133.274  1.00  0.00     0.000 C 
BRANCH   9  10
ATOM     10  C   UNL     1     123.223 110.286 134.767  1.00  0.00     0.000 C 
BRANCH  10  11
ATOM     11  C   UNL     1     124.200 111.045 135.682  1.00  0.00     0.000 C 
BRANCH  11  12
ATOM     12  C   UNL     1     124.338 110.464 137.102  1.00  0.00     0.002 C 
BRANCH  12  13
ATOM     13  C   UNL     1     123.836 109.010 137.232  1.00  0.00     0.028 C 
BRANCH  13  14
ATOM     14  C   UNL     1     124.832 108.110 137.976  1.00  0.00     0.156 C 
BRANCH  14  15
ATOM     15  O   UNL     1     125.950 108.855 138.375  1.00  0.00    -0.396 OA
ATOM     16  H   UNL     1     126.035 109.605 137.731  1.00  0.00     0.210 HD
ENDBRANCH  14  15
ENDBRANCH  13  14
ENDBRANCH  12  13
ENDBRANCH  11  12
ENDBRANCH  10  11
ENDBRANCH   9  10
ENDBRANCH   1   9
TORSDOF 13
ENDMDL
