MODEL 1
REMARK VINA RESULT:    -4.571      0.000      0.000
REMARK INTER + INTRA:          -7.845
REMARK INTER:                  -6.976
REMARK INTRA:                  -0.869
REMARK UNBOUND:                -0.869
REMARK SMILES O=C([O-])CCCCCCCCC(=O)[O-]
REMARK SMILES IDX 7 1 6 2 5 3 4 4 2 5 1 6 3 7 8 8 9 9 10 10 11 11 12 12 13 13
REMARK SMILES IDX 14 14
REMARK H PARENT
REMARK Flexibility Score: inf
ROOT
ATOM      1  C   UNL     1      16.648  -0.339  -6.568  1.00  0.00     0.000 C 
ENDROOT
BRANCH   1   2
ATOM      2  C   UNL     1      15.936   0.482  -5.482  1.00  0.00     0.000 C 
BRANCH   2   3
ATOM      3  C   UNL     1      15.511  -0.373  -4.277  1.00  0.00     0.006 C 
BRANCH   3   4
ATOM      4  C   UNL     1      16.607  -1.348  -3.829  1.00  0.00     0.053 C 
BRANCH   4   5
ATOM      5  C   UNL     1      16.975  -1.097  -2.401  1.00  0.00     0.041 C 
ATOM      6  O   UNL     1      16.081  -0.856  -1.548  1.00  0.00    -0.550 OA
ATOM      7  O   UNL     1      18.303  -1.178  -2.001  1.00  0.00    -0.550 OA
ENDBRANCH   4   5
ENDBRANCH   3   4
ENDBRANCH   2   3
ENDBRANCH   1   2
BRANCH   1   8
ATOM      8  C   UNL     1      17.759   0.480  -7.235  1.00  0.00     0.000 C 
BRANCH   8   9
ATOM      9  C   UNL     1      18.852   0.850  -6.226  1.00  0.00     0.000 C 
BRANCH   9  10
ATOM     10  C   UNL     1      20.061  -0.090  -6.354  1.00  0.00     0.006 C 
BRANCH  10  11
ATOM     11  C   UNL     1      20.279  -0.929  -5.090  1.00  0.00     0.053 C 
BRANCH  11  12
ATOM     12  C   UNL     1      19.657  -2.287  -5.210  1.00  0.00     0.041 C 
ATOM     13  O   UNL     1      19.208  -2.683  -6.318  1.00  0.00    -0.550 OA
ATOM     14  O   UNL     1      19.601  -3.125  -4.104  1.00  0.00    -0.550 OA
ENDBRANCH  11  12
ENDBRANCH  10  11
ENDBRANCH   9  10
ENDBRANCH   8   9
ENDBRANCH   1   8
TORSDOF 9
ENDMDL
MODEL 2
REMARK VINA RESULT:    -4.538      0.315      4.011
REMARK INTER + INTRA:          -7.795
REMARK INTER:                  -7.005
REMARK INTRA:                  -0.790
REMARK UNBOUND:                -0.869
REMARK SMILES O=C([O-])CCCCCCCCC(=O)[O-]
REMARK SMILES IDX 7 1 6 2 5 3 4 4 2 5 1 6 3 7 8 8 9 9 10 10 11 11 12 12 13 13
REMARK SMILES IDX 14 14
REMARK H PARENT
REMARK Flexibility Score: inf
ROOT
ATOM      1  C   UNL     1      18.100   0.800  -7.068  1.00  0.00     0.000 C 
ENDROOT
BRANCH   1   2
ATOM      2  C   UNL     1      19.143   0.828  -5.940  1.00  0.00     0.000 C 
BRANCH   2   3
ATOM      3  C   UNL     1      20.268  -0.197  -6.149  1.00  0.00     0.006 C 
BRANCH   3   4
ATOM      4  C   UNL     1      20.415  -1.163  -4.966  1.00  0.00     0.053 C 
BRANCH   4   5
ATOM      5  C   UNL     1      19.619  -2.406  -5.206  1.00  0.00     0.041 C 
ATOM      6  O   UNL     1      19.212  -2.684  -6.364  1.00  0.00    -0.550 OA
ATOM      7  O   UNL     1      19.367  -3.284  -4.159  1.00  0.00    -0.550 OA
ENDBRANCH   4   5
ENDBRANCH   3   4
ENDBRANCH   2   3
ENDBRANCH   1   2
BRANCH   1   8
ATOM      8  C   UNL     1      16.864  -0.008  -6.652  1.00  0.00     0.000 C 
BRANCH   8   9
ATOM      9  C   UNL     1      15.995   0.783  -5.667  1.00  0.00     0.000 C 
BRANCH   9  10
ATOM     10  C   UNL     1      15.587  -0.089  -4.469  1.00  0.00     0.006 C 
BRANCH  10  11
ATOM     11  C   UNL     1      16.682  -1.090  -4.081  1.00  0.00     0.053 C 
BRANCH  11  12
ATOM     12  C   UNL     1      16.982  -1.043  -2.614  1.00  0.00     0.041 C 
ATOM     13  O   UNL     1      16.047  -0.936  -1.778  1.00  0.00    -0.550 OA
ATOM     14  O   UNL     1      18.294  -1.150  -2.170  1.00  0.00    -0.550 OA
ENDBRANCH  11  12
ENDBRANCH  10  11
ENDBRANCH   9  10
ENDBRANCH   8   9
ENDBRANCH   1   8
TORSDOF 9
ENDMDL
MODEL 3
REMARK VINA RESULT:    -4.324      9.890     11.763
REMARK INTER + INTRA:          -7.467
REMARK INTER:                  -6.766
REMARK INTRA:                  -0.701
REMARK UNBOUND:                -0.869
REMARK SMILES O=C([O-])CCCCCCCCC(=O)[O-]
REMARK SMILES IDX 7 1 6 2 5 3 4 4 2 5 1 6 3 7 8 8 9 9 10 10 11 11 12 12 13 13
REMARK SMILES IDX 14 14
REMARK H PARENT
REMARK Flexibility Score: inf
ROOT
ATOM      1  C   UNL     1      26.311  -5.513  -3.918  1.00  0.00     0.000 C 
ENDROOT
BRANCH   1   2
ATOM      2  C   UNL     1      27.339  -6.654  -3.873  1.00  0.00     0.000 C 
BRANCH   2   3
ATOM      3  C   UNL     1      28.407  -6.533  -4.972  1.00  0.00     0.006 C 
BRANCH   3   4
ATOM      4  C   UNL     1      28.570  -7.825  -5.783  1.00  0.00     0.053 C 
BRANCH   4   5
ATOM      5  C   UNL     1      27.918  -7.686  -7.122  1.00  0.00     0.041 C 
ATOM      6  O   UNL     1      28.491  -8.121  -8.155  1.00  0.00    -0.550 OA
ATOM      7  O   UNL     1      26.653  -7.120  -7.224  1.00  0.00    -0.550 OA
ENDBRANCH   4   5
ENDBRANCH   3   4
ENDBRANCH   2   3
ENDBRANCH   1   2
BRANCH   1   8
ATOM      8  C   UNL     1      26.630  -4.533  -5.053  1.00  0.00     0.000 C 
BRANCH   8   9
ATOM      9  C   UNL     1      26.622  -3.084  -4.550  1.00  0.00     0.000 C 
BRANCH   9  10
ATOM     10  C   UNL     1      28.036  -2.485  -4.576  1.00  0.00     0.006 C 
BRANCH  10  11
ATOM     11  C   UNL     1      28.855  -2.981  -5.774  1.00  0.00     0.053 C 
BRANCH  11  12
ATOM     12  C   UNL     1      29.394  -1.845  -6.588  1.00  0.00     0.041 C 
ATOM     13  O   UNL     1      29.874  -0.829  -6.019  1.00  0.00    -0.550 OA
ATOM     14  O   UNL     1      29.394  -1.922  -7.975  1.00  0.00    -0.550 OA
ENDBRANCH  11  12
ENDBRANCH  10  11
ENDBRANCH   9  10
ENDBRANCH   8   9
ENDBRANCH   1   8
TORSDOF 9
ENDMDL
MODEL 4
REMARK VINA RESULT:    -4.300      2.133      5.208
REMARK INTER + INTRA:          -7.430
REMARK INTER:                  -6.632
REMARK INTRA:                  -0.798
REMARK UNBOUND:                -0.869
REMARK SMILES O=C([O-])CCCCCCCCC(=O)[O-]
REMARK SMILES IDX 7 1 6 2 5 3 4 4 2 5 1 6 3 7 8 8 9 9 10 10 11 11 12 12 13 13
REMARK SMILES IDX 14 14
REMARK H PARENT
REMARK Flexibility Score: inf
ROOT
ATOM      1  C   UNL     1      20.566  -1.428  -4.929  1.00  0.00     0.000 C 
ENDROOT
BRANCH   1   2
ATOM      2  C   UNL     1      20.771  -0.004  -4.392  1.00  0.00     0.000 C 
BRANCH   2   3
ATOM      3  C   UNL     1      20.637   1.067  -5.486  1.00  0.00     0.006 C 
BRANCH   3   4
ATOM      4  C   UNL     1      21.600   0.838  -6.658  1.00  0.00     0.053 C 
BRANCH   4   5
ATOM      5  C   UNL     1      20.836   0.565  -7.915  1.00  0.00     0.041 C 
ATOM      6  O   UNL     1      19.643   0.952  -8.028  1.00  0.00    -0.550 OA
ATOM      7  O   UNL     1      21.457  -0.073  -8.981  1.00  0.00    -0.550 OA
ENDBRANCH   4   5
ENDBRANCH   3   4
ENDBRANCH   2   3
ENDBRANCH   1   2
BRANCH   1   8
ATOM      8  C   UNL     1      19.096  -1.848  -4.824  1.00  0.00     0.000 C 
BRANCH   8   9
ATOM      9  C   UNL     1      18.400  -1.769  -6.188  1.00  0.00     0.000 C 
BRANCH   9  10
ATOM     10  C   UNL     1      17.163  -0.860  -6.123  1.00  0.00     0.006 C 
BRANCH  10  11
ATOM     11  C   UNL     1      17.084  -0.080  -4.805  1.00  0.00     0.053 C 
BRANCH  11  12
ATOM     12  C   UNL     1      16.014  -0.617  -3.905  1.00  0.00     0.041 C 
ATOM     13  O   UNL     1      14.825  -0.699  -4.312  1.00  0.00    -0.550 OA
ATOM     14  O   UNL     1      16.336  -1.056  -2.627  1.00  0.00    -0.550 OA
ENDBRANCH  11  12
ENDBRANCH  10  11
ENDBRANCH   9  10
ENDBRANCH   8   9
ENDBRANCH   1   8
TORSDOF 9
ENDMDL
MODEL 5
REMARK VINA RESULT:    -4.298     10.080     11.472
REMARK INTER + INTRA:          -7.428
REMARK INTER:                  -6.654
REMARK INTRA:                  -0.774
REMARK UNBOUND:                -0.869
REMARK SMILES O=C([O-])CCCCCCCCC(=O)[O-]
REMARK SMILES IDX 7 1 6 2 5 3 4 4 2 5 1 6 3 7 8 8 9 9 10 10 11 11 12 12 13 13
REMARK SMILES IDX 14 14
REMARK H PARENT
REMARK Flexibility Score: inf
ROOT
ATOM      1  C   UNL     1      26.424  -4.827  -4.694  1.00  0.00     0.000 C 
ENDROOT
BRANCH   1   2
ATOM      2  C   UNL     1      26.792  -3.704  -3.713  1.00  0.00     0.000 C 
BRANCH   2   3
ATOM      3  C   UNL     1      27.693  -2.633  -4.350  1.00  0.00     0.006 C 
BRANCH   3   4
ATOM      4  C   UNL     1      28.179  -3.027  -5.751  1.00  0.00     0.053 C 
BRANCH   4   5
ATOM      5  C   UNL     1      28.650  -1.820  -6.497  1.00  0.00     0.041 C 
ATOM      6  O   UNL     1      28.284  -0.670  -6.138  1.00  0.00    -0.550 OA
ATOM      7  O   UNL     1      29.535  -1.960  -7.559  1.00  0.00    -0.550 OA
ENDBRANCH   4   5
ENDBRANCH   3   4
ENDBRANCH   2   3
ENDBRANCH   1   2
BRANCH   1   8
ATOM      8  C   UNL     1      26.371  -6.183  -3.980  1.00  0.00     0.000 C 
BRANCH   8   9
ATOM      9  C   UNL     1      27.780  -6.749  -3.765  1.00  0.00     0.000 C 
BRANCH   9  10
ATOM     10  C   UNL     1      28.608  -6.669  -5.057  1.00  0.00     0.006 C 
BRANCH  10  11
ATOM     11  C   UNL     1      28.500  -7.948  -5.896  1.00  0.00     0.053 C 
BRANCH  11  12
ATOM     12  C   UNL     1      27.884  -7.683  -7.235  1.00  0.00     0.041 C 
ATOM     13  O   UNL     1      26.791  -7.062  -7.320  1.00  0.00    -0.550 OA
ATOM     14  O   UNL     1      28.533  -8.096  -8.392  1.00  0.00    -0.550 OA
ENDBRANCH  11  12
ENDBRANCH  10  11
ENDBRANCH   9  10
ENDBRANCH   8   9
ENDBRANCH   1   8
TORSDOF 9
ENDMDL
MODEL 6
REMARK VINA RESULT:    -4.291      1.878      4.359
REMARK INTER + INTRA:          -7.417
REMARK INTER:                  -6.687
REMARK INTRA:                  -0.730
REMARK UNBOUND:                -0.869
REMARK SMILES O=C([O-])CCCCCCCCC(=O)[O-]
REMARK SMILES IDX 7 1 6 2 5 3 4 4 2 5 1 6 3 7 8 8 9 9 10 10 11 11 12 12 13 13
REMARK SMILES IDX 14 14
REMARK H PARENT
REMARK Flexibility Score: inf
ROOT
ATOM      1  C   UNL     1      16.310   1.125  -6.056  1.00  0.00     0.000 C 
ENDROOT
BRANCH   1   2
ATOM      2  C   UNL     1      17.039   0.137  -6.979  1.00  0.00     0.000 C 
BRANCH   2   3
ATOM      3  C   UNL     1      18.461   0.598  -7.336  1.00  0.00     0.006 C 
BRANCH   3   4
ATOM      4  C   UNL     1      19.505  -0.512  -7.157  1.00  0.00     0.053 C 
BRANCH   4   5
ATOM      5  C   UNL     1      20.887   0.054  -7.244  1.00  0.00     0.041 C 
ATOM      6  O   UNL     1      21.453   0.174  -8.362  1.00  0.00    -0.550 OA
ATOM      7  O   UNL     1      21.532   0.494  -6.096  1.00  0.00    -0.550 OA
ENDBRANCH   4   5
ENDBRANCH   3   4
ENDBRANCH   2   3
ENDBRANCH   1   2
BRANCH   1   8
ATOM      8  C   UNL     1      15.545   0.383  -4.954  1.00  0.00     0.000 C 
BRANCH   8   9
ATOM      9  C   UNL     1      16.239  -0.935  -4.592  1.00  0.00     0.000 C 
BRANCH   9  10
ATOM     10  C   UNL     1      16.632  -0.961  -3.107  1.00  0.00     0.006 C 
BRANCH  10  11
ATOM     11  C   UNL     1      17.796  -1.921  -2.831  1.00  0.00     0.053 C 
BRANCH  11  12
ATOM     12  C   UNL     1      19.001  -1.584  -3.655  1.00  0.00     0.041 C 
ATOM     13  O   UNL     1      19.478  -0.418  -3.634  1.00  0.00    -0.550 OA
ATOM     14  O   UNL     1      19.616  -2.566  -4.421  1.00  0.00    -0.550 OA
ENDBRANCH  11  12
ENDBRANCH  10  11
ENDBRANCH   9  10
ENDBRANCH   8   9
ENDBRANCH   1   8
TORSDOF 9
ENDMDL
MODEL 7
REMARK VINA RESULT:    -4.289      2.549      4.869
REMARK INTER + INTRA:          -7.414
REMARK INTER:                  -6.598
REMARK INTRA:                  -0.815
REMARK UNBOUND:                -0.869
REMARK SMILES O=C([O-])CCCCCCCCC(=O)[O-]
REMARK SMILES IDX 7 1 6 2 5 3 4 4 2 5 1 6 3 7 8 8 9 9 10 10 11 11 12 12 13 13
REMARK SMILES IDX 14 14
REMARK H PARENT
REMARK Flexibility Score: inf
ROOT
ATOM      1  C   UNL     1      18.010  -2.275  -3.485  1.00  0.00     0.000 C 
ENDROOT
BRANCH   1   2
ATOM      2  C   UNL     1      19.463  -2.191  -3.977  1.00  0.00     0.000 C 
BRANCH   2   3
ATOM      3  C   UNL     1      19.930  -0.744  -4.199  1.00  0.00     0.006 C 
BRANCH   3   4
ATOM      4  C   UNL     1      20.530  -0.524  -5.595  1.00  0.00     0.053 C 
BRANCH   4   5
ATOM      5  C   UNL     1      21.552   0.568  -5.557  1.00  0.00     0.041 C 
ATOM      6  O   UNL     1      22.026   0.954  -4.456  1.00  0.00    -0.550 OA
ATOM      7  O   UNL     1      22.019   1.125  -6.740  1.00  0.00    -0.550 OA
ENDBRANCH   4   5
ENDBRANCH   3   4
ENDBRANCH   2   3
ENDBRANCH   1   2
BRANCH   1   8
ATOM      8  C   UNL     1      17.373  -0.882  -3.416  1.00  0.00     0.000 C 
BRANCH   8   9
ATOM      9  C   UNL     1      15.917  -0.917  -3.894  1.00  0.00     0.000 C 
BRANCH   9  10
ATOM     10  C   UNL     1      15.593   0.308  -4.764  1.00  0.00     0.006 C 
BRANCH  10  11
ATOM     11  C   UNL     1      16.820   0.815  -5.532  1.00  0.00     0.053 C 
BRANCH  11  12
ATOM     12  C   UNL     1      16.961   0.139  -6.861  1.00  0.00     0.041 C 
ATOM     13  O   UNL     1      17.291  -1.076  -6.924  1.00  0.00    -0.550 OA
ATOM     14  O   UNL     1      16.699   0.842  -8.030  1.00  0.00    -0.550 OA
ENDBRANCH  11  12
ENDBRANCH  10  11
ENDBRANCH   9  10
ENDBRANCH   8   9
ENDBRANCH   1   8
TORSDOF 9
ENDMDL
MODEL 8
REMARK VINA RESULT:    -4.269     10.247     11.861
REMARK INTER + INTRA:          -7.384
REMARK INTER:                  -6.469
REMARK INTRA:                  -0.914
REMARK UNBOUND:                -0.869
REMARK SMILES O=C([O-])CCCCCCCCC(=O)[O-]
REMARK SMILES IDX 7 1 6 2 5 3 4 4 2 5 1 6 3 7 8 8 9 9 10 10 11 11 12 12 13 13
REMARK SMILES IDX 14 14
REMARK H PARENT
REMARK Flexibility Score: inf
ROOT
ATOM      1  C   UNL     1      26.291  -5.195  -5.035  1.00  0.00     0.000 C 
ENDROOT
BRANCH   1   2
ATOM      2  C   UNL     1      26.554  -6.169  -3.876  1.00  0.00     0.000 C 
BRANCH   2   3
ATOM      3  C   UNL     1      27.865  -6.953  -4.048  1.00  0.00     0.006 C 
BRANCH   3   4
ATOM      4  C   UNL     1      28.543  -6.682  -5.398  1.00  0.00     0.053 C 
BRANCH   4   5
ATOM      5  C   UNL     1      28.552  -7.922  -6.234  1.00  0.00     0.041 C 
ATOM      6  O   UNL     1      27.992  -7.930  -7.362  1.00  0.00    -0.550 OA
ATOM      7  O   UNL     1      29.221  -9.055  -5.791  1.00  0.00    -0.550 OA
ENDBRANCH   4   5
ENDBRANCH   3   4
ENDBRANCH   2   3
ENDBRANCH   1   2
BRANCH   1   8
ATOM      8  C   UNL     1      26.469  -3.741  -4.579  1.00  0.00     0.000 C 
BRANCH   8   9
ATOM      9  C   UNL     1      27.533  -3.026  -5.420  1.00  0.00     0.000 C 
BRANCH   9  10
ATOM     10  C   UNL     1      28.622  -2.414  -4.525  1.00  0.00     0.006 C 
BRANCH  10  11
ATOM     11  C   UNL     1      28.421  -2.763  -3.046  1.00  0.00     0.053 C 
BRANCH  11  12
ATOM     12  C   UNL     1      29.578  -3.539  -2.496  1.00  0.00     0.041 C 
ATOM     13  O   UNL     1      30.098  -4.467  -3.171  1.00  0.00    -0.550 OA
ATOM     14  O   UNL     1      30.103  -3.216  -1.251  1.00  0.00    -0.550 OA
ENDBRANCH  11  12
ENDBRANCH  10  11
ENDBRANCH   9  10
ENDBRANCH   8   9
ENDBRANCH   1   8
TORSDOF 9
ENDMDL
MODEL 9
REMARK VINA RESULT:    -4.267      9.988     11.608
REMARK INTER + INTRA:          -7.381
REMARK INTER:                  -6.582
REMARK INTRA:                  -0.799
REMARK UNBOUND:                -0.869
REMARK SMILES O=C([O-])CCCCCCCCC(=O)[O-]
REMARK SMILES IDX 7 1 6 2 5 3 4 4 2 5 1 6 3 7 8 8 9 9 10 10 11 11 12 12 13 13
REMARK SMILES IDX 14 14
REMARK H PARENT
REMARK Flexibility Score: inf
ROOT
ATOM      1  C   UNL     1      26.602  -4.521  -4.922  1.00  0.00     0.000 C 
ENDROOT
BRANCH   1   2
ATOM      2  C   UNL     1      26.799  -3.023  -4.644  1.00  0.00     0.000 C 
BRANCH   2   3
ATOM      3  C   UNL     1      27.934  -2.410  -5.479  1.00  0.00     0.006 C 
BRANCH   3   4
ATOM      4  C   UNL     1      29.252  -3.184  -5.342  1.00  0.00     0.053 C 
BRANCH   4   5
ATOM      5  C   UNL     1      29.788  -3.057  -3.951  1.00  0.00     0.041 C 
ATOM      6  O   UNL     1      30.125  -4.084  -3.305  1.00  0.00    -0.550 OA
ATOM      7  O   UNL     1      29.962  -1.801  -3.384  1.00  0.00    -0.550 OA
ENDBRANCH   4   5
ENDBRANCH   3   4
ENDBRANCH   2   3
ENDBRANCH   1   2
BRANCH   1   8
ATOM      8  C   UNL     1      26.728  -5.339  -3.631  1.00  0.00     0.000 C 
BRANCH   8   9
ATOM      9  C   UNL     1      27.236  -6.756  -3.924  1.00  0.00     0.000 C 
BRANCH   9  10
ATOM     10  C   UNL     1      28.437  -6.723  -4.881  1.00  0.00     0.006 C 
BRANCH  10  11
ATOM     11  C   UNL     1      28.513  -7.977  -5.761  1.00  0.00     0.053 C 
BRANCH  11  12
ATOM     12  C   UNL     1      27.901  -7.747  -7.109  1.00  0.00     0.041 C 
ATOM     13  O   UNL     1      28.481  -8.160  -8.148  1.00  0.00    -0.550 OA
ATOM     14  O   UNL     1      26.675  -7.102  -7.215  1.00  0.00    -0.550 OA
ENDBRANCH  11  12
ENDBRANCH  10  11
ENDBRANCH   9  10
ENDBRANCH   8   9
ENDBRANCH   1   8
TORSDOF 9
ENDMDL
