MODEL 1
REMARK VINA RESULT:    -6.005      0.000      0.000
REMARK INTER + INTRA:          -6.005
REMARK INTER:                  -6.005
REMARK INTRA:                   0.000
REMARK UNBOUND:                 0.000
REMARK SMILES O=c1ccc2ccccc2o1
REMARK SMILES IDX 7 1 8 2 9 3 10 4 5 5 6 6 4 7 3 8 2 9 1 10 11 11
REMARK H PARENT
REMARK Flexibility Score: inf
ROOT
ATOM      1  C   UNL     1      73.125  44.709  -1.670  1.00  0.00     0.001 A 
ATOM      2  C   UNL     1      73.905  45.531  -2.491  1.00  0.00     0.004 A 
ATOM      3  C   UNL     1      74.391  45.048  -3.712  1.00  0.00     0.048 A 
ATOM      4  C   UNL     1      74.097  43.741  -4.115  1.00  0.00     0.138 A 
ATOM      5  C   UNL     1      73.309  42.911  -3.286  1.00  0.00     0.018 A 
ATOM      6  C   UNL     1      72.824  43.401  -2.065  1.00  0.00     0.012 A 
ATOM      7  C   UNL     1      73.032  41.610  -3.716  1.00  0.00     0.019 A 
ATOM      8  C   UNL     1      73.537  41.171  -4.941  1.00  0.00     0.094 A 
ATOM      9  C   UNL     1      74.310  42.049  -5.708  1.00  0.00     0.336 A 
ATOM     10  O   UNL     1      74.775  41.671  -6.816  1.00  0.00    -0.246 OA
ATOM     11  O   UNL     1      74.559  43.283  -5.276  1.00  0.00    -0.423 OA
ENDROOT
TORSDOF 0
ENDMDL
MODEL 2
REMARK VINA RESULT:    -5.889      1.957      4.379
REMARK INTER + INTRA:          -5.889
REMARK INTER:                  -5.889
REMARK INTRA:                   0.000
REMARK UNBOUND:                 0.000
REMARK SMILES O=c1ccc2ccccc2o1
REMARK SMILES IDX 7 1 8 2 9 3 10 4 5 5 6 6 4 7 3 8 2 9 1 10 11 11
REMARK H PARENT
REMARK Flexibility Score: inf
ROOT
ATOM      1  C   UNL     1      74.350  41.708  -5.743  1.00  0.00     0.001 A 
ATOM      2  C   UNL     1      73.483  40.911  -4.988  1.00  0.00     0.004 A 
ATOM      3  C   UNL     1      72.927  41.404  -3.802  1.00  0.00     0.048 A 
ATOM      4  C   UNL     1      73.237  42.697  -3.367  1.00  0.00     0.138 A 
ATOM      5  C   UNL     1      74.113  43.502  -4.130  1.00  0.00     0.018 A 
ATOM      6  C   UNL     1      74.666  43.003  -5.317  1.00  0.00     0.012 A 
ATOM      7  C   UNL     1      74.404  44.790  -3.670  1.00  0.00     0.019 A 
ATOM      8  C   UNL     1      73.826  45.240  -2.482  1.00  0.00     0.094 A 
ATOM      9  C   UNL     1      72.969  44.387  -1.780  1.00  0.00     0.336 A 
ATOM     10  O   UNL     1      72.438  44.775  -0.706  1.00  0.00    -0.246 OA
ATOM     11  O   UNL     1      72.708  43.165  -2.239  1.00  0.00    -0.423 OA
ENDROOT
TORSDOF 0
ENDMDL
MODEL 3
REMARK VINA RESULT:    -5.788      1.230      2.138
REMARK INTER + INTRA:          -5.788
REMARK INTER:                  -5.788
REMARK INTRA:                   0.000
REMARK UNBOUND:                 0.000
REMARK SMILES O=c1ccc2ccccc2o1
REMARK SMILES IDX 7 1 8 2 9 3 10 4 5 5 6 6 4 7 3 8 2 9 1 10 11 11
REMARK H PARENT
REMARK Flexibility Score: inf
ROOT
ATOM      1  C   UNL     1      73.789  45.527  -2.254  1.00  0.00     0.001 A 
ATOM      2  C   UNL     1      72.944  44.668  -1.542  1.00  0.00     0.004 A 
ATOM      3  C   UNL     1      72.661  43.390  -2.035  1.00  0.00     0.048 A 
ATOM      4  C   UNL     1      73.223  42.965  -3.244  1.00  0.00     0.138 A 
ATOM      5  C   UNL     1      74.077  43.832  -3.964  1.00  0.00     0.018 A 
ATOM      6  C   UNL     1      74.357  45.112  -3.463  1.00  0.00     0.012 A 
ATOM      7  C   UNL     1      74.624  43.380  -5.168  1.00  0.00     0.019 A 
ATOM      8  C   UNL     1      74.314  42.098  -5.622  1.00  0.00     0.094 A 
ATOM      9  C   UNL     1      73.461  41.295  -4.857  1.00  0.00     0.336 A 
ATOM     10  O   UNL     1      73.170  40.135  -5.250  1.00  0.00    -0.246 OA
ATOM     11  O   UNL     1      72.954  41.750  -3.713  1.00  0.00    -0.423 OA
ENDROOT
TORSDOF 0
ENDMDL
MODEL 4
REMARK VINA RESULT:    -5.758      3.241      4.502
REMARK INTER + INTRA:          -5.758
REMARK INTER:                  -5.758
REMARK INTRA:                   0.000
REMARK UNBOUND:                 0.000
REMARK SMILES O=c1ccc2ccccc2o1
REMARK SMILES IDX 7 1 8 2 9 3 10 4 5 5 6 6 4 7 3 8 2 9 1 10 11 11
REMARK H PARENT
REMARK Flexibility Score: inf
ROOT
ATOM      1  C   UNL     1      72.392  41.134  -3.753  1.00  0.00     0.001 A 
ATOM      2  C   UNL     1      71.343  40.277  -4.106  1.00  0.00     0.004 A 
ATOM      3  C   UNL     1      71.364  39.609  -5.335  1.00  0.00     0.048 A 
ATOM      4  C   UNL     1      72.434  39.797  -6.217  1.00  0.00     0.138 A 
ATOM      5  C   UNL     1      73.493  40.662  -5.861  1.00  0.00     0.018 A 
ATOM      6  C   UNL     1      73.467  41.328  -4.627  1.00  0.00     0.012 A 
ATOM      7  C   UNL     1      74.549  40.829  -6.762  1.00  0.00     0.019 A 
ATOM      8  C   UNL     1      74.527  40.143  -7.976  1.00  0.00     0.094 A 
ATOM      9  C   UNL     1      73.445  39.303  -8.261  1.00  0.00     0.336 A 
ATOM     10  O   UNL     1      73.408  38.675  -9.352  1.00  0.00    -0.246 OA
ATOM     11  O   UNL     1      72.453  39.161  -7.386  1.00  0.00    -0.423 OA
ENDROOT
TORSDOF 0
ENDMDL
MODEL 5
REMARK VINA RESULT:    -5.672      2.801      5.199
REMARK INTER + INTRA:          -5.672
REMARK INTER:                  -5.672
REMARK INTRA:                   0.000
REMARK UNBOUND:                 0.000
REMARK SMILES O=c1ccc2ccccc2o1
REMARK SMILES IDX 7 1 8 2 9 3 10 4 5 5 6 6 4 7 3 8 2 9 1 10 11 11
REMARK H PARENT
REMARK Flexibility Score: inf
ROOT
ATOM      1  C   UNL     1      73.048  39.009  -8.363  1.00  0.00     0.001 A 
ATOM      2  C   UNL     1      74.188  39.814  -8.256  1.00  0.00     0.004 A 
ATOM      3  C   UNL     1      74.389  40.602  -7.117  1.00  0.00     0.048 A 
ATOM      4  C   UNL     1      73.448  40.589  -6.082  1.00  0.00     0.138 A 
ATOM      5  C   UNL     1      72.296  39.777  -6.190  1.00  0.00     0.018 A 
ATOM      6  C   UNL     1      72.102  38.988  -7.333  1.00  0.00     0.012 A 
ATOM      7  C   UNL     1      71.375  39.784  -5.138  1.00  0.00     0.019 A 
ATOM      8  C   UNL     1      71.616  40.586  -4.022  1.00  0.00     0.094 A 
ATOM      9  C   UNL     1      72.778  41.364  -3.985  1.00  0.00     0.336 A 
ATOM     10  O   UNL     1      73.013  42.094  -2.986  1.00  0.00    -0.246 OA
ATOM     11  O   UNL     1      73.639  41.339  -4.999  1.00  0.00    -0.423 OA
ENDROOT
TORSDOF 0
ENDMDL
MODEL 6
REMARK VINA RESULT:    -5.656      2.681      4.010
REMARK INTER + INTRA:          -5.656
REMARK INTER:                  -5.656
REMARK INTRA:                   0.000
REMARK UNBOUND:                 0.000
REMARK SMILES O=c1ccc2ccccc2o1
REMARK SMILES IDX 7 1 8 2 9 3 10 4 5 5 6 6 4 7 3 8 2 9 1 10 11 11
REMARK H PARENT
REMARK Flexibility Score: inf
ROOT
ATOM      1  C   UNL     1      71.631  40.600  -3.858  1.00  0.00     0.001 A 
ATOM      2  C   UNL     1      72.769  41.412  -3.792  1.00  0.00     0.004 A 
ATOM      3  C   UNL     1      73.685  41.427  -4.850  1.00  0.00     0.048 A 
ATOM      4  C   UNL     1      73.466  40.630  -5.978  1.00  0.00     0.138 A 
ATOM      5  C   UNL     1      72.316  39.810  -6.045  1.00  0.00     0.018 A 
ATOM      6  C   UNL     1      71.402  39.799  -4.983  1.00  0.00     0.012 A 
ATOM      7  C   UNL     1      72.124  39.024  -7.186  1.00  0.00     0.019 A 
ATOM      8  C   UNL     1      73.063  39.072  -8.217  1.00  0.00     0.094 A 
ATOM      9  C   UNL     1      74.178  39.907  -8.080  1.00  0.00     0.336 A 
ATOM     10  O   UNL     1      75.036  39.964  -8.999  1.00  0.00    -0.246 OA
ATOM     11  O   UNL     1      74.337  40.645  -6.984  1.00  0.00    -0.423 OA
ENDROOT
TORSDOF 0
ENDMDL
MODEL 7
REMARK VINA RESULT:    -5.635      1.412      3.761
REMARK INTER + INTRA:          -5.635
REMARK INTER:                  -5.635
REMARK INTRA:                   0.000
REMARK UNBOUND:                 0.000
REMARK SMILES O=c1ccc2ccccc2o1
REMARK SMILES IDX 7 1 8 2 9 3 10 4 5 5 6 6 4 7 3 8 2 9 1 10 11 11
REMARK H PARENT
REMARK Flexibility Score: inf
ROOT
ATOM      1  C   UNL     1      73.163  40.709  -4.868  1.00  0.00     0.001 A 
ATOM      2  C   UNL     1      74.100  41.330  -5.702  1.00  0.00     0.004 A 
ATOM      3  C   UNL     1      74.560  42.618  -5.406  1.00  0.00     0.048 A 
ATOM      4  C   UNL     1      74.084  43.290  -4.275  1.00  0.00     0.138 A 
ATOM      5  C   UNL     1      73.137  42.663  -3.433  1.00  0.00     0.018 A 
ATOM      6  C   UNL     1      72.681  41.372  -3.734  1.00  0.00     0.012 A 
ATOM      7  C   UNL     1      72.679  43.359  -2.310  1.00  0.00     0.019 A 
ATOM      8  C   UNL     1      73.166  44.641  -2.054  1.00  0.00     0.094 A 
ATOM      9  C   UNL     1      74.102  45.199  -2.933  1.00  0.00     0.336 A 
ATOM     10  O   UNL     1      74.552  46.355  -2.719  1.00  0.00    -0.246 OA
ATOM     11  O   UNL     1      74.521  44.515  -3.994  1.00  0.00    -0.423 OA
ENDROOT
TORSDOF 0
ENDMDL
MODEL 8
REMARK VINA RESULT:    -5.580      2.162      4.696
REMARK INTER + INTRA:          -5.580
REMARK INTER:                  -5.580
REMARK INTRA:                   0.000
REMARK UNBOUND:                 0.000
REMARK SMILES O=c1ccc2ccccc2o1
REMARK SMILES IDX 7 1 8 2 9 3 10 4 5 5 6 6 4 7 3 8 2 9 1 10 11 11
REMARK H PARENT
REMARK Flexibility Score: inf
ROOT
ATOM      1  C   UNL     1      72.388  39.335  -6.357  1.00  0.00     0.001 A 
ATOM      2  C   UNL     1      71.349  39.270  -5.421  1.00  0.00     0.004 A 
ATOM      3  C   UNL     1      71.321  40.156  -4.339  1.00  0.00     0.048 A 
ATOM      4  C   UNL     1      72.332  41.111  -4.188  1.00  0.00     0.138 A 
ATOM      5  C   UNL     1      73.381  41.177  -5.133  1.00  0.00     0.018 A 
ATOM      6  C   UNL     1      73.404  40.286  -6.216  1.00  0.00     0.012 A 
ATOM      7  C   UNL     1      74.378  42.142  -4.957  1.00  0.00     0.019 A 
ATOM      8  C   UNL     1      74.309  43.005  -3.863  1.00  0.00     0.094 A 
ATOM      9  C   UNL     1      73.241  42.881  -2.968  1.00  0.00     0.336 A 
ATOM     10  O   UNL     1      73.161  43.651  -1.975  1.00  0.00    -0.246 OA
ATOM     11  O   UNL     1      72.305  41.954  -3.159  1.00  0.00    -0.423 OA
ENDROOT
TORSDOF 0
ENDMDL
MODEL 9
REMARK VINA RESULT:    -5.255      3.536      6.020
REMARK INTER + INTRA:          -5.255
REMARK INTER:                  -5.255
REMARK INTRA:                   0.000
REMARK UNBOUND:                 0.000
REMARK SMILES O=c1ccc2ccccc2o1
REMARK SMILES IDX 7 1 8 2 9 3 10 4 5 5 6 6 4 7 3 8 2 9 1 10 11 11
REMARK H PARENT
REMARK Flexibility Score: inf
ROOT
ATOM      1  C   UNL     1      74.714  39.874  -9.422  1.00  0.00     0.001 A 
ATOM      2  C   UNL     1      73.564  39.088  -9.559  1.00  0.00     0.004 A 
ATOM      3  C   UNL     1      72.659  38.974  -8.498  1.00  0.00     0.048 A 
ATOM      4  C   UNL     1      72.901  39.645  -7.295  1.00  0.00     0.138 A 
ATOM      5  C   UNL     1      74.062  40.439  -7.156  1.00  0.00     0.018 A 
ATOM      6  C   UNL     1      74.965  40.550  -8.223  1.00  0.00     0.012 A 
ATOM      7  C   UNL     1      74.277  41.098  -5.941  1.00  0.00     0.019 A 
ATOM      8  C   UNL     1      73.347  40.955  -4.911  1.00  0.00     0.094 A 
ATOM      9  C   UNL     1      72.221  40.152  -5.121  1.00  0.00     0.336 A 
ATOM     10  O   UNL     1      71.371  40.011  -4.203  1.00  0.00    -0.246 OA
ATOM     11  O   UNL     1      72.040  39.536  -6.286  1.00  0.00    -0.423 OA
ENDROOT
TORSDOF 0
ENDMDL
