MODEL 1
REMARK VINA RESULT:    -4.157      0.000      0.000
REMARK INTER + INTRA:          -5.209
REMARK INTER:                  -5.130
REMARK INTRA:                  -0.079
REMARK UNBOUND:                -0.079
REMARK SMILES CCCCCC(=O)[O-]
REMARK SMILES IDX 4 1 5 2 6 3 7 4 8 5 3 6 2 7 1 8
REMARK H PARENT
REMARK Flexibility Score: inf
ROOT
ATOM      1  C   UNL     1      17.929 117.248 293.075  1.00  0.00     0.006 C 
ENDROOT
BRANCH   1   2
ATOM      2  C   UNL     1      16.857 118.016 293.860  1.00  0.00     0.053 C 
BRANCH   2   3
ATOM      3  C   UNL     1      16.624 117.376 295.191  1.00  0.00     0.041 C 
ATOM      4  O   UNL     1      15.533 117.551 295.796  1.00  0.00    -0.550 OA
ATOM      5  O   UNL     1      17.629 116.625 295.788  1.00  0.00    -0.550 OA
ENDBRANCH   2   3
ENDBRANCH   1   2
BRANCH   1   6
ATOM      6  C   UNL     1      17.336 116.065 292.280  1.00  0.00     0.000 C 
BRANCH   6   7
ATOM      7  C   UNL     1      18.108 115.742 290.990  1.00  0.00    -0.003 C 
ATOM      8  C   UNL     1      17.416 114.690 290.126  1.00  0.00     0.004 C 
ENDBRANCH   6   7
ENDBRANCH   1   6
TORSDOF 4
ENDMDL
MODEL 2
REMARK VINA RESULT:    -4.139      0.969      1.519
REMARK INTER + INTRA:          -5.186
REMARK INTER:                  -5.086
REMARK INTRA:                  -0.100
REMARK UNBOUND:                -0.079
REMARK SMILES CCCCCC(=O)[O-]
REMARK SMILES IDX 4 1 5 2 6 3 7 4 8 5 3 6 2 7 1 8
REMARK H PARENT
REMARK Flexibility Score: inf
ROOT
ATOM      1  C   UNL     1      17.333 116.263 292.698  1.00  0.00     0.006 C 
ENDROOT
BRANCH   1   2
ATOM      2  C   UNL     1      17.207 117.603 293.435  1.00  0.00     0.053 C 
BRANCH   2   3
ATOM      3  C   UNL     1      17.674 117.470 294.849  1.00  0.00     0.041 C 
ATOM      4  O   UNL     1      18.897 117.590 295.127  1.00  0.00    -0.550 OA
ATOM      5  O   UNL     1      16.767 117.165 295.856  1.00  0.00    -0.550 OA
ENDBRANCH   2   3
ENDBRANCH   1   2
BRANCH   1   6
ATOM      6  C   UNL     1      18.409 116.302 291.593  1.00  0.00     0.000 C 
BRANCH   6   7
ATOM      7  C   UNL     1      17.927 115.741 290.244  1.00  0.00    -0.003 C 
ATOM      8  C   UNL     1      17.099 114.467 290.387  1.00  0.00     0.004 C 
ENDBRANCH   6   7
ENDBRANCH   1   6
TORSDOF 4
ENDMDL
MODEL 3
REMARK VINA RESULT:    -4.132      1.067      1.306
REMARK INTER + INTRA:          -5.177
REMARK INTER:                  -5.111
REMARK INTRA:                  -0.066
REMARK UNBOUND:                -0.079
REMARK SMILES CCCCCC(=O)[O-]
REMARK SMILES IDX 4 1 5 2 6 3 7 4 8 5 3 6 2 7 1 8
REMARK H PARENT
REMARK Flexibility Score: inf
ROOT
ATOM      1  C   UNL     1      17.303 116.715 292.619  1.00  0.00     0.006 C 
ENDROOT
BRANCH   1   2
ATOM      2  C   UNL     1      17.847 117.832 293.520  1.00  0.00     0.053 C 
BRANCH   2   3
ATOM      3  C   UNL     1      18.042 117.331 294.916  1.00  0.00     0.041 C 
ATOM      4  O   UNL     1      17.158 116.620 295.464  1.00  0.00    -0.550 OA
ATOM      5  O   UNL     1      19.178 117.690 295.631  1.00  0.00    -0.550 OA
ENDBRANCH   2   3
ENDBRANCH   1   2
BRANCH   1   6
ATOM      6  C   UNL     1      18.359 116.209 291.614  1.00  0.00     0.000 C 
BRANCH   6   7
ATOM      7  C   UNL     1      17.765 115.769 290.266  1.00  0.00    -0.003 C 
ATOM      8  C   UNL     1      17.139 114.377 290.313  1.00  0.00     0.004 C 
ENDBRANCH   6   7
ENDBRANCH   1   6
TORSDOF 4
ENDMDL
MODEL 4
REMARK VINA RESULT:    -4.064      3.087      4.770
REMARK INTER + INTRA:          -5.093
REMARK INTER:                  -5.008
REMARK INTRA:                  -0.085
REMARK UNBOUND:                -0.079
REMARK SMILES CCCCCC(=O)[O-]
REMARK SMILES IDX 4 1 5 2 6 3 7 4 8 5 3 6 2 7 1 8
REMARK H PARENT
REMARK Flexibility Score: inf
ROOT
ATOM      1  C   UNL     1      17.984 116.978 292.680  1.00  0.00     0.006 C 
ENDROOT
BRANCH   1   2
ATOM      2  C   UNL     1      17.302 115.791 291.987  1.00  0.00     0.053 C 
BRANCH   2   3
ATOM      3  C   UNL     1      18.094 115.354 290.796  1.00  0.00     0.041 C 
ATOM      4  O   UNL     1      19.306 115.679 290.687  1.00  0.00    -0.550 OA
ATOM      5  O   UNL     1      17.482 114.628 289.782  1.00  0.00    -0.550 OA
ENDBRANCH   2   3
ENDBRANCH   1   2
BRANCH   1   6
ATOM      6  C   UNL     1      17.084 117.623 293.755  1.00  0.00     0.000 C 
BRANCH   6   7
ATOM      7  C   UNL     1      16.895 116.749 295.006  1.00  0.00    -0.003 C 
ATOM      8  C   UNL     1      18.004 116.935 296.039  1.00  0.00     0.004 C 
ENDBRANCH   6   7
ENDBRANCH   1   6
TORSDOF 4
ENDMDL
MODEL 5
REMARK VINA RESULT:    -4.012      1.228      1.531
REMARK INTER + INTRA:          -5.029
REMARK INTER:                  -4.960
REMARK INTRA:                  -0.069
REMARK UNBOUND:                -0.079
REMARK SMILES CCCCCC(=O)[O-]
REMARK SMILES IDX 4 1 5 2 6 3 7 4 8 5 3 6 2 7 1 8
REMARK H PARENT
REMARK Flexibility Score: inf
ROOT
ATOM      1  C   UNL     1      17.851 117.199 293.048  1.00  0.00     0.006 C 
ENDROOT
BRANCH   1   2
ATOM      2  C   UNL     1      17.190 117.303 294.428  1.00  0.00     0.053 C 
BRANCH   2   3
ATOM      3  C   UNL     1      16.123 118.351 294.421  1.00  0.00     0.041 C 
ATOM      4  O   UNL     1      15.147 118.268 295.213  1.00  0.00    -0.550 OA
ATOM      5  O   UNL     1      16.180 119.396 293.506  1.00  0.00    -0.550 OA
ENDBRANCH   2   3
ENDBRANCH   1   2
BRANCH   1   6
ATOM      6  C   UNL     1      17.320 116.000 292.234  1.00  0.00     0.000 C 
BRANCH   6   7
ATOM      7  C   UNL     1      18.116 115.728 290.947  1.00  0.00    -0.003 C 
ATOM      8  C   UNL     1      17.448 114.700 290.036  1.00  0.00     0.004 C 
ENDBRANCH   6   7
ENDBRANCH   1   6
TORSDOF 4
ENDMDL
MODEL 6
REMARK VINA RESULT:    -4.006      1.476      1.817
REMARK INTER + INTRA:          -5.022
REMARK INTER:                  -4.975
REMARK INTRA:                  -0.047
REMARK UNBOUND:                -0.079
REMARK SMILES CCCCCC(=O)[O-]
REMARK SMILES IDX 4 1 5 2 6 3 7 4 8 5 3 6 2 7 1 8
REMARK H PARENT
REMARK Flexibility Score: inf
ROOT
ATOM      1  C   UNL     1      18.026 117.385 293.202  1.00  0.00     0.006 C 
ENDROOT
BRANCH   1   2
ATOM      2  C   UNL     1      17.608 117.201 294.666  1.00  0.00     0.053 C 
BRANCH   2   3
ATOM      3  C   UNL     1      18.755 117.492 295.580  1.00  0.00     0.041 C 
ATOM      4  O   UNL     1      18.765 117.032 296.752  1.00  0.00    -0.550 OA
ATOM      5  O   UNL     1      19.793 118.313 295.154  1.00  0.00    -0.550 OA
ENDBRANCH   2   3
ENDBRANCH   1   2
BRANCH   1   6
ATOM      6  C   UNL     1      17.308 116.396 292.259  1.00  0.00     0.000 C 
BRANCH   6   7
ATOM      7  C   UNL     1      18.219 115.816 291.165  1.00  0.00    -0.003 C 
ATOM      8  C   UNL     1      17.539 114.735 290.330  1.00  0.00     0.004 C 
ENDBRANCH   6   7
ENDBRANCH   1   6
TORSDOF 4
ENDMDL
MODEL 7
REMARK VINA RESULT:    -3.741      3.117      4.599
REMARK INTER + INTRA:          -4.695
REMARK INTER:                  -4.593
REMARK INTRA:                  -0.102
REMARK UNBOUND:                -0.079
REMARK SMILES CCCCCC(=O)[O-]
REMARK SMILES IDX 4 1 5 2 6 3 7 4 8 5 3 6 2 7 1 8
REMARK H PARENT
REMARK Flexibility Score: inf
ROOT
ATOM      1  C   UNL     1      18.038 116.988 292.869  1.00  0.00     0.006 C 
ENDROOT
BRANCH   1   2
ATOM      2  C   UNL     1      17.236 116.291 291.762  1.00  0.00     0.053 C 
BRANCH   2   3
ATOM      3  C   UNL     1      18.142 115.490 290.883  1.00  0.00     0.041 C 
ATOM      4  O   UNL     1      17.709 114.468 290.289  1.00  0.00    -0.550 OA
ATOM      5  O   UNL     1      19.481 115.844 290.757  1.00  0.00    -0.550 OA
ENDBRANCH   2   3
ENDBRANCH   1   2
BRANCH   1   6
ATOM      6  C   UNL     1      17.185 117.261 294.126  1.00  0.00     0.000 C 
BRANCH   6   7
ATOM      7  C   UNL     1      17.015 118.756 294.442  1.00  0.00    -0.003 C 
ATOM      8  C   UNL     1      16.018 119.454 293.520  1.00  0.00     0.004 C 
ENDBRANCH   6   7
ENDBRANCH   1   6
TORSDOF 4
ENDMDL
MODEL 8
REMARK VINA RESULT:    -3.442      8.061      8.683
REMARK INTER + INTRA:          -4.326
REMARK INTER:                  -4.253
REMARK INTRA:                  -0.073
REMARK UNBOUND:                -0.079
REMARK SMILES CCCCCC(=O)[O-]
REMARK SMILES IDX 4 1 5 2 6 3 7 4 8 5 3 6 2 7 1 8
REMARK H PARENT
REMARK Flexibility Score: inf
ROOT
ATOM      1  C   UNL     1      24.397 118.285 289.583  1.00  0.00     0.006 C 
ENDROOT
BRANCH   1   2
ATOM      2  C   UNL     1      25.179 117.297 290.459  1.00  0.00     0.053 C 
BRANCH   2   3
ATOM      3  C   UNL     1      25.785 118.002 291.631  1.00  0.00     0.041 C 
ATOM      4  O   UNL     1      26.613 117.406 292.370  1.00  0.00    -0.550 OA
ATOM      5  O   UNL     1      25.399 119.301 291.937  1.00  0.00    -0.550 OA
ENDBRANCH   2   3
ENDBRANCH   1   2
BRANCH   1   6
ATOM      6  C   UNL     1      23.218 117.611 288.850  1.00  0.00     0.000 C 
BRANCH   6   7
ATOM      7  C   UNL     1      22.908 118.234 287.479  1.00  0.00    -0.003 C 
ATOM      8  C   UNL     1      22.890 119.760 287.505  1.00  0.00     0.004 C 
ENDBRANCH   6   7
ENDBRANCH   1   6
TORSDOF 4
ENDMDL
MODEL 9
REMARK VINA RESULT:    -3.441      8.551      9.364
REMARK INTER + INTRA:          -4.325
REMARK INTER:                  -4.266
REMARK INTRA:                  -0.059
REMARK UNBOUND:                -0.079
REMARK SMILES CCCCCC(=O)[O-]
REMARK SMILES IDX 4 1 5 2 6 3 7 4 8 5 3 6 2 7 1 8
REMARK H PARENT
REMARK Flexibility Score: inf
ROOT
ATOM      1  C   UNL     1      24.409 117.821 289.881  1.00  0.00     0.006 C 
ENDROOT
BRANCH   1   2
ATOM      2  C   UNL     1      24.545 118.847 288.749  1.00  0.00     0.053 C 
BRANCH   2   3
ATOM      3  C   UNL     1      23.287 118.906 287.941  1.00  0.00     0.041 C 
ATOM      4  O   UNL     1      22.741 117.844 287.540  1.00  0.00    -0.550 OA
ATOM      5  O   UNL     1      22.743 120.135 287.589  1.00  0.00    -0.550 OA
ENDBRANCH   2   3
ENDBRANCH   1   2
BRANCH   1   6
ATOM      6  C   UNL     1      24.860 118.389 291.243  1.00  0.00     0.000 C 
BRANCH   6   7
ATOM      7  C   UNL     1      25.882 117.502 291.973  1.00  0.00    -0.003 C 
ATOM      8  C   UNL     1      26.922 118.303 292.753  1.00  0.00     0.004 C 
ENDBRANCH   6   7
ENDBRANCH   1   6
TORSDOF 4
ENDMDL
