MODEL 1
REMARK VINA RESULT:    -5.658      0.000      0.000
REMARK INTER + INTRA:          -5.658
REMARK INTER:                  -5.658
REMARK INTRA:                   0.000
REMARK UNBOUND:                 0.000
REMARK SMILES O=c1ccc2ccccc2o1
REMARK SMILES IDX 7 1 8 2 9 3 10 4 5 5 6 6 4 7 3 8 2 9 1 10 11 11
REMARK H PARENT
REMARK Flexibility Score: inf
ROOT
ATOM      1  C   UNL     1     -14.712 -27.013  -7.656  1.00  0.00     0.001 A 
ATOM      2  C   UNL     1     -14.524 -28.397  -7.575  1.00  0.00     0.004 A 
ATOM      3  C   UNL     1     -14.252 -29.139  -8.729  1.00  0.00     0.048 A 
ATOM      4  C   UNL     1     -14.168 -28.498  -9.970  1.00  0.00     0.138 A 
ATOM      5  C   UNL     1     -14.358 -27.100 -10.052  1.00  0.00     0.018 A 
ATOM      6  C   UNL     1     -14.631 -26.362  -8.891  1.00  0.00     0.012 A 
ATOM      7  C   UNL     1     -14.268 -26.488 -11.306  1.00  0.00     0.019 A 
ATOM      8  C   UNL     1     -13.995 -27.267 -12.430  1.00  0.00     0.094 A 
ATOM      9  C   UNL     1     -13.818 -28.646 -12.273  1.00  0.00     0.336 A 
ATOM     10  O   UNL     1     -13.571 -29.366 -13.275  1.00  0.00    -0.246 OA
ATOM     11  O   UNL     1     -13.909 -29.205 -11.068  1.00  0.00    -0.423 OA
ENDROOT
TORSDOF 0
ENDMDL
MODEL 2
REMARK VINA RESULT:    -5.588      1.573      2.307
REMARK INTER + INTRA:          -5.588
REMARK INTER:                  -5.588
REMARK INTRA:                   0.000
REMARK UNBOUND:                 0.000
REMARK SMILES O=c1ccc2ccccc2o1
REMARK SMILES IDX 7 1 8 2 9 3 10 4 5 5 6 6 4 7 3 8 2 9 1 10 11 11
REMARK H PARENT
REMARK Flexibility Score: inf
ROOT
ATOM      1  C   UNL     1     -14.384 -28.469  -7.753  1.00  0.00     0.001 A 
ATOM      2  C   UNL     1     -14.449 -27.078  -7.619  1.00  0.00     0.004 A 
ATOM      3  C   UNL     1     -14.486 -26.263  -8.756  1.00  0.00     0.048 A 
ATOM      4  C   UNL     1     -14.458 -26.839 -10.031  1.00  0.00     0.138 A 
ATOM      5  C   UNL     1     -14.394 -28.244 -10.166  1.00  0.00     0.018 A 
ATOM      6  C   UNL     1     -14.356 -29.055  -9.022  1.00  0.00     0.012 A 
ATOM      7  C   UNL     1     -14.367 -28.789 -11.453  1.00  0.00     0.019 A 
ATOM      8  C   UNL     1     -14.406 -27.939 -12.557  1.00  0.00     0.094 A 
ATOM      9  C   UNL     1     -14.471 -26.557 -12.348  1.00  0.00     0.336 A 
ATOM     10  O   UNL     1     -14.506 -25.774 -13.332  1.00  0.00    -0.246 OA
ATOM     11  O   UNL     1     -14.494 -26.063 -11.112  1.00  0.00    -0.423 OA
ENDROOT
TORSDOF 0
ENDMDL
MODEL 3
REMARK VINA RESULT:    -5.527      2.110      3.296
REMARK INTER + INTRA:          -5.527
REMARK INTER:                  -5.527
REMARK INTRA:                   0.000
REMARK UNBOUND:                 0.000
REMARK SMILES O=c1ccc2ccccc2o1
REMARK SMILES IDX 7 1 8 2 9 3 10 4 5 5 6 6 4 7 3 8 2 9 1 10 11 11
REMARK H PARENT
REMARK Flexibility Score: inf
ROOT
ATOM      1  C   UNL     1     -14.939 -30.930 -10.440  1.00  0.00     0.001 A 
ATOM      2  C   UNL     1     -15.569 -31.000 -11.688  1.00  0.00     0.004 A 
ATOM      3  C   UNL     1     -15.643 -29.865 -12.503  1.00  0.00     0.048 A 
ATOM      4  C   UNL     1     -15.085 -28.656 -12.072  1.00  0.00     0.138 A 
ATOM      5  C   UNL     1     -14.448 -28.586 -10.813  1.00  0.00     0.018 A 
ATOM      6  C   UNL     1     -14.378 -29.727 -10.001  1.00  0.00     0.012 A 
ATOM      7  C   UNL     1     -13.900 -27.364 -10.411  1.00  0.00     0.019 A 
ATOM      8  C   UNL     1     -13.997 -26.259 -11.256  1.00  0.00     0.094 A 
ATOM      9  C   UNL     1     -14.642 -26.403 -12.489  1.00  0.00     0.336 A 
ATOM     10  O   UNL     1     -14.740 -25.417 -13.266  1.00  0.00    -0.246 OA
ATOM     11  O   UNL     1     -15.156 -27.577 -12.849  1.00  0.00    -0.423 OA
ENDROOT
TORSDOF 0
ENDMDL
MODEL 4
REMARK VINA RESULT:    -5.483      2.022      3.129
REMARK INTER + INTRA:          -5.483
REMARK INTER:                  -5.483
REMARK INTRA:                   0.000
REMARK UNBOUND:                 0.000
REMARK SMILES O=c1ccc2ccccc2o1
REMARK SMILES IDX 7 1 8 2 9 3 10 4 5 5 6 6 4 7 3 8 2 9 1 10 11 11
REMARK H PARENT
REMARK Flexibility Score: inf
ROOT
ATOM      1  C   UNL     1     -15.036 -31.815  -9.852  1.00  0.00     0.001 A 
ATOM      2  C   UNL     1     -14.554 -31.108  -8.745  1.00  0.00     0.004 A 
ATOM      3  C   UNL     1     -14.287 -29.739  -8.846  1.00  0.00     0.048 A 
ATOM      4  C   UNL     1     -14.502 -29.071 -10.057  1.00  0.00     0.138 A 
ATOM      5  C   UNL     1     -14.989 -29.785 -11.175  1.00  0.00     0.018 A 
ATOM      6  C   UNL     1     -15.254 -31.157 -11.067  1.00  0.00     0.012 A 
ATOM      7  C   UNL     1     -15.193 -29.090 -12.371  1.00  0.00     0.019 A 
ATOM      8  C   UNL     1     -14.914 -27.725 -12.427  1.00  0.00     0.094 A 
ATOM      9  C   UNL     1     -14.435 -27.084 -11.279  1.00  0.00     0.336 A 
ATOM     10  O   UNL     1     -14.176 -25.852 -11.310  1.00  0.00    -0.246 OA
ATOM     11  O   UNL     1     -14.248 -27.768 -10.153  1.00  0.00    -0.423 OA
ENDROOT
TORSDOF 0
ENDMDL
MODEL 5
REMARK VINA RESULT:    -5.446      1.606      2.877
REMARK INTER + INTRA:          -5.446
REMARK INTER:                  -5.446
REMARK INTRA:                   0.000
REMARK UNBOUND:                 0.000
REMARK SMILES O=c1ccc2ccccc2o1
REMARK SMILES IDX 7 1 8 2 9 3 10 4 5 5 6 6 4 7 3 8 2 9 1 10 11 11
REMARK H PARENT
REMARK Flexibility Score: inf
ROOT
ATOM      1  C   UNL     1     -13.591 -27.359  -7.661  1.00  0.00     0.001 A 
ATOM      2  C   UNL     1     -13.534 -26.702  -8.895  1.00  0.00     0.004 A 
ATOM      3  C   UNL     1     -13.941 -27.359 -10.061  1.00  0.00     0.048 A 
ATOM      4  C   UNL     1     -14.405 -28.677  -9.996  1.00  0.00     0.138 A 
ATOM      5  C   UNL     1     -14.463 -29.340  -8.750  1.00  0.00     0.018 A 
ATOM      6  C   UNL     1     -14.054 -28.676  -7.584  1.00  0.00     0.012 A 
ATOM      7  C   UNL     1     -14.932 -30.657  -8.717  1.00  0.00     0.019 A 
ATOM      8  C   UNL     1     -15.326 -31.273  -9.904  1.00  0.00     0.094 A 
ATOM      9  C   UNL     1     -15.243 -30.554 -11.101  1.00  0.00     0.336 A 
ATOM     10  O   UNL     1     -15.594 -31.093 -12.183  1.00  0.00    -0.246 OA
ATOM     11  O   UNL     1     -14.792 -29.302 -11.106  1.00  0.00    -0.423 OA
ENDROOT
TORSDOF 0
ENDMDL
MODEL 6
REMARK VINA RESULT:    -5.429      1.995      3.500
REMARK INTER + INTRA:          -5.429
REMARK INTER:                  -5.429
REMARK INTRA:                   0.000
REMARK UNBOUND:                 0.000
REMARK SMILES O=c1ccc2ccccc2o1
REMARK SMILES IDX 7 1 8 2 9 3 10 4 5 5 6 6 4 7 3 8 2 9 1 10 11 11
REMARK H PARENT
REMARK Flexibility Score: inf
ROOT
ATOM      1  C   UNL     1     -14.401 -26.245 -12.423  1.00  0.00     0.001 A 
ATOM      2  C   UNL     1     -13.788 -26.270 -11.165  1.00  0.00     0.004 A 
ATOM      3  C   UNL     1     -13.838 -27.427 -10.381  1.00  0.00     0.048 A 
ATOM      4  C   UNL     1     -14.503 -28.564 -10.853  1.00  0.00     0.138 A 
ATOM      5  C   UNL     1     -15.121 -28.540 -12.123  1.00  0.00     0.018 A 
ATOM      6  C   UNL     1     -15.068 -27.376 -12.904  1.00  0.00     0.012 A 
ATOM      7  C   UNL     1     -15.778 -29.691 -12.567  1.00  0.00     0.019 A 
ATOM      8  C   UNL     1     -15.803 -30.822 -11.751  1.00  0.00     0.094 A 
ATOM      9  C   UNL     1     -15.168 -30.774 -10.506  1.00  0.00     0.336 A 
ATOM     10  O   UNL     1     -15.180 -31.785  -9.755  1.00  0.00    -0.246 OA
ATOM     11  O   UNL     1     -14.551 -29.665 -10.106  1.00  0.00    -0.423 OA
ENDROOT
TORSDOF 0
ENDMDL
MODEL 7
REMARK VINA RESULT:    -5.366      2.146      4.033
REMARK INTER + INTRA:          -5.366
REMARK INTER:                  -5.366
REMARK INTRA:                   0.000
REMARK UNBOUND:                 0.000
REMARK SMILES O=c1ccc2ccccc2o1
REMARK SMILES IDX 7 1 8 2 9 3 10 4 5 5 6 6 4 7 3 8 2 9 1 10 11 11
REMARK H PARENT
REMARK Flexibility Score: inf
ROOT
ATOM      1  C   UNL     1     -14.813 -32.254 -10.121  1.00  0.00     0.001 A 
ATOM      2  C   UNL     1     -14.908 -31.656 -11.382  1.00  0.00     0.004 A 
ATOM      3  C   UNL     1     -14.818 -30.265 -11.510  1.00  0.00     0.048 A 
ATOM      4  C   UNL     1     -14.633 -29.468 -10.375  1.00  0.00     0.138 A 
ATOM      5  C   UNL     1     -14.536 -30.072  -9.101  1.00  0.00     0.018 A 
ATOM      6  C   UNL     1     -14.628 -31.466  -8.980  1.00  0.00     0.012 A 
ATOM      7  C   UNL     1     -14.352 -29.250  -7.986  1.00  0.00     0.019 A 
ATOM      8  C   UNL     1     -14.268 -27.868  -8.161  1.00  0.00     0.094 A 
ATOM      9  C   UNL     1     -14.371 -27.341  -9.453  1.00  0.00     0.336 A 
ATOM     10  O   UNL     1     -14.298 -26.097  -9.630  1.00  0.00    -0.246 OA
ATOM     11  O   UNL     1     -14.548 -28.146 -10.498  1.00  0.00    -0.423 OA
ENDROOT
TORSDOF 0
ENDMDL
MODEL 8
REMARK VINA RESULT:    -5.339      1.641      3.818
REMARK INTER + INTRA:          -5.339
REMARK INTER:                  -5.339
REMARK INTRA:                   0.000
REMARK UNBOUND:                 0.000
REMARK SMILES O=c1ccc2ccccc2o1
REMARK SMILES IDX 7 1 8 2 9 3 10 4 5 5 6 6 4 7 3 8 2 9 1 10 11 11
REMARK H PARENT
REMARK Flexibility Score: inf
ROOT
ATOM      1  C   UNL     1     -14.404 -27.534 -12.743  1.00  0.00     0.001 A 
ATOM      2  C   UNL     1     -14.366 -28.907 -12.475  1.00  0.00     0.004 A 
ATOM      3  C   UNL     1     -14.339 -29.365 -11.154  1.00  0.00     0.048 A 
ATOM      4  C   UNL     1     -14.349 -28.451 -10.095  1.00  0.00     0.138 A 
ATOM      5  C   UNL     1     -14.388 -27.065 -10.365  1.00  0.00     0.018 A 
ATOM      6  C   UNL     1     -14.414 -26.612 -11.692  1.00  0.00     0.012 A 
ATOM      7  C   UNL     1     -14.397 -26.175  -9.287  1.00  0.00     0.019 A 
ATOM      8  C   UNL     1     -14.368 -26.677  -7.986  1.00  0.00     0.094 A 
ATOM      9  C   UNL     1     -14.332 -28.063  -7.794  1.00  0.00     0.336 A 
ATOM     10  O   UNL     1     -14.306 -28.535  -6.627  1.00  0.00    -0.246 OA
ATOM     11  O   UNL     1     -14.323 -28.888  -8.838  1.00  0.00    -0.423 OA
ENDROOT
TORSDOF 0
ENDMDL
MODEL 9
REMARK VINA RESULT:    -5.291      2.220      3.590
REMARK INTER + INTRA:          -5.291
REMARK INTER:                  -5.291
REMARK INTRA:                   0.000
REMARK UNBOUND:                 0.000
REMARK SMILES O=c1ccc2ccccc2o1
REMARK SMILES IDX 7 1 8 2 9 3 10 4 5 5 6 6 4 7 3 8 2 9 1 10 11 11
REMARK H PARENT
REMARK Flexibility Score: inf
ROOT
ATOM      1  C   UNL     1     -15.190 -31.130 -11.007  1.00  0.00     0.001 A 
ATOM      2  C   UNL     1     -15.172 -31.428  -9.640  1.00  0.00     0.004 A 
ATOM      3  C   UNL     1     -14.828 -30.442  -8.709  1.00  0.00     0.048 A 
ATOM      4  C   UNL     1     -14.500 -29.153  -9.143  1.00  0.00     0.138 A 
ATOM      5  C   UNL     1     -14.519 -28.851 -10.524  1.00  0.00     0.018 A 
ATOM      6  C   UNL     1     -14.864 -29.844 -11.452  1.00  0.00     0.012 A 
ATOM      7  C   UNL     1     -14.187 -27.554 -10.927  1.00  0.00     0.019 A 
ATOM      8  C   UNL     1     -13.850 -26.604  -9.963  1.00  0.00     0.094 A 
ATOM      9  C   UNL     1     -13.853 -26.974  -8.614  1.00  0.00     0.336 A 
ATOM     10  O   UNL     1     -13.551 -26.130  -7.731  1.00  0.00    -0.246 OA
ATOM     11  O   UNL     1     -14.172 -28.216  -8.257  1.00  0.00    -0.423 OA
ENDROOT
TORSDOF 0
ENDMDL
