MODEL 1
REMARK VINA RESULT:    -6.862      0.000      0.000
REMARK INTER + INTRA:         -10.658
REMARK INTER:                  -9.871
REMARK INTRA:                  -0.787
REMARK UNBOUND:                -0.787
REMARK SMILES O=c1cc(-c2ccc(O)c(O)c2)oc2cc(O[C@@H]3O[C@@H](CO)[C@@H](O)[C@@H](O)[C@@H]3O)cc(O)c12
REMARK SMILES IDX 17 1 16 2 4 3 3 4 13 5 2 6 14 7 1 8 32 9 15 10 30 11 29 12
REMARK SMILES IDX 5 13 6 14 7 15 8 16 12 17 10 18 9 19 11 21 31 23 18 25 27 26
REMARK SMILES IDX 19 27 25 28 20 29 23 30 28 31 26 33 21 35 22 36 24 38
REMARK H PARENT 9 20 11 22 31 24 28 32 26 34 22 37 24 39
REMARK Flexibility Score: inf
ROOT
ATOM      1  O   UNL     1      22.047   2.557  43.310  1.00  0.00    -0.462 OA
ENDROOT
BRANCH   1   2
ATOM      2  C   UNL     1      21.256   1.488  43.765  1.00  0.00     0.130 A 
ATOM      3  C   UNL     1      20.769  -2.974  45.397  1.00  0.00     0.138 A 
ATOM      4  C   UNL     1      19.372  -2.855  45.482  1.00  0.00     0.100 A 
ATOM      5  O   UNL     1      21.487  -1.942  44.958  1.00  0.00    -0.456 OA
ATOM      6  C   UNL     1      18.762  -1.655  45.119  1.00  0.00     0.197 A 
ATOM      7  C   UNL     1      20.952  -0.779  44.600  1.00  0.00     0.146 A 
ATOM      8  O   UNL     1      17.507  -1.557  45.198  1.00  0.00    -0.289 OA
ATOM      9  C   UNL     1      19.554  -0.579  44.669  1.00  0.00     0.107 A 
ATOM     10  C   UNL     1      21.792   0.247  44.155  1.00  0.00     0.094 A 
ATOM     11  C   UNL     1      19.017   0.669  44.283  1.00  0.00     0.134 A 
ATOM     12  C   UNL     1      19.874   1.687  43.838  1.00  0.00     0.093 A 
BRANCH   3  13
ATOM     13  C   UNL     1      21.473  -4.227  45.768  1.00  0.00     0.021 A 
ATOM     14  C   UNL     1      22.353  -4.285  46.865  1.00  0.00     0.016 A 
ATOM     15  C   UNL     1      23.010  -5.476  47.185  1.00  0.00     0.051 A 
ATOM     16  C   UNL     1      22.808  -6.625  46.412  1.00  0.00     0.157 A 
ATOM     17  C   UNL     1      21.286  -5.383  44.988  1.00  0.00     0.062 A 
ATOM     18  C   UNL     1      21.943  -6.577  45.307  1.00  0.00     0.158 A 
BRANCH  16  19
ATOM     19  O   UNL     1      23.464  -7.812  46.734  1.00  0.00    -0.504 OA
ATOM     20  H   UNL     1      23.288  -8.295  47.608  1.00  0.00     0.293 HD
ENDBRANCH  16  19
BRANCH  18  21
ATOM     21  O   UNL     1      21.722  -7.703  44.514  1.00  0.00    -0.504 OA
ATOM     22  H   UNL     1      22.359  -8.491  44.509  1.00  0.00     0.293 HD
ENDBRANCH  18  21
ENDBRANCH   3  13
BRANCH  11  23
ATOM     23  O   UNL     1      17.644   0.907  44.338  1.00  0.00    -0.507 OA
ATOM     24  H   UNL     1      16.974   0.252  43.952  1.00  0.00     0.293 HD
ENDBRANCH  11  23
ENDBRANCH   1   2
BRANCH   1  25
ATOM     25  C   UNL     1      21.912   3.257  42.063  1.00  0.00     0.339 C 
ATOM     26  C   UNL     1      22.822   4.507  42.001  1.00  0.00     0.214 C 
ATOM     27  O   UNL     1      22.181   2.379  40.979  1.00  0.00    -0.332 OA
ATOM     28  C   UNL     1      24.305   4.095  41.954  1.00  0.00     0.180 C 
ATOM     29  C   UNL     1      23.510   1.880  41.025  1.00  0.00     0.179 C 
ATOM     30  C   UNL     1      24.543   3.024  40.869  1.00  0.00     0.177 C 
BRANCH  26  31
ATOM     31  O   UNL     1      22.589   5.330  43.114  1.00  0.00    -0.384 OA
ATOM     32  H   UNL     1      22.280   4.740  43.851  1.00  0.00     0.211 HD
ENDBRANCH  26  31
BRANCH  28  33
ATOM     33  O   UNL     1      25.100   5.226  41.705  1.00  0.00    -0.387 OA
ATOM     34  H   UNL     1      25.509   5.483  42.572  1.00  0.00     0.211 HD
ENDBRANCH  28  33
BRANCH  29  35
ATOM     35  C   UNL     1      23.688   0.790  39.956  1.00  0.00     0.191 C 
BRANCH  35  36
ATOM     36  O   UNL     1      24.063  -0.437  40.525  1.00  0.00    -0.394 OA
ATOM     37  H   UNL     1      24.362  -0.243  41.452  1.00  0.00     0.210 HD
ENDBRANCH  35  36
ENDBRANCH  29  35
BRANCH  30  38
ATOM     38  O   UNL     1      24.523   3.592  39.580  1.00  0.00    -0.387 OA
ATOM     39  H   UNL     1      24.719   2.875  38.922  1.00  0.00     0.211 HD
ENDBRANCH  30  38
ENDBRANCH   1  25
TORSDOF 11
ENDMDL
MODEL 2
REMARK VINA RESULT:    -6.808      6.938     12.267
REMARK INTER + INTRA:         -10.580
REMARK INTER:                  -9.573
REMARK INTRA:                  -1.008
REMARK UNBOUND:                -0.787
REMARK SMILES O=c1cc(-c2ccc(O)c(O)c2)oc2cc(O[C@@H]3O[C@@H](CO)[C@@H](O)[C@@H](O)[C@@H]3O)cc(O)c12
REMARK SMILES IDX 17 1 16 2 4 3 3 4 13 5 2 6 14 7 1 8 32 9 15 10 30 11 29 12
REMARK SMILES IDX 5 13 6 14 7 15 8 16 12 17 10 18 9 19 11 21 31 23 18 25 27 26
REMARK SMILES IDX 19 27 25 28 20 29 23 30 28 31 26 33 21 35 22 36 24 38
REMARK H PARENT 9 20 11 22 31 24 28 32 26 34 22 37 24 39
REMARK Flexibility Score: inf
ROOT
ATOM      1  O   UNL     1      26.878   3.855  42.148  1.00  0.00    -0.462 OA
ENDROOT
BRANCH   1   2
ATOM      2  C   UNL     1      28.093   4.287  42.708  1.00  0.00     0.130 A 
ATOM      3  C   UNL     1      32.703   5.472  42.325  1.00  0.00     0.138 A 
ATOM      4  C   UNL     1      32.809   5.747  43.698  1.00  0.00     0.100 A 
ATOM      5  O   UNL     1      31.539   5.061  41.829  1.00  0.00    -0.456 OA
ATOM      6  C   UNL     1      31.690   5.597  44.517  1.00  0.00     0.197 A 
ATOM      7  C   UNL     1      30.445   4.902  42.567  1.00  0.00     0.146 A 
ATOM      8  O   UNL     1      31.795   5.845  45.749  1.00  0.00    -0.289 OA
ATOM      9  C   UNL     1      30.469   5.169  43.956  1.00  0.00     0.107 A 
ATOM     10  C   UNL     1      29.266   4.469  41.953  1.00  0.00     0.094 A 
ATOM     11  C   UNL     1      29.290   4.993  44.712  1.00  0.00     0.134 A 
ATOM     12  C   UNL     1      28.117   4.557  44.080  1.00  0.00     0.093 A 
BRANCH   3  13
ATOM     13  C   UNL     1      33.860   5.612  41.406  1.00  0.00     0.021 A 
ATOM     14  C   UNL     1      34.409   6.870  41.092  1.00  0.00     0.016 A 
ATOM     15  C   UNL     1      35.492   6.972  40.215  1.00  0.00     0.051 A 
ATOM     16  C   UNL     1      36.041   5.824  39.631  1.00  0.00     0.157 A 
ATOM     17  C   UNL     1      34.409   4.465  40.804  1.00  0.00     0.062 A 
ATOM     18  C   UNL     1      35.495   4.564  39.926  1.00  0.00     0.158 A 
BRANCH  16  19
ATOM     19  O   UNL     1      37.123   5.930  38.758  1.00  0.00    -0.504 OA
ATOM     20  H   UNL     1      37.000   5.886  37.753  1.00  0.00     0.293 HD
ENDBRANCH  16  19
BRANCH  18  21
ATOM     21  O   UNL     1      36.015   3.402  39.359  1.00  0.00    -0.504 OA
ATOM     22  H   UNL     1      35.739   2.479  39.674  1.00  0.00     0.293 HD
ENDBRANCH  18  21
ENDBRANCH   3  13
BRANCH  11  23
ATOM     23  O   UNL     1      29.272   5.248  46.083  1.00  0.00    -0.507 OA
ATOM     24  H   UNL     1      28.529   5.783  46.517  1.00  0.00     0.293 HD
ENDBRANCH  11  23
ENDBRANCH   1   2
BRANCH   1  25
ATOM     25  C   UNL     1      25.967   4.637  41.362  1.00  0.00     0.339 C 
ATOM     26  C   UNL     1      25.479   3.870  40.110  1.00  0.00     0.214 C 
ATOM     27  O   UNL     1      24.869   5.057  42.160  1.00  0.00    -0.332 OA
ATOM     28  C   UNL     1      24.581   2.686  40.516  1.00  0.00     0.180 C 
ATOM     29  C   UNL     1      24.130   3.951  42.659  1.00  0.00     0.179 C 
ATOM     30  C   UNL     1      23.489   3.139  41.507  1.00  0.00     0.177 C 
BRANCH  26  31
ATOM     31  O   UNL     1      26.577   3.406  39.369  1.00  0.00    -0.384 OA
ATOM     32  H   UNL     1      27.093   2.802  39.963  1.00  0.00     0.211 HD
ENDBRANCH  26  31
BRANCH  28  33
ATOM     33  O   UNL     1      23.997   2.123  39.370  1.00  0.00    -0.387 OA
ATOM     34  H   UNL     1      24.132   2.773  38.632  1.00  0.00     0.211 HD
ENDBRANCH  28  33
BRANCH  29  35
ATOM     35  C   UNL     1      23.083   4.447  43.671  1.00  0.00     0.191 C 
BRANCH  35  36
ATOM     36  O   UNL     1      21.967   3.598  43.718  1.00  0.00    -0.394 OA
ATOM     37  H   UNL     1      21.656   3.482  42.782  1.00  0.00     0.210 HD
ENDBRANCH  35  36
ENDBRANCH  29  35
BRANCH  30  38
ATOM     38  O   UNL     1      22.470   3.857  40.848  1.00  0.00    -0.387 OA
ATOM     39  H   UNL     1      22.820   4.757  40.625  1.00  0.00     0.211 HD
ENDBRANCH  30  38
ENDBRANCH   1  25
TORSDOF 11
ENDMDL
MODEL 3
REMARK VINA RESULT:    -6.717      6.771     10.896
REMARK INTER + INTRA:         -10.449
REMARK INTER:                  -9.446
REMARK INTRA:                  -1.003
REMARK UNBOUND:                -0.787
REMARK SMILES O=c1cc(-c2ccc(O)c(O)c2)oc2cc(O[C@@H]3O[C@@H](CO)[C@@H](O)[C@@H](O)[C@@H]3O)cc(O)c12
REMARK SMILES IDX 17 1 16 2 4 3 3 4 13 5 2 6 14 7 1 8 32 9 15 10 30 11 29 12
REMARK SMILES IDX 5 13 6 14 7 15 8 16 12 17 10 18 9 19 11 21 31 23 18 25 27 26
REMARK SMILES IDX 19 27 25 28 20 29 23 30 28 31 26 33 21 35 22 36 24 38
REMARK H PARENT 9 20 11 22 31 24 28 32 26 34 22 37 24 39
REMARK Flexibility Score: inf
ROOT
ATOM      1  O   UNL     1      32.173   5.679  41.929  1.00  0.00    -0.462 OA
ENDROOT
BRANCH   1   2
ATOM      2  C   UNL     1      30.950   5.331  42.527  1.00  0.00     0.130 A 
ATOM      3  C   UNL     1      26.420   3.842  42.257  1.00  0.00     0.138 A 
ATOM      4  C   UNL     1      26.253   3.904  43.650  1.00  0.00     0.100 A 
ATOM      5  O   UNL     1      27.591   4.183  41.723  1.00  0.00    -0.456 OA
ATOM      6  C   UNL     1      27.320   4.307  44.452  1.00  0.00     0.197 A 
ATOM      7  C   UNL     1      28.636   4.575  42.445  1.00  0.00     0.146 A 
ATOM      8  O   UNL     1      27.160   4.360  45.702  1.00  0.00    -0.289 OA
ATOM      9  C   UNL     1      28.549   4.651  43.854  1.00  0.00     0.107 A 
ATOM     10  C   UNL     1      29.827   4.909  41.791  1.00  0.00     0.094 A 
ATOM     11  C   UNL     1      29.679   5.069  44.592  1.00  0.00     0.134 A 
ATOM     12  C   UNL     1      30.864   5.401  43.921  1.00  0.00     0.093 A 
BRANCH   3  13
ATOM     13  C   UNL     1      25.320   3.422  41.353  1.00  0.00     0.021 A 
ATOM     14  C   UNL     1      25.529   3.221  39.975  1.00  0.00     0.016 A 
ATOM     15  C   UNL     1      24.472   2.836  39.146  1.00  0.00     0.051 A 
ATOM     16  C   UNL     1      23.189   2.651  39.675  1.00  0.00     0.157 A 
ATOM     17  C   UNL     1      24.024   3.248  41.873  1.00  0.00     0.062 A 
ATOM     18  C   UNL     1      22.964   2.861  41.045  1.00  0.00     0.158 A 
BRANCH  16  19
ATOM     19  O   UNL     1      22.137   2.265  38.845  1.00  0.00    -0.504 OA
ATOM     20  H   UNL     1      21.558   1.462  39.062  1.00  0.00     0.293 HD
ENDBRANCH  16  19
BRANCH  18  21
ATOM     21  O   UNL     1      21.698   2.690  41.602  1.00  0.00    -0.504 OA
ATOM     22  H   UNL     1      21.473   1.900  42.196  1.00  0.00     0.293 HD
ENDBRANCH  18  21
ENDBRANCH   3  13
BRANCH  11  23
ATOM     23  O   UNL     1      29.634   5.155  45.984  1.00  0.00    -0.507 OA
ATOM     24  H   UNL     1      28.957   5.739  46.460  1.00  0.00     0.293 HD
ENDBRANCH  11  23
ENDBRANCH   1   2
BRANCH   1  25
ATOM     25  C   UNL     1      32.453   5.750  40.522  1.00  0.00     0.339 C 
ATOM     26  C   UNL     1      32.878   7.173  40.089  1.00  0.00     0.214 C 
ATOM     27  O   UNL     1      33.446   4.796  40.173  1.00  0.00    -0.332 OA
ATOM     28  C   UNL     1      34.252   7.534  40.685  1.00  0.00     0.180 C 
ATOM     29  C   UNL     1      34.672   5.045  40.846  1.00  0.00     0.179 C 
ATOM     30  C   UNL     1      35.275   6.408  40.427  1.00  0.00     0.177 C 
BRANCH  26  31
ATOM     31  O   UNL     1      31.917   8.110  40.500  1.00  0.00    -0.384 OA
ATOM     32  H   UNL     1      32.194   8.990  40.132  1.00  0.00     0.211 HD
ENDBRANCH  26  31
BRANCH  28  33
ATOM     33  O   UNL     1      34.704   8.741  40.130  1.00  0.00    -0.387 OA
ATOM     34  H   UNL     1      34.530   9.449  40.804  1.00  0.00     0.211 HD
ENDBRANCH  28  33
BRANCH  29  35
ATOM     35  C   UNL     1      35.644   3.880  40.592  1.00  0.00     0.191 C 
BRANCH  35  36
ATOM     36  O   UNL     1      35.677   3.520  39.236  1.00  0.00    -0.394 OA
ATOM     37  H   UNL     1      34.922   2.894  39.087  1.00  0.00     0.210 HD
ENDBRANCH  35  36
ENDBRANCH  29  35
BRANCH  30  38
ATOM     38  O   UNL     1      35.709   6.413  39.086  1.00  0.00    -0.387 OA
ATOM     39  H   UNL     1      36.622   6.797  39.057  1.00  0.00     0.211 HD
ENDBRANCH  30  38
ENDBRANCH   1  25
TORSDOF 11
ENDMDL
MODEL 4
REMARK VINA RESULT:    -6.484      5.180      9.385
REMARK INTER + INTRA:         -10.114
REMARK INTER:                  -9.137
REMARK INTRA:                  -0.977
REMARK UNBOUND:                -0.787
REMARK SMILES O=c1cc(-c2ccc(O)c(O)c2)oc2cc(O[C@@H]3O[C@@H](CO)[C@@H](O)[C@@H](O)[C@@H]3O)cc(O)c12
REMARK SMILES IDX 17 1 16 2 4 3 3 4 13 5 2 6 14 7 1 8 32 9 15 10 30 11 29 12
REMARK SMILES IDX 5 13 6 14 7 15 8 16 12 17 10 18 9 19 11 21 31 23 18 25 27 26
REMARK SMILES IDX 19 27 25 28 20 29 23 30 28 31 26 33 21 35 22 36 24 38
REMARK H PARENT 9 20 11 22 31 24 28 32 26 34 22 37 24 39
REMARK Flexibility Score: inf
ROOT
ATOM      1  O   UNL     1      28.745   4.879  45.086  1.00  0.00    -0.462 OA
ENDROOT
BRANCH   1   2
ATOM      2  C   UNL     1      27.958   4.521  43.978  1.00  0.00     0.130 A 
ATOM      3  C   UNL     1      23.766   3.364  42.005  1.00  0.00     0.138 A 
ATOM      4  C   UNL     1      24.337   3.223  40.729  1.00  0.00     0.100 A 
ATOM      5  O   UNL     1      24.541   3.701  43.033  1.00  0.00    -0.456 OA
ATOM      6  C   UNL     1      25.702   3.450  40.559  1.00  0.00     0.197 A 
ATOM      7  C   UNL     1      25.846   3.927  42.922  1.00  0.00     0.146 A 
ATOM      8  O   UNL     1      26.206   3.320  39.410  1.00  0.00    -0.289 OA
ATOM      9  C   UNL     1      26.491   3.815  41.669  1.00  0.00     0.107 A 
ATOM     10  C   UNL     1      26.575   4.279  44.062  1.00  0.00     0.094 A 
ATOM     11  C   UNL     1      27.879   4.064  41.583  1.00  0.00     0.134 A 
ATOM     12  C   UNL     1      28.594   4.416  42.737  1.00  0.00     0.093 A 
BRANCH   3  13
ATOM     13  C   UNL     1      22.320   3.133  42.247  1.00  0.00     0.021 A 
ATOM     14  C   UNL     1      21.330   3.725  41.438  1.00  0.00     0.016 A 
ATOM     15  C   UNL     1      19.976   3.497  41.696  1.00  0.00     0.051 A 
ATOM     16  C   UNL     1      19.586   2.684  42.767  1.00  0.00     0.157 A 
ATOM     17  C   UNL     1      21.919   2.329  43.329  1.00  0.00     0.062 A 
ATOM     18  C   UNL     1      20.563   2.099  43.589  1.00  0.00     0.158 A 
BRANCH  16  19
ATOM     19  O   UNL     1      18.233   2.459  43.020  1.00  0.00    -0.504 OA
ATOM     20  H   UNL     1      17.716   3.023  43.684  1.00  0.00     0.293 HD
ENDBRANCH  16  19
BRANCH  18  21
ATOM     21  O   UNL     1      20.208   1.288  44.665  1.00  0.00    -0.504 OA
ATOM     22  H   UNL     1      19.478   1.549  45.318  1.00  0.00     0.293 HD
ENDBRANCH  18  21
ENDBRANCH   3  13
BRANCH  11  23
ATOM     23  O   UNL     1      28.551   3.967  40.365  1.00  0.00    -0.507 OA
ATOM     24  H   UNL     1      28.988   3.103  40.065  1.00  0.00     0.293 HD
ENDBRANCH  11  23
ENDBRANCH   1   2
BRANCH   1  25
ATOM     25  C   UNL     1      29.112   6.209  45.487  1.00  0.00     0.339 C 
ATOM     26  C   UNL     1      29.388   6.298  47.007  1.00  0.00     0.214 C 
ATOM     27  O   UNL     1      30.237   6.651  44.740  1.00  0.00    -0.332 OA
ATOM     28  C   UNL     1      30.662   5.514  47.373  1.00  0.00     0.180 C 
ATOM     29  C   UNL     1      31.372   5.828  44.966  1.00  0.00     0.179 C 
ATOM     30  C   UNL     1      31.832   5.900  46.443  1.00  0.00     0.177 C 
BRANCH  26  31
ATOM     31  O   UNL     1      28.293   5.796  47.727  1.00  0.00    -0.384 OA
ATOM     32  H   UNL     1      28.438   4.819  47.832  1.00  0.00     0.211 HD
ENDBRANCH  26  31
BRANCH  28  33
ATOM     33  O   UNL     1      31.001   5.764  48.712  1.00  0.00    -0.387 OA
ATOM     34  H   UNL     1      31.599   5.025  48.998  1.00  0.00     0.211 HD
ENDBRANCH  28  33
BRANCH  29  35
ATOM     35  C   UNL     1      32.495   6.223  43.991  1.00  0.00     0.191 C 
BRANCH  35  36
ATOM     36  O   UNL     1      33.764   6.042  44.563  1.00  0.00    -0.394 OA
ATOM     37  H   UNL     1      33.753   5.156  45.010  1.00  0.00     0.210 HD
ENDBRANCH  35  36
ENDBRANCH  29  35
BRANCH  30  38
ATOM     38  O   UNL     1      32.354   7.164  46.781  1.00  0.00    -0.387 OA
ATOM     39  H   UNL     1      31.603   7.743  47.071  1.00  0.00     0.211 HD
ENDBRANCH  30  38
ENDBRANCH   1  25
TORSDOF 11
ENDMDL
MODEL 5
REMARK VINA RESULT:    -6.445      1.607      9.083
REMARK INTER + INTRA:         -10.057
REMARK INTER:                  -9.069
REMARK INTRA:                  -0.989
REMARK UNBOUND:                -0.787
REMARK SMILES O=c1cc(-c2ccc(O)c(O)c2)oc2cc(O[C@@H]3O[C@@H](CO)[C@@H](O)[C@@H](O)[C@@H]3O)cc(O)c12
REMARK SMILES IDX 17 1 16 2 4 3 3 4 13 5 2 6 14 7 1 8 32 9 15 10 30 11 29 12
REMARK SMILES IDX 5 13 6 14 7 15 8 16 12 17 10 18 9 19 11 21 31 23 18 25 27 26
REMARK SMILES IDX 19 27 25 28 20 29 23 30 28 31 26 33 21 35 22 36 24 38
REMARK H PARENT 9 20 11 22 31 24 28 32 26 34 22 37 24 39
REMARK Flexibility Score: inf
ROOT
ATOM      1  O   UNL     1      21.637  -4.075  46.554  1.00  0.00    -0.462 OA
ENDROOT
BRANCH   1   2
ATOM      2  C   UNL     1      20.901  -3.048  45.938  1.00  0.00     0.130 A 
ATOM      3  C   UNL     1      20.644   1.105  43.593  1.00  0.00     0.138 A 
ATOM      4  C   UNL     1      19.241   1.061  43.547  1.00  0.00     0.100 A 
ATOM      5  O   UNL     1      21.309   0.117  44.188  1.00  0.00    -0.456 OA
ATOM      6  C   UNL     1      18.568  -0.022  44.113  1.00  0.00     0.197 A 
ATOM      7  C   UNL     1      20.714  -0.935  44.742  1.00  0.00     0.146 A 
ATOM      8  O   UNL     1      17.309  -0.052  44.068  1.00  0.00    -0.289 OA
ATOM      9  C   UNL     1      19.305  -1.056  44.725  1.00  0.00     0.107 A 
ATOM     10  C   UNL     1      21.501  -1.924  45.340  1.00  0.00     0.094 A 
ATOM     11  C   UNL     1      18.704  -2.187  45.321  1.00  0.00     0.134 A 
ATOM     12  C   UNL     1      19.508  -3.169  45.917  1.00  0.00     0.093 A 
BRANCH   3  13
ATOM     13  C   UNL     1      21.413   2.232  43.010  1.00  0.00     0.021 A 
ATOM     14  C   UNL     1      20.870   3.528  42.916  1.00  0.00     0.016 A 
ATOM     15  C   UNL     1      21.614   4.569  42.353  1.00  0.00     0.051 A 
ATOM     16  C   UNL     1      22.906   4.333  41.868  1.00  0.00     0.157 A 
ATOM     17  C   UNL     1      22.706   2.002  42.508  1.00  0.00     0.062 A 
ATOM     18  C   UNL     1      23.453   3.042  41.943  1.00  0.00     0.158 A 
BRANCH  16  19
ATOM     19  O   UNL     1      23.645   5.375  41.308  1.00  0.00    -0.504 OA
ATOM     20  H   UNL     1      23.199   6.217  40.964  1.00  0.00     0.293 HD
ENDBRANCH  16  19
BRANCH  18  21
ATOM     21  O   UNL     1      24.735   2.774  41.466  1.00  0.00    -0.504 OA
ATOM     22  H   UNL     1      25.414   3.508  41.305  1.00  0.00     0.293 HD
ENDBRANCH  18  21
ENDBRANCH   3  13
BRANCH  11  23
ATOM     23  O   UNL     1      17.318  -2.344  45.324  1.00  0.00    -0.507 OA
ATOM     24  H   UNL     1      16.825  -2.715  46.128  1.00  0.00     0.293 HD
ENDBRANCH  11  23
ENDBRANCH   1   2
BRANCH   1  25
ATOM     25  C   UNL     1      21.161  -5.385  46.901  1.00  0.00     0.339 C 
ATOM     26  C   UNL     1      21.678  -6.465  45.920  1.00  0.00     0.214 C 
ATOM     27  O   UNL     1      21.523  -5.699  48.238  1.00  0.00    -0.332 OA
ATOM     28  C   UNL     1      23.200  -6.650  46.073  1.00  0.00     0.180 C 
ATOM     29  C   UNL     1      22.932  -5.719  48.409  1.00  0.00     0.179 C 
ATOM     30  C   UNL     1      23.585  -6.834  47.555  1.00  0.00     0.177 C 
BRANCH  26  31
ATOM     31  O   UNL     1      21.370  -6.105  44.599  1.00  0.00    -0.384 OA
ATOM     32  H   UNL     1      20.794  -6.824  44.229  1.00  0.00     0.211 HD
ENDBRANCH  26  31
BRANCH  28  33
ATOM     33  O   UNL     1      23.617  -7.759  45.319  1.00  0.00    -0.387 OA
ATOM     34  H   UNL     1      24.062  -8.382  45.950  1.00  0.00     0.211 HD
ENDBRANCH  28  33
BRANCH  29  35
ATOM     35  C   UNL     1      23.267  -5.863  49.903  1.00  0.00     0.191 C 
BRANCH  35  36
ATOM     36  O   UNL     1      22.371  -6.726  50.553  1.00  0.00    -0.394 OA
ATOM     37  H   UNL     1      21.519  -6.689  50.045  1.00  0.00     0.210 HD
ENDBRANCH  35  36
ENDBRANCH  29  35
BRANCH  30  38
ATOM     38  O   UNL     1      23.249  -8.124  48.012  1.00  0.00    -0.387 OA
ATOM     39  H   UNL     1      23.301  -8.749  47.243  1.00  0.00     0.211 HD
ENDBRANCH  30  38
ENDBRANCH   1  25
TORSDOF 11
ENDMDL
MODEL 6
REMARK VINA RESULT:    -6.347      1.558      2.154
REMARK INTER + INTRA:          -9.917
REMARK INTER:                  -8.887
REMARK INTRA:                  -1.030
REMARK UNBOUND:                -0.787
REMARK SMILES O=c1cc(-c2ccc(O)c(O)c2)oc2cc(O[C@@H]3O[C@@H](CO)[C@@H](O)[C@@H](O)[C@@H]3O)cc(O)c12
REMARK SMILES IDX 17 1 16 2 4 3 3 4 13 5 2 6 14 7 1 8 32 9 15 10 30 11 29 12
REMARK SMILES IDX 5 13 6 14 7 15 8 16 12 17 10 18 9 19 11 21 31 23 18 25 27 26
REMARK SMILES IDX 19 27 25 28 20 29 23 30 28 31 26 33 21 35 22 36 24 38
REMARK H PARENT 9 20 11 22 31 24 28 32 26 34 22 37 24 39
REMARK Flexibility Score: inf
ROOT
ATOM      1  O   UNL     1      21.224   3.616  43.206  1.00  0.00    -0.462 OA
ENDROOT
BRANCH   1   2
ATOM      2  C   UNL     1      20.577   2.402  43.491  1.00  0.00     0.130 A 
ATOM      3  C   UNL     1      20.599  -2.077  45.148  1.00  0.00     0.138 A 
ATOM      4  C   UNL     1      19.234  -2.253  44.865  1.00  0.00     0.100 A 
ATOM      5  O   UNL     1      21.181  -0.915  44.861  1.00  0.00    -0.456 OA
ATOM      6  C   UNL     1      18.509  -1.203  44.302  1.00  0.00     0.197 A 
ATOM      7  C   UNL     1      20.533   0.114  44.324  1.00  0.00     0.146 A 
ATOM      8  O   UNL     1      17.285  -1.370  44.051  1.00  0.00    -0.289 OA
ATOM      9  C   UNL     1      19.156   0.018  44.022  1.00  0.00     0.107 A 
ATOM     10  C   UNL     1      21.233   1.296  44.063  1.00  0.00     0.094 A 
ATOM     11  C   UNL     1      18.496   1.130  43.453  1.00  0.00     0.134 A 
ATOM     12  C   UNL     1      19.213   2.308  43.197  1.00  0.00     0.093 A 
BRANCH   3  13
ATOM     13  C   UNL     1      21.422  -3.159  45.745  1.00  0.00     0.021 A 
ATOM     14  C   UNL     1      21.199  -4.515  45.436  1.00  0.00     0.016 A 
ATOM     15  C   UNL     1      21.983  -5.513  46.021  1.00  0.00     0.051 A 
ATOM     16  C   UNL     1      22.995  -5.177  46.928  1.00  0.00     0.157 A 
ATOM     17  C   UNL     1      22.432  -2.832  46.667  1.00  0.00     0.062 A 
ATOM     18  C   UNL     1      23.218  -3.830  47.254  1.00  0.00     0.158 A 
BRANCH  16  19
ATOM     19  O   UNL     1      23.776  -6.176  47.509  1.00  0.00    -0.504 OA
ATOM     20  H   UNL     1      23.650  -7.153  47.272  1.00  0.00     0.293 HD
ENDBRANCH  16  19
BRANCH  18  21
ATOM     21  O   UNL     1      24.216  -3.462  48.156  1.00  0.00    -0.504 OA
ATOM     22  H   UNL     1      24.333  -3.928  49.048  1.00  0.00     0.293 HD
ENDBRANCH  18  21
ENDBRANCH   3  13
BRANCH  11  23
ATOM     23  O   UNL     1      17.137   1.076  43.142  1.00  0.00    -0.507 OA
ATOM     24  H   UNL     1      16.810   0.779  42.230  1.00  0.00     0.293 HD
ENDBRANCH  11  23
ENDBRANCH   1   2
BRANCH   1  25
ATOM     25  C   UNL     1      21.343   4.246  41.921  1.00  0.00     0.339 C 
ATOM     26  C   UNL     1      21.688   5.750  42.044  1.00  0.00     0.214 C 
ATOM     27  O   UNL     1      22.309   3.567  41.131  1.00  0.00    -0.332 OA
ATOM     28  C   UNL     1      23.113   5.934  42.600  1.00  0.00     0.180 C 
ATOM     29  C   UNL     1      23.597   3.611  41.726  1.00  0.00     0.179 C 
ATOM     30  C   UNL     1      24.122   5.065  41.822  1.00  0.00     0.177 C 
BRANCH  26  31
ATOM     31  O   UNL     1      20.761   6.391  42.881  1.00  0.00    -0.384 OA
ATOM     32  H   UNL     1      20.212   6.984  42.305  1.00  0.00     0.211 HD
ENDBRANCH  26  31
BRANCH  28  33
ATOM     33  O   UNL     1      23.476   7.289  42.524  1.00  0.00    -0.387 OA
ATOM     34  H   UNL     1      23.699   7.472  41.575  1.00  0.00     0.211 HD
ENDBRANCH  28  33
BRANCH  29  35
ATOM     35  C   UNL     1      24.557   2.699  40.942  1.00  0.00     0.191 C 
BRANCH  35  36
ATOM     36  O   UNL     1      25.871   3.190  40.966  1.00  0.00    -0.394 OA
ATOM     37  H   UNL     1      25.818   4.161  40.762  1.00  0.00     0.210 HD
ENDBRANCH  35  36
ENDBRANCH  29  35
BRANCH  30  38
ATOM     38  O   UNL     1      24.402   5.618  40.556  1.00  0.00    -0.387 OA
ATOM     39  H   UNL     1      25.211   5.173  40.196  1.00  0.00     0.211 HD
ENDBRANCH  30  38
ENDBRANCH   1  25
TORSDOF 11
ENDMDL
MODEL 7
REMARK VINA RESULT:    -6.274      1.632      8.801
REMARK INTER + INTRA:          -9.812
REMARK INTER:                  -8.980
REMARK INTRA:                  -0.831
REMARK UNBOUND:                -0.787
REMARK SMILES O=c1cc(-c2ccc(O)c(O)c2)oc2cc(O[C@@H]3O[C@@H](CO)[C@@H](O)[C@@H](O)[C@@H]3O)cc(O)c12
REMARK SMILES IDX 17 1 16 2 4 3 3 4 13 5 2 6 14 7 1 8 32 9 15 10 30 11 29 12
REMARK SMILES IDX 5 13 6 14 7 15 8 16 12 17 10 18 9 19 11 21 31 23 18 25 27 26
REMARK SMILES IDX 19 27 25 28 20 29 23 30 28 31 26 33 21 35 22 36 24 38
REMARK H PARENT 9 20 11 22 31 24 28 32 26 34 22 37 24 39
REMARK Flexibility Score: inf
ROOT
ATOM      1  O   UNL     1      21.381  -4.092  46.901  1.00  0.00    -0.462 OA
ENDROOT
BRANCH   1   2
ATOM      2  C   UNL     1      20.697  -3.095  46.184  1.00  0.00     0.130 A 
ATOM      3  C   UNL     1      20.632   0.920  43.599  1.00  0.00     0.138 A 
ATOM      4  C   UNL     1      19.234   0.886  43.470  1.00  0.00     0.100 A 
ATOM      5  O   UNL     1      21.248  -0.038  44.288  1.00  0.00    -0.456 OA
ATOM      6  C   UNL     1      18.516  -0.158  44.052  1.00  0.00     0.197 A 
ATOM      7  C   UNL     1      20.608  -1.052  44.862  1.00  0.00     0.146 A 
ATOM      8  O   UNL     1      17.261  -0.180  43.931  1.00  0.00    -0.289 OA
ATOM      9  C   UNL     1      19.202  -1.162  44.766  1.00  0.00     0.107 A 
ATOM     10  C   UNL     1      21.345  -2.012  45.562  1.00  0.00     0.094 A 
ATOM     11  C   UNL     1      18.552  -2.252  45.385  1.00  0.00     0.134 A 
ATOM     12  C   UNL     1      19.306  -3.206  46.084  1.00  0.00     0.093 A 
BRANCH   3  13
ATOM     13  C   UNL     1      21.449   2.007  43.003  1.00  0.00     0.021 A 
ATOM     14  C   UNL     1      20.990   3.337  42.955  1.00  0.00     0.016 A 
ATOM     15  C   UNL     1      21.776   4.337  42.378  1.00  0.00     0.051 A 
ATOM     16  C   UNL     1      23.028   4.028  41.832  1.00  0.00     0.157 A 
ATOM     17  C   UNL     1      22.702   1.702  42.441  1.00  0.00     0.062 A 
ATOM     18  C   UNL     1      23.491   2.703  41.862  1.00  0.00     0.158 A 
BRANCH  16  19
ATOM     19  O   UNL     1      23.810   5.029  41.259  1.00  0.00    -0.504 OA
ATOM     20  H   UNL     1      24.213   4.924  40.335  1.00  0.00     0.293 HD
ENDBRANCH  16  19
BRANCH  18  21
ATOM     21  O   UNL     1      24.731   2.360  41.325  1.00  0.00    -0.504 OA
ATOM     22  H   UNL     1      25.586   2.411  41.868  1.00  0.00     0.293 HD
ENDBRANCH  18  21
ENDBRANCH   3  13
BRANCH  11  23
ATOM     23  O   UNL     1      17.166  -2.397  45.312  1.00  0.00    -0.507 OA
ATOM     24  H   UNL     1      16.659  -2.245  44.447  1.00  0.00     0.293 HD
ENDBRANCH  11  23
ENDBRANCH   1   2
BRANCH   1  25
ATOM     25  C   UNL     1      22.597  -4.750  46.511  1.00  0.00     0.339 C 
ATOM     26  C   UNL     1      23.562  -4.935  47.707  1.00  0.00     0.214 C 
ATOM     27  O   UNL     1      22.303  -5.998  45.899  1.00  0.00    -0.332 OA
ATOM     28  C   UNL     1      22.986  -5.945  48.716  1.00  0.00     0.180 C 
ATOM     29  C   UNL     1      21.633  -6.875  46.793  1.00  0.00     0.179 C 
ATOM     30  C   UNL     1      22.530  -7.235  48.003  1.00  0.00     0.177 C 
BRANCH  26  31
ATOM     31  O   UNL     1      23.789  -3.702  48.339  1.00  0.00    -0.384 OA
ATOM     32  H   UNL     1      23.900  -3.024  47.622  1.00  0.00     0.211 HD
ENDBRANCH  26  31
BRANCH  28  33
ATOM     33  O   UNL     1      23.954  -6.243  49.690  1.00  0.00    -0.387 OA
ATOM     34  H   UNL     1      24.722  -5.637  49.522  1.00  0.00     0.211 HD
ENDBRANCH  28  33
BRANCH  29  35
ATOM     35  C   UNL     1      21.162  -8.125  46.030  1.00  0.00     0.191 C 
BRANCH  35  36
ATOM     36  O   UNL     1      21.024  -7.872  44.657  1.00  0.00    -0.394 OA
ATOM     37  H   UNL     1      21.534  -8.579  44.182  1.00  0.00     0.210 HD
ENDBRANCH  35  36
ENDBRANCH  29  35
BRANCH  30  38
ATOM     38  O   UNL     1      23.632  -8.031  47.635  1.00  0.00    -0.387 OA
ATOM     39  H   UNL     1      24.461  -7.545  47.881  1.00  0.00     0.211 HD
ENDBRANCH  30  38
ENDBRANCH   1  25
TORSDOF 11
ENDMDL
MODEL 8
REMARK VINA RESULT:    -6.263      2.443      3.683
REMARK INTER + INTRA:          -9.796
REMARK INTER:                  -8.903
REMARK INTRA:                  -0.893
REMARK UNBOUND:                -0.787
REMARK SMILES O=c1cc(-c2ccc(O)c(O)c2)oc2cc(O[C@@H]3O[C@@H](CO)[C@@H](O)[C@@H](O)[C@@H]3O)cc(O)c12
REMARK SMILES IDX 17 1 16 2 4 3 3 4 13 5 2 6 14 7 1 8 32 9 15 10 30 11 29 12
REMARK SMILES IDX 5 13 6 14 7 15 8 16 12 17 10 18 9 19 11 21 31 23 18 25 27 26
REMARK SMILES IDX 19 27 25 28 20 29 23 30 28 31 26 33 21 35 22 36 24 38
REMARK H PARENT 9 20 11 22 31 24 28 32 26 34 22 37 24 39
REMARK Flexibility Score: inf
ROOT
ATOM      1  O   UNL     1      22.455   2.060  44.522  1.00  0.00    -0.462 OA
ENDROOT
BRANCH   1   2
ATOM      2  C   UNL     1      22.831   0.946  45.293  1.00  0.00     0.130 A 
ATOM      3  C   UNL     1      22.160  -3.536  46.797  1.00  0.00     0.138 A 
ATOM      4  C   UNL     1      23.299  -3.496  47.618  1.00  0.00     0.100 A 
ATOM      5  O   UNL     1      21.831  -2.463  46.083  1.00  0.00    -0.456 OA
ATOM      6  C   UNL     1      24.073  -2.336  47.662  1.00  0.00     0.197 A 
ATOM      7  C   UNL     1      22.535  -1.335  46.091  1.00  0.00     0.146 A 
ATOM      8  O   UNL     1      25.093  -2.309  48.402  1.00  0.00    -0.289 OA
ATOM      9  C   UNL     1      23.700  -1.221  46.884  1.00  0.00     0.107 A 
ATOM     10  C   UNL     1      22.109  -0.262  45.303  1.00  0.00     0.094 A 
ATOM     11  C   UNL     1      24.428  -0.010  46.869  1.00  0.00     0.134 A 
ATOM     12  C   UNL     1      23.986   1.056  46.073  1.00  0.00     0.093 A 
BRANCH   3  13
ATOM     13  C   UNL     1      21.297  -4.742  46.712  1.00  0.00     0.021 A 
ATOM     14  C   UNL     1      21.785  -5.968  46.221  1.00  0.00     0.016 A 
ATOM     15  C   UNL     1      20.946  -7.083  46.143  1.00  0.00     0.051 A 
ATOM     16  C   UNL     1      19.608  -6.993  46.545  1.00  0.00     0.157 A 
ATOM     17  C   UNL     1      19.948  -4.656  47.101  1.00  0.00     0.062 A 
ATOM     18  C   UNL     1      19.107  -5.772  47.024  1.00  0.00     0.158 A 
BRANCH  16  19
ATOM     19  O   UNL     1      18.776  -8.108  46.467  1.00  0.00    -0.504 OA
ATOM     20  H   UNL     1      18.759  -8.810  47.198  1.00  0.00     0.293 HD
ENDBRANCH  16  19
BRANCH  18  21
ATOM     21  O   UNL     1      17.779  -5.647  47.429  1.00  0.00    -0.504 OA
ATOM     22  H   UNL     1      17.454  -5.995  48.324  1.00  0.00     0.293 HD
ENDBRANCH  18  21
ENDBRANCH   3  13
BRANCH  11  23
ATOM     23  O   UNL     1      25.583   0.141  47.635  1.00  0.00    -0.507 OA
ATOM     24  H   UNL     1      25.615   0.763  48.435  1.00  0.00     0.293 HD
ENDBRANCH  11  23
ENDBRANCH   1   2
BRANCH   1  25
ATOM     25  C   UNL     1      21.484   2.085  43.464  1.00  0.00     0.339 C 
ATOM     26  C   UNL     1      21.197   3.526  42.978  1.00  0.00     0.214 C 
ATOM     27  O   UNL     1      21.911   1.262  42.388  1.00  0.00    -0.332 OA
ATOM     28  C   UNL     1      22.431   4.111  42.264  1.00  0.00     0.180 C 
ATOM     29  C   UNL     1      23.133   1.720  41.830  1.00  0.00     0.179 C 
ATOM     30  C   UNL     1      22.970   3.128  41.204  1.00  0.00     0.177 C 
BRANCH  26  31
ATOM     31  O   UNL     1      20.841   4.341  44.064  1.00  0.00    -0.384 OA
ATOM     32  H   UNL     1      19.909   4.104  44.311  1.00  0.00     0.211 HD
ENDBRANCH  26  31
BRANCH  28  33
ATOM     33  O   UNL     1      22.092   5.335  41.665  1.00  0.00    -0.387 OA
ATOM     34  H   UNL     1      22.154   5.200  40.684  1.00  0.00     0.211 HD
ENDBRANCH  28  33
BRANCH  29  35
ATOM     35  C   UNL     1      23.652   0.691  40.812  1.00  0.00     0.191 C 
BRANCH  35  36
ATOM     36  O   UNL     1      24.454   1.293  39.831  1.00  0.00    -0.394 OA
ATOM     37  H   UNL     1      23.845   1.589  39.104  1.00  0.00     0.210 HD
ENDBRANCH  35  36
ENDBRANCH  29  35
BRANCH  30  38
ATOM     38  O   UNL     1      22.150   3.113  40.059  1.00  0.00    -0.387 OA
ATOM     39  H   UNL     1      22.694   2.798  39.292  1.00  0.00     0.211 HD
ENDBRANCH  30  38
ENDBRANCH   1  25
TORSDOF 11
ENDMDL
MODEL 9
REMARK VINA RESULT:    -6.188      5.666     10.702
REMARK INTER + INTRA:          -9.687
REMARK INTER:                  -8.838
REMARK INTRA:                  -0.850
REMARK UNBOUND:                -0.787
REMARK SMILES O=c1cc(-c2ccc(O)c(O)c2)oc2cc(O[C@@H]3O[C@@H](CO)[C@@H](O)[C@@H](O)[C@@H]3O)cc(O)c12
REMARK SMILES IDX 17 1 16 2 4 3 3 4 13 5 2 6 14 7 1 8 32 9 15 10 30 11 29 12
REMARK SMILES IDX 5 13 6 14 7 15 8 16 12 17 10 18 9 19 11 21 31 23 18 25 27 26
REMARK SMILES IDX 19 27 25 28 20 29 23 30 28 31 26 33 21 35 22 36 24 38
REMARK H PARENT 9 20 11 22 31 24 28 32 26 34 22 37 24 39
REMARK Flexibility Score: inf
ROOT
ATOM      1  O   UNL     1      22.861  -3.163  52.231  1.00  0.00    -0.462 OA
ENDROOT
BRANCH   1   2
ATOM      2  C   UNL     1      22.671  -3.591  50.906  1.00  0.00     0.130 A 
ATOM      3  C   UNL     1      20.844  -3.018  46.531  1.00  0.00     0.138 A 
ATOM      4  C   UNL     1      21.408  -4.219  46.071  1.00  0.00     0.100 A 
ATOM      5  O   UNL     1      21.040  -2.644  47.793  1.00  0.00    -0.456 OA
ATOM      6  C   UNL     1      22.176  -4.993  46.941  1.00  0.00     0.197 A 
ATOM      7  C   UNL     1      21.763  -3.347  48.659  1.00  0.00     0.146 A 
ATOM      8  O   UNL     1      22.679  -6.070  46.520  1.00  0.00    -0.289 OA
ATOM      9  C   UNL     1      22.373  -4.561  48.268  1.00  0.00     0.107 A 
ATOM     10  C   UNL     1      21.915  -2.869  49.964  1.00  0.00     0.094 A 
ATOM     11  C   UNL     1      23.137  -5.284  49.212  1.00  0.00     0.134 A 
ATOM     12  C   UNL     1      23.278  -4.790  50.517  1.00  0.00     0.093 A 
BRANCH   3  13
ATOM     13  C   UNL     1      20.015  -2.154  45.652  1.00  0.00     0.021 A 
ATOM     14  C   UNL     1      18.675  -2.468  45.357  1.00  0.00     0.016 A 
ATOM     15  C   UNL     1      17.922  -1.641  44.518  1.00  0.00     0.051 A 
ATOM     16  C   UNL     1      18.495  -0.495  43.954  1.00  0.00     0.157 A 
ATOM     17  C   UNL     1      20.587  -1.008  45.071  1.00  0.00     0.062 A 
ATOM     18  C   UNL     1      19.835  -0.179  44.230  1.00  0.00     0.158 A 
BRANCH  16  19
ATOM     19  O   UNL     1      17.740   0.328  43.119  1.00  0.00    -0.504 OA
ATOM     20  H   UNL     1      17.789   1.338  43.184  1.00  0.00     0.293 HD
ENDBRANCH  16  19
BRANCH  18  21
ATOM     21  O   UNL     1      20.436   0.953  43.682  1.00  0.00    -0.504 OA
ATOM     22  H   UNL     1      20.423   1.851  44.153  1.00  0.00     0.293 HD
ENDBRANCH  18  21
ENDBRANCH   3  13
BRANCH  11  23
ATOM     23  O   UNL     1      23.756  -6.485  48.865  1.00  0.00    -0.507 OA
ATOM     24  H   UNL     1      24.584  -6.816  49.346  1.00  0.00     0.293 HD
ENDBRANCH  11  23
ENDBRANCH   1   2
BRANCH   1  25
ATOM     25  C   UNL     1      22.277  -3.736  53.411  1.00  0.00     0.339 C 
ATOM     26  C   UNL     1      23.347  -4.348  54.346  1.00  0.00     0.214 C 
ATOM     27  O   UNL     1      21.503  -2.761  54.096  1.00  0.00    -0.332 OA
ATOM     28  C   UNL     1      24.230  -3.242  54.956  1.00  0.00     0.180 C 
ATOM     29  C   UNL     1      22.300  -1.666  54.525  1.00  0.00     0.179 C 
ATOM     30  C   UNL     1      23.363  -2.117  55.557  1.00  0.00     0.177 C 
BRANCH  26  31
ATOM     31  O   UNL     1      24.144  -5.260  53.636  1.00  0.00    -0.384 OA
ATOM     32  H   UNL     1      23.960  -5.116  52.671  1.00  0.00     0.211 HD
ENDBRANCH  26  31
BRANCH  28  33
ATOM     33  O   UNL     1      25.064  -3.795  55.941  1.00  0.00    -0.387 OA
ATOM     34  H   UNL     1      25.220  -3.083  56.615  1.00  0.00     0.211 HD
ENDBRANCH  28  33
BRANCH  29  35
ATOM     35  C   UNL     1      21.391  -0.555  55.078  1.00  0.00     0.191 C 
BRANCH  35  36
ATOM     36  O   UNL     1      22.014   0.153  56.118  1.00  0.00    -0.394 OA
ATOM     37  H   UNL     1      21.779  -0.314  56.962  1.00  0.00     0.210 HD
ENDBRANCH  35  36
ENDBRANCH  29  35
BRANCH  30  38
ATOM     38  O   UNL     1      22.788  -2.515  56.780  1.00  0.00    -0.387 OA
ATOM     39  H   UNL     1      22.575  -1.699  57.302  1.00  0.00     0.211 HD
ENDBRANCH  30  38
ENDBRANCH   1  25
TORSDOF 11
ENDMDL
