MODEL 1
REMARK VINA RESULT:    -5.078      0.000      0.000
REMARK INTER + INTRA:          -5.556
REMARK INTER:                  -5.523
REMARK INTRA:                  -0.033
REMARK UNBOUND:                -0.033
REMARK SMILES O=C([O-])c1ccc(O)cc1
REMARK SMILES IDX 4 1 5 2 10 3 6 4 9 5 7 6 2 7 1 8 3 9 8 10
REMARK H PARENT 8 11
REMARK Flexibility Score: inf
ROOT
ATOM      1  C   UNL     1      19.034  25.972  35.997  1.00  0.00    -0.003 A 
ATOM      2  C   UNL     1      19.786  27.097  36.384  1.00  0.00     0.014 A 
ATOM      3  C   UNL     1      17.630  26.060  35.994  1.00  0.00     0.014 A 
ATOM      4  C   UNL     1      19.146  28.283  36.760  1.00  0.00     0.047 A 
ATOM      5  C   UNL     1      16.993  27.247  36.370  1.00  0.00     0.047 A 
ATOM      6  C   UNL     1      17.748  28.360  36.753  1.00  0.00     0.115 A 
ENDROOT
BRANCH   1   7
ATOM      7  C   UNL     1      19.705  24.716  35.599  1.00  0.00     0.071 C 
ATOM      8  O   UNL     1      19.204  23.600  35.894  1.00  0.00    -0.545 OA
ATOM      9  O   UNL     1      20.903  24.752  34.893  1.00  0.00    -0.545 OA
ENDBRANCH   1   7
BRANCH   6  10
ATOM     10  O   UNL     1      17.100  29.535  37.125  1.00  0.00    -0.508 OA
ATOM     11  H   UNL     1      16.948  29.772  38.099  1.00  0.00     0.293 HD
ENDBRANCH   6  10
TORSDOF 2
ENDMDL
MODEL 2
REMARK VINA RESULT:    -4.635      1.888      2.430
REMARK INTER + INTRA:          -5.074
REMARK INTER:                  -5.038
REMARK INTRA:                  -0.036
REMARK UNBOUND:                -0.033
REMARK SMILES O=C([O-])c1ccc(O)cc1
REMARK SMILES IDX 4 1 5 2 10 3 6 4 9 5 7 6 2 7 1 8 3 9 8 10
REMARK H PARENT 8 11
REMARK Flexibility Score: inf
ROOT
ATOM      1  C   UNL     1      18.953  27.450  36.596  1.00  0.00    -0.003 A 
ATOM      2  C   UNL     1      20.300  27.811  36.408  1.00  0.00     0.014 A 
ATOM      3  C   UNL     1      18.025  28.444  36.957  1.00  0.00     0.014 A 
ATOM      4  C   UNL     1      20.708  29.138  36.576  1.00  0.00     0.047 A 
ATOM      5  C   UNL     1      18.437  29.769  37.125  1.00  0.00     0.047 A 
ATOM      6  C   UNL     1      19.778  30.120  36.936  1.00  0.00     0.115 A 
ENDROOT
BRANCH   1   7
ATOM      7  C   UNL     1      18.515  26.048  36.418  1.00  0.00     0.071 C 
ATOM      8  O   UNL     1      17.291  25.751  36.440  1.00  0.00    -0.545 OA
ATOM      9  O   UNL     1      19.451  25.038  36.225  1.00  0.00    -0.545 OA
ENDBRANCH   1   7
BRANCH   6  10
ATOM     10  O   UNL     1      20.173  31.444  37.107  1.00  0.00    -0.508 OA
ATOM     11  H   UNL     1      21.069  31.778  36.769  1.00  0.00     0.293 HD
ENDBRANCH   6  10
TORSDOF 2
ENDMDL
MODEL 3
REMARK VINA RESULT:    -4.493     16.147     17.328
REMARK INTER + INTRA:          -4.920
REMARK INTER:                  -4.891
REMARK INTRA:                  -0.029
REMARK UNBOUND:                -0.033
REMARK SMILES O=C([O-])c1ccc(O)cc1
REMARK SMILES IDX 4 1 5 2 10 3 6 4 9 5 7 6 2 7 1 8 3 9 8 10
REMARK H PARENT 8 11
REMARK Flexibility Score: inf
ROOT
ATOM      1  C   UNL     1      21.170  23.045  20.006  1.00  0.00    -0.003 A 
ATOM      2  C   UNL     1      20.040  23.849  20.250  1.00  0.00     0.014 A 
ATOM      3  C   UNL     1      21.697  22.988  18.704  1.00  0.00     0.014 A 
ATOM      4  C   UNL     1      19.453  24.579  19.211  1.00  0.00     0.047 A 
ATOM      5  C   UNL     1      21.107  23.719  17.668  1.00  0.00     0.047 A 
ATOM      6  C   UNL     1      19.985  24.515  17.918  1.00  0.00     0.115 A 
ENDROOT
BRANCH   1   7
ATOM      7  C   UNL     1      21.795  22.272  21.101  1.00  0.00     0.071 C 
ATOM      8  O   UNL     1      22.280  22.857  22.105  1.00  0.00    -0.545 OA
ATOM      9  O   UNL     1      21.857  20.884  21.035  1.00  0.00    -0.545 OA
ENDBRANCH   1   7
BRANCH   6  10
ATOM     10  O   UNL     1      19.409  25.238  16.876  1.00  0.00    -0.508 OA
ATOM     11  H   UNL     1      18.739  24.814  16.244  1.00  0.00     0.293 HD
ENDBRANCH   6  10
TORSDOF 2
ENDMDL
MODEL 4
REMARK VINA RESULT:    -4.399      2.407      4.330
REMARK INTER + INTRA:          -4.817
REMARK INTER:                  -4.781
REMARK INTRA:                  -0.036
REMARK UNBOUND:                -0.033
REMARK SMILES O=C([O-])c1ccc(O)cc1
REMARK SMILES IDX 4 1 5 2 10 3 6 4 9 5 7 6 2 7 1 8 3 9 8 10
REMARK H PARENT 8 11
REMARK Flexibility Score: inf
ROOT
ATOM      1  C   UNL     1      19.555  29.393  36.772  1.00  0.00    -0.003 A 
ATOM      2  C   UNL     1      20.130  28.157  36.422  1.00  0.00     0.014 A 
ATOM      3  C   UNL     1      18.194  29.438  37.120  1.00  0.00     0.014 A 
ATOM      4  C   UNL     1      19.357  26.991  36.423  1.00  0.00     0.047 A 
ATOM      5  C   UNL     1      17.424  28.270  37.120  1.00  0.00     0.047 A 
ATOM      6  C   UNL     1      18.002  27.046  36.772  1.00  0.00     0.115 A 
ENDROOT
BRANCH   1   7
ATOM      7  C   UNL     1      20.368  30.629  36.773  1.00  0.00     0.071 C 
ATOM      8  O   UNL     1      19.859  31.731  37.110  1.00  0.00    -0.545 OA
ATOM      9  O   UNL     1      21.707  30.591  36.401  1.00  0.00    -0.545 OA
ENDBRANCH   1   7
BRANCH   6  10
ATOM     10  O   UNL     1      17.222  25.891  36.776  1.00  0.00    -0.508 OA
ATOM     11  H   UNL     1      16.317  25.865  37.232  1.00  0.00     0.293 HD
ENDBRANCH   6  10
TORSDOF 2
ENDMDL
MODEL 5
REMARK VINA RESULT:    -4.311     20.052     21.980
REMARK INTER + INTRA:          -4.721
REMARK INTER:                  -4.693
REMARK INTRA:                  -0.028
REMARK UNBOUND:                -0.033
REMARK SMILES O=C([O-])c1ccc(O)cc1
REMARK SMILES IDX 4 1 5 2 10 3 6 4 9 5 7 6 2 7 1 8 3 9 8 10
REMARK H PARENT 8 11
REMARK Flexibility Score: inf
ROOT
ATOM      1  C   UNL     1      31.593  15.564  21.631  1.00  0.00    -0.003 A 
ATOM      2  C   UNL     1      30.200  15.639  21.446  1.00  0.00     0.014 A 
ATOM      3  C   UNL     1      32.095  15.258  22.908  1.00  0.00     0.014 A 
ATOM      4  C   UNL     1      29.330  15.411  22.517  1.00  0.00     0.047 A 
ATOM      5  C   UNL     1      31.223  15.031  23.977  1.00  0.00     0.047 A 
ATOM      6  C   UNL     1      29.840  15.107  23.785  1.00  0.00     0.115 A 
ENDROOT
BRANCH   1   7
ATOM      7  C   UNL     1      32.517  15.804  20.501  1.00  0.00     0.071 C 
ATOM      8  O   UNL     1      33.296  16.794  20.509  1.00  0.00    -0.545 OA
ATOM      9  O   UNL     1      32.539  14.938  19.413  1.00  0.00    -0.545 OA
ENDBRANCH   1   7
BRANCH   6  10
ATOM     10  O   UNL     1      28.983  14.878  24.859  1.00  0.00    -0.508 OA
ATOM     11  H   UNL     1      29.335  14.586  25.765  1.00  0.00     0.293 HD
ENDBRANCH   6  10
TORSDOF 2
ENDMDL
MODEL 6
REMARK VINA RESULT:    -4.275     15.396     16.771
REMARK INTER + INTRA:          -4.682
REMARK INTER:                  -4.650
REMARK INTRA:                  -0.032
REMARK UNBOUND:                -0.033
REMARK SMILES O=C([O-])c1ccc(O)cc1
REMARK SMILES IDX 4 1 5 2 10 3 6 4 9 5 7 6 2 7 1 8 3 9 8 10
REMARK H PARENT 8 11
REMARK Flexibility Score: inf
ROOT
ATOM      1  C   UNL     1      19.448  22.736  20.855  1.00  0.00    -0.003 A 
ATOM      2  C   UNL     1      20.834  22.748  21.096  1.00  0.00     0.014 A 
ATOM      3  C   UNL     1      18.988  22.715  19.526  1.00  0.00     0.014 A 
ATOM      4  C   UNL     1      21.739  22.739  20.030  1.00  0.00     0.047 A 
ATOM      5  C   UNL     1      19.895  22.707  18.462  1.00  0.00     0.047 A 
ATOM      6  C   UNL     1      21.272  22.719  18.710  1.00  0.00     0.115 A 
ENDROOT
BRANCH   1   7
ATOM      7  C   UNL     1      18.486  22.745  21.979  1.00  0.00     0.071 C 
ATOM      8  O   UNL     1      18.682  23.477  22.984  1.00  0.00    -0.545 OA
ATOM      9  O   UNL     1      17.351  21.942  21.940  1.00  0.00    -0.545 OA
ENDBRANCH   1   7
BRANCH   6  10
ATOM     10  O   UNL     1      22.163  22.710  17.640  1.00  0.00    -0.508 OA
ATOM     11  H   UNL     1      23.150  22.516  17.774  1.00  0.00     0.293 HD
ENDBRANCH   6  10
TORSDOF 2
ENDMDL
MODEL 7
REMARK VINA RESULT:    -4.197     15.556     16.954
REMARK INTER + INTRA:          -4.598
REMARK INTER:                  -4.565
REMARK INTRA:                  -0.033
REMARK UNBOUND:                -0.033
REMARK SMILES O=C([O-])c1ccc(O)cc1
REMARK SMILES IDX 4 1 5 2 10 3 6 4 9 5 7 6 2 7 1 8 3 9 8 10
REMARK H PARENT 8 11
REMARK Flexibility Score: inf
ROOT
ATOM      1  C   UNL     1      19.239  22.516  20.677  1.00  0.00    -0.003 A 
ATOM      2  C   UNL     1      18.854  22.411  19.328  1.00  0.00     0.014 A 
ATOM      3  C   UNL     1      20.596  22.719  20.985  1.00  0.00     0.014 A 
ATOM      4  C   UNL     1      19.807  22.508  18.309  1.00  0.00     0.047 A 
ATOM      5  C   UNL     1      21.547  22.815  19.963  1.00  0.00     0.047 A 
ATOM      6  C   UNL     1      21.156  22.710  18.625  1.00  0.00     0.115 A 
ENDROOT
BRANCH   1   7
ATOM      7  C   UNL     1      18.235  22.415  21.759  1.00  0.00     0.071 C 
ATOM      8  O   UNL     1      17.228  21.670  21.631  1.00  0.00    -0.545 OA
ATOM      9  O   UNL     1      18.390  23.143  22.933  1.00  0.00    -0.545 OA
ENDBRANCH   1   7
BRANCH   6  10
ATOM     10  O   UNL     1      22.114  22.808  17.619  1.00  0.00    -0.508 OA
ATOM     11  H   UNL     1      21.911  23.262  16.736  1.00  0.00     0.293 HD
ENDBRANCH   6  10
TORSDOF 2
ENDMDL
MODEL 8
REMARK VINA RESULT:    -3.895      6.631      8.074
REMARK INTER + INTRA:          -4.269
REMARK INTER:                  -4.238
REMARK INTRA:                  -0.032
REMARK UNBOUND:                -0.033
REMARK SMILES O=C([O-])c1ccc(O)cc1
REMARK SMILES IDX 4 1 5 2 10 3 6 4 9 5 7 6 2 7 1 8 3 9 8 10
REMARK H PARENT 8 11
REMARK Flexibility Score: inf
ROOT
ATOM      1  C   UNL     1      19.312  33.589  36.315  1.00  0.00    -0.003 A 
ATOM      2  C   UNL     1      19.814  34.524  35.391  1.00  0.00     0.014 A 
ATOM      3  C   UNL     1      20.145  32.541  36.746  1.00  0.00     0.014 A 
ATOM      4  C   UNL     1      21.123  34.411  34.910  1.00  0.00     0.047 A 
ATOM      5  C   UNL     1      21.453  32.432  36.263  1.00  0.00     0.047 A 
ATOM      6  C   UNL     1      21.945  33.365  35.345  1.00  0.00     0.115 A 
ENDROOT
BRANCH   1   7
ATOM      7  C   UNL     1      17.929  33.703  36.827  1.00  0.00     0.071 C 
ATOM      8  O   UNL     1      17.446  34.828  37.125  1.00  0.00    -0.545 OA
ATOM      9  O   UNL     1      17.142  32.568  36.989  1.00  0.00    -0.545 OA
ENDBRANCH   1   7
BRANCH   6  10
ATOM     10  O   UNL     1      23.249  33.242  34.873  1.00  0.00    -0.508 OA
ATOM     11  H   UNL     1      23.926  33.989  34.987  1.00  0.00     0.293 HD
ENDBRANCH   6  10
TORSDOF 2
ENDMDL
