MODEL 1
REMARK VINA RESULT:    -7.062      0.000      0.000
REMARK INTER + INTRA:          -8.584
REMARK INTER:                  -8.507
REMARK INTRA:                  -0.078
REMARK UNBOUND:                -0.078
REMARK SMILES O=c1c(O)c(-c2ccc(O)c(O)c2)oc2cc(O)cc(O)c12
REMARK SMILES IDX 5 1 3 2 2 3 1 4 22 5 20 6 19 7 17 8 16 9 15 10 14 11 6 12
REMARK SMILES IDX 7 13 8 14 9 15 13 16 11 17 10 18 12 20 4 22 21 24 18 26
REMARK H PARENT 10 19 12 21 4 23 21 25 18 27
REMARK Flexibility Score: inf
ROOT
ATOM      1  C   UNL     1      31.810   0.130 166.270  1.00  0.00     0.180 A 
ATOM      2  C   UNL     1      31.121   0.459 167.450  1.00  0.00     0.208 A 
ATOM      3  C   UNL     1      29.946  -0.240 167.770  1.00  0.00     0.238 A 
ATOM      4  O   UNL     1      29.305   0.096 168.800  1.00  0.00    -0.285 OA
ATOM      5  C   UNL     1      29.484  -1.270 166.916  1.00  0.00     0.111 A 
ATOM      6  C   UNL     1      28.328  -2.070 167.163  1.00  0.00     0.134 A 
ATOM      7  C   UNL     1      27.891  -2.972 166.185  1.00  0.00     0.093 A 
ATOM      8  C   UNL     1      28.602  -3.150 164.999  1.00  0.00     0.123 A 
ATOM      9  C   UNL     1      29.767  -2.415 164.773  1.00  0.00     0.094 A 
ATOM     10  C   UNL     1      30.209  -1.482 165.714  1.00  0.00     0.146 A 
ATOM     11  O   UNL     1      31.315  -0.796 165.456  1.00  0.00    -0.452 OA
ENDROOT
BRANCH   1  12
ATOM     12  C   UNL     1      33.068   0.806 165.877  1.00  0.00     0.025 A 
ATOM     13  C   UNL     1      34.241   0.051 165.733  1.00  0.00     0.016 A 
ATOM     14  C   UNL     1      35.441   0.671 165.383  1.00  0.00     0.051 A 
ATOM     15  C   UNL     1      35.500   2.056 165.188  1.00  0.00     0.157 A 
ATOM     16  C   UNL     1      33.127   2.199 165.704  1.00  0.00     0.062 A 
ATOM     17  C   UNL     1      34.328   2.830 165.356  1.00  0.00     0.158 A 
BRANCH  15  18
ATOM     18  O   UNL     1      36.730   2.613 164.832  1.00  0.00    -0.504 OA
ATOM     19  H   UNL     1      37.024   3.543 165.092  1.00  0.00     0.293 HD
ENDBRANCH  15  18
BRANCH  17  20
ATOM     20  O   UNL     1      34.314   4.218 165.197  1.00  0.00    -0.504 OA
ATOM     21  H   UNL     1      33.618   4.719 164.665  1.00  0.00     0.293 HD
ENDBRANCH  17  20
ENDBRANCH   1  12
BRANCH   2  22
ATOM     22  O   UNL     1      31.583   1.493 168.268  1.00  0.00    -0.502 OA
ATOM     23  H   UNL     1      31.464   1.486 169.274  1.00  0.00     0.293 HD
ENDBRANCH   2  22
BRANCH   6  24
ATOM     24  O   UNL     1      27.598  -2.038 168.354  1.00  0.00    -0.507 OA
ATOM     25  H   UNL     1      26.597  -1.925 168.412  1.00  0.00     0.293 HD
ENDBRANCH   6  24
BRANCH   8  26
ATOM     26  O   UNL     1      28.147  -4.067 164.055  1.00  0.00    -0.508 OA
ATOM     27  H   UNL     1      27.297  -3.906 163.527  1.00  0.00     0.293 HD
ENDBRANCH   8  26
TORSDOF 6
ENDMDL
MODEL 2
REMARK VINA RESULT:    -6.933      1.423      3.297
REMARK INTER + INTRA:          -8.429
REMARK INTER:                  -8.126
REMARK INTRA:                  -0.303
REMARK UNBOUND:                -0.078
REMARK SMILES O=c1c(O)c(-c2ccc(O)c(O)c2)oc2cc(O)cc(O)c12
REMARK SMILES IDX 5 1 3 2 2 3 1 4 22 5 20 6 19 7 17 8 16 9 15 10 14 11 6 12
REMARK SMILES IDX 7 13 8 14 9 15 13 16 11 17 10 18 12 20 4 22 21 24 18 26
REMARK H PARENT 10 19 12 21 4 23 21 25 18 27
REMARK Flexibility Score: inf
ROOT
ATOM      1  C   UNL     1      32.384  -0.384 165.175  1.00  0.00     0.180 A 
ATOM      2  C   UNL     1      32.215  -1.200 164.042  1.00  0.00     0.208 A 
ATOM      3  C   UNL     1      31.074  -2.012 163.952  1.00  0.00     0.238 A 
ATOM      4  O   UNL     1      30.956  -2.780 162.961  1.00  0.00    -0.285 OA
ATOM      5  C   UNL     1      30.107  -1.987 164.987  1.00  0.00     0.111 A 
ATOM      6  C   UNL     1      28.894  -2.740 164.980  1.00  0.00     0.134 A 
ATOM      7  C   UNL     1      28.075  -2.738 166.116  1.00  0.00     0.093 A 
ATOM      8  C   UNL     1      28.391  -1.962 167.231  1.00  0.00     0.123 A 
ATOM      9  C   UNL     1      29.544  -1.176 167.224  1.00  0.00     0.094 A 
ATOM     10  C   UNL     1      30.400  -1.185 166.120  1.00  0.00     0.146 A 
ATOM     11  O   UNL     1      31.492  -0.433 166.158  1.00  0.00    -0.452 OA
ENDROOT
BRANCH   1  12
ATOM     12  C   UNL     1      33.548   0.517 165.330  1.00  0.00     0.025 A 
ATOM     13  C   UNL     1      33.437   1.861 164.945  1.00  0.00     0.016 A 
ATOM     14  C   UNL     1      34.527   2.723 165.066  1.00  0.00     0.051 A 
ATOM     15  C   UNL     1      35.754   2.259 165.553  1.00  0.00     0.157 A 
ATOM     16  C   UNL     1      34.784   0.042 165.799  1.00  0.00     0.062 A 
ATOM     17  C   UNL     1      35.886   0.899 165.919  1.00  0.00     0.158 A 
BRANCH  15  18
ATOM     18  O   UNL     1      36.804   3.174 165.655  1.00  0.00    -0.504 OA
ATOM     19  H   UNL     1      37.557   3.246 164.986  1.00  0.00     0.293 HD
ENDBRANCH  15  18
BRANCH  17  20
ATOM     20  O   UNL     1      37.083   0.360 166.395  1.00  0.00    -0.504 OA
ATOM     21  H   UNL     1      37.807  -0.019 165.803  1.00  0.00     0.293 HD
ENDBRANCH  17  20
ENDBRANCH   1  12
BRANCH   2  22
ATOM     22  O   UNL     1      33.191  -1.225 163.043  1.00  0.00    -0.502 OA
ATOM     23  H   UNL     1      34.029  -1.790 163.114  1.00  0.00     0.293 HD
ENDBRANCH   2  22
BRANCH   6  24
ATOM     24  O   UNL     1      28.438  -3.476 163.883  1.00  0.00    -0.507 OA
ATOM     25  H   UNL     1      28.001  -3.078 163.065  1.00  0.00     0.293 HD
ENDBRANCH   6  24
BRANCH   8  26
ATOM     26  O   UNL     1      27.545  -1.972 168.337  1.00  0.00    -0.508 OA
ATOM     27  H   UNL     1      27.224  -2.839 168.752  1.00  0.00     0.293 HD
ENDBRANCH   8  26
TORSDOF 6
ENDMDL
MODEL 3
REMARK VINA RESULT:    -6.924      1.555      7.301
REMARK INTER + INTRA:          -8.418
REMARK INTER:                  -8.723
REMARK INTRA:                   0.305
REMARK UNBOUND:                -0.078
REMARK SMILES O=c1c(O)c(-c2ccc(O)c(O)c2)oc2cc(O)cc(O)c12
REMARK SMILES IDX 5 1 3 2 2 3 1 4 22 5 20 6 19 7 17 8 16 9 15 10 14 11 6 12
REMARK SMILES IDX 7 13 8 14 9 15 13 16 11 17 10 18 12 20 4 22 21 24 18 26
REMARK H PARENT 10 19 12 21 4 23 21 25 18 27
REMARK Flexibility Score: inf
ROOT
ATOM      1  C   UNL     1      31.953  -0.148 165.749  1.00  0.00     0.180 A 
ATOM      2  C   UNL     1      32.592  -0.871 164.727  1.00  0.00     0.208 A 
ATOM      3  C   UNL     1      33.744  -0.334 164.131  1.00  0.00     0.238 A 
ATOM      4  O   UNL     1      34.280  -0.960 163.179  1.00  0.00    -0.285 OA
ATOM      5  C   UNL     1      34.253   0.911 164.575  1.00  0.00     0.111 A 
ATOM      6  C   UNL     1      35.436   1.529 164.069  1.00  0.00     0.134 A 
ATOM      7  C   UNL     1      35.773   2.822 164.490  1.00  0.00     0.093 A 
ATOM      8  C   UNL     1      35.008   3.491 165.445  1.00  0.00     0.123 A 
ATOM      9  C   UNL     1      33.882   2.871 165.990  1.00  0.00     0.094 A 
ATOM     10  C   UNL     1      33.500   1.597 165.563  1.00  0.00     0.146 A 
ATOM     11  O   UNL     1      32.417   1.047 166.098  1.00  0.00    -0.452 OA
ENDROOT
BRANCH   1  12
ATOM     12  C   UNL     1      30.749  -0.660 166.442  1.00  0.00     0.025 A 
ATOM     13  C   UNL     1      30.526  -0.318 167.783  1.00  0.00     0.016 A 
ATOM     14  C   UNL     1      29.407  -0.805 168.460  1.00  0.00     0.051 A 
ATOM     15  C   UNL     1      28.500  -1.657 167.820  1.00  0.00     0.157 A 
ATOM     16  C   UNL     1      29.853  -1.533 165.802  1.00  0.00     0.062 A 
ATOM     17  C   UNL     1      28.729  -2.031 166.475  1.00  0.00     0.158 A 
BRANCH  15  18
ATOM     18  O   UNL     1      27.397  -2.104 168.551  1.00  0.00    -0.504 OA
ATOM     19  H   UNL     1      26.543  -1.577 168.662  1.00  0.00     0.293 HD
ENDBRANCH  15  18
BRANCH  17  20
ATOM     20  O   UNL     1      27.879  -2.892 165.777  1.00  0.00    -0.504 OA
ATOM     21  H   UNL     1      27.151  -3.440 166.210  1.00  0.00     0.293 HD
ENDBRANCH  17  20
ENDBRANCH   1  12
BRANCH   2  22
ATOM     22  O   UNL     1      32.061  -2.087 164.289  1.00  0.00    -0.502 OA
ATOM     23  H   UNL     1      31.287  -2.543 164.757  1.00  0.00     0.293 HD
ENDBRANCH   2  22
BRANCH   6  24
ATOM     24  O   UNL     1      36.321   0.911 163.182  1.00  0.00    -0.507 OA
ATOM     25  H   UNL     1      37.219   1.284 162.912  1.00  0.00     0.293 HD
ENDBRANCH   6  24
BRANCH   8  26
ATOM     26  O   UNL     1      35.381   4.770 165.853  1.00  0.00    -0.508 OA
ATOM     27  H   UNL     1      34.730   5.387 166.321  1.00  0.00     0.293 HD
ENDBRANCH   8  26
TORSDOF 6
ENDMDL
MODEL 4
REMARK VINA RESULT:    -6.868      1.788      6.663
REMARK INTER + INTRA:          -8.351
REMARK INTER:                  -8.695
REMARK INTRA:                   0.344
REMARK UNBOUND:                -0.078
REMARK SMILES O=c1c(O)c(-c2ccc(O)c(O)c2)oc2cc(O)cc(O)c12
REMARK SMILES IDX 5 1 3 2 2 3 1 4 22 5 20 6 19 7 17 8 16 9 15 10 14 11 6 12
REMARK SMILES IDX 7 13 8 14 9 15 13 16 11 17 10 18 12 20 4 22 21 24 18 26
REMARK H PARENT 10 19 12 21 4 23 21 25 18 27
REMARK Flexibility Score: inf
ROOT
ATOM      1  C   UNL     1      31.787   0.252 165.985  1.00  0.00     0.180 A 
ATOM      2  C   UNL     1      32.266   1.503 166.410  1.00  0.00     0.208 A 
ATOM      3  C   UNL     1      33.360   2.076 165.742  1.00  0.00     0.238 A 
ATOM      4  O   UNL     1      33.818   3.171 166.162  1.00  0.00    -0.285 OA
ATOM      5  C   UNL     1      33.949   1.400 164.646  1.00  0.00     0.111 A 
ATOM      6  C   UNL     1      35.036   1.907 163.871  1.00  0.00     0.134 A 
ATOM      7  C   UNL     1      35.624   1.095 162.894  1.00  0.00     0.093 A 
ATOM      8  C   UNL     1      35.125  -0.178 162.618  1.00  0.00     0.123 A 
ATOM      9  C   UNL     1      34.025  -0.660 163.330  1.00  0.00     0.094 A 
ATOM     10  C   UNL     1      33.440   0.112 164.336  1.00  0.00     0.146 A 
ATOM     11  O   UNL     1      32.403  -0.387 164.997  1.00  0.00    -0.452 OA
ENDROOT
BRANCH   1  12
ATOM     12  C   UNL     1      30.623  -0.405 166.624  1.00  0.00     0.025 A 
ATOM     13  C   UNL     1      30.359  -0.173 167.981  1.00  0.00     0.016 A 
ATOM     14  C   UNL     1      29.279  -0.797 168.607  1.00  0.00     0.051 A 
ATOM     15  C   UNL     1      28.453  -1.677 167.898  1.00  0.00     0.157 A 
ATOM     16  C   UNL     1      29.810  -1.305 165.914  1.00  0.00     0.062 A 
ATOM     17  C   UNL     1      28.727  -1.939 166.535  1.00  0.00     0.158 A 
BRANCH  15  18
ATOM     18  O   UNL     1      27.385  -2.263 168.581  1.00  0.00    -0.504 OA
ATOM     19  H   UNL     1      27.121  -2.024 169.526  1.00  0.00     0.293 HD
ENDBRANCH  15  18
BRANCH  17  20
ATOM     20  O   UNL     1      27.959  -2.819 165.769  1.00  0.00    -0.504 OA
ATOM     21  H   UNL     1      28.062  -2.937 164.772  1.00  0.00     0.293 HD
ENDBRANCH  17  20
ENDBRANCH   1  12
BRANCH   2  22
ATOM     22  O   UNL     1      31.683   2.143 167.507  1.00  0.00    -0.502 OA
ATOM     23  H   UNL     1      32.034   2.034 168.451  1.00  0.00     0.293 HD
ENDBRANCH   2  22
BRANCH   6  24
ATOM     24  O   UNL     1      35.551   3.200 164.001  1.00  0.00    -0.507 OA
ATOM     25  H   UNL     1      35.753   3.819 163.231  1.00  0.00     0.293 HD
ENDBRANCH   6  24
BRANCH   8  26
ATOM     26  O   UNL     1      35.725  -0.952 161.628  1.00  0.00    -0.508 OA
ATOM     27  H   UNL     1      35.644  -1.962 161.623  1.00  0.00     0.293 HD
ENDBRANCH   8  26
TORSDOF 6
ENDMDL
MODEL 5
REMARK VINA RESULT:    -6.839      1.294      2.953
REMARK INTER + INTRA:          -8.316
REMARK INTER:                  -8.115
REMARK INTRA:                  -0.201
REMARK UNBOUND:                -0.078
REMARK SMILES O=c1c(O)c(-c2ccc(O)c(O)c2)oc2cc(O)cc(O)c12
REMARK SMILES IDX 5 1 3 2 2 3 1 4 22 5 20 6 19 7 17 8 16 9 15 10 14 11 6 12
REMARK SMILES IDX 7 13 8 14 9 15 13 16 11 17 10 18 12 20 4 22 21 24 18 26
REMARK H PARENT 10 19 12 21 4 23 21 25 18 27
REMARK Flexibility Score: inf
ROOT
ATOM      1  C   UNL     1      32.409  -0.318 165.218  1.00  0.00     0.180 A 
ATOM      2  C   UNL     1      32.238  -1.105 164.066  1.00  0.00     0.208 A 
ATOM      3  C   UNL     1      31.097  -1.916 163.958  1.00  0.00     0.238 A 
ATOM      4  O   UNL     1      30.977  -2.659 162.949  1.00  0.00    -0.285 OA
ATOM      5  C   UNL     1      30.132  -1.916 164.995  1.00  0.00     0.111 A 
ATOM      6  C   UNL     1      28.920  -2.669 164.973  1.00  0.00     0.134 A 
ATOM      7  C   UNL     1      28.103  -2.695 166.110  1.00  0.00     0.093 A 
ATOM      8  C   UNL     1      28.420  -1.946 167.243  1.00  0.00     0.123 A 
ATOM      9  C   UNL     1      29.573  -1.160 167.253  1.00  0.00     0.094 A 
ATOM     10  C   UNL     1      30.427  -1.142 166.147  1.00  0.00     0.146 A 
ATOM     11  O   UNL     1      31.519  -0.390 166.201  1.00  0.00    -0.452 OA
ENDROOT
BRANCH   1  12
ATOM     12  C   UNL     1      33.573   0.581 165.393  1.00  0.00     0.025 A 
ATOM     13  C   UNL     1      34.843   0.030 165.612  1.00  0.00     0.016 A 
ATOM     14  C   UNL     1      35.950   0.859 165.798  1.00  0.00     0.051 A 
ATOM     15  C   UNL     1      35.810   2.252 165.788  1.00  0.00     0.157 A 
ATOM     16  C   UNL     1      33.423   1.978 165.403  1.00  0.00     0.062 A 
ATOM     17  C   UNL     1      34.528   2.818 165.593  1.00  0.00     0.158 A 
BRANCH  15  18
ATOM     18  O   UNL     1      36.958   3.025 165.973  1.00  0.00    -0.504 OA
ATOM     19  H   UNL     1      37.576   2.936 166.767  1.00  0.00     0.293 HD
ENDBRANCH  15  18
BRANCH  17  20
ATOM     20  O   UNL     1      34.307   4.197 165.589  1.00  0.00    -0.504 OA
ATOM     21  H   UNL     1      33.422   4.629 165.811  1.00  0.00     0.293 HD
ENDBRANCH  17  20
ENDBRANCH   1  12
BRANCH   2  22
ATOM     22  O   UNL     1      33.212  -1.105 163.065  1.00  0.00    -0.502 OA
ATOM     23  H   UNL     1      33.573  -0.251 162.656  1.00  0.00     0.293 HD
ENDBRANCH   2  22
BRANCH   6  24
ATOM     24  O   UNL     1      28.462  -3.378 163.859  1.00  0.00    -0.507 OA
ATOM     25  H   UNL     1      28.446  -3.020 162.916  1.00  0.00     0.293 HD
ENDBRANCH   6  24
BRANCH   8  26
ATOM     26  O   UNL     1      27.576  -1.984 168.350  1.00  0.00    -0.508 OA
ATOM     27  H   UNL     1      27.901  -1.719 169.272  1.00  0.00     0.293 HD
ENDBRANCH   8  26
TORSDOF 6
ENDMDL
MODEL 6
REMARK VINA RESULT:    -6.624      1.551      3.363
REMARK INTER + INTRA:          -8.057
REMARK INTER:                  -7.754
REMARK INTRA:                  -0.303
REMARK UNBOUND:                -0.078
REMARK SMILES O=c1c(O)c(-c2ccc(O)c(O)c2)oc2cc(O)cc(O)c12
REMARK SMILES IDX 5 1 3 2 2 3 1 4 22 5 20 6 19 7 17 8 16 9 15 10 14 11 6 12
REMARK SMILES IDX 7 13 8 14 9 15 13 16 11 17 10 18 12 20 4 22 21 24 18 26
REMARK H PARENT 10 19 12 21 4 23 21 25 18 27
REMARK Flexibility Score: inf
ROOT
ATOM      1  C   UNL     1      32.921   0.676 165.599  1.00  0.00     0.180 A 
ATOM      2  C   UNL     1      32.717  -0.078 164.431  1.00  0.00     0.208 A 
ATOM      3  C   UNL     1      31.623  -0.956 164.370  1.00  0.00     0.238 A 
ATOM      4  O   UNL     1      31.477  -1.668 163.342  1.00  0.00    -0.285 OA
ATOM      5  C   UNL     1      30.738  -1.057 165.470  1.00  0.00     0.111 A 
ATOM      6  C   UNL     1      29.575  -1.885 165.502  1.00  0.00     0.134 A 
ATOM      7  C   UNL     1      28.846  -2.006 166.691  1.00  0.00     0.093 A 
ATOM      8  C   UNL     1      29.197  -1.280 167.828  1.00  0.00     0.123 A 
ATOM      9  C   UNL     1      30.298  -0.422 167.791  1.00  0.00     0.094 A 
ATOM     10  C   UNL     1      31.066  -0.308 166.630  1.00  0.00     0.146 A 
ATOM     11  O   UNL     1      32.111   0.510 166.638  1.00  0.00    -0.452 OA
ENDROOT
BRANCH   1  12
ATOM     12  C   UNL     1      34.037   1.641 165.729  1.00  0.00     0.025 A 
ATOM     13  C   UNL     1      33.816   2.995 165.442  1.00  0.00     0.016 A 
ATOM     14  C   UNL     1      34.859   3.917 165.540  1.00  0.00     0.051 A 
ATOM     15  C   UNL     1      36.145   3.506 165.907  1.00  0.00     0.157 A 
ATOM     16  C   UNL     1      35.332   1.219 166.077  1.00  0.00     0.062 A 
ATOM     17  C   UNL     1      36.385   2.137 166.173  1.00  0.00     0.158 A 
BRANCH  15  18
ATOM     18  O   UNL     1      37.142   4.479 165.993  1.00  0.00    -0.504 OA
ATOM     19  H   UNL     1      37.615   4.874 165.194  1.00  0.00     0.293 HD
ENDBRANCH  15  18
BRANCH  17  20
ATOM     20  O   UNL     1      37.646   1.649 166.526  1.00  0.00    -0.504 OA
ATOM     21  H   UNL     1      37.848   0.674 166.693  1.00  0.00     0.293 HD
ENDBRANCH  17  20
ENDBRANCH   1  12
BRANCH   2  22
ATOM     22  O   UNL     1      33.614   0.021 163.365  1.00  0.00    -0.502 OA
ATOM     23  H   UNL     1      34.517   0.472 163.453  1.00  0.00     0.293 HD
ENDBRANCH   2  22
BRANCH   6  24
ATOM     24  O   UNL     1      29.083  -2.581 164.394  1.00  0.00    -0.507 OA
ATOM     25  H   UNL     1      28.422  -3.342 164.440  1.00  0.00     0.293 HD
ENDBRANCH   6  24
BRANCH   8  26
ATOM     26  O   UNL     1      28.440  -1.412 168.990  1.00  0.00    -0.508 OA
ATOM     27  H   UNL     1      28.811  -1.156 169.897  1.00  0.00     0.293 HD
ENDBRANCH   8  26
TORSDOF 6
ENDMDL
MODEL 7
REMARK VINA RESULT:    -6.551      2.076      7.397
REMARK INTER + INTRA:          -7.970
REMARK INTER:                  -8.271
REMARK INTRA:                   0.301
REMARK UNBOUND:                -0.078
REMARK SMILES O=c1c(O)c(-c2ccc(O)c(O)c2)oc2cc(O)cc(O)c12
REMARK SMILES IDX 5 1 3 2 2 3 1 4 22 5 20 6 19 7 17 8 16 9 15 10 14 11 6 12
REMARK SMILES IDX 7 13 8 14 9 15 13 16 11 17 10 18 12 20 4 22 21 24 18 26
REMARK H PARENT 10 19 12 21 4 23 21 25 18 27
REMARK Flexibility Score: inf
ROOT
ATOM      1  C   UNL     1      32.653   0.919 165.699  1.00  0.00     0.180 A 
ATOM      2  C   UNL     1      32.724   0.628 164.326  1.00  0.00     0.208 A 
ATOM      3  C   UNL     1      33.779   1.163 163.570  1.00  0.00     0.238 A 
ATOM      4  O   UNL     1      33.806   0.942 162.331  1.00  0.00    -0.285 OA
ATOM      5  C   UNL     1      34.760   1.967 164.199  1.00  0.00     0.111 A 
ATOM      6  C   UNL     1      35.894   2.527 163.537  1.00  0.00     0.134 A 
ATOM      7  C   UNL     1      36.728   3.415 164.229  1.00  0.00     0.093 A 
ATOM      8  C   UNL     1      36.507   3.711 165.574  1.00  0.00     0.123 A 
ATOM      9  C   UNL     1      35.435   3.123 166.246  1.00  0.00     0.094 A 
ATOM     10  C   UNL     1      34.565   2.261 165.573  1.00  0.00     0.146 A 
ATOM     11  O   UNL     1      33.551   1.731 166.246  1.00  0.00    -0.452 OA
ENDROOT
BRANCH   1  12
ATOM     12  C   UNL     1      31.585   0.373 166.567  1.00  0.00     0.025 A 
ATOM     13  C   UNL     1      31.015  -0.871 166.260  1.00  0.00     0.016 A 
ATOM     14  C   UNL     1      29.994  -1.395 167.054  1.00  0.00     0.051 A 
ATOM     15  C   UNL     1      29.508  -0.683 168.156  1.00  0.00     0.157 A 
ATOM     16  C   UNL     1      31.085   1.102 167.660  1.00  0.00     0.062 A 
ATOM     17  C   UNL     1      30.058   0.585 168.459  1.00  0.00     0.158 A 
BRANCH  15  18
ATOM     18  O   UNL     1      28.490  -1.266 168.913  1.00  0.00    -0.504 OA
ATOM     19  H   UNL     1      27.858  -1.970 168.561  1.00  0.00     0.293 HD
ENDBRANCH  15  18
BRANCH  17  20
ATOM     20  O   UNL     1      29.612   1.362 169.531  1.00  0.00    -0.504 OA
ATOM     21  H   UNL     1      29.061   2.202 169.430  1.00  0.00     0.293 HD
ENDBRANCH  17  20
ENDBRANCH   1  12
BRANCH   2  22
ATOM     22  O   UNL     1      31.734  -0.151 163.721  1.00  0.00    -0.502 OA
ATOM     23  H   UNL     1      31.951  -0.952 163.140  1.00  0.00     0.293 HD
ENDBRANCH   2  22
BRANCH   6  24
ATOM     24  O   UNL     1      36.259   2.225 162.222  1.00  0.00    -0.507 OA
ATOM     25  H   UNL     1      35.612   1.983 161.487  1.00  0.00     0.293 HD
ENDBRANCH   6  24
BRANCH   8  26
ATOM     26  O   UNL     1      37.366   4.586 166.235  1.00  0.00    -0.508 OA
ATOM     27  H   UNL     1      37.611   5.487 165.841  1.00  0.00     0.293 HD
ENDBRANCH   8  26
TORSDOF 6
ENDMDL
MODEL 8
REMARK VINA RESULT:    -6.305      1.923      3.888
REMARK INTER + INTRA:          -7.673
REMARK INTER:                  -7.419
REMARK INTRA:                  -0.254
REMARK UNBOUND:                -0.078
REMARK SMILES O=c1c(O)c(-c2ccc(O)c(O)c2)oc2cc(O)cc(O)c12
REMARK SMILES IDX 5 1 3 2 2 3 1 4 22 5 20 6 19 7 17 8 16 9 15 10 14 11 6 12
REMARK SMILES IDX 7 13 8 14 9 15 13 16 11 17 10 18 12 20 4 22 21 24 18 26
REMARK H PARENT 10 19 12 21 4 23 21 25 18 27
REMARK Flexibility Score: inf
ROOT
ATOM      1  C   UNL     1      33.378   0.971 164.855  1.00  0.00     0.180 A 
ATOM      2  C   UNL     1      32.979  -0.242 164.268  1.00  0.00     0.208 A 
ATOM      3  C   UNL     1      31.903  -0.948 164.829  1.00  0.00     0.238 A 
ATOM      4  O   UNL     1      31.585  -2.060 164.331  1.00  0.00    -0.285 OA
ATOM      5  C   UNL     1      31.228  -0.425 165.958  1.00  0.00     0.111 A 
ATOM      6  C   UNL     1      30.101  -1.037 166.583  1.00  0.00     0.134 A 
ATOM      7  C   UNL     1      29.595  -0.499 167.774  1.00  0.00     0.093 A 
ATOM      8  C   UNL     1      30.134   0.662 168.325  1.00  0.00     0.123 A 
ATOM      9  C   UNL     1      31.200   1.302 167.690  1.00  0.00     0.094 A 
ATOM     10  C   UNL     1      31.748   0.770 166.521  1.00  0.00     0.146 A 
ATOM     11  O   UNL     1      32.768   1.402 165.953  1.00  0.00    -0.452 OA
ENDROOT
BRANCH   1  12
ATOM     12  C   UNL     1      34.488   1.785 164.307  1.00  0.00     0.025 A 
ATOM     13  C   UNL     1      34.296   2.501 163.117  1.00  0.00     0.016 A 
ATOM     14  C   UNL     1      35.334   3.258 162.574  1.00  0.00     0.051 A 
ATOM     15  C   UNL     1      36.588   3.302 163.194  1.00  0.00     0.157 A 
ATOM     16  C   UNL     1      35.751   1.808 164.922  1.00  0.00     0.062 A 
ATOM     17  C   UNL     1      36.800   2.562 164.381  1.00  0.00     0.158 A 
BRANCH  15  18
ATOM     18  O   UNL     1      37.582   4.084 162.603  1.00  0.00    -0.504 OA
ATOM     19  H   UNL     1      38.338   3.710 162.048  1.00  0.00     0.293 HD
ENDBRANCH  15  18
BRANCH  17  20
ATOM     20  O   UNL     1      38.029   2.541 165.046  1.00  0.00    -0.504 OA
ATOM     21  H   UNL     1      38.130   2.602 166.048  1.00  0.00     0.293 HD
ENDBRANCH  17  20
ENDBRANCH   1  12
BRANCH   2  22
ATOM     22  O   UNL     1      33.672  -0.750 163.166  1.00  0.00    -0.502 OA
ATOM     23  H   UNL     1      33.258  -1.415 162.523  1.00  0.00     0.293 HD
ENDBRANCH   2  22
BRANCH   6  24
ATOM     24  O   UNL     1      29.428  -2.147 166.065  1.00  0.00    -0.507 OA
ATOM     25  H   UNL     1      29.868  -2.904 165.564  1.00  0.00     0.293 HD
ENDBRANCH   6  24
BRANCH   8  26
ATOM     26  O   UNL     1      29.596   1.178 169.502  1.00  0.00    -0.508 OA
ATOM     27  H   UNL     1      29.660   0.676 170.379  1.00  0.00     0.293 HD
ENDBRANCH   8  26
TORSDOF 6
ENDMDL
MODEL 9
REMARK VINA RESULT:    -6.295      1.979      3.742
REMARK INTER + INTRA:          -7.661
REMARK INTER:                  -7.327
REMARK INTRA:                  -0.334
REMARK UNBOUND:                -0.078
REMARK SMILES O=c1c(O)c(-c2ccc(O)c(O)c2)oc2cc(O)cc(O)c12
REMARK SMILES IDX 5 1 3 2 2 3 1 4 22 5 20 6 19 7 17 8 16 9 15 10 14 11 6 12
REMARK SMILES IDX 7 13 8 14 9 15 13 16 11 17 10 18 12 20 4 22 21 24 18 26
REMARK H PARENT 10 19 12 21 4 23 21 25 18 27
REMARK Flexibility Score: inf
ROOT
ATOM      1  C   UNL     1      33.315   0.811 164.786  1.00  0.00     0.180 A 
ATOM      2  C   UNL     1      32.862  -0.390 164.214  1.00  0.00     0.208 A 
ATOM      3  C   UNL     1      31.776  -1.058 164.804  1.00  0.00     0.238 A 
ATOM      4  O   UNL     1      31.410  -2.161 164.318  1.00  0.00    -0.285 OA
ATOM      5  C   UNL     1      31.148  -0.509 165.947  1.00  0.00     0.111 A 
ATOM      6  C   UNL     1      30.016  -1.080 166.603  1.00  0.00     0.134 A 
ATOM      7  C   UNL     1      29.559  -0.522 167.803  1.00  0.00     0.093 A 
ATOM      8  C   UNL     1      30.150   0.623 168.336  1.00  0.00     0.123 A 
ATOM      9  C   UNL     1      31.220   1.225 167.672  1.00  0.00     0.094 A 
ATOM     10  C   UNL     1      31.721   0.670 166.492  1.00  0.00     0.146 A 
ATOM     11  O   UNL     1      32.747   1.265 165.896  1.00  0.00    -0.452 OA
ENDROOT
BRANCH   1  12
ATOM     12  C   UNL     1      34.437   1.584 164.206  1.00  0.00     0.025 A 
ATOM     13  C   UNL     1      35.736   1.390 164.698  1.00  0.00     0.016 A 
ATOM     14  C   UNL     1      36.804   2.123 164.179  1.00  0.00     0.051 A 
ATOM     15  C   UNL     1      36.597   3.076 163.175  1.00  0.00     0.157 A 
ATOM     16  C   UNL     1      34.221   2.555 163.214  1.00  0.00     0.062 A 
ATOM     17  C   UNL     1      35.287   3.299 162.690  1.00  0.00     0.158 A 
BRANCH  15  18
ATOM     18  O   UNL     1      37.709   3.770 162.694  1.00  0.00    -0.504 OA
ATOM     19  H   UNL     1      38.436   3.351 162.133  1.00  0.00     0.293 HD
ENDBRANCH  15  18
BRANCH  17  20
ATOM     20  O   UNL     1      35.000   4.245 161.704  1.00  0.00    -0.504 OA
ATOM     21  H   UNL     1      35.484   5.125 161.607  1.00  0.00     0.293 HD
ENDBRANCH  17  20
ENDBRANCH   1  12
BRANCH   2  22
ATOM     22  O   UNL     1      33.509  -0.926 163.097  1.00  0.00    -0.502 OA
ATOM     23  H   UNL     1      33.833  -1.885 163.064  1.00  0.00     0.293 HD
ENDBRANCH   2  22
BRANCH   6  24
ATOM     24  O   UNL     1      29.294  -2.169 166.106  1.00  0.00    -0.507 OA
ATOM     25  H   UNL     1      28.884  -2.895 166.674  1.00  0.00     0.293 HD
ENDBRANCH   6  24
BRANCH   8  26
ATOM     26  O   UNL     1      29.659   1.161 169.523  1.00  0.00    -0.508 OA
ATOM     27  H   UNL     1      28.668   1.161 169.735  1.00  0.00     0.293 HD
ENDBRANCH   8  26
TORSDOF 6
ENDMDL
