MODEL 1
REMARK VINA RESULT:    -4.225      0.000      0.000
REMARK INTER + INTRA:          -6.835
REMARK INTER:                  -6.448
REMARK INTRA:                  -0.387
REMARK UNBOUND:                -0.387
REMARK SMILES O=C([O-])CCCCCCCCC(=O)[O-]
REMARK SMILES IDX 7 1 6 2 5 3 4 4 2 5 1 6 3 7 8 8 9 9 10 10 11 11 12 12 13 13
REMARK SMILES IDX 14 14
REMARK H PARENT
REMARK Flexibility Score: inf
ROOT
ATOM      1  C   UNL     1      34.596  28.778  28.666  1.00  0.00     0.000 C 
ENDROOT
BRANCH   1   2
ATOM      2  C   UNL     1      35.965  29.243  29.198  1.00  0.00     0.000 C 
BRANCH   2   3
ATOM      3  C   UNL     1      36.584  30.444  28.456  1.00  0.00     0.006 C 
BRANCH   3   4
ATOM      4  C   UNL     1      38.062  30.697  28.802  1.00  0.00     0.053 C 
BRANCH   4   5
ATOM      5  C   UNL     1      38.490  32.101  28.498  1.00  0.00     0.041 C 
ATOM      6  O   UNL     1      37.633  32.976  28.207  1.00  0.00    -0.550 OA
ATOM      7  O   UNL     1      39.832  32.452  28.572  1.00  0.00    -0.550 OA
ENDBRANCH   4   5
ENDBRANCH   3   4
ENDBRANCH   2   3
ENDBRANCH   1   2
BRANCH   1   8
ATOM      8  C   UNL     1      33.713  28.030  29.687  1.00  0.00     0.000 C 
BRANCH   8   9
ATOM      9  C   UNL     1      32.207  28.333  29.590  1.00  0.00     0.000 C 
BRANCH   9  10
ATOM     10  C   UNL     1      31.395  27.153  29.039  1.00  0.00     0.006 C 
BRANCH  10  11
ATOM     11  C   UNL     1      31.007  27.389  27.576  1.00  0.00     0.053 C 
BRANCH  11  12
ATOM     12  C   UNL     1      32.030  26.795  26.660  1.00  0.00     0.041 C 
ATOM     13  O   UNL     1      32.295  25.565  26.718  1.00  0.00    -0.550 OA
ATOM     14  O   UNL     1      32.726  27.608  25.774  1.00  0.00    -0.550 OA
ENDBRANCH  11  12
ENDBRANCH  10  11
ENDBRANCH   9  10
ENDBRANCH   8   9
ENDBRANCH   1   8
TORSDOF 9
ENDMDL
MODEL 2
REMARK VINA RESULT:    -4.224      0.738      7.235
REMARK INTER + INTRA:          -6.833
REMARK INTER:                  -6.511
REMARK INTRA:                  -0.321
REMARK UNBOUND:                -0.387
REMARK SMILES O=C([O-])CCCCCCCCC(=O)[O-]
REMARK SMILES IDX 7 1 6 2 5 3 4 4 2 5 1 6 3 7 8 8 9 9 10 10 11 11 12 12 13 13
REMARK SMILES IDX 14 14
REMARK H PARENT
REMARK Flexibility Score: inf
ROOT
ATOM      1  C   UNL     1      34.615  27.572  29.354  1.00  0.00     0.000 C 
ENDROOT
BRANCH   1   2
ATOM      2  C   UNL     1      33.253  28.285  29.273  1.00  0.00     0.000 C 
BRANCH   2   3
ATOM      3  C   UNL     1      32.039  27.361  29.054  1.00  0.00     0.006 C 
BRANCH   3   4
ATOM      4  C   UNL     1      31.399  27.491  27.660  1.00  0.00     0.053 C 
BRANCH   4   5
ATOM      5  C   UNL     1      32.171  26.758  26.605  1.00  0.00     0.041 C 
ATOM      6  O   UNL     1      32.280  25.505  26.653  1.00  0.00    -0.550 OA
ATOM      7  O   UNL     1      32.740  27.456  25.547  1.00  0.00    -0.550 OA
ENDBRANCH   4   5
ENDBRANCH   3   4
ENDBRANCH   2   3
ENDBRANCH   1   2
BRANCH   1   8
ATOM      8  C   UNL     1      35.828  28.494  29.600  1.00  0.00     0.000 C 
BRANCH   8   9
ATOM      9  C   UNL     1      35.976  29.656  28.601  1.00  0.00     0.000 C 
BRANCH   9  10
ATOM     10  C   UNL     1      36.915  30.760  29.105  1.00  0.00     0.006 C 
BRANCH  10  11
ATOM     11  C   UNL     1      37.947  31.133  28.037  1.00  0.00     0.053 C 
BRANCH  11  12
ATOM     12  C   UNL     1      38.796  32.274  28.502  1.00  0.00     0.041 C 
ATOM     13  O   UNL     1      38.382  33.458  28.392  1.00  0.00    -0.550 OA
ATOM     14  O   UNL     1      40.066  32.032  29.011  1.00  0.00    -0.550 OA
ENDBRANCH  11  12
ENDBRANCH  10  11
ENDBRANCH   9  10
ENDBRANCH   8   9
ENDBRANCH   1   8
TORSDOF 9
ENDMDL
MODEL 3
REMARK VINA RESULT:    -4.023     10.955     13.132
REMARK INTER + INTRA:          -6.526
REMARK INTER:                  -6.217
REMARK INTRA:                  -0.309
REMARK UNBOUND:                -0.387
REMARK SMILES O=C([O-])CCCCCCCCC(=O)[O-]
REMARK SMILES IDX 7 1 6 2 5 3 4 4 2 5 1 6 3 7 8 8 9 9 10 10 11 11 12 12 13 13
REMARK SMILES IDX 14 14
REMARK H PARENT
REMARK Flexibility Score: inf
ROOT
ATOM      1  C   UNL     1      38.974  26.273  17.265  1.00  0.00     0.000 C 
ENDROOT
BRANCH   1   2
ATOM      2  C   UNL     1      37.887  26.303  16.174  1.00  0.00     0.000 C 
BRANCH   2   3
ATOM      3  C   UNL     1      36.570  25.593  16.539  1.00  0.00     0.006 C 
BRANCH   3   4
ATOM      4  C   UNL     1      35.381  25.979  15.639  1.00  0.00     0.053 C 
BRANCH   4   5
ATOM      5  C   UNL     1      34.945  27.399  15.846  1.00  0.00     0.041 C 
ATOM      6  O   UNL     1      35.133  28.258  14.946  1.00  0.00    -0.550 OA
ATOM      7  O   UNL     1      34.297  27.764  17.019  1.00  0.00    -0.550 OA
ENDBRANCH   4   5
ENDBRANCH   3   4
ENDBRANCH   2   3
ENDBRANCH   1   2
BRANCH   1   8
ATOM      8  C   UNL     1      40.365  26.773  16.822  1.00  0.00     0.000 C 
BRANCH   8   9
ATOM      9  C   UNL     1      41.551  25.935  17.334  1.00  0.00     0.000 C 
BRANCH   9  10
ATOM     10  C   UNL     1      41.711  25.996  18.859  1.00  0.00     0.006 C 
BRANCH  10  11
ATOM     11  C   UNL     1      41.403  27.401  19.387  1.00  0.00     0.053 C 
BRANCH  11  12
ATOM     12  C   UNL     1      40.617  27.323  20.658  1.00  0.00     0.041 C 
ATOM     13  O   UNL     1      40.509  26.229  21.271  1.00  0.00    -0.550 OA
ATOM     14  O   UNL     1      39.961  28.450  21.139  1.00  0.00    -0.550 OA
ENDBRANCH  11  12
ENDBRANCH  10  11
ENDBRANCH   9  10
ENDBRANCH   8   9
ENDBRANCH   1   8
TORSDOF 9
ENDMDL
MODEL 4
REMARK VINA RESULT:    -3.995     12.454     13.212
REMARK INTER + INTRA:          -6.484
REMARK INTER:                  -6.187
REMARK INTRA:                  -0.297
REMARK UNBOUND:                -0.387
REMARK SMILES O=C([O-])CCCCCCCCC(=O)[O-]
REMARK SMILES IDX 7 1 6 2 5 3 4 4 2 5 1 6 3 7 8 8 9 9 10 10 11 11 12 12 13 13
REMARK SMILES IDX 14 14
REMARK H PARENT
REMARK Flexibility Score: inf
ROOT
ATOM      1  C   UNL     1      37.853  26.249  16.239  1.00  0.00     0.000 C 
ENDROOT
BRANCH   1   2
ATOM      2  C   UNL     1      38.866  26.080  17.386  1.00  0.00     0.000 C 
BRANCH   2   3
ATOM      3  C   UNL     1      40.118  26.974  17.295  1.00  0.00     0.006 C 
BRANCH   3   4
ATOM      4  C   UNL     1      41.319  26.298  16.610  1.00  0.00     0.053 C 
BRANCH   4   5
ATOM      5  C   UNL     1      42.129  25.468  17.560  1.00  0.00     0.041 C 
ATOM      6  O   UNL     1      42.027  25.645  18.802  1.00  0.00    -0.550 OA
ATOM      7  O   UNL     1      42.970  24.475  17.075  1.00  0.00    -0.550 OA
ENDBRANCH   4   5
ENDBRANCH   3   4
ENDBRANCH   2   3
ENDBRANCH   1   2
BRANCH   1   8
ATOM      8  C   UNL     1      36.456  25.648  16.499  1.00  0.00     0.000 C 
BRANCH   8   9
ATOM      9  C   UNL     1      35.339  26.174  15.580  1.00  0.00     0.000 C 
BRANCH   9  10
ATOM     10  C   UNL     1      35.032  27.662  15.805  1.00  0.00     0.006 C 
BRANCH  10  11
ATOM     11  C   UNL     1      35.029  28.427  14.479  1.00  0.00     0.053 C 
BRANCH  11  12
ATOM     12  C   UNL     1      34.867  29.895  14.720  1.00  0.00     0.041 C 
ATOM     13  O   UNL     1      34.997  30.364  15.881  1.00  0.00    -0.550 OA
ATOM     14  O   UNL     1      34.521  30.737  13.670  1.00  0.00    -0.550 OA
ENDBRANCH  11  12
ENDBRANCH  10  11
ENDBRANCH   9  10
ENDBRANCH   8   9
ENDBRANCH   1   8
TORSDOF 9
ENDMDL
MODEL 5
REMARK VINA RESULT:    -3.989     12.199     13.463
REMARK INTER + INTRA:          -6.475
REMARK INTER:                  -6.113
REMARK INTRA:                  -0.362
REMARK UNBOUND:                -0.387
REMARK SMILES O=C([O-])CCCCCCCCC(=O)[O-]
REMARK SMILES IDX 7 1 6 2 5 3 4 4 2 5 1 6 3 7 8 8 9 9 10 10 11 11 12 12 13 13
REMARK SMILES IDX 14 14
REMARK H PARENT
REMARK Flexibility Score: inf
ROOT
ATOM      1  C   UNL     1      41.709  29.084  17.064  1.00  0.00     0.000 C 
ENDROOT
BRANCH   1   2
ATOM      2  C   UNL     1      42.466  29.835  15.953  1.00  0.00     0.000 C 
BRANCH   2   3
ATOM      3  C   UNL     1      42.763  31.318  16.247  1.00  0.00     0.006 C 
BRANCH   3   4
ATOM      4  C   UNL     1      43.971  31.879  15.474  1.00  0.00     0.053 C 
BRANCH   4   5
ATOM      5  C   UNL     1      45.277  31.533  16.124  1.00  0.00     0.041 C 
ATOM      6  O   UNL     1      45.531  31.932  17.290  1.00  0.00    -0.550 OA
ATOM      7  O   UNL     1      46.200  30.741  15.453  1.00  0.00    -0.550 OA
ENDBRANCH   4   5
ENDBRANCH   3   4
ENDBRANCH   2   3
ENDBRANCH   1   2
BRANCH   1   8
ATOM      8  C   UNL     1      41.643  27.552  16.896  1.00  0.00     0.000 C 
BRANCH   8   9
ATOM      9  C   UNL     1      40.242  26.937  17.069  1.00  0.00     0.000 C 
BRANCH   9  10
ATOM     10  C   UNL     1      39.923  26.582  18.528  1.00  0.00     0.006 C 
BRANCH  10  11
ATOM     11  C   UNL     1      41.205  26.457  19.355  1.00  0.00     0.053 C 
BRANCH  11  12
ATOM     12  C   UNL     1      41.111  27.281  20.600  1.00  0.00     0.041 C 
ATOM     13  O   UNL     1      40.100  28.003  20.806  1.00  0.00    -0.550 OA
ATOM     14  O   UNL     1      42.162  27.292  21.508  1.00  0.00    -0.550 OA
ENDBRANCH  11  12
ENDBRANCH  10  11
ENDBRANCH   9  10
ENDBRANCH   8   9
ENDBRANCH   1   8
TORSDOF 9
ENDMDL
MODEL 6
REMARK VINA RESULT:    -3.960      3.232      8.529
REMARK INTER + INTRA:          -6.431
REMARK INTER:                  -5.960
REMARK INTRA:                  -0.471
REMARK UNBOUND:                -0.387
REMARK SMILES O=C([O-])CCCCCCCCC(=O)[O-]
REMARK SMILES IDX 7 1 6 2 5 3 4 4 2 5 1 6 3 7 8 8 9 9 10 10 11 11 12 12 13 13
REMARK SMILES IDX 14 14
REMARK H PARENT
REMARK Flexibility Score: inf
ROOT
ATOM      1  C   UNL     1      37.873  31.517  28.100  1.00  0.00     0.000 C 
ENDROOT
BRANCH   1   2
ATOM      2  C   UNL     1      38.232  30.363  29.054  1.00  0.00     0.000 C 
BRANCH   2   3
ATOM      3  C   UNL     1      37.030  29.626  29.676  1.00  0.00     0.006 C 
BRANCH   3   4
ATOM      4  C   UNL     1      35.784  29.591  28.772  1.00  0.00     0.053 C 
BRANCH   4   5
ATOM      5  C   UNL     1      34.817  28.518  29.172  1.00  0.00     0.041 C 
ATOM      6  O   UNL     1      35.225  27.351  29.406  1.00  0.00    -0.550 OA
ATOM      7  O   UNL     1      33.468  28.816  29.320  1.00  0.00    -0.550 OA
ENDBRANCH   4   5
ENDBRANCH   3   4
ENDBRANCH   2   3
ENDBRANCH   1   2
BRANCH   1   8
ATOM      8  C   UNL     1      38.693  32.810  28.293  1.00  0.00     0.000 C 
BRANCH   8   9
ATOM      9  C   UNL     1      39.516  32.872  29.592  1.00  0.00     0.000 C 
BRANCH   9  10
ATOM     10  C   UNL     1      41.030  32.894  29.339  1.00  0.00     0.006 C 
BRANCH  10  11
ATOM     11  C   UNL     1      41.679  31.579  29.781  1.00  0.00     0.053 C 
BRANCH  11  12
ATOM     12  C   UNL     1      43.115  31.536  29.366  1.00  0.00     0.041 C 
ATOM     13  O   UNL     1      43.803  32.591  29.354  1.00  0.00    -0.550 OA
ATOM     14  O   UNL     1      43.681  30.340  28.945  1.00  0.00    -0.550 OA
ENDBRANCH  11  12
ENDBRANCH  10  11
ENDBRANCH   9  10
ENDBRANCH   8   9
ENDBRANCH   1   8
TORSDOF 9
ENDMDL
MODEL 7
REMARK VINA RESULT:    -3.842      1.880      3.352
REMARK INTER + INTRA:          -6.250
REMARK INTER:                  -6.048
REMARK INTRA:                  -0.201
REMARK UNBOUND:                -0.387
REMARK SMILES O=C([O-])CCCCCCCCC(=O)[O-]
REMARK SMILES IDX 7 1 6 2 5 3 4 4 2 5 1 6 3 7 8 8 9 9 10 10 11 11 12 12 13 13
REMARK SMILES IDX 14 14
REMARK H PARENT
REMARK Flexibility Score: inf
ROOT
ATOM      1  C   UNL     1      37.207  31.229  28.923  1.00  0.00     0.000 C 
ENDROOT
BRANCH   1   2
ATOM      2  C   UNL     1      38.261  31.870  28.002  1.00  0.00     0.000 C 
BRANCH   2   3
ATOM      3  C   UNL     1      39.411  32.597  28.726  1.00  0.00     0.006 C 
BRANCH   3   4
ATOM      4  C   UNL     1      40.242  31.687  29.649  1.00  0.00     0.053 C 
BRANCH   4   5
ATOM      5  C   UNL     1      41.701  32.030  29.629  1.00  0.00     0.041 C 
ATOM      6  O   UNL     1      42.562  31.158  29.915  1.00  0.00    -0.550 OA
ATOM      7  O   UNL     1      42.112  33.305  29.261  1.00  0.00    -0.550 OA
ENDBRANCH   4   5
ENDBRANCH   3   4
ENDBRANCH   2   3
ENDBRANCH   1   2
BRANCH   1   8
ATOM      8  C   UNL     1      36.487  29.995  28.341  1.00  0.00     0.000 C 
BRANCH   8   9
ATOM      9  C   UNL     1      35.752  29.121  29.374  1.00  0.00     0.000 C 
BRANCH   9  10
ATOM     10  C   UNL     1      34.270  28.913  29.032  1.00  0.00     0.006 C 
BRANCH  10  11
ATOM     11  C   UNL     1      33.932  27.422  28.943  1.00  0.00     0.053 C 
BRANCH  11  12
ATOM     12  C   UNL     1      32.677  27.214  28.155  1.00  0.00     0.041 C 
ATOM     13  O   UNL     1      31.616  27.804  28.486  1.00  0.00    -0.550 OA
ATOM     14  O   UNL     1      32.668  26.329  27.084  1.00  0.00    -0.550 OA
ENDBRANCH  11  12
ENDBRANCH  10  11
ENDBRANCH   9  10
ENDBRANCH   8   9
ENDBRANCH   1   8
TORSDOF 9
ENDMDL
MODEL 8
REMARK VINA RESULT:    -3.743      2.073      8.016
REMARK INTER + INTRA:          -6.099
REMARK INTER:                  -5.781
REMARK INTRA:                  -0.318
REMARK UNBOUND:                -0.387
REMARK SMILES O=C([O-])CCCCCCCCC(=O)[O-]
REMARK SMILES IDX 7 1 6 2 5 3 4 4 2 5 1 6 3 7 8 8 9 9 10 10 11 11 12 12 13 13
REMARK SMILES IDX 14 14
REMARK H PARENT
REMARK Flexibility Score: inf
ROOT
ATOM      1  C   UNL     1      36.844  30.017  28.296  1.00  0.00     0.000 C 
ENDROOT
BRANCH   1   2
ATOM      2  C   UNL     1      35.416  29.585  28.680  1.00  0.00     0.000 C 
BRANCH   2   3
ATOM      3  C   UNL     1      35.311  28.715  29.948  1.00  0.00     0.006 C 
BRANCH   3   4
ATOM      4  C   UNL     1      34.546  27.396  29.739  1.00  0.00     0.053 C 
BRANCH   4   5
ATOM      5  C   UNL     1      33.240  27.597  29.030  1.00  0.00     0.041 C 
ATOM      6  O   UNL     1      33.014  27.014  27.938  1.00  0.00    -0.550 OA
ATOM      7  O   UNL     1      32.258  28.402  29.594  1.00  0.00    -0.550 OA
ENDBRANCH   4   5
ENDBRANCH   3   4
ENDBRANCH   2   3
ENDBRANCH   1   2
BRANCH   1   8
ATOM      8  C   UNL     1      37.399  31.225  29.078  1.00  0.00     0.000 C 
BRANCH   8   9
ATOM      9  C   UNL     1      37.901  32.391  28.207  1.00  0.00     0.000 C 
BRANCH   9  10
ATOM     10  C   UNL     1      39.183  33.035  28.753  1.00  0.00     0.006 C 
BRANCH  10  11
ATOM     11  C   UNL     1      39.895  32.094  29.730  1.00  0.00     0.053 C 
BRANCH  11  12
ATOM     12  C   UNL     1      41.378  32.275  29.646  1.00  0.00     0.041 C 
ATOM     13  O   UNL     1      41.872  33.430  29.559  1.00  0.00    -0.550 OA
ATOM     14  O   UNL     1      42.213  31.164  29.613  1.00  0.00    -0.550 OA
ENDBRANCH  11  12
ENDBRANCH  10  11
ENDBRANCH   9  10
ENDBRANCH   8   9
ENDBRANCH   1   8
TORSDOF 9
ENDMDL
MODEL 9
REMARK VINA RESULT:    -3.717      4.096      8.785
REMARK INTER + INTRA:          -6.059
REMARK INTER:                  -5.740
REMARK INTRA:                  -0.319
REMARK UNBOUND:                -0.387
REMARK SMILES O=C([O-])CCCCCCCCC(=O)[O-]
REMARK SMILES IDX 7 1 6 2 5 3 4 4 2 5 1 6 3 7 8 8 9 9 10 10 11 11 12 12 13 13
REMARK SMILES IDX 14 14
REMARK H PARENT
REMARK Flexibility Score: inf
ROOT
ATOM      1  C   UNL     1      39.904  32.450  29.203  1.00  0.00     0.000 C 
ENDROOT
BRANCH   1   2
ATOM      2  C   UNL     1      38.687  31.697  29.773  1.00  0.00     0.000 C 
BRANCH   2   3
ATOM      3  C   UNL     1      38.268  30.438  28.990  1.00  0.00     0.006 C 
BRANCH   3   4
ATOM      4  C   UNL     1      36.821  30.482  28.464  1.00  0.00     0.053 C 
BRANCH   4   5
ATOM      5  C   UNL     1      36.001  29.323  28.945  1.00  0.00     0.041 C 
ATOM      6  O   UNL     1      34.794  29.217  28.606  1.00  0.00    -0.550 OA
ATOM      7  O   UNL     1      36.580  28.342  29.740  1.00  0.00    -0.550 OA
ENDBRANCH   4   5
ENDBRANCH   3   4
ENDBRANCH   2   3
ENDBRANCH   1   2
BRANCH   1   8
ATOM      8  C   UNL     1      41.168  32.425  30.088  1.00  0.00     0.000 C 
BRANCH   8   9
ATOM      9  C   UNL     1      42.481  32.132  29.339  1.00  0.00     0.000 C 
BRANCH   9  10
ATOM     10  C   UNL     1      43.394  31.158  30.097  1.00  0.00     0.006 C 
BRANCH  10  11
ATOM     11  C   UNL     1      44.159  30.254  29.124  1.00  0.00     0.053 C 
BRANCH  11  12
ATOM     12  C   UNL     1      43.690  28.839  29.244  1.00  0.00     0.041 C 
ATOM     13  O   UNL     1      44.380  27.900  28.767  1.00  0.00    -0.550 OA
ATOM     14  O   UNL     1      42.465  28.560  29.839  1.00  0.00    -0.550 OA
ENDBRANCH  11  12
ENDBRANCH  10  11
ENDBRANCH   9  10
ENDBRANCH   8   9
ENDBRANCH   1   8
TORSDOF 9
ENDMDL
