MODEL 1
REMARK VINA RESULT:    -3.832      0.000      0.000
REMARK INTER + INTRA:         -13.290
REMARK INTER:                  -8.760
REMARK INTRA:                  -4.530
REMARK UNBOUND:                -4.530
REMARK SMILES CCCCCCCCCCCCCCCCCCCCCCCC(=O)[O-]
REMARK SMILES IDX 13 1 14 2 15 3 16 4 17 5 18 6 19 7 20 8 21 9 22 10 23 11
REMARK SMILES IDX 24 12 25 13 26 14 12 15 11 16 10 17 9 18 8 19 7 20 6 21 5 22
REMARK SMILES IDX 4 23 3 24 2 25 1 26
REMARK H PARENT
REMARK Flexibility Score: inf
ROOT
ATOM      1  C   UNL     1      16.072   0.010  56.884  1.00  0.00     0.000 C 
ENDROOT
BRANCH   1   2
ATOM      2  C   UNL     1      14.878   0.315  57.804  1.00  0.00     0.000 C 
BRANCH   2   3
ATOM      3  C   UNL     1      15.082  -0.214  59.235  1.00  0.00     0.000 C 
BRANCH   3   4
ATOM      4  C   UNL     1      14.730   0.832  60.305  1.00  0.00     0.000 C 
BRANCH   4   5
ATOM      5  C   UNL     1      15.399   0.544  61.658  1.00  0.00     0.000 C 
BRANCH   5   6
ATOM      6  C   UNL     1      16.395   1.656  62.021  1.00  0.00     0.000 C 
BRANCH   6   7
ATOM      7  C   UNL     1      16.303   2.877  61.087  1.00  0.00     0.000 C 
BRANCH   7   8
ATOM      8  C   UNL     1      17.577   3.168  60.272  1.00  0.00     0.000 C 
BRANCH   8   9
ATOM      9  C   UNL     1      17.369   2.993  58.757  1.00  0.00     0.000 C 
BRANCH   9  10
ATOM     10  C   UNL     1      16.307   3.948  58.189  1.00  0.00     0.006 C 
BRANCH  10  11
ATOM     11  C   UNL     1      16.003   3.683  56.709  1.00  0.00     0.053 C 
BRANCH  11  12
ATOM     12  C   UNL     1      17.109   4.201  55.846  1.00  0.00     0.041 C 
ATOM     13  O   UNL     1      17.470   3.558  54.822  1.00  0.00    -0.550 OA
ATOM     14  O   UNL     1      17.780   5.365  56.200  1.00  0.00    -0.550 OA
ENDBRANCH  11  12
ENDBRANCH  10  11
ENDBRANCH   9  10
ENDBRANCH   8   9
ENDBRANCH   7   8
ENDBRANCH   6   7
ENDBRANCH   5   6
ENDBRANCH   4   5
ENDBRANCH   3   4
ENDBRANCH   2   3
ENDBRANCH   1   2
BRANCH   1  15
ATOM     15  C   UNL     1      17.115  -0.908  57.545  1.00  0.00     0.000 C 
BRANCH  15  16
ATOM     16  C   UNL     1      18.569  -0.471  57.254  1.00  0.00     0.000 C 
BRANCH  16  17
ATOM     17  C   UNL     1      19.415  -0.250  58.522  1.00  0.00     0.000 C 
BRANCH  17  18
ATOM     18  C   UNL     1      18.624  -0.325  59.841  1.00  0.00    -0.000 C 
BRANCH  18  19
ATOM     19  C   UNL     1      19.371  -1.074  60.967  1.00  0.00    -0.000 C 
BRANCH  19  20
ATOM     20  C   UNL     1      18.423  -1.860  61.882  1.00  0.00    -0.000 C 
BRANCH  20  21
ATOM     21  C   UNL     1      17.328  -2.558  61.067  1.00  0.00    -0.000 C 
BRANCH  21  22
ATOM     22  C   UNL     1      16.207  -3.082  61.977  1.00  0.00    -0.000 C 
BRANCH  22  23
ATOM     23  C   UNL     1      14.863  -3.213  61.243  1.00  0.00    -0.000 C 
BRANCH  23  24
ATOM     24  C   UNL     1      13.836  -4.043  62.034  1.00  0.00    -0.000 C 
BRANCH  24  25
ATOM     25  C   UNL     1      12.470  -3.346  62.135  1.00  0.00    -0.003 C 
ATOM     26  C   UNL     1      12.593  -1.829  62.277  1.00  0.00     0.004 C 
ENDBRANCH  24  25
ENDBRANCH  23  24
ENDBRANCH  22  23
ENDBRANCH  21  22
ENDBRANCH  20  21
ENDBRANCH  19  20
ENDBRANCH  18  19
ENDBRANCH  17  18
ENDBRANCH  16  17
ENDBRANCH  15  16
ENDBRANCH   1  15
TORSDOF 22
ENDMDL
MODEL 2
REMARK VINA RESULT:    -3.819      3.686      7.054
REMARK INTER + INTRA:         -13.261
REMARK INTER:                  -9.109
REMARK INTRA:                  -4.152
REMARK UNBOUND:                -4.530
REMARK SMILES CCCCCCCCCCCCCCCCCCCCCCCC(=O)[O-]
REMARK SMILES IDX 13 1 14 2 15 3 16 4 17 5 18 6 19 7 20 8 21 9 22 10 23 11
REMARK SMILES IDX 24 12 25 13 26 14 12 15 11 16 10 17 9 18 8 19 7 20 6 21 5 22
REMARK SMILES IDX 4 23 3 24 2 25 1 26
REMARK H PARENT
REMARK Flexibility Score: inf
ROOT
ATOM      1  C   UNL     1      18.321  -0.634  59.776  1.00  0.00     0.000 C 
ENDROOT
BRANCH   1   2
ATOM      2  C   UNL     1      17.817   0.551  60.616  1.00  0.00     0.000 C 
BRANCH   2   3
ATOM      3  C   UNL     1      16.779   0.129  61.673  1.00  0.00     0.000 C 
BRANCH   3   4
ATOM      4  C   UNL     1      15.636   1.147  61.814  1.00  0.00     0.000 C 
BRANCH   4   5
ATOM      5  C   UNL     1      14.249   0.486  61.797  1.00  0.00     0.000 C 
BRANCH   5   6
ATOM      6  C   UNL     1      14.296  -0.862  61.064  1.00  0.00     0.000 C 
BRANCH   6   7
ATOM      7  C   UNL     1      13.729  -2.024  61.900  1.00  0.00     0.000 C 
BRANCH   7   8
ATOM      8  C   UNL     1      14.542  -3.331  61.833  1.00  0.00     0.000 C 
BRANCH   8   9
ATOM      9  C   UNL     1      15.891  -3.235  62.567  1.00  0.00     0.000 C 
BRANCH   9  10
ATOM     10  C   UNL     1      17.079  -3.644  61.683  1.00  0.00     0.006 C 
BRANCH  10  11
ATOM     11  C   UNL     1      16.661  -4.534  60.505  1.00  0.00     0.053 C 
BRANCH  11  12
ATOM     12  C   UNL     1      16.773  -5.979  60.875  1.00  0.00     0.041 C 
ATOM     13  O   UNL     1      15.781  -6.748  60.740  1.00  0.00    -0.550 OA
ATOM     14  O   UNL     1      17.953  -6.468  61.422  1.00  0.00    -0.550 OA
ENDBRANCH  11  12
ENDBRANCH  10  11
ENDBRANCH   9  10
ENDBRANCH   8   9
ENDBRANCH   7   8
ENDBRANCH   6   7
ENDBRANCH   5   6
ENDBRANCH   4   5
ENDBRANCH   3   4
ENDBRANCH   2   3
ENDBRANCH   1   2
BRANCH   1  15
ATOM     15  C   UNL     1      17.246  -1.193  58.827  1.00  0.00     0.000 C 
BRANCH  15  16
ATOM     16  C   UNL     1      17.472  -0.781  57.354  1.00  0.00     0.000 C 
BRANCH  16  17
ATOM     17  C   UNL     1      16.409   0.195  56.814  1.00  0.00     0.000 C 
BRANCH  17  18
ATOM     18  C   UNL     1      15.192   0.391  57.735  1.00  0.00    -0.000 C 
BRANCH  18  19
ATOM     19  C   UNL     1      15.075   1.822  58.307  1.00  0.00    -0.000 C 
BRANCH  19  20
ATOM     20  C   UNL     1      15.829   2.857  57.462  1.00  0.00    -0.000 C 
BRANCH  20  21
ATOM     21  C   UNL     1      16.496   3.912  58.354  1.00  0.00    -0.000 C 
BRANCH  21  22
ATOM     22  C   UNL     1      15.712   4.108  59.661  1.00  0.00    -0.000 C 
BRANCH  22  23
ATOM     23  C   UNL     1      16.629   4.382  60.864  1.00  0.00    -0.000 C 
BRANCH  23  24
ATOM     24  C   UNL     1      15.915   5.154  61.987  1.00  0.00    -0.000 C 
BRANCH  24  25
ATOM     25  C   UNL     1      16.033   4.452  63.349  1.00  0.00    -0.003 C 
ATOM     26  C   UNL     1      17.431   3.885  63.598  1.00  0.00     0.004 C 
ENDBRANCH  24  25
ENDBRANCH  23  24
ENDBRANCH  22  23
ENDBRANCH  21  22
ENDBRANCH  20  21
ENDBRANCH  19  20
ENDBRANCH  18  19
ENDBRANCH  17  18
ENDBRANCH  16  17
ENDBRANCH  15  16
ENDBRANCH   1  15
TORSDOF 22
ENDMDL
MODEL 3
REMARK VINA RESULT:    -3.766      2.898      6.230
REMARK INTER + INTRA:         -13.140
REMARK INTER:                  -8.386
REMARK INTRA:                  -4.753
REMARK UNBOUND:                -4.530
REMARK SMILES CCCCCCCCCCCCCCCCCCCCCCCC(=O)[O-]
REMARK SMILES IDX 13 1 14 2 15 3 16 4 17 5 18 6 19 7 20 8 21 9 22 10 23 11
REMARK SMILES IDX 24 12 25 13 26 14 12 15 11 16 10 17 9 18 8 19 7 20 6 21 5 22
REMARK SMILES IDX 4 23 3 24 2 25 1 26
REMARK H PARENT
REMARK Flexibility Score: inf
ROOT
ATOM      1  C   UNL     1      15.943   2.548  57.920  1.00  0.00     0.000 C 
ENDROOT
BRANCH   1   2
ATOM      2  C   UNL     1      14.903   1.557  58.468  1.00  0.00     0.000 C 
BRANCH   2   3
ATOM      3  C   UNL     1      15.089   0.134  57.911  1.00  0.00     0.000 C 
BRANCH   3   4
ATOM      4  C   UNL     1      15.972   0.105  56.653  1.00  0.00     0.000 C 
BRANCH   4   5
ATOM      5  C   UNL     1      17.099  -0.936  56.744  1.00  0.00     0.000 C 
BRANCH   5   6
ATOM      6  C   UNL     1      18.470  -0.274  56.541  1.00  0.00     0.000 C 
BRANCH   6   7
ATOM      7  C   UNL     1      18.960   0.493  57.784  1.00  0.00     0.000 C 
BRANCH   7   8
ATOM      8  C   UNL     1      18.962  -0.320  59.091  1.00  0.00     0.000 C 
BRANCH   8   9
ATOM      9  C   UNL     1      18.234   0.395  60.242  1.00  0.00     0.000 C 
BRANCH   9  10
ATOM     10  C   UNL     1      17.660  -0.582  61.280  1.00  0.00     0.006 C 
BRANCH  10  11
ATOM     11  C   UNL     1      16.798  -1.681  60.646  1.00  0.00     0.053 C 
BRANCH  11  12
ATOM     12  C   UNL     1      15.556  -1.902  61.450  1.00  0.00     0.041 C 
ATOM     13  O   UNL     1      15.596  -2.593  62.505  1.00  0.00    -0.550 OA
ATOM     14  O   UNL     1      14.342  -1.392  61.007  1.00  0.00    -0.550 OA
ENDBRANCH  11  12
ENDBRANCH  10  11
ENDBRANCH   9  10
ENDBRANCH   8   9
ENDBRANCH   7   8
ENDBRANCH   6   7
ENDBRANCH   5   6
ENDBRANCH   4   5
ENDBRANCH   3   4
ENDBRANCH   2   3
ENDBRANCH   1   2
BRANCH   1  15
ATOM     15  C   UNL     1      15.311   3.856  57.413  1.00  0.00     0.000 C 
BRANCH  15  16
ATOM     16  C   UNL     1      16.237   4.638  56.453  1.00  0.00     0.000 C 
BRANCH  16  17
ATOM     17  C   UNL     1      17.093   3.735  55.545  1.00  0.00     0.000 C 
BRANCH  17  18
ATOM     18  C   UNL     1      18.575   3.638  55.951  1.00  0.00    -0.000 C 
BRANCH  18  19
ATOM     19  C   UNL     1      19.003   4.709  56.980  1.00  0.00    -0.000 C 
BRANCH  19  20
ATOM     20  C   UNL     1      19.350   4.107  58.348  1.00  0.00    -0.000 C 
BRANCH  20  21
ATOM     21  C   UNL     1      18.749   4.946  59.483  1.00  0.00    -0.000 C 
BRANCH  21  22
ATOM     22  C   UNL     1      17.815   4.102  60.363  1.00  0.00    -0.000 C 
BRANCH  22  23
ATOM     23  C   UNL     1      18.380   3.873  61.774  1.00  0.00    -0.000 C 
BRANCH  23  24
ATOM     24  C   UNL     1      17.441   3.033  62.657  1.00  0.00    -0.000 C 
BRANCH  24  25
ATOM     25  C   UNL     1      15.961   3.219  62.286  1.00  0.00    -0.003 C 
ATOM     26  C   UNL     1      15.196   1.896  62.241  1.00  0.00     0.004 C 
ENDBRANCH  24  25
ENDBRANCH  23  24
ENDBRANCH  22  23
ENDBRANCH  21  22
ENDBRANCH  20  21
ENDBRANCH  19  20
ENDBRANCH  18  19
ENDBRANCH  17  18
ENDBRANCH  16  17
ENDBRANCH  15  16
ENDBRANCH   1  15
TORSDOF 22
ENDMDL
MODEL 4
REMARK VINA RESULT:    -3.748      3.036      6.532
REMARK INTER + INTRA:         -13.100
REMARK INTER:                  -8.280
REMARK INTRA:                  -4.820
REMARK UNBOUND:                -4.530
REMARK SMILES CCCCCCCCCCCCCCCCCCCCCCCC(=O)[O-]
REMARK SMILES IDX 13 1 14 2 15 3 16 4 17 5 18 6 19 7 20 8 21 9 22 10 23 11
REMARK SMILES IDX 24 12 25 13 26 14 12 15 11 16 10 17 9 18 8 19 7 20 6 21 5 22
REMARK SMILES IDX 4 23 3 24 2 25 1 26
REMARK H PARENT
REMARK Flexibility Score: inf
ROOT
ATOM      1  C   UNL     1      14.899  -0.494  60.030  1.00  0.00     0.000 C 
ENDROOT
BRANCH   1   2
ATOM      2  C   UNL     1      15.095   0.020  61.465  1.00  0.00     0.000 C 
BRANCH   2   3
ATOM      3  C   UNL     1      15.714   1.429  61.511  1.00  0.00     0.000 C 
BRANCH   3   4
ATOM      4  C   UNL     1      17.004   1.478  62.346  1.00  0.00     0.000 C 
BRANCH   4   5
ATOM      5  C   UNL     1      18.208   2.003  61.548  1.00  0.00     0.000 C 
BRANCH   5   6
ATOM      6  C   UNL     1      18.064   1.661  60.057  1.00  0.00     0.000 C 
BRANCH   6   7
ATOM      7  C   UNL     1      18.937   0.469  59.624  1.00  0.00     0.000 C 
BRANCH   7   8
ATOM      8  C   UNL     1      19.979   0.015  60.662  1.00  0.00     0.000 C 
BRANCH   8   9
ATOM      9  C   UNL     1      19.555  -1.255  61.420  1.00  0.00     0.000 C 
BRANCH   9  10
ATOM     10  C   UNL     1      18.243  -1.854  60.888  1.00  0.00     0.006 C 
BRANCH  10  11
ATOM     11  C   UNL     1      17.539  -2.746  61.918  1.00  0.00     0.053 C 
BRANCH  11  12
ATOM     12  C   UNL     1      16.593  -3.684  61.238  1.00  0.00     0.041 C 
ATOM     13  O   UNL     1      15.951  -4.538  61.910  1.00  0.00    -0.550 OA
ATOM     14  O   UNL     1      16.460  -3.656  59.855  1.00  0.00    -0.550 OA
ENDBRANCH  11  12
ENDBRANCH  10  11
ENDBRANCH   9  10
ENDBRANCH   8   9
ENDBRANCH   7   8
ENDBRANCH   6   7
ENDBRANCH   5   6
ENDBRANCH   4   5
ENDBRANCH   3   4
ENDBRANCH   2   3
ENDBRANCH   1   2
BRANCH   1  15
ATOM     15  C   UNL     1      14.789   0.642  58.999  1.00  0.00     0.000 C 
BRANCH  15  16
ATOM     16  C   UNL     1      15.270   0.224  57.590  1.00  0.00     0.000 C 
BRANCH  16  17
ATOM     17  C   UNL     1      16.355  -0.869  57.605  1.00  0.00     0.000 C 
BRANCH  17  18
ATOM     18  C   UNL     1      17.436  -0.714  56.519  1.00  0.00    -0.000 C 
BRANCH  18  19
ATOM     19  C   UNL     1      17.380   0.644  55.784  1.00  0.00    -0.000 C 
BRANCH  19  20
ATOM     20  C   UNL     1      18.564   1.555  56.136  1.00  0.00    -0.000 C 
BRANCH  20  21
ATOM     21  C   UNL     1      18.076   2.929  56.610  1.00  0.00    -0.000 C 
BRANCH  21  22
ATOM     22  C   UNL     1      16.665   3.230  56.082  1.00  0.00    -0.000 C 
BRANCH  22  23
ATOM     23  C   UNL     1      16.075   4.519  56.676  1.00  0.00    -0.000 C 
BRANCH  23  24
ATOM     24  C   UNL     1      16.568   4.789  58.108  1.00  0.00    -0.000 C 
BRANCH  24  25
ATOM     25  C   UNL     1      15.609   4.234  59.174  1.00  0.00    -0.003 C 
ATOM     26  C   UNL     1      15.643   5.042  60.471  1.00  0.00     0.004 C 
ENDBRANCH  24  25
ENDBRANCH  23  24
ENDBRANCH  22  23
ENDBRANCH  21  22
ENDBRANCH  20  21
ENDBRANCH  19  20
ENDBRANCH  18  19
ENDBRANCH  17  18
ENDBRANCH  16  17
ENDBRANCH  15  16
ENDBRANCH   1  15
TORSDOF 22
ENDMDL
MODEL 5
REMARK VINA RESULT:    -3.741      2.251      6.432
REMARK INTER + INTRA:         -13.082
REMARK INTER:                  -8.605
REMARK INTRA:                  -4.476
REMARK UNBOUND:                -4.530
REMARK SMILES CCCCCCCCCCCCCCCCCCCCCCCC(=O)[O-]
REMARK SMILES IDX 13 1 14 2 15 3 16 4 17 5 18 6 19 7 20 8 21 9 22 10 23 11
REMARK SMILES IDX 24 12 25 13 26 14 12 15 11 16 10 17 9 18 8 19 7 20 6 21 5 22
REMARK SMILES IDX 4 23 3 24 2 25 1 26
REMARK H PARENT
REMARK Flexibility Score: inf
ROOT
ATOM      1  C   UNL     1      18.214   0.057  60.876  1.00  0.00     0.000 C 
ENDROOT
BRANCH   1   2
ATOM      2  C   UNL     1      17.662  -0.919  61.928  1.00  0.00     0.000 C 
BRANCH   2   3
ATOM      3  C   UNL     1      16.604  -1.877  61.351  1.00  0.00     0.000 C 
BRANCH   3   4
ATOM      4  C   UNL     1      16.210  -1.518  59.909  1.00  0.00     0.000 C 
BRANCH   4   5
ATOM      5  C   UNL     1      14.893  -0.730  59.832  1.00  0.00     0.000 C 
BRANCH   5   6
ATOM      6  C   UNL     1      15.031   0.471  58.885  1.00  0.00     0.000 C 
BRANCH   6   7
ATOM      7  C   UNL     1      15.286   0.061  57.423  1.00  0.00     0.000 C 
BRANCH   7   8
ATOM      8  C   UNL     1      16.622   0.549  56.834  1.00  0.00     0.000 C 
BRANCH   8   9
ATOM      9  C   UNL     1      17.613  -0.598  56.568  1.00  0.00     0.000 C 
BRANCH   9  10
ATOM     10  C   UNL     1      19.027  -0.294  57.087  1.00  0.00     0.006 C 
BRANCH  10  11
ATOM     11  C   UNL     1      19.186   1.158  57.554  1.00  0.00     0.053 C 
BRANCH  11  12
ATOM     12  C   UNL     1      20.613   1.440  57.907  1.00  0.00     0.041 C 
ATOM     13  O   UNL     1      21.497   1.469  57.007  1.00  0.00    -0.550 OA
ATOM     14  O   UNL     1      20.978   1.617  59.236  1.00  0.00    -0.550 OA
ENDBRANCH  11  12
ENDBRANCH  10  11
ENDBRANCH   9  10
ENDBRANCH   8   9
ENDBRANCH   7   8
ENDBRANCH   6   7
ENDBRANCH   5   6
ENDBRANCH   4   5
ENDBRANCH   3   4
ENDBRANCH   2   3
ENDBRANCH   1   2
BRANCH   1  15
ATOM     15  C   UNL     1      17.911   1.528  61.210  1.00  0.00     0.000 C 
BRANCH  15  16
ATOM     16  C   UNL     1      17.027   1.689  62.469  1.00  0.00     0.000 C 
BRANCH  16  17
ATOM     17  C   UNL     1      15.773   2.553  62.239  1.00  0.00     0.000 C 
BRANCH  17  18
ATOM     18  C   UNL     1      15.658   3.153  60.826  1.00  0.00    -0.000 C 
BRANCH  18  19
ATOM     19  C   UNL     1      15.929   4.674  60.779  1.00  0.00    -0.000 C 
BRANCH  19  20
ATOM     20  C   UNL     1      16.252   5.171  59.363  1.00  0.00    -0.000 C 
BRANCH  20  21
ATOM     21  C   UNL     1      16.509   3.993  58.415  1.00  0.00    -0.000 C 
BRANCH  21  22
ATOM     22  C   UNL     1      15.583   4.055  57.191  1.00  0.00    -0.000 C 
BRANCH  22  23
ATOM     23  C   UNL     1      16.357   4.010  55.863  1.00  0.00    -0.000 C 
BRANCH  23  24
ATOM     24  C   UNL     1      17.779   4.586  55.988  1.00  0.00    -0.000 C 
BRANCH  24  25
ATOM     25  C   UNL     1      18.801   3.819  55.135  1.00  0.00    -0.003 C 
ATOM     26  C   UNL     1      18.159   2.701  54.314  1.00  0.00     0.004 C 
ENDBRANCH  24  25
ENDBRANCH  23  24
ENDBRANCH  22  23
ENDBRANCH  21  22
ENDBRANCH  20  21
ENDBRANCH  19  20
ENDBRANCH  18  19
ENDBRANCH  17  18
ENDBRANCH  16  17
ENDBRANCH  15  16
ENDBRANCH   1  15
TORSDOF 22
ENDMDL
MODEL 6
REMARK VINA RESULT:    -3.729      3.134      6.160
REMARK INTER + INTRA:         -13.056
REMARK INTER:                  -8.158
REMARK INTRA:                  -4.898
REMARK UNBOUND:                -4.530
REMARK SMILES CCCCCCCCCCCCCCCCCCCCCCCC(=O)[O-]
REMARK SMILES IDX 13 1 14 2 15 3 16 4 17 5 18 6 19 7 20 8 21 9 22 10 23 11
REMARK SMILES IDX 24 12 25 13 26 14 12 15 11 16 10 17 9 18 8 19 7 20 6 21 5 22
REMARK SMILES IDX 4 23 3 24 2 25 1 26
REMARK H PARENT
REMARK Flexibility Score: inf
ROOT
ATOM      1  C   UNL     1      17.208  -0.418  57.345  1.00  0.00     0.000 C 
ENDROOT
BRANCH   1   2
ATOM      2  C   UNL     1      18.240   0.018  56.292  1.00  0.00     0.000 C 
BRANCH   2   3
ATOM      3  C   UNL     1      17.736   1.177  55.413  1.00  0.00     0.000 C 
BRANCH   3   4
ATOM      4  C   UNL     1      18.076   2.555  56.004  1.00  0.00     0.000 C 
BRANCH   4   5
ATOM      5  C   UNL     1      16.850   3.262  56.602  1.00  0.00     0.000 C 
BRANCH   5   6
ATOM      6  C   UNL     1      17.050   3.524  58.102  1.00  0.00     0.000 C 
BRANCH   6   7
ATOM      7  C   UNL     1      18.472   3.191  58.590  1.00  0.00     0.000 C 
BRANCH   7   8
ATOM      8  C   UNL     1      18.548   2.107  59.680  1.00  0.00     0.000 C 
BRANCH   8   9
ATOM      9  C   UNL     1      19.801   1.221  59.556  1.00  0.00     0.000 C 
BRANCH   9  10
ATOM     10  C   UNL     1      19.569  -0.210  60.065  1.00  0.00     0.006 C 
BRANCH  10  11
ATOM     11  C   UNL     1      18.462  -0.289  61.125  1.00  0.00     0.053 C 
BRANCH  11  12
ATOM     12  C   UNL     1      18.125  -1.716  61.424  1.00  0.00     0.041 C 
ATOM     13  O   UNL     1      17.272  -2.327  60.722  1.00  0.00    -0.550 OA
ATOM     14  O   UNL     1      18.708  -2.356  62.511  1.00  0.00    -0.550 OA
ENDBRANCH  11  12
ENDBRANCH  10  11
ENDBRANCH   9  10
ENDBRANCH   8   9
ENDBRANCH   7   8
ENDBRANCH   6   7
ENDBRANCH   5   6
ENDBRANCH   4   5
ENDBRANCH   3   4
ENDBRANCH   2   3
ENDBRANCH   1   2
BRANCH   1  15
ATOM     15  C   UNL     1      15.757  -0.258  56.861  1.00  0.00     0.000 C 
BRANCH  15  16
ATOM     16  C   UNL     1      14.866   0.502  57.871  1.00  0.00     0.000 C 
BRANCH  16  17
ATOM     17  C   UNL     1      15.242   0.246  59.343  1.00  0.00     0.000 C 
BRANCH  17  18
ATOM     18  C   UNL     1      14.968   1.429  60.289  1.00  0.00    -0.000 C 
BRANCH  18  19
ATOM     19  C   UNL     1      15.129   1.073  61.784  1.00  0.00    -0.000 C 
BRANCH  19  20
ATOM     20  C   UNL     1      15.304   2.313  62.670  1.00  0.00    -0.000 C 
BRANCH  20  21
ATOM     21  C   UNL     1      16.790   2.609  62.910  1.00  0.00    -0.000 C 
BRANCH  21  22
ATOM     22  C   UNL     1      16.972   3.838  63.814  1.00  0.00    -0.000 C 
BRANCH  22  23
ATOM     23  C   UNL     1      17.813   4.940  63.150  1.00  0.00    -0.000 C 
BRANCH  23  24
ATOM     24  C   UNL     1      17.559   5.045  61.636  1.00  0.00    -0.000 C 
BRANCH  24  25
ATOM     25  C   UNL     1      16.456   6.058  61.294  1.00  0.00    -0.003 C 
ATOM     26  C   UNL     1      15.203   5.392  60.723  1.00  0.00     0.004 C 
ENDBRANCH  24  25
ENDBRANCH  23  24
ENDBRANCH  22  23
ENDBRANCH  21  22
ENDBRANCH  20  21
ENDBRANCH  19  20
ENDBRANCH  18  19
ENDBRANCH  17  18
ENDBRANCH  16  17
ENDBRANCH  15  16
ENDBRANCH   1  15
TORSDOF 22
ENDMDL
MODEL 7
REMARK VINA RESULT:    -3.715      2.694      4.251
REMARK INTER + INTRA:         -13.023
REMARK INTER:                  -9.239
REMARK INTRA:                  -3.784
REMARK UNBOUND:                -4.530
REMARK SMILES CCCCCCCCCCCCCCCCCCCCCCCC(=O)[O-]
REMARK SMILES IDX 13 1 14 2 15 3 16 4 17 5 18 6 19 7 20 8 21 9 22 10 23 11
REMARK SMILES IDX 24 12 25 13 26 14 12 15 11 16 10 17 9 18 8 19 7 20 6 21 5 22
REMARK SMILES IDX 4 23 3 24 2 25 1 26
REMARK H PARENT
REMARK Flexibility Score: inf
ROOT
ATOM      1  C   UNL     1      17.285  -1.172  58.931  1.00  0.00     0.000 C 
ENDROOT
BRANCH   1   2
ATOM      2  C   UNL     1      17.126  -1.060  57.406  1.00  0.00     0.000 C 
BRANCH   2   3
ATOM      3  C   UNL     1      15.988  -0.107  56.997  1.00  0.00     0.000 C 
BRANCH   3   4
ATOM      4  C   UNL     1      15.026   0.192  58.158  1.00  0.00     0.000 C 
BRANCH   4   5
ATOM      5  C   UNL     1      14.555   1.655  58.176  1.00  0.00     0.000 C 
BRANCH   5   6
ATOM      6  C   UNL     1      15.755   2.613  58.212  1.00  0.00     0.000 C 
BRANCH   6   7
ATOM      7  C   UNL     1      16.578   2.501  59.508  1.00  0.00     0.000 C 
BRANCH   7   8
ATOM      8  C   UNL     1      16.267   3.570  60.571  1.00  0.00     0.000 C 
BRANCH   8   9
ATOM      9  C   UNL     1      15.938   2.967  61.948  1.00  0.00     0.000 C 
BRANCH   9  10
ATOM     10  C   UNL     1      17.192   2.700  62.794  1.00  0.00     0.006 C 
BRANCH  10  11
ATOM     11  C   UNL     1      17.915   3.990  63.205  1.00  0.00     0.053 C 
BRANCH  11  12
ATOM     12  C   UNL     1      17.017   4.852  64.035  1.00  0.00     0.041 C 
ATOM     13  O   UNL     1      16.614   4.450  65.161  1.00  0.00    -0.550 OA
ATOM     14  O   UNL     1      16.578   6.075  63.543  1.00  0.00    -0.550 OA
ENDBRANCH  11  12
ENDBRANCH  10  11
ENDBRANCH   9  10
ENDBRANCH   8   9
ENDBRANCH   7   8
ENDBRANCH   6   7
ENDBRANCH   5   6
ENDBRANCH   4   5
ENDBRANCH   3   4
ENDBRANCH   2   3
ENDBRANCH   1   2
BRANCH   1  15
ATOM     15  C   UNL     1      18.506  -0.400  59.462  1.00  0.00     0.000 C 
BRANCH  15  16
ATOM     16  C   UNL     1      18.820  -0.718  60.943  1.00  0.00     0.000 C 
BRANCH  16  17
ATOM     17  C   UNL     1      17.565  -0.920  61.813  1.00  0.00     0.000 C 
BRANCH  17  18
ATOM     18  C   UNL     1      17.775  -1.825  63.040  1.00  0.00    -0.000 C 
BRANCH  18  19
ATOM     19  C   UNL     1      16.996  -3.158  62.963  1.00  0.00    -0.000 C 
BRANCH  19  20
ATOM     20  C   UNL     1      17.056  -3.796  61.568  1.00  0.00    -0.000 C 
BRANCH  20  21
ATOM     21  C   UNL     1      15.765  -4.566  61.262  1.00  0.00    -0.000 C 
BRANCH  21  22
ATOM     22  C   UNL     1      14.723  -4.363  62.372  1.00  0.00    -0.000 C 
BRANCH  22  23
ATOM     23  C   UNL     1      13.380  -3.843  61.833  1.00  0.00    -0.000 C 
BRANCH  23  24
ATOM     24  C   UNL     1      13.169  -2.346  62.122  1.00  0.00    -0.000 C 
BRANCH  24  25
ATOM     25  C   UNL     1      14.038  -1.446  61.230  1.00  0.00    -0.003 C 
ATOM     26  C   UNL     1      13.976   0.025  61.642  1.00  0.00     0.004 C 
ENDBRANCH  24  25
ENDBRANCH  23  24
ENDBRANCH  22  23
ENDBRANCH  21  22
ENDBRANCH  20  21
ENDBRANCH  19  20
ENDBRANCH  18  19
ENDBRANCH  17  18
ENDBRANCH  16  17
ENDBRANCH  15  16
ENDBRANCH   1  15
TORSDOF 22
ENDMDL
MODEL 8
REMARK VINA RESULT:    -3.701      3.403      6.784
REMARK INTER + INTRA:         -12.991
REMARK INTER:                 -10.188
REMARK INTRA:                  -2.803
REMARK UNBOUND:                -4.530
REMARK SMILES CCCCCCCCCCCCCCCCCCCCCCCC(=O)[O-]
REMARK SMILES IDX 13 1 14 2 15 3 16 4 17 5 18 6 19 7 20 8 21 9 22 10 23 11
REMARK SMILES IDX 24 12 25 13 26 14 12 15 11 16 10 17 9 18 8 19 7 20 6 21 5 22
REMARK SMILES IDX 4 23 3 24 2 25 1 26
REMARK H PARENT
REMARK Flexibility Score: inf
ROOT
ATOM      1  C   UNL     1      18.030   2.465  54.896  1.00  0.00     0.000 C 
ENDROOT
BRANCH   1   2
ATOM      2  C   UNL     1      18.065   1.379  55.984  1.00  0.00     0.000 C 
BRANCH   2   3
ATOM      3  C   UNL     1      17.044   0.255  55.732  1.00  0.00     0.000 C 
BRANCH   3   4
ATOM      4  C   UNL     1      17.315  -0.990  56.593  1.00  0.00     0.000 C 
BRANCH   4   5
ATOM      5  C   UNL     1      17.545  -0.647  58.074  1.00  0.00     0.000 C 
BRANCH   5   6
ATOM      6  C   UNL     1      16.762  -1.606  58.983  1.00  0.00     0.000 C 
BRANCH   6   7
ATOM      7  C   UNL     1      15.372  -1.070  59.371  1.00  0.00     0.000 C 
BRANCH   7   8
ATOM      8  C   UNL     1      14.841  -1.564  60.729  1.00  0.00     0.000 C 
BRANCH   8   9
ATOM      9  C   UNL     1      15.357  -2.965  61.099  1.00  0.00     0.000 C 
BRANCH   9  10
ATOM     10  C   UNL     1      16.139  -2.980  62.422  1.00  0.00     0.006 C 
BRANCH  10  11
ATOM     11  C   UNL     1      17.302  -3.980  62.412  1.00  0.00     0.053 C 
BRANCH  11  12
ATOM     12  C   UNL     1      18.599  -3.271  62.183  1.00  0.00     0.041 C 
ATOM     13  O   UNL     1      18.614  -2.030  61.954  1.00  0.00    -0.550 OA
ATOM     14  O   UNL     1      19.789  -3.988  62.166  1.00  0.00    -0.550 OA
ENDBRANCH  11  12
ENDBRANCH  10  11
ENDBRANCH   9  10
ENDBRANCH   8   9
ENDBRANCH   7   8
ENDBRANCH   6   7
ENDBRANCH   5   6
ENDBRANCH   4   5
ENDBRANCH   3   4
ENDBRANCH   2   3
ENDBRANCH   1   2
BRANCH   1  15
ATOM     15  C   UNL     1      17.139   3.661  55.277  1.00  0.00     0.000 C 
BRANCH  15  16
ATOM     16  C   UNL     1      17.058   3.888  56.804  1.00  0.00     0.000 C 
BRANCH  16  17
ATOM     17  C   UNL     1      15.636   3.736  57.377  1.00  0.00     0.000 C 
BRANCH  17  18
ATOM     18  C   UNL     1      15.439   2.509  58.286  1.00  0.00    -0.000 C 
BRANCH  18  19
ATOM     19  C   UNL     1      16.314   2.538  59.559  1.00  0.00    -0.000 C 
BRANCH  19  20
ATOM     20  C   UNL     1      15.486   2.427  60.846  1.00  0.00    -0.000 C 
BRANCH  20  21
ATOM     21  C   UNL     1      16.202   1.554  61.884  1.00  0.00    -0.000 C 
BRANCH  21  22
ATOM     22  C   UNL     1      16.777   2.407  63.025  1.00  0.00    -0.000 C 
BRANCH  22  23
ATOM     23  C   UNL     1      15.704   3.256  63.726  1.00  0.00    -0.000 C 
BRANCH  23  24
ATOM     24  C   UNL     1      16.111   4.734  63.856  1.00  0.00    -0.000 C 
BRANCH  24  25
ATOM     25  C   UNL     1      17.460   4.912  64.570  1.00  0.00    -0.003 C 
ATOM     26  C   UNL     1      17.323   5.629  65.913  1.00  0.00     0.004 C 
ENDBRANCH  24  25
ENDBRANCH  23  24
ENDBRANCH  22  23
ENDBRANCH  21  22
ENDBRANCH  20  21
ENDBRANCH  19  20
ENDBRANCH  18  19
ENDBRANCH  17  18
ENDBRANCH  16  17
ENDBRANCH  15  16
ENDBRANCH   1  15
TORSDOF 22
ENDMDL
MODEL 9
REMARK VINA RESULT:    -3.652      2.732      5.621
REMARK INTER + INTRA:         -12.880
REMARK INTER:                  -8.137
REMARK INTRA:                  -4.743
REMARK UNBOUND:                -4.530
REMARK SMILES CCCCCCCCCCCCCCCCCCCCCCCC(=O)[O-]
REMARK SMILES IDX 13 1 14 2 15 3 16 4 17 5 18 6 19 7 20 8 21 9 22 10 23 11
REMARK SMILES IDX 24 12 25 13 26 14 12 15 11 16 10 17 9 18 8 19 7 20 6 21 5 22
REMARK SMILES IDX 4 23 3 24 2 25 1 26
REMARK H PARENT
REMARK Flexibility Score: inf
ROOT
ATOM      1  C   UNL     1      15.438  -1.019  60.260  1.00  0.00     0.000 C 
ENDROOT
BRANCH   1   2
ATOM      2  C   UNL     1      16.400  -1.867  59.413  1.00  0.00     0.000 C 
BRANCH   2   3
ATOM      3  C   UNL     1      16.753  -1.201  58.071  1.00  0.00     0.000 C 
BRANCH   3   4
ATOM      4  C   UNL     1      15.654  -0.243  57.583  1.00  0.00     0.000 C 
BRANCH   4   5
ATOM      5  C   UNL     1      16.221   1.060  56.997  1.00  0.00     0.000 C 
BRANCH   5   6
ATOM      6  C   UNL     1      15.478   2.280  57.561  1.00  0.00     0.000 C 
BRANCH   6   7
ATOM      7  C   UNL     1      15.801   2.552  59.043  1.00  0.00     0.000 C 
BRANCH   7   8
ATOM      8  C   UNL     1      17.280   2.854  59.341  1.00  0.00     0.000 C 
BRANCH   8   9
ATOM      9  C   UNL     1      18.005   1.682  60.025  1.00  0.00     0.000 C 
BRANCH   9  10
ATOM     10  C   UNL     1      18.284   1.943  61.513  1.00  0.00     0.006 C 
BRANCH  10  11
ATOM     11  C   UNL     1      17.150   1.454  62.423  1.00  0.00     0.053 C 
BRANCH  11  12
ATOM     12  C   UNL     1      16.418   2.615  63.018  1.00  0.00     0.041 C 
ATOM     13  O   UNL     1      15.177   2.749  62.829  1.00  0.00    -0.550 OA
ATOM     14  O   UNL     1      17.112   3.581  63.735  1.00  0.00    -0.550 OA
ENDBRANCH  11  12
ENDBRANCH  10  11
ENDBRANCH   9  10
ENDBRANCH   8   9
ENDBRANCH   7   8
ENDBRANCH   6   7
ENDBRANCH   5   6
ENDBRANCH   4   5
ENDBRANCH   3   4
ENDBRANCH   2   3
ENDBRANCH   1   2
BRANCH   1  15
ATOM     15  C   UNL     1      14.925  -1.763  61.505  1.00  0.00     0.000 C 
BRANCH  15  16
ATOM     16  C   UNL     1      15.484  -3.201  61.619  1.00  0.00     0.000 C 
BRANCH  16  17
ATOM     17  C   UNL     1      16.350  -3.431  62.872  1.00  0.00     0.000 C 
BRANCH  17  18
ATOM     18  C   UNL     1      17.481  -2.404  63.067  1.00  0.00    -0.000 C 
BRANCH  18  19
ATOM     19  C   UNL     1      18.722  -2.681  62.188  1.00  0.00    -0.000 C 
BRANCH  19  20
ATOM     20  C   UNL     1      19.498  -1.402  61.846  1.00  0.00    -0.000 C 
BRANCH  20  21
ATOM     21  C   UNL     1      20.129  -1.501  60.451  1.00  0.00    -0.000 C 
BRANCH  21  22
ATOM     22  C   UNL     1      21.320  -0.542  60.311  1.00  0.00    -0.000 C 
BRANCH  22  23
ATOM     23  C   UNL     1      21.296   0.239  58.986  1.00  0.00    -0.000 C 
BRANCH  23  24
ATOM     24  C   UNL     1      20.615  -0.545  57.851  1.00  0.00    -0.000 C 
BRANCH  24  25
ATOM     25  C   UNL     1      19.780   0.359  56.931  1.00  0.00    -0.003 C 
ATOM     26  C   UNL     1      20.165   1.834  57.050  1.00  0.00     0.004 C 
ENDBRANCH  24  25
ENDBRANCH  23  24
ENDBRANCH  22  23
ENDBRANCH  21  22
ENDBRANCH  20  21
ENDBRANCH  19  20
ENDBRANCH  18  19
ENDBRANCH  17  18
ENDBRANCH  16  17
ENDBRANCH  15  16
ENDBRANCH   1  15
TORSDOF 22
ENDMDL
