MODEL 1
REMARK VINA RESULT:    -3.826      0.000      0.000
REMARK INTER + INTRA:          -3.961
REMARK INTER:                  -4.721
REMARK INTRA:                   0.760
REMARK UNBOUND:                 0.760
REMARK SMILES CC1=CC=CC(C)(C)CC1=O
REMARK SMILES IDX 1 1 2 2 3 3 10 4 11 5 9 6 4 8 5 9 6 10 7 11 8 12
REMARK H PARENT
REMARK Flexibility Score: 80.00
ROOT
ATOM      1  C   UNL     1      17.378  22.687  60.060  1.00  0.00     0.048 C 
ATOM      2  C   UNL     1      16.012  22.677  59.415  1.00  0.00    -0.008 C 
ATOM      3  C   UNL     1      15.956  22.763  58.068  1.00  0.00     0.007 C 
ENDROOT
BRANCH   2   4
ATOM      4  C   UNL     1      14.842  22.498  60.311  1.00  0.00     0.159 C 
ATOM      5  O   UNL     1      15.041  22.153  61.508  1.00  0.00    -0.295 OA
BRANCH   4   6
ATOM      6  C   UNL     1      13.427  22.719  59.875  1.00  0.00     0.091 CG0
ATOM      7  G   UNL     1      12.995  21.793  58.716  1.00  0.00     0.000 G0
ENDBRANCH   4   6
ENDBRANCH   2   4
BRANCH   3   8
ATOM      8  C   UNL     1      14.783  22.752  57.163  1.00  0.00    -0.003 C 
ATOM      9  C   UNL     1      13.534  22.337  57.405  1.00  0.00    -0.020 C 
BRANCH   9  10
ATOM     10  C   UNL     1      13.006  21.791  58.711  1.00  0.00    -0.010 CG0
ATOM     11  C   UNL     1      11.462  21.781  58.644  1.00  0.00     0.016 C 
ATOM     12  C   UNL     1      13.485  20.334  58.906  1.00  0.00     0.016 C 
ATOM     13  G   UNL     1      13.431  22.718  59.871  1.00  0.00     0.000 G0
ENDBRANCH   9  10
ENDBRANCH   3   8
TORSDOF 0
ENDMDL
MODEL 2
REMARK VINA RESULT:    -3.688      2.102      3.573
REMARK INTER + INTRA:          -3.790
REMARK INTER:                  -4.537
REMARK INTRA:                   0.746
REMARK UNBOUND:                 0.760
REMARK SMILES CC1=CC=CC(C)(C)CC1=O
REMARK SMILES IDX 1 1 2 2 3 3 10 4 11 5 9 6 4 8 5 9 6 10 7 11 8 12
REMARK H PARENT
REMARK Flexibility Score: 80.00
ROOT
ATOM      1  C   UNL     1      10.876  22.992  60.337  1.00  0.00     0.048 C 
ATOM      2  C   UNL     1      12.175  22.657  59.643  1.00  0.00    -0.008 C 
ATOM      3  C   UNL     1      13.305  22.684  60.382  1.00  0.00     0.007 C 
ENDROOT
BRANCH   2   4
ATOM      4  C   UNL     1      12.094  22.250  58.217  1.00  0.00     0.159 C 
ATOM      5  O   UNL     1      10.961  21.998  57.720  1.00  0.00    -0.295 OA
BRANCH   4   6
ATOM      6  C   UNL     1      13.288  22.133  57.323  1.00  0.00     0.091 CG0
ATOM      7  G   UNL     1      14.322  21.097  57.819  1.00  0.00     0.000 G0
ENDBRANCH   4   6
ENDBRANCH   2   4
BRANCH   3   8
ATOM      8  C   UNL     1      14.702  22.382  59.993  1.00  0.00    -0.003 C 
ATOM      9  C   UNL     1      15.156  21.704  58.932  1.00  0.00    -0.020 C 
BRANCH   9  10
ATOM     10  C   UNL     1      14.319  21.094  57.832  1.00  0.00    -0.010 CG0
ATOM     11  C   UNL     1      15.252  20.746  56.649  1.00  0.00     0.016 C 
ATOM     12  C   UNL     1      13.670  19.782  58.329  1.00  0.00     0.016 C 
ATOM     13  G   UNL     1      13.279  22.123  57.338  1.00  0.00     0.000 G0
ENDBRANCH   9  10
ENDBRANCH   3   8
TORSDOF 0
ENDMDL
MODEL 3
REMARK VINA RESULT:    -3.524      2.375      4.566
REMARK INTER + INTRA:          -3.589
REMARK INTER:                  -4.371
REMARK INTRA:                   0.782
REMARK UNBOUND:                 0.760
REMARK SMILES CC1=CC=CC(C)(C)CC1=O
REMARK SMILES IDX 1 1 2 2 3 3 10 4 11 5 9 6 4 8 5 9 6 10 7 11 8 12
REMARK H PARENT
REMARK Flexibility Score: 80.00
ROOT
ATOM      1  C   UNL     1       9.034  21.994  56.945  1.00  0.00     0.048 C 
ATOM      2  C   UNL     1      10.335  22.261  57.664  1.00  0.00    -0.008 C 
ATOM      3  C   UNL     1      10.304  22.318  59.013  1.00  0.00     0.007 C 
ENDROOT
BRANCH   2   4
ATOM      4  C   UNL     1      11.560  22.365  56.831  1.00  0.00     0.159 C 
ATOM      5  O   UNL     1      11.496  22.040  55.613  1.00  0.00    -0.295 OA
BRANCH   4   6
ATOM      6  C   UNL     1      12.876  22.850  57.355  1.00  0.00     0.091 CG0
ATOM      7  G   UNL     1      13.414  22.003  58.529  1.00  0.00     0.000 G0
ENDBRANCH   4   6
ENDBRANCH   2   4
BRANCH   3   8
ATOM      8  C   UNL     1      11.404  22.535  59.981  1.00  0.00    -0.003 C 
ATOM      9  C   UNL     1      12.724  22.399  59.804  1.00  0.00    -0.020 C 
BRANCH   9  10
ATOM     10  C   UNL     1      13.422  22.007  58.523  1.00  0.00    -0.010 CG0
ATOM     11  C   UNL     1      14.931  22.300  58.683  1.00  0.00     0.016 C 
ATOM     12  C   UNL     1      13.254  20.491  58.273  1.00  0.00     0.016 C 
ATOM     13  G   UNL     1      12.887  22.866  57.355  1.00  0.00     0.000 G0
ENDBRANCH   9  10
ENDBRANCH   3   8
TORSDOF 0
ENDMDL
MODEL 4
REMARK VINA RESULT:    -3.477      1.844      2.861
REMARK INTER + INTRA:          -3.531
REMARK INTER:                  -4.291
REMARK INTRA:                   0.760
REMARK UNBOUND:                 0.760
REMARK SMILES CC1=CC=CC(C)(C)CC1=O
REMARK SMILES IDX 1 1 2 2 3 3 10 4 11 5 9 6 4 8 5 9 6 10 7 11 8 12
REMARK H PARENT
REMARK Flexibility Score: 80.00
ROOT
ATOM      1  C   UNL     1      14.856  22.730  61.013  1.00  0.00     0.048 C 
ATOM      2  C   UNL     1      13.940  22.303  59.890  1.00  0.00    -0.008 C 
ATOM      3  C   UNL     1      12.622  22.564  60.024  1.00  0.00     0.007 C 
ENDROOT
BRANCH   2   4
ATOM      4  C   UNL     1      14.575  21.697  58.693  1.00  0.00     0.159 C 
ATOM      5  O   UNL     1      15.832  21.732  58.588  1.00  0.00    -0.295 OA
BRANCH   4   6
ATOM      6  C   UNL     1      13.803  21.028  57.598  1.00  0.00     0.091 CG0
ATOM      7  G   UNL     1      12.776  21.961  56.918  1.00  0.00     0.000 G0
ENDBRANCH   4   6
ENDBRANCH   2   4
BRANCH   3   8
ATOM      8  C   UNL     1      11.500  22.294  59.096  1.00  0.00    -0.003 C 
ATOM      9  C   UNL     1      11.533  22.044  57.781  1.00  0.00    -0.020 C 
BRANCH   9  10
ATOM     10  C   UNL     1      12.768  21.950  56.916  1.00  0.00    -0.010 CG0
ATOM     11  C   UNL     1      12.370  21.300  55.571  1.00  0.00     0.016 C 
ATOM     12  C   UNL     1      13.314  23.366  56.620  1.00  0.00     0.016 C 
ATOM     13  G   UNL     1      13.813  21.040  57.600  1.00  0.00     0.000 G0
ENDBRANCH   9  10
ENDBRANCH   3   8
TORSDOF 0
ENDMDL
MODEL 5
REMARK VINA RESULT:    -3.413     12.239     13.295
REMARK INTER + INTRA:          -3.452
REMARK INTER:                  -4.214
REMARK INTRA:                   0.762
REMARK UNBOUND:                 0.760
REMARK SMILES CC1=CC=CC(C)(C)CC1=O
REMARK SMILES IDX 1 1 2 2 3 3 10 4 11 5 9 6 4 8 5 9 6 10 7 11 8 12
REMARK H PARENT
REMARK Flexibility Score: 80.00
ROOT
ATOM      1  C   UNL     1       7.737  32.077  54.838  1.00  0.00     0.048 C 
ATOM      2  C   UNL     1       6.617  31.189  54.349  1.00  0.00    -0.008 C 
ATOM      3  C   UNL     1       5.358  31.513  54.714  1.00  0.00     0.007 C 
ENDROOT
BRANCH   2   4
ATOM      4  C   UNL     1       6.986  30.073  53.443  1.00  0.00     0.159 C 
ATOM      5  O   UNL     1       8.158  30.031  52.976  1.00  0.00    -0.295 OA
BRANCH   4   6
ATOM      6  C   UNL     1       6.042  28.978  53.055  1.00  0.00     0.091 CG0
ATOM      7  G   UNL     1       4.763  29.493  52.357  1.00  0.00     0.000 G0
ENDBRANCH   4   6
ENDBRANCH   2   4
BRANCH   3   8
ATOM      8  C   UNL     1       4.072  30.859  54.375  1.00  0.00    -0.003 C 
ATOM      9  C   UNL     1       3.792  30.014  53.375  1.00  0.00    -0.020 C 
BRANCH   9  10
ATOM     10  C   UNL     1       4.764  29.492  52.343  1.00  0.00    -0.010 CG0
ATOM     11  C   UNL     1       4.104  28.298  51.616  1.00  0.00     0.016 C 
ATOM     12  C   UNL     1       5.056  30.588  51.292  1.00  0.00     0.016 C 
ATOM     13  G   UNL     1       6.043  28.983  53.043  1.00  0.00     0.000 G0
ENDBRANCH   9  10
ENDBRANCH   3   8
TORSDOF 0
ENDMDL
MODEL 6
REMARK VINA RESULT:    -3.293      1.382      2.023
REMARK INTER + INTRA:          -3.304
REMARK INTER:                  -4.073
REMARK INTRA:                   0.770
REMARK UNBOUND:                 0.760
REMARK SMILES CC1=CC=CC(C)(C)CC1=O
REMARK SMILES IDX 1 1 2 2 3 3 10 4 11 5 9 6 4 8 5 9 6 10 7 11 8 12
REMARK H PARENT
REMARK Flexibility Score: 80.00
ROOT
ATOM      1  C   UNL     1      14.956  22.400  61.472  1.00  0.00     0.048 C 
ATOM      2  C   UNL     1      14.764  22.385  59.973  1.00  0.00    -0.008 C 
ATOM      3  C   UNL     1      15.870  22.319  59.201  1.00  0.00     0.007 C 
ENDROOT
BRANCH   2   4
ATOM      4  C   UNL     1      13.367  22.367  59.471  1.00  0.00     0.159 C 
ATOM      5  O   UNL     1      12.427  22.185  60.294  1.00  0.00    -0.295 OA
BRANCH   4   6
ATOM      6  C   UNL     1      13.004  22.566  58.032  1.00  0.00     0.091 CG0
ATOM      7  G   UNL     1      13.662  21.534  57.089  1.00  0.00     0.000 G0
ENDBRANCH   4   6
ENDBRANCH   2   4
BRANCH   3   8
ATOM      8  C   UNL     1      15.998  22.263  57.727  1.00  0.00    -0.003 C 
ATOM      9  C   UNL     1      15.082  21.923  56.811  1.00  0.00    -0.020 C 
BRANCH   9  10
ATOM     10  C   UNL     1      13.647  21.533  57.080  1.00  0.00    -0.010 CG0
ATOM     11  C   UNL     1      12.878  21.559  55.739  1.00  0.00     0.016 C 
ATOM     12  C   UNL     1      13.588  20.091  57.636  1.00  0.00     0.016 C 
ATOM     13  G   UNL     1      12.996  22.564  58.028  1.00  0.00     0.000 G0
ENDBRANCH   9  10
ENDBRANCH   3   8
TORSDOF 0
ENDMDL
MODEL 7
REMARK VINA RESULT:    -3.270      1.633      2.548
REMARK INTER + INTRA:          -3.275
REMARK INTER:                  -4.325
REMARK INTRA:                   1.050
REMARK UNBOUND:                 0.760
REMARK SMILES CC1=CC=CC(C)(C)CC1=O
REMARK SMILES IDX 1 1 2 2 3 3 10 4 11 5 9 6 4 8 5 9 6 10 7 11 8 12
REMARK H PARENT
REMARK Flexibility Score: 80.00
ROOT
ATOM      1  C   UNL     1      17.712  22.658  60.022  1.00  0.00     0.048 C 
ATOM      2  C   UNL     1      16.276  22.604  59.556  1.00  0.00    -0.008 C 
ATOM      3  C   UNL     1      15.316  22.501  60.500  1.00  0.00     0.007 C 
ENDROOT
BRANCH   2   4
ATOM      4  C   UNL     1      16.031  22.746  58.099  1.00  0.00     0.159 C 
ATOM      5  O   UNL     1      16.999  22.595  57.303  1.00  0.00    -0.295 OA
BRANCH   4   6
ATOM      6  C   UNL     1      14.688  23.050  57.513  1.00  0.00     0.091 CG0
ATOM      7  G   UNL     1      13.619  21.989  57.856  1.00  0.00     0.000 G0
ENDBRANCH   4   6
ENDBRANCH   2   4
BRANCH   3   8
ATOM      8  C   UNL     1      13.842  22.453  60.356  1.00  0.00    -0.003 C 
ATOM      9  C   UNL     1      13.107  22.249  59.256  1.00  0.00    -0.020 C 
BRANCH   9  10
ATOM     10  C   UNL     1      13.630  21.983  57.864  1.00  0.00    -0.010 CG0
ATOM     11  C   UNL     1      14.305  20.593  57.858  1.00  0.00     0.016 C 
ATOM     12  C   UNL     1      12.457  21.948  56.857  1.00  0.00     0.016 C 
ATOM     13  G   UNL     1      14.697  23.038  57.499  1.00  0.00     0.000 G0
ENDBRANCH   9  10
ENDBRANCH   3   8
TORSDOF 0
ENDMDL
MODEL 8
REMARK VINA RESULT:    -3.228      2.029      2.774
REMARK INTER + INTRA:          -3.223
REMARK INTER:                  -3.994
REMARK INTRA:                   0.771
REMARK UNBOUND:                 0.760
REMARK SMILES CC1=CC=CC(C)(C)CC1=O
REMARK SMILES IDX 1 1 2 2 3 3 10 4 11 5 9 6 4 8 5 9 6 10 7 11 8 12
REMARK H PARENT
REMARK Flexibility Score: 80.00
ROOT
ATOM      1  C   UNL     1      16.490  20.681  58.007  1.00  0.00     0.048 C 
ATOM      2  C   UNL     1      15.146  21.079  58.571  1.00  0.00    -0.008 C 
ATOM      3  C   UNL     1      15.132  21.973  59.583  1.00  0.00     0.007 C 
ENDROOT
BRANCH   2   4
ATOM      4  C   UNL     1      13.942  20.510  57.915  1.00  0.00     0.159 C 
ATOM      5  O   UNL     1      14.075  19.920  56.807  1.00  0.00    -0.295 OA
BRANCH   4   6
ATOM      6  C   UNL     1      12.568  20.585  58.503  1.00  0.00     0.091 CG0
ATOM      7  G   UNL     1      12.071  22.034  58.709  1.00  0.00     0.000 G0
ENDBRANCH   4   6
ENDBRANCH   2   4
BRANCH   3   8
ATOM      8  C   UNL     1      13.987  22.566  60.312  1.00  0.00    -0.003 C 
ATOM      9  C   UNL     1      12.696  22.615  59.961  1.00  0.00    -0.020 C 
BRANCH   9  10
ATOM     10  C   UNL     1      12.084  22.031  58.709  1.00  0.00    -0.010 CG0
ATOM     11  C   UNL     1      10.549  22.000  58.889  1.00  0.00     0.016 C 
ATOM     12  C   UNL     1      12.405  22.933  57.495  1.00  0.00     0.016 C 
ATOM     13  G   UNL     1      12.575  20.579  58.519  1.00  0.00     0.000 G0
ENDBRANCH   9  10
ENDBRANCH   3   8
TORSDOF 0
ENDMDL
