MODEL 1
REMARK VINA RESULT:    -7.589      0.000      0.000
REMARK INTER + INTRA:          -8.571
REMARK INTER:                  -8.255
REMARK INTRA:                  -0.317
REMARK UNBOUND:                -0.317
REMARK SMILES CC(=O)[C@@H]1CC[C@@H]2[C@@H]3CC=C4C[C@H](O)CC[C@@]4(C)[C@H]3CC[C@@]21C
REMARK SMILES IDX 4 1 5 2 6 3 7 4 22 5 21 6 20 7 19 8 8 9 9 10 10 11 11 12
REMARK SMILES IDX 17 13 16 14 15 15 13 16 12 17 18 18 23 19 2 20 1 21 3 22
REMARK SMILES IDX 14 23
REMARK H PARENT 14 24
REMARK Flexibility Score: inf
ROOT
ATOM      1  C   UNL     1      14.460 -11.081  62.908  1.00  0.00     0.062 C 
ATOM      2  C   UNL     1      14.071 -10.905  64.372  1.00  0.00     0.012 C 
ATOM      3  C   UNL     1      14.899 -11.915  65.151  1.00  0.00     0.005 C 
ATOM      4  C   UNL     1      16.066 -12.369  64.244  1.00  0.00    -0.001 C 
ATOM      5  C   UNL     1      15.930 -11.597  62.893  1.00  0.00    -0.020 C 
ATOM      6  C   UNL     1      17.015 -10.469  62.756  1.00  0.00     0.008 C 
ATOM      7  C   UNL     1      17.331  -9.757  64.077  1.00  0.00     0.005 C 
ATOM      8  C   UNL     1      17.834 -10.733  65.184  1.00  0.00     0.003 C 
ATOM      9  C   UNL     1      17.474 -12.207  64.876  1.00  0.00     0.000 C 
ATOM     10  C   UNL     1      17.663 -13.037  66.151  1.00  0.00     0.031 C 
ATOM     11  C   UNL     1      19.064 -12.881  66.669  1.00  0.00    -0.027 C 
ATOM     12  C   UNL     1      19.822 -11.778  66.454  1.00  0.00    -0.065 C 
ATOM     13  C   UNL     1      19.359 -10.594  65.578  1.00  0.00    -0.008 C 
ATOM     14  C   UNL     1      20.289 -10.564  64.322  1.00  0.00     0.014 C 
ATOM     15  C   UNL     1      21.793 -10.632  64.661  1.00  0.00     0.033 C 
ATOM     16  C   UNL     1      22.136 -11.836  65.553  1.00  0.00     0.118 C 
ATOM     17  C   UNL     1      21.287 -11.828  66.834  1.00  0.00     0.063 C 
ATOM     18  C   UNL     1      19.518  -9.279  66.389  1.00  0.00     0.016 C 
ATOM     19  C   UNL     1      16.115 -12.567  61.700  1.00  0.00     0.012 C 
ENDROOT
BRANCH   1  20
ATOM     20  C   UNL     1      14.175  -9.852  62.063  1.00  0.00     0.133 C 
ATOM     21  C   UNL     1      13.933  -8.517  62.702  1.00  0.00     0.088 C 
ATOM     22  O   UNL     1      14.133  -9.936  60.843  1.00  0.00    -0.300 OA
ENDBRANCH   1  20
BRANCH  16  23
ATOM     23  O   UNL     1      23.499 -11.788  65.883  1.00  0.00    -0.393 OA
ATOM     24  H   UNL     1      23.738 -10.829  65.972  1.00  0.00     0.210 HD
ENDBRANCH  16  23
TORSDOF 2
ENDMDL
MODEL 2
REMARK VINA RESULT:    -7.554      1.988      3.554
REMARK INTER + INTRA:          -8.533
REMARK INTER:                  -8.214
REMARK INTRA:                  -0.320
REMARK UNBOUND:                -0.317
REMARK SMILES CC(=O)[C@@H]1CC[C@@H]2[C@@H]3CC=C4C[C@H](O)CC[C@@]4(C)[C@H]3CC[C@@]21C
REMARK SMILES IDX 4 1 5 2 6 3 7 4 22 5 21 6 20 7 19 8 8 9 9 10 10 11 11 12
REMARK SMILES IDX 17 13 16 14 15 15 13 16 12 17 18 18 23 19 2 20 1 21 3 22
REMARK SMILES IDX 14 23
REMARK H PARENT 14 24
REMARK Flexibility Score: inf
ROOT
ATOM      1  C   UNL     1      13.765 -11.482  61.991  1.00  0.00     0.062 C 
ATOM      2  C   UNL     1      14.861 -12.395  61.451  1.00  0.00     0.012 C 
ATOM      3  C   UNL     1      16.164 -11.628  61.613  1.00  0.00     0.005 C 
ATOM      4  C   UNL     1      15.916 -10.483  62.621  1.00  0.00    -0.001 C 
ATOM      5  C   UNL     1      14.425 -10.582  63.078  1.00  0.00    -0.020 C 
ATOM      6  C   UNL     1      14.301 -11.134  64.544  1.00  0.00     0.008 C 
ATOM      7  C   UNL     1      15.335 -12.215  64.883  1.00  0.00     0.005 C 
ATOM      8  C   UNL     1      16.804 -11.723  64.711  1.00  0.00     0.003 C 
ATOM      9  C   UNL     1      16.900 -10.458  63.822  1.00  0.00     0.000 C 
ATOM     10  C   UNL     1      18.361 -10.260  63.402  1.00  0.00     0.031 C 
ATOM     11  C   UNL     1      19.243 -10.182  64.615  1.00  0.00    -0.027 C 
ATOM     12  C   UNL     1      18.947 -10.780  65.795  1.00  0.00    -0.065 C 
ATOM     13  C   UNL     1      17.626 -11.537  66.048  1.00  0.00    -0.008 C 
ATOM     14  C   UNL     1      16.829 -10.720  67.117  1.00  0.00     0.014 C 
ATOM     15  C   UNL     1      17.664 -10.343  68.359  1.00  0.00     0.033 C 
ATOM     16  C   UNL     1      18.965  -9.614  67.987  1.00  0.00     0.118 C 
ATOM     17  C   UNL     1      19.798 -10.448  67.002  1.00  0.00     0.063 C 
ATOM     18  C   UNL     1      17.956 -12.951  66.598  1.00  0.00     0.016 C 
ATOM     19  C   UNL     1      13.763  -9.183  63.051  1.00  0.00     0.012 C 
ENDROOT
BRANCH   1  20
ATOM     20  C   UNL     1      12.517 -12.235  62.416  1.00  0.00     0.133 C 
ATOM     21  C   UNL     1      12.554 -13.715  62.655  1.00  0.00     0.088 C 
ATOM     22  O   UNL     1      11.457 -11.642  62.564  1.00  0.00    -0.300 OA
ENDBRANCH   1  20
BRANCH  16  23
ATOM     23  O   UNL     1      19.705  -9.374  69.155  1.00  0.00    -0.393 OA
ATOM     24  H   UNL     1      19.665 -10.207  69.695  1.00  0.00     0.210 HD
ENDBRANCH  16  23
TORSDOF 2
ENDMDL
MODEL 3
REMARK VINA RESULT:    -7.505      1.908      6.632
REMARK INTER + INTRA:          -8.480
REMARK INTER:                  -8.259
REMARK INTRA:                  -0.221
REMARK UNBOUND:                -0.317
REMARK SMILES CC(=O)[C@@H]1CC[C@@H]2[C@@H]3CC=C4C[C@H](O)CC[C@@]4(C)[C@H]3CC[C@@]21C
REMARK SMILES IDX 4 1 5 2 6 3 7 4 22 5 21 6 20 7 19 8 8 9 9 10 10 11 11 12
REMARK SMILES IDX 17 13 16 14 15 15 13 16 12 17 18 18 23 19 2 20 1 21 3 22
REMARK SMILES IDX 14 23
REMARK H PARENT 14 24
REMARK Flexibility Score: inf
ROOT
ATOM      1  C   UNL     1      20.125 -10.980  67.541  1.00  0.00     0.062 C 
ATOM      2  C   UNL     1      19.420  -9.628  67.547  1.00  0.00     0.012 C 
ATOM      3  C   UNL     1      19.150  -9.289  66.088  1.00  0.00     0.005 C 
ATOM      4  C   UNL     1      19.285 -10.593  65.268  1.00  0.00    -0.001 C 
ATOM      5  C   UNL     1      19.634 -11.738  66.271  1.00  0.00    -0.020 C 
ATOM      6  C   UNL     1      18.409 -12.691  66.515  1.00  0.00     0.008 C 
ATOM      7  C   UNL     1      17.060 -11.963  66.542  1.00  0.00     0.005 C 
ATOM      8  C   UNL     1      16.767 -11.184  65.224  1.00  0.00     0.003 C 
ATOM      9  C   UNL     1      18.050 -10.933  64.392  1.00  0.00     0.000 C 
ATOM     10  C   UNL     1      17.748  -9.867  63.332  1.00  0.00     0.031 C 
ATOM     11  C   UNL     1      16.584 -10.293  62.484  1.00  0.00    -0.027 C 
ATOM     12  C   UNL     1      15.601 -11.116  62.924  1.00  0.00    -0.065 C 
ATOM     13  C   UNL     1      15.614 -11.775  64.319  1.00  0.00    -0.008 C 
ATOM     14  C   UNL     1      15.776 -13.314  64.096  1.00  0.00     0.014 C 
ATOM     15  C   UNL     1      14.791 -13.898  63.060  1.00  0.00     0.033 C 
ATOM     16  C   UNL     1      14.848 -13.152  61.717  1.00  0.00     0.118 C 
ATOM     17  C   UNL     1      14.605 -11.648  61.915  1.00  0.00     0.063 C 
ATOM     18  C   UNL     1      14.263 -11.480  65.026  1.00  0.00     0.016 C 
ATOM     19  C   UNL     1      20.792 -12.602  65.716  1.00  0.00     0.012 C 
ENDROOT
BRANCH   1  20
ATOM     20  C   UNL     1      19.994 -11.727  68.856  1.00  0.00     0.133 C 
ATOM     21  C   UNL     1      20.932 -12.845  69.204  1.00  0.00     0.088 C 
ATOM     22  O   UNL     1      19.113 -11.430  69.651  1.00  0.00    -0.300 OA
ENDBRANCH   1  20
BRANCH  16  23
ATOM     23  O   UNL     1      13.877 -13.683  60.856  1.00  0.00    -0.393 OA
ATOM     24  H   UNL     1      13.566 -14.533  61.265  1.00  0.00     0.210 HD
ENDBRANCH  16  23
TORSDOF 2
ENDMDL
MODEL 4
REMARK VINA RESULT:    -7.475     10.113     12.455
REMARK INTER + INTRA:          -8.447
REMARK INTER:                  -8.126
REMARK INTRA:                  -0.321
REMARK UNBOUND:                -0.317
REMARK SMILES CC(=O)[C@@H]1CC[C@@H]2[C@@H]3CC=C4C[C@H](O)CC[C@@]4(C)[C@H]3CC[C@@]21C
REMARK SMILES IDX 4 1 5 2 6 3 7 4 22 5 21 6 20 7 19 8 8 9 9 10 10 11 11 12
REMARK SMILES IDX 17 13 16 14 15 15 13 16 12 17 18 18 23 19 2 20 1 21 3 22
REMARK SMILES IDX 14 23
REMARK H PARENT 14 24
REMARK Flexibility Score: inf
ROOT
ATOM      1  C   UNL     1       6.769  -9.243  55.889  1.00  0.00     0.062 C 
ATOM      2  C   UNL     1       7.488 -10.475  56.428  1.00  0.00     0.012 C 
ATOM      3  C   UNL     1       8.605 -10.775  55.440  1.00  0.00     0.005 C 
ATOM      4  C   UNL     1       8.827  -9.510  54.581  1.00  0.00    -0.001 C 
ATOM      5  C   UNL     1       7.821  -8.425  55.082  1.00  0.00    -0.020 C 
ATOM      6  C   UNL     1       8.543  -7.299  55.906  1.00  0.00     0.008 C 
ATOM      7  C   UNL     1       9.690  -7.818  56.782  1.00  0.00     0.005 C 
ATOM      8  C   UNL     1      10.794  -8.551  55.960  1.00  0.00     0.003 C 
ATOM      9  C   UNL     1      10.291  -8.993  54.563  1.00  0.00     0.000 C 
ATOM     10  C   UNL     1      11.283 -10.006  53.980  1.00  0.00     0.031 C 
ATOM     11  C   UNL     1      12.663  -9.415  53.937  1.00  0.00    -0.027 C 
ATOM     12  C   UNL     1      13.092  -8.453  54.790  1.00  0.00    -0.065 C 
ATOM     13  C   UNL     1      12.179  -7.798  55.849  1.00  0.00    -0.008 C 
ATOM     14  C   UNL     1      12.001  -6.301  55.434  1.00  0.00     0.014 C 
ATOM     15  C   UNL     1      13.330  -5.581  55.119  1.00  0.00     0.033 C 
ATOM     16  C   UNL     1      14.165  -6.333  54.070  1.00  0.00     0.118 C 
ATOM     17  C   UNL     1      14.420  -7.783  54.509  1.00  0.00     0.063 C 
ATOM     18  C   UNL     1      12.876  -7.886  57.234  1.00  0.00     0.016 C 
ATOM     19  C   UNL     1       7.123  -7.745  53.879  1.00  0.00     0.012 C 
ENDROOT
BRANCH   1  20
ATOM     20  C   UNL     1       6.009  -8.479  56.959  1.00  0.00     0.133 C 
ATOM     21  C   UNL     1       6.316  -8.679  58.413  1.00  0.00     0.088 C 
ATOM     22  O   UNL     1       5.126  -7.691  56.647  1.00  0.00    -0.300 OA
ENDBRANCH   1  20
BRANCH  16  23
ATOM     23  O   UNL     1      15.387  -5.666  53.893  1.00  0.00    -0.393 OA
ATOM     24  H   UNL     1      15.724  -5.921  52.994  1.00  0.00     0.210 HD
ENDBRANCH  16  23
TORSDOF 2
ENDMDL
MODEL 5
REMARK VINA RESULT:    -7.439      1.229      6.522
REMARK INTER + INTRA:          -8.408
REMARK INTER:                  -8.271
REMARK INTRA:                  -0.137
REMARK UNBOUND:                -0.317
REMARK SMILES CC(=O)[C@@H]1CC[C@@H]2[C@@H]3CC=C4C[C@H](O)CC[C@@]4(C)[C@H]3CC[C@@]21C
REMARK SMILES IDX 4 1 5 2 6 3 7 4 22 5 21 6 20 7 19 8 8 9 9 10 10 11 11 12
REMARK SMILES IDX 17 13 16 14 15 15 13 16 12 17 18 18 23 19 2 20 1 21 3 22
REMARK SMILES IDX 14 23
REMARK H PARENT 14 24
REMARK Flexibility Score: inf
ROOT
ATOM      1  C   UNL     1      19.830 -11.683  67.110  1.00  0.00     0.062 C 
ATOM      2  C   UNL     1      19.282 -13.089  66.893  1.00  0.00     0.012 C 
ATOM      3  C   UNL     1      17.769 -12.972  67.004  1.00  0.00     0.005 C 
ATOM      4  C   UNL     1      17.399 -11.479  66.847  1.00  0.00    -0.001 C 
ATOM      5  C   UNL     1      18.730 -10.692  66.626  1.00  0.00    -0.020 C 
ATOM      6  C   UNL     1      18.887 -10.222  65.134  1.00  0.00     0.008 C 
ATOM      7  C   UNL     1      18.355 -11.234  64.113  1.00  0.00     0.005 C 
ATOM      8  C   UNL     1      16.846 -11.569  64.322  1.00  0.00     0.003 C 
ATOM      9  C   UNL     1      16.351 -11.189  65.739  1.00  0.00     0.000 C 
ATOM     10  C   UNL     1      15.002 -11.872  65.989  1.00  0.00     0.031 C 
ATOM     11  C   UNL     1      14.022 -11.495  64.915  1.00  0.00    -0.027 C 
ATOM     12  C   UNL     1      14.389 -11.149  63.657  1.00  0.00    -0.065 C 
ATOM     13  C   UNL     1      15.862 -11.020  63.213  1.00  0.00    -0.008 C 
ATOM     14  C   UNL     1      16.115  -9.510  62.901  1.00  0.00     0.014 C 
ATOM     15  C   UNL     1      15.052  -8.881  61.975  1.00  0.00     0.033 C 
ATOM     16  C   UNL     1      13.623  -9.088  62.503  1.00  0.00     0.118 C 
ATOM     17  C   UNL     1      13.334 -10.579  62.732  1.00  0.00     0.063 C 
ATOM     18  C   UNL     1      16.076 -11.871  61.931  1.00  0.00     0.016 C 
ATOM     19  C   UNL     1      18.758  -9.426  67.517  1.00  0.00     0.012 C 
ENDROOT
BRANCH   1  20
ATOM     20  C   UNL     1      21.214 -11.484  66.517  1.00  0.00     0.133 C 
ATOM     21  C   UNL     1      21.935 -12.617  65.850  1.00  0.00     0.088 C 
ATOM     22  O   UNL     1      21.765 -10.394  66.584  1.00  0.00    -0.300 OA
ENDBRANCH   1  20
BRANCH  16  23
ATOM     23  O   UNL     1      12.711  -8.562  61.575  1.00  0.00    -0.393 OA
ATOM     24  H   UNL     1      11.884  -8.345  62.080  1.00  0.00     0.210 HD
ENDBRANCH  16  23
TORSDOF 2
ENDMDL
MODEL 6
REMARK VINA RESULT:    -7.373      1.960      6.512
REMARK INTER + INTRA:          -8.336
REMARK INTER:                  -8.472
REMARK INTRA:                   0.136
REMARK UNBOUND:                -0.317
REMARK SMILES CC(=O)[C@@H]1CC[C@@H]2[C@@H]3CC=C4C[C@H](O)CC[C@@]4(C)[C@H]3CC[C@@]21C
REMARK SMILES IDX 4 1 5 2 6 3 7 4 22 5 21 6 20 7 19 8 8 9 9 10 10 11 11 12
REMARK SMILES IDX 17 13 16 14 15 15 13 16 12 17 18 18 23 19 2 20 1 21 3 22
REMARK SMILES IDX 14 23
REMARK H PARENT 14 24
REMARK Flexibility Score: inf
ROOT
ATOM      1  C   UNL     1      19.079 -11.766  67.665  1.00  0.00     0.062 C 
ATOM      2  C   UNL     1      20.044 -11.829  66.486  1.00  0.00     0.012 C 
ATOM      3  C   UNL     1      19.442 -12.821  65.502  1.00  0.00     0.005 C 
ATOM      4  C   UNL     1      17.953 -13.007  65.873  1.00  0.00    -0.001 C 
ATOM      5  C   UNL     1      17.662 -12.091  67.104  1.00  0.00    -0.020 C 
ATOM      6  C   UNL     1      16.816 -10.829  66.703  1.00  0.00     0.008 C 
ATOM      7  C   UNL     1      17.177 -10.259  65.326  1.00  0.00     0.005 C 
ATOM      8  C   UNL     1      17.005 -11.299  64.177  1.00  0.00     0.003 C 
ATOM      9  C   UNL     1      16.963 -12.755  64.703  1.00  0.00     0.000 C 
ATOM     10  C   UNL     1      17.165 -13.712  63.523  1.00  0.00     0.031 C 
ATOM     11  C   UNL     1      16.135 -13.452  62.461  1.00  0.00    -0.027 C 
ATOM     12  C   UNL     1      15.548 -12.245  62.269  1.00  0.00    -0.065 C 
ATOM     13  C   UNL     1      15.811 -11.025  63.178  1.00  0.00    -0.008 C 
ATOM     14  C   UNL     1      14.475 -10.720  63.930  1.00  0.00     0.014 C 
ATOM     15  C   UNL     1      13.243 -10.644  63.003  1.00  0.00     0.033 C 
ATOM     16  C   UNL     1      13.092 -11.901  62.131  1.00  0.00     0.118 C 
ATOM     17  C   UNL     1      14.371 -12.162  61.320  1.00  0.00     0.063 C 
ATOM     18  C   UNL     1      16.209  -9.816  62.289  1.00  0.00     0.016 C 
ATOM     19  C   UNL     1      16.858 -12.869  68.173  1.00  0.00     0.012 C 
ENDROOT
BRANCH   1  20
ATOM     20  C   UNL     1      19.200 -10.484  68.469  1.00  0.00     0.133 C 
ATOM     21  C   UNL     1      19.239  -9.149  67.787  1.00  0.00     0.088 C 
ATOM     22  O   UNL     1      19.276 -10.523  69.689  1.00  0.00    -0.300 OA
ENDBRANCH   1  20
BRANCH  16  23
ATOM     23  O   UNL     1      12.004 -11.728  61.263  1.00  0.00    -0.393 OA
ATOM     24  H   UNL     1      12.227 -10.961  60.674  1.00  0.00     0.210 HD
ENDBRANCH  16  23
TORSDOF 2
ENDMDL
MODEL 7
REMARK VINA RESULT:    -7.332      2.620      7.651
REMARK INTER + INTRA:          -8.292
REMARK INTER:                  -8.075
REMARK INTRA:                  -0.217
REMARK UNBOUND:                -0.317
REMARK SMILES CC(=O)[C@@H]1CC[C@@H]2[C@@H]3CC=C4C[C@H](O)CC[C@@]4(C)[C@H]3CC[C@@]21C
REMARK SMILES IDX 4 1 5 2 6 3 7 4 22 5 21 6 20 7 19 8 8 9 9 10 10 11 11 12
REMARK SMILES IDX 17 13 16 14 15 15 13 16 12 17 18 18 23 19 2 20 1 21 3 22
REMARK SMILES IDX 14 23
REMARK H PARENT 14 24
REMARK Flexibility Score: inf
ROOT
ATOM      1  C   UNL     1      16.329 -12.267  63.518  1.00  0.00     0.062 C 
ATOM      2  C   UNL     1      16.439 -12.408  62.003  1.00  0.00     0.012 C 
ATOM      3  C   UNL     1      15.022 -12.279  61.466  1.00  0.00     0.005 C 
ATOM      4  C   UNL     1      14.154 -11.637  62.573  1.00  0.00    -0.001 C 
ATOM      5  C   UNL     1      15.087 -11.370  63.797  1.00  0.00    -0.020 C 
ATOM      6  C   UNL     1      15.411  -9.840  63.957  1.00  0.00     0.008 C 
ATOM      7  C   UNL     1      15.581  -9.105  62.622  1.00  0.00     0.005 C 
ATOM      8  C   UNL     1      14.318  -9.204  61.713  1.00  0.00     0.003 C 
ATOM      9  C   UNL     1      13.383 -10.365  62.129  1.00  0.00     0.000 C 
ATOM     10  C   UNL     1      12.386 -10.627  60.994  1.00  0.00     0.031 C 
ATOM     11  C   UNL     1      11.634  -9.370  60.664  1.00  0.00    -0.027 C 
ATOM     12  C   UNL     1      12.136  -8.125  60.858  1.00  0.00    -0.065 C 
ATOM     13  C   UNL     1      13.504  -7.862  61.523  1.00  0.00    -0.008 C 
ATOM     14  C   UNL     1      13.220  -7.151  62.886  1.00  0.00     0.014 C 
ATOM     15  C   UNL     1      12.260  -5.948  62.771  1.00  0.00     0.033 C 
ATOM     16  C   UNL     1      10.941  -6.320  62.075  1.00  0.00     0.118 C 
ATOM     17  C   UNL     1      11.205  -6.942  60.696  1.00  0.00     0.063 C 
ATOM     18  C   UNL     1      14.338  -6.931  60.601  1.00  0.00     0.016 C 
ATOM     19  C   UNL     1      14.403 -11.839  65.104  1.00  0.00     0.012 C 
ENDROOT
BRANCH   1  20
ATOM     20  C   UNL     1      17.628 -11.831  64.172  1.00  0.00     0.133 C 
ATOM     21  C   UNL     1      17.947 -12.220  65.585  1.00  0.00     0.088 C 
ATOM     22  O   UNL     1      18.432 -11.146  63.555  1.00  0.00    -0.300 OA
ENDBRANCH   1  20
BRANCH  16  23
ATOM     23  O   UNL     1      10.155  -5.166  61.936  1.00  0.00    -0.393 OA
ATOM     24  H   UNL     1      10.090  -4.754  62.838  1.00  0.00     0.210 HD
ENDBRANCH  16  23
TORSDOF 2
ENDMDL
MODEL 8
REMARK VINA RESULT:    -7.267      2.019      7.046
REMARK INTER + INTRA:          -8.220
REMARK INTER:                  -7.998
REMARK INTRA:                  -0.222
REMARK UNBOUND:                -0.317
REMARK SMILES CC(=O)[C@@H]1CC[C@@H]2[C@@H]3CC=C4C[C@H](O)CC[C@@]4(C)[C@H]3CC[C@@]21C
REMARK SMILES IDX 4 1 5 2 6 3 7 4 22 5 21 6 20 7 19 8 8 9 9 10 10 11 11 12
REMARK SMILES IDX 17 13 16 14 15 15 13 16 12 17 18 18 23 19 2 20 1 21 3 22
REMARK SMILES IDX 14 23
REMARK H PARENT 14 24
REMARK Flexibility Score: inf
ROOT
ATOM      1  C   UNL     1      18.293 -11.301  64.973  1.00  0.00     0.062 C 
ATOM      2  C   UNL     1      18.009 -12.322  63.877  1.00  0.00     0.012 C 
ATOM      3  C   UNL     1      16.505 -12.552  63.896  1.00  0.00     0.005 C 
ATOM      4  C   UNL     1      15.859 -11.381  64.672  1.00  0.00    -0.001 C 
ATOM      5  C   UNL     1      17.012 -10.425  65.114  1.00  0.00    -0.020 C 
ATOM      6  C   UNL     1      17.030  -9.104  64.265  1.00  0.00     0.008 C 
ATOM      7  C   UNL     1      16.663  -9.316  62.791  1.00  0.00     0.005 C 
ATOM      8  C   UNL     1      15.251  -9.950  62.605  1.00  0.00     0.003 C 
ATOM      9  C   UNL     1      14.740 -10.636  63.896  1.00  0.00     0.000 C 
ATOM     10  C   UNL     1      13.550 -11.535  63.538  1.00  0.00     0.031 C 
ATOM     11  C   UNL     1      12.483 -10.734  62.849  1.00  0.00    -0.027 C 
ATOM     12  C   UNL     1      12.738  -9.618  62.122  1.00  0.00    -0.065 C 
ATOM     13  C   UNL     1      14.146  -8.998  61.995  1.00  0.00    -0.008 C 
ATOM     14  C   UNL     1      14.103  -7.613  62.719  1.00  0.00     0.014 C 
ATOM     15  C   UNL     1      12.911  -6.728  62.294  1.00  0.00     0.033 C 
ATOM     16  C   UNL     1      11.565  -7.453  62.442  1.00  0.00     0.118 C 
ATOM     17  C   UNL     1      11.566  -8.777  61.663  1.00  0.00     0.063 C 
ATOM     18  C   UNL     1      14.473  -8.801  60.490  1.00  0.00     0.016 C 
ATOM     19  C   UNL     1      16.833 -10.021  66.598  1.00  0.00     0.012 C 
ENDROOT
BRANCH   1  20
ATOM     20  C   UNL     1      19.596 -10.549  64.766  1.00  0.00     0.133 C 
ATOM     21  C   UNL     1      20.354  -9.987  65.931  1.00  0.00     0.088 C 
ATOM     22  O   UNL     1      20.042 -10.385  63.639  1.00  0.00    -0.300 OA
ENDBRANCH   1  20
BRANCH  16  23
ATOM     23  O   UNL     1      10.541  -6.620  61.966  1.00  0.00    -0.393 OA
ATOM     24  H   UNL     1      10.223  -6.086  62.741  1.00  0.00     0.210 HD
ENDBRANCH  16  23
TORSDOF 2
ENDMDL
MODEL 9
REMARK VINA RESULT:    -7.124      2.075      4.021
REMARK INTER + INTRA:          -8.066
REMARK INTER:                  -7.746
REMARK INTRA:                  -0.320
REMARK UNBOUND:                -0.317
REMARK SMILES CC(=O)[C@@H]1CC[C@@H]2[C@@H]3CC=C4C[C@H](O)CC[C@@]4(C)[C@H]3CC[C@@]21C
REMARK SMILES IDX 4 1 5 2 6 3 7 4 22 5 21 6 20 7 19 8 8 9 9 10 10 11 11 12
REMARK SMILES IDX 17 13 16 14 15 15 13 16 12 17 18 18 23 19 2 20 1 21 3 22
REMARK SMILES IDX 14 23
REMARK H PARENT 14 24
REMARK Flexibility Score: inf
ROOT
ATOM      1  C   UNL     1      12.982  -8.891  60.409  1.00  0.00     0.062 C 
ATOM      2  C   UNL     1      12.372 -10.287  60.477  1.00  0.00     0.012 C 
ATOM      3  C   UNL     1      13.544 -11.257  60.497  1.00  0.00     0.005 C 
ATOM      4  C   UNL     1      14.811 -10.458  60.879  1.00  0.00    -0.001 C 
ATOM      5  C   UNL     1      14.375  -8.975  61.102  1.00  0.00    -0.020 C 
ATOM      6  C   UNL     1      14.369  -8.594  62.627  1.00  0.00     0.008 C 
ATOM      7  C   UNL     1      13.900  -9.732  63.542  1.00  0.00     0.005 C 
ATOM      8  C   UNL     1      14.771 -11.017  63.404  1.00  0.00     0.003 C 
ATOM      9  C   UNL     1      15.593 -11.032  62.091  1.00  0.00     0.000 C 
ATOM     10  C   UNL     1      16.118 -12.453  61.854  1.00  0.00     0.031 C 
ATOM     11  C   UNL     1      16.915 -12.916  63.040  1.00  0.00    -0.027 C 
ATOM     12  C   UNL     1      16.708 -12.466  64.302  1.00  0.00    -0.065 C 
ATOM     13  C   UNL     1      15.685 -11.362  64.646  1.00  0.00    -0.008 C 
ATOM     14  C   UNL     1      16.500 -10.122  65.137  1.00  0.00     0.014 C 
ATOM     15  C   UNL     1      17.552 -10.457  66.216  1.00  0.00     0.033 C 
ATOM     16  C   UNL     1      18.502 -11.582  65.774  1.00  0.00     0.118 C 
ATOM     17  C   UNL     1      17.714 -12.838  65.371  1.00  0.00     0.063 C 
ATOM     18  C   UNL     1      14.760 -11.874  65.784  1.00  0.00     0.016 C 
ATOM     19  C   UNL     1      15.357  -8.014  60.388  1.00  0.00     0.012 C 
ENDROOT
BRANCH   1  20
ATOM     20  C   UNL     1      12.049  -7.806  60.917  1.00  0.00     0.133 C 
ATOM     21  C   UNL     1      10.856  -8.148  61.758  1.00  0.00     0.088 C 
ATOM     22  O   UNL     1      12.255  -6.632  60.639  1.00  0.00    -0.300 OA
ENDBRANCH   1  20
BRANCH  16  23
ATOM     23  O   UNL     1      19.375 -11.885  66.829  1.00  0.00    -0.393 OA
ATOM     24  H   UNL     1      20.034 -12.538  66.476  1.00  0.00     0.210 HD
ENDBRANCH  16  23
TORSDOF 2
ENDMDL
