MODEL 1
REMARK VINA RESULT:    -2.956      0.000      0.000
REMARK INTER + INTRA:          -2.956
REMARK INTER:                  -2.956
REMARK INTRA:                   0.000
REMARK UNBOUND:                 0.000
REMARK SMILES CC(=O)[O-]
REMARK SMILES IDX 1 1 2 2 3 3 4 4
REMARK H PARENT
REMARK Flexibility Score: inf
ROOT
ATOM      1  C   UNL     1       9.989 -14.750 -20.860  1.00  0.00     0.063 C 
ATOM      2  C   UNL     1      10.662 -14.421 -19.570  1.00  0.00     0.038 C 
ATOM      3  O   UNL     1      10.748 -13.224 -19.190  1.00  0.00    -0.550 OA
ATOM      4  O   UNL     1      11.147 -15.438 -18.759  1.00  0.00    -0.550 OA
ENDROOT
TORSDOF 0
ENDMDL
MODEL 2
REMARK VINA RESULT:    -2.952      0.173      1.629
REMARK INTER + INTRA:          -2.952
REMARK INTER:                  -2.952
REMARK INTRA:                   0.000
REMARK UNBOUND:                 0.000
REMARK SMILES CC(=O)[O-]
REMARK SMILES IDX 1 1 2 2 3 3 4 4
REMARK H PARENT
REMARK Flexibility Score: inf
ROOT
ATOM      1  C   UNL     1      10.114 -15.005 -20.851  1.00  0.00     0.063 C 
ATOM      2  C   UNL     1      10.693 -14.603 -19.536  1.00  0.00     0.038 C 
ATOM      3  O   UNL     1      11.166 -15.474 -18.761  1.00  0.00    -0.550 OA
ATOM      4  O   UNL     1      10.759 -13.260 -19.186  1.00  0.00    -0.550 OA
ENDROOT
TORSDOF 0
ENDMDL
MODEL 3
REMARK VINA RESULT:    -2.821      1.132      1.384
REMARK INTER + INTRA:          -2.821
REMARK INTER:                  -2.821
REMARK INTRA:                   0.000
REMARK UNBOUND:                 0.000
REMARK SMILES CC(=O)[O-]
REMARK SMILES IDX 1 1 2 2 3 3 4 4
REMARK H PARENT
REMARK Flexibility Score: inf
ROOT
ATOM      1  C   UNL     1       9.692 -14.724 -21.011  1.00  0.00     0.063 C 
ATOM      2  C   UNL     1      10.175 -13.567 -20.203  1.00  0.00     0.038 C 
ATOM      3  O   UNL     1       9.956 -12.390 -20.592  1.00  0.00    -0.550 OA
ATOM      4  O   UNL     1      10.822 -13.784 -18.994  1.00  0.00    -0.550 OA
ENDROOT
TORSDOF 0
ENDMDL
MODEL 4
REMARK VINA RESULT:    -2.623     16.213     16.475
REMARK INTER + INTRA:          -2.623
REMARK INTER:                  -2.623
REMARK INTRA:                   0.000
REMARK UNBOUND:                 0.000
REMARK SMILES CC(=O)[O-]
REMARK SMILES IDX 1 1 2 2 3 3 4 4
REMARK H PARENT
REMARK Flexibility Score: inf
ROOT
ATOM      1  C   UNL     1      23.226  -5.730 -27.425  1.00  0.00     0.063 C 
ATOM      2  C   UNL     1      23.386  -6.796 -26.394  1.00  0.00     0.038 C 
ATOM      3  O   UNL     1      23.132  -7.995 -26.681  1.00  0.00    -0.550 OA
ATOM      4  O   UNL     1      23.866  -6.477 -25.131  1.00  0.00    -0.550 OA
ENDROOT
TORSDOF 0
ENDMDL
MODEL 5
REMARK VINA RESULT:    -2.603     16.321     16.609
REMARK INTER + INTRA:          -2.603
REMARK INTER:                  -2.603
REMARK INTRA:                   0.000
REMARK UNBOUND:                 0.000
REMARK SMILES CC(=O)[O-]
REMARK SMILES IDX 1 1 2 2 3 3 4 4
REMARK H PARENT
REMARK Flexibility Score: inf
ROOT
ATOM      1  C   UNL     1      23.578  -7.985 -27.030  1.00  0.00     0.063 C 
ATOM      2  C   UNL     1      23.476  -6.632 -26.411  1.00  0.00     0.038 C 
ATOM      3  O   UNL     1      23.778  -6.467 -25.201  1.00  0.00    -0.550 OA
ATOM      4  O   UNL     1      23.097  -5.540 -27.183  1.00  0.00    -0.550 OA
ENDROOT
TORSDOF 0
ENDMDL
MODEL 6
REMARK VINA RESULT:    -2.415     19.961     20.366
REMARK INTER + INTRA:          -2.415
REMARK INTER:                  -2.415
REMARK INTRA:                   0.000
REMARK UNBOUND:                 0.000
REMARK SMILES CC(=O)[O-]
REMARK SMILES IDX 1 1 2 2 3 3 4 4
REMARK H PARENT
REMARK Flexibility Score: inf
ROOT
ATOM      1  C   UNL     1      27.602  -1.977 -24.683  1.00  0.00     0.063 C 
ATOM      2  C   UNL     1      26.287  -2.470 -24.180  1.00  0.00     0.038 C 
ATOM      3  O   UNL     1      25.562  -3.193 -24.912  1.00  0.00    -0.550 OA
ATOM      4  O   UNL     1      25.884  -2.177 -22.884  1.00  0.00    -0.550 OA
ENDROOT
TORSDOF 0
ENDMDL
MODEL 7
REMARK VINA RESULT:    -2.314      2.832      3.601
REMARK INTER + INTRA:          -2.314
REMARK INTER:                  -2.314
REMARK INTRA:                   0.000
REMARK UNBOUND:                 0.000
REMARK SMILES CC(=O)[O-]
REMARK SMILES IDX 1 1 2 2 3 3 4 4
REMARK H PARENT
REMARK Flexibility Score: inf
ROOT
ATOM      1  C   UNL     1      10.204 -14.080 -22.666  1.00  0.00     0.063 C 
ATOM      2  C   UNL     1       9.990 -12.704 -22.130  1.00  0.00     0.038 C 
ATOM      3  O   UNL     1      10.005 -12.501 -20.888  1.00  0.00    -0.550 OA
ATOM      4  O   UNL     1       9.827 -11.636 -23.002  1.00  0.00    -0.550 OA
ENDROOT
TORSDOF 0
ENDMDL
MODEL 8
REMARK VINA RESULT:    -2.270      2.438      2.622
REMARK INTER + INTRA:          -2.270
REMARK INTER:                  -2.270
REMARK INTRA:                   0.000
REMARK UNBOUND:                 0.000
REMARK SMILES CC(=O)[O-]
REMARK SMILES IDX 1 1 2 2 3 3 4 4
REMARK H PARENT
REMARK Flexibility Score: inf
ROOT
ATOM      1  C   UNL     1      10.331 -13.910 -19.875  1.00  0.00     0.063 C 
ATOM      2  C   UNL     1      10.125 -13.538 -21.305  1.00  0.00     0.038 C 
ATOM      3  O   UNL     1       9.935 -12.335 -21.623  1.00  0.00    -0.550 OA
ATOM      4  O   UNL     1      10.196 -14.510 -22.294  1.00  0.00    -0.550 OA
ENDROOT
TORSDOF 0
ENDMDL
MODEL 9
REMARK VINA RESULT:    -2.233      6.428      6.985
REMARK INTER + INTRA:          -2.233
REMARK INTER:                  -2.233
REMARK INTRA:                   0.000
REMARK UNBOUND:                 0.000
REMARK SMILES CC(=O)[O-]
REMARK SMILES IDX 1 1 2 2 3 3 4 4
REMARK H PARENT
REMARK Flexibility Score: inf
ROOT
ATOM      1  C   UNL     1       9.291  -8.648 -24.661  1.00  0.00     0.063 C 
ATOM      2  C   UNL     1       9.672 -10.089 -24.704  1.00  0.00     0.038 C 
ATOM      3  O   UNL     1      10.213 -10.569 -25.734  1.00  0.00    -0.550 OA
ATOM      4  O   UNL     1       9.478 -10.893 -23.588  1.00  0.00    -0.550 OA
ENDROOT
TORSDOF 0
ENDMDL
