MODEL 1
REMARK VINA RESULT:    -3.137      0.000      0.000
REMARK INTER + INTRA:          -3.229
REMARK INTER:                  -3.229
REMARK INTRA:                   0.000
REMARK UNBOUND:                 0.000
REMARK SMILES C[C@@H]1CC[C@@H]2C(C)(C)[C@@H]3C[C@]12CC[C@@]3(C)O
REMARK SMILES IDX 1 1 2 2 3 3 4 4 5 5 11 6 12 7 13 8 14 9 9 10 10 11 6 12 7 13
REMARK SMILES IDX 8 14 15 15 16 16
REMARK H PARENT 16 17
REMARK Flexibility Score: inf
ROOT
ATOM      1  C   UNL     1     184.363 192.145 200.304  1.00  0.00     0.008 C 
ATOM      2  C   UNL     1     182.973 192.334 199.671  1.00  0.00    -0.008 C 
ATOM      3  C   UNL     1     182.732 193.798 199.282  1.00  0.00     0.004 C 
ATOM      4  C   UNL     1     181.795 194.359 200.336  1.00  0.00     0.005 C 
ATOM      5  C   UNL     1     180.881 193.183 200.710  1.00  0.00     0.001 C 
ATOM      6  C   UNL     1     181.762 191.927 200.572  1.00  0.00    -0.023 C 
ATOM      7  C   UNL     1     180.974 190.738 199.944  1.00  0.00     0.010 C 
ATOM      8  C   UNL     1     179.677 190.389 200.712  1.00  0.00     0.036 C 
ATOM      9  C   UNL     1     179.837 190.461 202.265  1.00  0.00     0.065 C 
ATOM     10  C   UNL     1     180.695 191.720 202.686  1.00  0.00     0.027 C 
ATOM     11  C   UNL     1     182.072 191.558 202.027  1.00  0.00     0.014 C 
ATOM     12  C   UNL     1     180.269 193.144 202.159  1.00  0.00    -0.026 C 
ATOM     13  C   UNL     1     180.855 194.217 203.125  1.00  0.00     0.012 C 
ATOM     14  C   UNL     1     178.750 193.428 202.117  1.00  0.00     0.012 C 
ATOM     15  C   UNL     1     178.456 190.432 202.965  1.00  0.00     0.042 C 
ENDROOT
BRANCH   9  16
ATOM     16  O   UNL     1     180.541 189.318 202.709  1.00  0.00    -0.390 OA
ATOM     17  H   UNL     1     179.910 188.553 202.770  1.00  0.00     0.211 HD
ENDBRANCH   9  16
TORSDOF 1
ENDMDL
MODEL 2
REMARK VINA RESULT:    -3.058      1.384      2.742
REMARK INTER + INTRA:          -3.147
REMARK INTER:                  -3.147
REMARK INTRA:                   0.000
REMARK UNBOUND:                 0.000
REMARK SMILES C[C@@H]1CC[C@@H]2C(C)(C)[C@@H]3C[C@]12CC[C@@]3(C)O
REMARK SMILES IDX 1 1 2 2 3 3 4 4 5 5 11 6 12 7 13 8 14 9 9 10 10 11 6 12 7 13
REMARK SMILES IDX 8 14 15 15 16 16
REMARK H PARENT 16 17
REMARK Flexibility Score: inf
ROOT
ATOM      1  C   UNL     1     181.563 194.581 202.696  1.00  0.00     0.008 C 
ATOM      2  C   UNL     1     182.094 193.858 201.446  1.00  0.00    -0.008 C 
ATOM      3  C   UNL     1     181.660 194.575 200.160  1.00  0.00     0.004 C 
ATOM      4  C   UNL     1     180.538 193.737 199.576  1.00  0.00     0.005 C 
ATOM      5  C   UNL     1     180.914 192.289 199.922  1.00  0.00     0.001 C 
ATOM      6  C   UNL     1     181.636 192.373 201.281  1.00  0.00    -0.023 C 
ATOM      7  C   UNL     1     182.855 191.403 201.344  1.00  0.00     0.010 C 
ATOM      8  C   UNL     1     182.484 189.933 201.036  1.00  0.00     0.036 C 
ATOM      9  C   UNL     1     181.124 189.490 201.666  1.00  0.00     0.065 C 
ATOM     10  C   UNL     1     180.038 190.630 201.523  1.00  0.00     0.027 C 
ATOM     11  C   UNL     1     180.584 191.857 202.268  1.00  0.00     0.014 C 
ATOM     12  C   UNL     1     179.755 191.238 200.096  1.00  0.00    -0.026 C 
ATOM     13  C   UNL     1     178.328 191.863 200.107  1.00  0.00     0.012 C 
ATOM     14  C   UNL     1     179.747 190.236 198.919  1.00  0.00     0.012 C 
ATOM     15  C   UNL     1     180.647 188.146 201.064  1.00  0.00     0.042 C 
ENDROOT
BRANCH   9  16
ATOM     16  O   UNL     1     181.309 189.271 203.051  1.00  0.00    -0.390 OA
ATOM     17  H   UNL     1     181.200 188.302 203.243  1.00  0.00     0.211 HD
ENDBRANCH   9  16
TORSDOF 1
ENDMDL
MODEL 3
REMARK VINA RESULT:    -3.002      2.380      4.904
REMARK INTER + INTRA:          -3.090
REMARK INTER:                  -3.090
REMARK INTRA:                   0.000
REMARK UNBOUND:                 0.000
REMARK SMILES C[C@@H]1CC[C@@H]2C(C)(C)[C@@H]3C[C@]12CC[C@@]3(C)O
REMARK SMILES IDX 1 1 2 2 3 3 4 4 5 5 11 6 12 7 13 8 14 9 9 10 10 11 6 12 7 13
REMARK SMILES IDX 8 14 15 15 16 16
REMARK H PARENT 16 17
REMARK Flexibility Score: inf
ROOT
ATOM      1  C   UNL     1     181.220 194.489 203.124  1.00  0.00     0.008 C 
ATOM      2  C   UNL     1     180.659 193.614 201.990  1.00  0.00    -0.008 C 
ATOM      3  C   UNL     1     180.314 192.205 202.490  1.00  0.00     0.004 C 
ATOM      4  C   UNL     1     181.424 191.303 201.983  1.00  0.00     0.005 C 
ATOM      5  C   UNL     1     181.814 191.892 200.621  1.00  0.00     0.001 C 
ATOM      6  C   UNL     1     181.607 193.412 200.764  1.00  0.00    -0.023 C 
ATOM      7  C   UNL     1     180.990 194.032 199.473  1.00  0.00     0.010 C 
ATOM      8  C   UNL     1     181.810 193.731 198.197  1.00  0.00     0.036 C 
ATOM      9  C   UNL     1     183.356 193.813 198.418  1.00  0.00     0.065 C 
ATOM     10  C   UNL     1     183.763 193.157 199.798  1.00  0.00     0.027 C 
ATOM     11  C   UNL     1     183.036 193.948 200.895  1.00  0.00     0.014 C 
ATOM     12  C   UNL     1     183.289 191.687 200.113  1.00  0.00    -0.026 C 
ATOM     13  C   UNL     1     184.250 191.083 201.181  1.00  0.00     0.012 C 
ATOM     14  C   UNL     1     183.326 190.692 198.930  1.00  0.00     0.012 C 
ATOM     15  C   UNL     1     184.120 193.190 197.224  1.00  0.00     0.042 C 
ENDROOT
BRANCH   9  16
ATOM     16  O   UNL     1     183.740 195.173 198.481  1.00  0.00    -0.390 OA
ATOM     17  H   UNL     1     183.000 195.734 198.129  1.00  0.00     0.211 HD
ENDBRANCH   9  16
TORSDOF 1
ENDMDL
MODEL 4
REMARK VINA RESULT:    -2.943      1.394      3.640
REMARK INTER + INTRA:          -3.029
REMARK INTER:                  -3.029
REMARK INTRA:                   0.000
REMARK UNBOUND:                 0.000
REMARK SMILES C[C@@H]1CC[C@@H]2C(C)(C)[C@@H]3C[C@]12CC[C@@]3(C)O
REMARK SMILES IDX 1 1 2 2 3 3 4 4 5 5 11 6 12 7 13 8 14 9 9 10 10 11 6 12 7 13
REMARK SMILES IDX 8 14 15 15 16 16
REMARK H PARENT 16 17
REMARK Flexibility Score: inf
ROOT
ATOM      1  C   UNL     1     178.700 193.811 202.984  1.00  0.00     0.008 C 
ATOM      2  C   UNL     1     180.150 193.318 203.124  1.00  0.00    -0.008 C 
ATOM      3  C   UNL     1     181.141 194.490 203.123  1.00  0.00     0.004 C 
ATOM      4  C   UNL     1     181.784 194.489 201.749  1.00  0.00     0.005 C 
ATOM      5  C   UNL     1     181.877 193.005 201.364  1.00  0.00     0.001 C 
ATOM      6  C   UNL     1     180.642 192.344 202.005  1.00  0.00    -0.023 C 
ATOM      7  C   UNL     1     180.982 190.942 202.596  1.00  0.00     0.010 C 
ATOM      8  C   UNL     1     181.618 189.981 201.563  1.00  0.00     0.036 C 
ATOM      9  C   UNL     1     180.965 190.072 200.145  1.00  0.00     0.065 C 
ATOM     10  C   UNL     1     180.673 191.576 199.755  1.00  0.00     0.027 C 
ATOM     11  C   UNL     1     179.704 192.126 200.812  1.00  0.00     0.014 C 
ATOM     12  C   UNL     1     181.845 192.627 199.836  1.00  0.00    -0.026 C 
ATOM     13  C   UNL     1     181.498 193.818 198.894  1.00  0.00     0.012 C 
ATOM     14  C   UNL     1     183.233 192.134 199.368  1.00  0.00     0.012 C 
ATOM     15  C   UNL     1     181.836 189.351 199.088  1.00  0.00     0.042 C 
ENDROOT
BRANCH   9  16
ATOM     16  O   UNL     1     179.719 189.404 200.169  1.00  0.00    -0.390 OA
ATOM     17  H   UNL     1     179.005 190.042 199.906  1.00  0.00     0.211 HD
ENDBRANCH   9  16
TORSDOF 1
ENDMDL
MODEL 5
REMARK VINA RESULT:    -2.867      1.758      4.086
REMARK INTER + INTRA:          -2.951
REMARK INTER:                  -2.951
REMARK INTRA:                   0.000
REMARK UNBOUND:                 0.000
REMARK SMILES C[C@@H]1CC[C@@H]2C(C)(C)[C@@H]3C[C@]12CC[C@@]3(C)O
REMARK SMILES IDX 1 1 2 2 3 3 4 4 5 5 11 6 12 7 13 8 14 9 9 10 10 11 6 12 7 13
REMARK SMILES IDX 8 14 15 15 16 16
REMARK H PARENT 16 17
REMARK Flexibility Score: inf
ROOT
ATOM      1  C   UNL     1     179.447 188.683 199.835  1.00  0.00     0.008 C 
ATOM      2  C   UNL     1     180.267 189.072 201.078  1.00  0.00    -0.008 C 
ATOM      3  C   UNL     1     179.445 188.909 202.363  1.00  0.00     0.004 C 
ATOM      4  C   UNL     1     179.049 190.313 202.782  1.00  0.00     0.005 C 
ATOM      5  C   UNL     1     180.239 191.192 202.374  1.00  0.00     0.001 C 
ATOM      6  C   UNL     1     180.804 190.540 201.098  1.00  0.00    -0.023 C 
ATOM      7  C   UNL     1     182.363 190.564 201.082  1.00  0.00     0.010 C 
ATOM      8  C   UNL     1     182.955 191.983 201.254  1.00  0.00     0.036 C 
ATOM      9  C   UNL     1     182.168 193.084 200.471  1.00  0.00     0.065 C 
ATOM     10  C   UNL     1     180.609 192.854 200.590  1.00  0.00     0.027 C 
ATOM     11  C   UNL     1     180.317 191.473 199.984  1.00  0.00     0.014 C 
ATOM     12  C   UNL     1     179.967 192.702 202.022  1.00  0.00    -0.026 C 
ATOM     13  C   UNL     1     178.456 193.068 201.922  1.00  0.00     0.012 C 
ATOM     14  C   UNL     1     180.533 193.628 203.123  1.00  0.00     0.012 C 
ATOM     15  C   UNL     1     182.589 194.500 200.934  1.00  0.00     0.042 C 
ENDROOT
BRANCH   9  16
ATOM     16  O   UNL     1     182.493 192.992 199.098  1.00  0.00    -0.390 OA
ATOM     17  H   UNL     1     181.675 192.751 198.587  1.00  0.00     0.211 HD
ENDBRANCH   9  16
TORSDOF 1
ENDMDL
MODEL 6
REMARK VINA RESULT:    -1.215      1.770      2.743
REMARK INTER + INTRA:          -1.250
REMARK INTER:                  -1.250
REMARK INTRA:                   0.000
REMARK UNBOUND:                 0.000
REMARK SMILES C[C@@H]1CC[C@@H]2C(C)(C)[C@@H]3C[C@]12CC[C@@]3(C)O
REMARK SMILES IDX 1 1 2 2 3 3 4 4 5 5 11 6 12 7 13 8 14 9 9 10 10 11 6 12 7 13
REMARK SMILES IDX 8 14 15 15 16 16
REMARK H PARENT 16 17
REMARK Flexibility Score: inf
ROOT
ATOM      1  C   UNL     1     180.905 193.534 197.140  1.00  0.00     0.008 C 
ATOM      2  C   UNL     1     180.425 194.302 198.384  1.00  0.00    -0.008 C 
ATOM      3  C   UNL     1     181.534 195.200 198.949  1.00  0.00     0.004 C 
ATOM      4  C   UNL     1     182.054 194.489 200.184  1.00  0.00     0.005 C 
ATOM      5  C   UNL     1     180.821 193.800 200.786  1.00  0.00     0.001 C 
ATOM      6  C   UNL     1     179.944 193.415 199.579  1.00  0.00    -0.023 C 
ATOM      7  C   UNL     1     178.430 193.647 199.871  1.00  0.00     0.010 C 
ATOM      8  C   UNL     1     177.933 192.912 201.138  1.00  0.00     0.036 C 
ATOM      9  C   UNL     1     178.529 191.475 201.298  1.00  0.00     0.065 C 
ATOM     10  C   UNL     1     180.064 191.457 200.920  1.00  0.00     0.027 C 
ATOM     11  C   UNL     1     180.165 191.904 199.455  1.00  0.00     0.014 C 
ATOM     12  C   UNL     1     181.034 192.483 201.621  1.00  0.00    -0.026 C 
ATOM     13  C   UNL     1     182.482 191.913 201.550  1.00  0.00     0.012 C 
ATOM     14  C   UNL     1     180.778 192.744 203.123  1.00  0.00     0.012 C 
ATOM     15  C   UNL     1     178.269 190.923 202.720  1.00  0.00     0.042 C 
ENDROOT
BRANCH   9  16
ATOM     16  O   UNL     1     177.875 190.603 200.397  1.00  0.00    -0.390 OA
ATOM     17  H   UNL     1     177.767 191.062 199.523  1.00  0.00     0.211 HD
ENDBRANCH   9  16
TORSDOF 1
ENDMDL
