MODEL 1
REMARK VINA RESULT:    -7.563      0.000      0.000
REMARK INTER + INTRA:         -11.827
REMARK INTER:                 -10.879
REMARK INTRA:                  -0.948
REMARK UNBOUND:                -0.948
REMARK SMILES O=c1cc(-c2ccc(O)c(O)c2)oc2cc(O[C@@H]3O[C@@H](CO)[C@H](O)[C@H](O)[C@H]3O)cc(O)c12
REMARK SMILES IDX 17 1 16 2 4 3 3 4 13 5 2 6 14 7 1 8 32 9 15 10 30 11 29 12
REMARK SMILES IDX 5 13 6 14 7 15 8 16 12 17 10 18 9 19 11 21 31 23 18 25 27 26
REMARK SMILES IDX 19 27 25 28 20 29 23 30 28 31 26 33 21 35 22 36 24 38
REMARK H PARENT 9 20 11 22 31 24 28 32 26 34 22 37 24 39
REMARK Flexibility Score: inf
ROOT
ATOM      1  O   UNL     1       6.821  78.377  64.804  1.00  0.00    -0.462 OA
ENDROOT
BRANCH   1   2
ATOM      2  C   UNL     1       7.142  78.861  63.532  1.00  0.00     0.130 A 
ATOM      3  C   UNL     1      10.468  79.147  60.158  1.00  0.00     0.138 A 
ATOM      4  C   UNL     1       9.539  79.488  59.163  1.00  0.00     0.100 A 
ATOM      5  O   UNL     1      10.072  79.061  61.426  1.00  0.00    -0.456 OA
ATOM      6  C   UNL     1       8.189  79.626  59.512  1.00  0.00     0.197 A 
ATOM      7  C   UNL     1       8.811  79.196  61.814  1.00  0.00     0.146 A 
ATOM      8  O   UNL     1       7.337  79.815  58.602  1.00  0.00    -0.289 OA
ATOM      9  C   UNL     1       7.802  79.466  60.862  1.00  0.00     0.107 A 
ATOM     10  C   UNL     1       8.482  78.987  63.156  1.00  0.00     0.094 A 
ATOM     11  C   UNL     1       6.450  79.490  61.281  1.00  0.00     0.134 A 
ATOM     12  C   UNL     1       6.134  79.149  62.609  1.00  0.00     0.093 A 
BRANCH   3  13
ATOM     13  C   UNL     1      11.857  78.768  59.841  1.00  0.00     0.021 A 
ATOM     14  C   UNL     1      12.168  78.237  58.572  1.00  0.00     0.016 A 
ATOM     15  C   UNL     1      13.395  77.589  58.361  1.00  0.00     0.051 A 
ATOM     16  C   UNL     1      14.327  77.468  59.401  1.00  0.00     0.157 A 
ATOM     17  C   UNL     1      12.804  78.669  60.878  1.00  0.00     0.062 A 
ATOM     18  C   UNL     1      14.040  78.029  60.663  1.00  0.00     0.158 A 
BRANCH  16  19
ATOM     19  O   UNL     1      15.525  76.792  59.161  1.00  0.00    -0.504 OA
ATOM     20  H   UNL     1      15.849  76.039  59.760  1.00  0.00     0.293 HD
ENDBRANCH  16  19
BRANCH  18  21
ATOM     21  O   UNL     1      14.981  77.958  61.688  1.00  0.00    -0.504 OA
ATOM     22  H   UNL     1      15.713  77.248  61.694  1.00  0.00     0.293 HD
ENDBRANCH  18  21
ENDBRANCH   3  13
BRANCH  11  23
ATOM     23  O   UNL     1       5.426  79.849  60.411  1.00  0.00    -0.507 OA
ATOM     24  H   UNL     1       5.602  79.956  59.420  1.00  0.00     0.293 HD
ENDBRANCH  11  23
ENDBRANCH   1   2
BRANCH   1  25
ATOM     25  C   UNL     1       5.644  77.583  65.050  1.00  0.00     0.339 C 
ATOM     26  C   UNL     1       5.948  76.351  65.950  1.00  0.00     0.214 C 
ATOM     27  O   UNL     1       4.612  78.386  65.604  1.00  0.00    -0.332 OA
ATOM     28  C   UNL     1       6.297  76.807  67.375  1.00  0.00     0.180 C 
ATOM     29  C   UNL     1       4.989  78.936  66.862  1.00  0.00     0.179 C 
ATOM     30  C   UNL     1       5.230  77.807  67.903  1.00  0.00     0.177 C 
BRANCH  26  31
ATOM     31  O   UNL     1       4.823  75.510  66.001  1.00  0.00    -0.384 OA
ATOM     32  H   UNL     1       4.047  76.078  66.245  1.00  0.00     0.211 HD
ENDBRANCH  26  31
BRANCH  28  33
ATOM     33  O   UNL     1       7.574  77.387  67.361  1.00  0.00    -0.387 OA
ATOM     34  H   UNL     1       8.204  76.694  67.044  1.00  0.00     0.211 HD
ENDBRANCH  28  33
BRANCH  29  35
ATOM     35  C   UNL     1       3.868  79.886  67.321  1.00  0.00     0.191 C 
BRANCH  35  36
ATOM     36  O   UNL     1       4.243  80.587  68.470  1.00  0.00    -0.394 OA
ATOM     37  H   UNL     1       4.449  79.906  69.162  1.00  0.00     0.210 HD
ENDBRANCH  35  36
ENDBRANCH  29  35
BRANCH  30  38
ATOM     38  O   UNL     1       5.582  78.316  69.172  1.00  0.00    -0.387 OA
ATOM     39  H   UNL     1       5.068  77.807  69.852  1.00  0.00     0.211 HD
ENDBRANCH  30  38
ENDBRANCH   1  25
TORSDOF 11
ENDMDL
MODEL 2
REMARK VINA RESULT:    -7.472      2.218      9.094
REMARK INTER + INTRA:         -11.695
REMARK INTER:                 -10.751
REMARK INTRA:                  -0.944
REMARK UNBOUND:                -0.948
REMARK SMILES O=c1cc(-c2ccc(O)c(O)c2)oc2cc(O[C@@H]3O[C@@H](CO)[C@H](O)[C@H](O)[C@H]3O)cc(O)c12
REMARK SMILES IDX 17 1 16 2 4 3 3 4 13 5 2 6 14 7 1 8 32 9 15 10 30 11 29 12
REMARK SMILES IDX 5 13 6 14 7 15 8 16 12 17 10 18 9 19 11 21 31 23 18 25 27 26
REMARK SMILES IDX 19 27 25 28 20 29 23 30 28 31 26 33 21 35 22 36 24 38
REMARK H PARENT 9 20 11 22 31 24 28 32 26 34 22 37 24 39
REMARK Flexibility Score: inf
ROOT
ATOM      1  O   UNL     1      11.783  80.438  60.819  1.00  0.00    -0.462 OA
ENDROOT
BRANCH   1   2
ATOM      2  C   UNL     1      10.428  80.098  60.886  1.00  0.00     0.130 A 
ATOM      3  C   UNL     1       6.929  78.418  63.616  1.00  0.00     0.138 A 
ATOM      4  C   UNL     1       5.925  78.913  62.770  1.00  0.00     0.100 A 
ATOM      5  O   UNL     1       8.204  78.501  63.245  1.00  0.00    -0.456 OA
ATOM      6  C   UNL     1       6.296  79.586  61.598  1.00  0.00     0.197 A 
ATOM      7  C   UNL     1       8.610  79.113  62.140  1.00  0.00     0.146 A 
ATOM      8  O   UNL     1       5.404  80.135  60.897  1.00  0.00    -0.289 OA
ATOM      9  C   UNL     1       7.666  79.706  61.271  1.00  0.00     0.107 A 
ATOM     10  C   UNL     1       9.979  79.236  61.890  1.00  0.00     0.094 A 
ATOM     11  C   UNL     1       8.129  80.453  60.161  1.00  0.00     0.134 A 
ATOM     12  C   UNL     1       9.510  80.671  60.005  1.00  0.00     0.093 A 
BRANCH   3  13
ATOM     13  C   UNL     1       6.635  77.899  64.965  1.00  0.00     0.021 A 
ATOM     14  C   UNL     1       7.514  78.181  66.032  1.00  0.00     0.016 A 
ATOM     15  C   UNL     1       7.425  77.451  67.227  1.00  0.00     0.051 A 
ATOM     16  C   UNL     1       6.463  76.443  67.380  1.00  0.00     0.157 A 
ATOM     17  C   UNL     1       5.652  76.905  65.128  1.00  0.00     0.062 A 
ATOM     18  C   UNL     1       5.556  76.182  66.332  1.00  0.00     0.158 A 
BRANCH  16  19
ATOM     19  O   UNL     1       6.424  75.720  68.574  1.00  0.00    -0.504 OA
ATOM     20  H   UNL     1       6.022  76.105  69.424  1.00  0.00     0.293 HD
ENDBRANCH  16  19
BRANCH  18  21
ATOM     21  O   UNL     1       4.564  75.217  66.494  1.00  0.00    -0.504 OA
ATOM     22  H   UNL     1       4.785  74.264  66.785  1.00  0.00     0.293 HD
ENDBRANCH  18  21
ENDBRANCH   3  13
BRANCH  11  23
ATOM     23  O   UNL     1       7.249  80.973  59.218  1.00  0.00    -0.507 OA
ATOM     24  H   UNL     1       7.098  80.501  58.335  1.00  0.00     0.293 HD
ENDBRANCH  11  23
ENDBRANCH   1   2
BRANCH   1  25
ATOM     25  C   UNL     1      12.483  80.560  59.565  1.00  0.00     0.339 C 
ATOM     26  C   UNL     1      13.068  81.987  59.358  1.00  0.00     0.214 C 
ATOM     27  O   UNL     1      13.494  79.567  59.465  1.00  0.00    -0.332 OA
ATOM     28  C   UNL     1      14.206  82.244  60.355  1.00  0.00     0.180 C 
ATOM     29  C   UNL     1      14.477  79.711  60.484  1.00  0.00     0.179 C 
ATOM     30  C   UNL     1      15.222  81.068  60.338  1.00  0.00     0.177 C 
BRANCH  26  31
ATOM     31  O   UNL     1      13.568  82.110  58.051  1.00  0.00    -0.384 OA
ATOM     32  H   UNL     1      12.788  82.250  57.452  1.00  0.00     0.211 HD
ENDBRANCH  26  31
BRANCH  28  33
ATOM     33  O   UNL     1      13.654  82.419  61.633  1.00  0.00    -0.387 OA
ATOM     34  H   UNL     1      14.367  82.789  62.210  1.00  0.00     0.211 HD
ENDBRANCH  28  33
BRANCH  29  35
ATOM     35  C   UNL     1      15.454  78.526  60.374  1.00  0.00     0.191 C 
BRANCH  35  36
ATOM     36  O   UNL     1      16.004  78.211  61.620  1.00  0.00    -0.394 OA
ATOM     37  H   UNL     1      16.935  78.554  61.612  1.00  0.00     0.210 HD
ENDBRANCH  35  36
ENDBRANCH  29  35
BRANCH  30  38
ATOM     38  O   UNL     1      16.225  81.236  61.318  1.00  0.00    -0.387 OA
ATOM     39  H   UNL     1      16.699  82.086  61.120  1.00  0.00     0.211 HD
ENDBRANCH  30  38
ENDBRANCH   1  25
TORSDOF 11
ENDMDL
MODEL 3
REMARK VINA RESULT:    -7.074      3.691      7.070
REMARK INTER + INTRA:         -11.124
REMARK INTER:                 -10.123
REMARK INTRA:                  -1.001
REMARK UNBOUND:                -0.948
REMARK SMILES O=c1cc(-c2ccc(O)c(O)c2)oc2cc(O[C@@H]3O[C@@H](CO)[C@H](O)[C@H](O)[C@H]3O)cc(O)c12
REMARK SMILES IDX 17 1 16 2 4 3 3 4 13 5 2 6 14 7 1 8 32 9 15 10 30 11 29 12
REMARK SMILES IDX 5 13 6 14 7 15 8 16 12 17 10 18 9 19 11 21 31 23 18 25 27 26
REMARK SMILES IDX 19 27 25 28 20 29 23 30 28 31 26 33 21 35 22 36 24 38
REMARK H PARENT 9 20 11 22 31 24 28 32 26 34 22 37 24 39
REMARK Flexibility Score: inf
ROOT
ATOM      1  O   UNL     1       2.634  80.832  68.463  1.00  0.00    -0.462 OA
ENDROOT
BRANCH   1   2
ATOM      2  C   UNL     1       3.512  79.932  67.852  1.00  0.00     0.130 A 
ATOM      3  C   UNL     1       5.562  78.583  63.789  1.00  0.00     0.138 A 
ATOM      4  C   UNL     1       6.568  77.859  64.446  1.00  0.00     0.100 A 
ATOM      5  O   UNL     1       4.562  79.108  64.493  1.00  0.00    -0.456 OA
ATOM      6  C   UNL     1       6.557  77.798  65.847  1.00  0.00     0.197 A 
ATOM      7  C   UNL     1       4.494  79.067  65.817  1.00  0.00     0.146 A 
ATOM      8  O   UNL     1       7.522  77.250  66.444  1.00  0.00    -0.289 OA
ATOM      9  C   UNL     1       5.508  78.422  66.559  1.00  0.00     0.107 A 
ATOM     10  C   UNL     1       3.455  79.738  66.469  1.00  0.00     0.094 A 
ATOM     11  C   UNL     1       5.475  78.492  67.973  1.00  0.00     0.134 A 
ATOM     12  C   UNL     1       4.494  79.280  68.601  1.00  0.00     0.093 A 
BRANCH   3  13
ATOM     13  C   UNL     1       5.623  78.882  62.346  1.00  0.00     0.021 A 
ATOM     14  C   UNL     1       4.495  78.648  61.532  1.00  0.00     0.016 A 
ATOM     15  C   UNL     1       4.627  78.627  60.136  1.00  0.00     0.051 A 
ATOM     16  C   UNL     1       5.873  78.844  59.532  1.00  0.00     0.157 A 
ATOM     17  C   UNL     1       6.869  79.126  61.739  1.00  0.00     0.062 A 
ATOM     18  C   UNL     1       6.999  79.117  60.337  1.00  0.00     0.158 A 
BRANCH  16  19
ATOM     19  O   UNL     1       5.970  78.788  58.140  1.00  0.00    -0.504 OA
ATOM     20  H   UNL     1       5.728  79.579  57.551  1.00  0.00     0.293 HD
ENDBRANCH  16  19
BRANCH  18  21
ATOM     21  O   UNL     1       8.231  79.384  59.745  1.00  0.00    -0.504 OA
ATOM     22  H   UNL     1       8.642  78.754  59.055  1.00  0.00     0.293 HD
ENDBRANCH  18  21
ENDBRANCH   3  13
BRANCH  11  23
ATOM     23  O   UNL     1       6.388  77.793  68.756  1.00  0.00    -0.507 OA
ATOM     24  H   UNL     1       6.146  76.894  69.154  1.00  0.00     0.293 HD
ENDBRANCH  11  23
ENDBRANCH   1   2
BRANCH   1  25
ATOM     25  C   UNL     1       1.261  80.967  68.049  1.00  0.00     0.339 C 
ATOM     26  C   UNL     1       0.301  80.105  68.919  1.00  0.00     0.214 C 
ATOM     27  O   UNL     1       0.875  82.334  68.053  1.00  0.00    -0.332 OA
ATOM     28  C   UNL     1       0.233  80.664  70.348  1.00  0.00     0.180 C 
ATOM     29  C   UNL     1       0.954  82.901  69.356  1.00  0.00     0.179 C 
ATOM     30  C   UNL     1      -0.039  82.194  70.321  1.00  0.00     0.177 C 
BRANCH  26  31
ATOM     31  O   UNL     1      -0.988  80.119  68.360  1.00  0.00    -0.384 OA
ATOM     32  H   UNL     1      -1.101  79.264  67.868  1.00  0.00     0.211 HD
ENDBRANCH  26  31
BRANCH  28  33
ATOM     33  O   UNL     1       1.439  80.374  71.002  1.00  0.00    -0.387 OA
ATOM     34  H   UNL     1       1.627  79.414  70.853  1.00  0.00     0.211 HD
ENDBRANCH  28  33
BRANCH  29  35
ATOM     35  C   UNL     1       0.642  84.404  69.240  1.00  0.00     0.191 C 
BRANCH  35  36
ATOM     36  O   UNL     1       1.231  85.120  70.287  1.00  0.00    -0.394 OA
ATOM     37  H   UNL     1       1.660  85.915  69.878  1.00  0.00     0.210 HD
ENDBRANCH  35  36
ENDBRANCH  29  35
BRANCH  30  38
ATOM     38  O   UNL     1      -0.008  82.747  71.620  1.00  0.00    -0.387 OA
ATOM     39  H   UNL     1      -0.580  82.181  72.201  1.00  0.00     0.211 HD
ENDBRANCH  30  38
ENDBRANCH   1  25
TORSDOF 11
ENDMDL
MODEL 4
REMARK VINA RESULT:    -7.063      4.996      7.555
REMARK INTER + INTRA:         -11.108
REMARK INTER:                 -10.058
REMARK INTRA:                  -1.050
REMARK UNBOUND:                -0.948
REMARK SMILES O=c1cc(-c2ccc(O)c(O)c2)oc2cc(O[C@@H]3O[C@@H](CO)[C@H](O)[C@H](O)[C@H]3O)cc(O)c12
REMARK SMILES IDX 17 1 16 2 4 3 3 4 13 5 2 6 14 7 1 8 32 9 15 10 30 11 29 12
REMARK SMILES IDX 5 13 6 14 7 15 8 16 12 17 10 18 9 19 11 21 31 23 18 25 27 26
REMARK SMILES IDX 19 27 25 28 20 29 23 30 28 31 26 33 21 35 22 36 24 38
REMARK H PARENT 9 20 11 22 31 24 28 32 26 34 22 37 24 39
REMARK Flexibility Score: inf
ROOT
ATOM      1  O   UNL     1       3.525  79.197  65.600  1.00  0.00    -0.462 OA
ENDROOT
BRANCH   1   2
ATOM      2  C   UNL     1       3.864  79.679  64.332  1.00  0.00     0.130 A 
ATOM      3  C   UNL     1       4.636  83.530  61.667  1.00  0.00     0.138 A 
ATOM      4  C   UNL     1       5.323  82.805  60.681  1.00  0.00     0.100 A 
ATOM      5  O   UNL     1       4.043  82.882  62.667  1.00  0.00    -0.456 OA
ATOM      6  C   UNL     1       5.463  81.419  60.830  1.00  0.00     0.197 A 
ATOM      7  C   UNL     1       4.131  81.571  62.849  1.00  0.00     0.146 A 
ATOM      8  O   UNL     1       6.179  80.783  60.010  1.00  0.00    -0.289 OA
ATOM      9  C   UNL     1       4.868  80.777  61.941  1.00  0.00     0.107 A 
ATOM     10  C   UNL     1       3.557  80.998  63.987  1.00  0.00     0.094 A 
ATOM     11  C   UNL     1       5.045  79.401  62.218  1.00  0.00     0.134 A 
ATOM     12  C   UNL     1       4.570  78.876  63.434  1.00  0.00     0.093 A 
BRANCH   3  13
ATOM     13  C   UNL     1       4.635  85.004  61.702  1.00  0.00     0.021 A 
ATOM     14  C   UNL     1       3.788  85.684  62.603  1.00  0.00     0.016 A 
ATOM     15  C   UNL     1       3.542  87.055  62.438  1.00  0.00     0.051 A 
ATOM     16  C   UNL     1       4.137  87.767  61.387  1.00  0.00     0.157 A 
ATOM     17  C   UNL     1       5.253  85.724  60.663  1.00  0.00     0.062 A 
ATOM     18  C   UNL     1       5.015  87.103  60.506  1.00  0.00     0.158 A 
BRANCH  16  19
ATOM     19  O   UNL     1       3.847  89.125  61.240  1.00  0.00    -0.504 OA
ATOM     20  H   UNL     1       4.161  89.819  61.911  1.00  0.00     0.293 HD
ENDBRANCH  16  19
BRANCH  18  21
ATOM     21  O   UNL     1       5.651  87.813  59.489  1.00  0.00    -0.504 OA
ATOM     22  H   UNL     1       6.256  87.350  58.810  1.00  0.00     0.293 HD
ENDBRANCH  18  21
ENDBRANCH   3  13
BRANCH  11  23
ATOM     23  O   UNL     1       5.674  78.552  61.313  1.00  0.00    -0.507 OA
ATOM     24  H   UNL     1       5.711  77.554  61.479  1.00  0.00     0.293 HD
ENDBRANCH  11  23
ENDBRANCH   1   2
BRANCH   1  25
ATOM     25  C   UNL     1       4.251  79.577  66.785  1.00  0.00     0.339 C 
ATOM     26  C   UNL     1       3.365  79.507  68.062  1.00  0.00     0.214 C 
ATOM     27  O   UNL     1       5.421  78.783  66.924  1.00  0.00    -0.332 OA
ATOM     28  C   UNL     1       3.016  78.047  68.387  1.00  0.00     0.180 C 
ATOM     29  C   UNL     1       5.107  77.403  67.076  1.00  0.00     0.179 C 
ATOM     30  C   UNL     1       4.297  77.167  68.382  1.00  0.00     0.177 C 
BRANCH  26  31
ATOM     31  O   UNL     1       4.054  80.067  69.150  1.00  0.00    -0.384 OA
ATOM     32  H   UNL     1       3.374  80.329  69.823  1.00  0.00     0.211 HD
ENDBRANCH  26  31
BRANCH  28  33
ATOM     33  O   UNL     1       2.081  77.588  67.447  1.00  0.00    -0.387 OA
ATOM     34  H   UNL     1       2.353  77.949  66.567  1.00  0.00     0.211 HD
ENDBRANCH  28  33
BRANCH  29  35
ATOM     35  C   UNL     1       6.429  76.614  67.092  1.00  0.00     0.191 C 
BRANCH  35  36
ATOM     36  O   UNL     1       6.811  76.302  68.400  1.00  0.00    -0.394 OA
ATOM     37  H   UNL     1       7.787  76.124  68.374  1.00  0.00     0.210 HD
ENDBRANCH  35  36
ENDBRANCH  29  35
BRANCH  30  38
ATOM     38  O   UNL     1       3.989  75.804  68.581  1.00  0.00    -0.387 OA
ATOM     39  H   UNL     1       4.375  75.533  69.455  1.00  0.00     0.211 HD
ENDBRANCH  30  38
ENDBRANCH   1  25
TORSDOF 11
ENDMDL
MODEL 5
REMARK VINA RESULT:    -6.930      2.310      8.770
REMARK INTER + INTRA:         -10.916
REMARK INTER:                 -10.099
REMARK INTRA:                  -0.817
REMARK UNBOUND:                -0.948
REMARK SMILES O=c1cc(-c2ccc(O)c(O)c2)oc2cc(O[C@@H]3O[C@@H](CO)[C@H](O)[C@H](O)[C@H]3O)cc(O)c12
REMARK SMILES IDX 17 1 16 2 4 3 3 4 13 5 2 6 14 7 1 8 32 9 15 10 30 11 29 12
REMARK SMILES IDX 5 13 6 14 7 15 8 16 12 17 10 18 9 19 11 21 31 23 18 25 27 26
REMARK SMILES IDX 19 27 25 28 20 29 23 30 28 31 26 33 21 35 22 36 24 38
REMARK H PARENT 9 20 11 22 31 24 28 32 26 34 22 37 24 39
REMARK Flexibility Score: inf
ROOT
ATOM      1  O   UNL     1      10.632  80.888  60.679  1.00  0.00    -0.462 OA
ENDROOT
BRANCH   1   2
ATOM      2  C   UNL     1       9.373  80.302  60.841  1.00  0.00     0.130 A 
ATOM      3  C   UNL     1       6.390  78.162  63.850  1.00  0.00     0.138 A 
ATOM      4  C   UNL     1       5.273  78.405  63.037  1.00  0.00     0.100 A 
ATOM      5  O   UNL     1       7.608  78.462  63.403  1.00  0.00    -0.456 OA
ATOM      6  C   UNL     1       5.453  79.062  61.812  1.00  0.00     0.197 A 
ATOM      7  C   UNL     1       7.837  79.070  62.246  1.00  0.00     0.146 A 
ATOM      8  O   UNL     1       4.441  79.386  61.136  1.00  0.00    -0.289 OA
ATOM      9  C   UNL     1       6.758  79.418  61.402  1.00  0.00     0.107 A 
ATOM     10  C   UNL     1       9.144  79.435  61.913  1.00  0.00     0.094 A 
ATOM     11  C   UNL     1       7.017  80.169  60.231  1.00  0.00     0.134 A 
ATOM     12  C   UNL     1       8.322  80.634  59.984  1.00  0.00     0.093 A 
BRANCH   3  13
ATOM     13  C   UNL     1       6.264  77.682  65.239  1.00  0.00     0.021 A 
ATOM     14  C   UNL     1       7.301  77.928  66.164  1.00  0.00     0.016 A 
ATOM     15  C   UNL     1       7.343  77.223  67.376  1.00  0.00     0.051 A 
ATOM     16  C   UNL     1       6.358  76.276  67.687  1.00  0.00     0.157 A 
ATOM     17  C   UNL     1       5.260  76.750  65.563  1.00  0.00     0.062 A 
ATOM     18  C   UNL     1       5.297  76.052  66.785  1.00  0.00     0.158 A 
BRANCH  16  19
ATOM     19  O   UNL     1       6.449  75.575  68.892  1.00  0.00    -0.504 OA
ATOM     20  H   UNL     1       7.166  74.874  69.054  1.00  0.00     0.293 HD
ENDBRANCH  16  19
BRANCH  18  21
ATOM     21  O   UNL     1       4.285  75.150  67.108  1.00  0.00    -0.504 OA
ATOM     22  H   UNL     1       4.176  74.784  68.055  1.00  0.00     0.293 HD
ENDBRANCH  18  21
ENDBRANCH   3  13
BRANCH  11  23
ATOM     23  O   UNL     1       6.011  80.453  59.312  1.00  0.00    -0.507 OA
ATOM     24  H   UNL     1       5.241  79.811  59.174  1.00  0.00     0.293 HD
ENDBRANCH  11  23
ENDBRANCH   1   2
BRANCH   1  25
ATOM     25  C   UNL     1      11.799  80.403  61.371  1.00  0.00     0.339 C 
ATOM     26  C   UNL     1      12.515  79.266  60.585  1.00  0.00     0.214 C 
ATOM     27  O   UNL     1      12.688  81.475  61.654  1.00  0.00    -0.332 OA
ATOM     28  C   UNL     1      13.146  79.825  59.301  1.00  0.00     0.180 C 
ATOM     29  C   UNL     1      13.161  82.095  60.463  1.00  0.00     0.179 C 
ATOM     30  C   UNL     1      13.991  81.091  59.615  1.00  0.00     0.177 C 
BRANCH  26  31
ATOM     31  O   UNL     1      13.524  78.700  61.382  1.00  0.00    -0.384 OA
ATOM     32  H   UNL     1      13.132  78.542  62.279  1.00  0.00     0.211 HD
ENDBRANCH  26  31
BRANCH  28  33
ATOM     33  O   UNL     1      12.123  80.113  58.385  1.00  0.00    -0.387 OA
ATOM     34  H   UNL     1      11.401  80.565  58.889  1.00  0.00     0.211 HD
ENDBRANCH  28  33
BRANCH  29  35
ATOM     35  C   UNL     1      14.009  83.315  60.868  1.00  0.00     0.191 C 
BRANCH  35  36
ATOM     36  O   UNL     1      14.594  83.124  62.123  1.00  0.00    -0.394 OA
ATOM     37  H   UNL     1      15.021  82.229  62.103  1.00  0.00     0.210 HD
ENDBRANCH  35  36
ENDBRANCH  29  35
BRANCH  30  38
ATOM     38  O   UNL     1      14.500  81.679  58.436  1.00  0.00    -0.387 OA
ATOM     39  H   UNL     1      14.273  82.645  58.460  1.00  0.00     0.211 HD
ENDBRANCH  30  38
ENDBRANCH   1  25
TORSDOF 11
ENDMDL
MODEL 6
REMARK VINA RESULT:    -6.892      1.616      2.730
REMARK INTER + INTRA:         -10.861
REMARK INTER:                 -10.153
REMARK INTRA:                  -0.709
REMARK UNBOUND:                -0.948
REMARK SMILES O=c1cc(-c2ccc(O)c(O)c2)oc2cc(O[C@@H]3O[C@@H](CO)[C@H](O)[C@H](O)[C@H]3O)cc(O)c12
REMARK SMILES IDX 17 1 16 2 4 3 3 4 13 5 2 6 14 7 1 8 32 9 15 10 30 11 29 12
REMARK SMILES IDX 5 13 6 14 7 15 8 16 12 17 10 18 9 19 11 21 31 23 18 25 27 26
REMARK SMILES IDX 19 27 25 28 20 29 23 30 28 31 26 33 21 35 22 36 24 38
REMARK H PARENT 9 20 11 22 31 24 28 32 26 34 22 37 24 39
REMARK Flexibility Score: inf
ROOT
ATOM      1  O   UNL     1       5.669  77.073  65.474  1.00  0.00    -0.462 OA
ENDROOT
BRANCH   1   2
ATOM      2  C   UNL     1       5.998  77.995  64.475  1.00  0.00     0.130 A 
ATOM      3  C   UNL     1       9.165  79.242  61.168  1.00  0.00     0.138 A 
ATOM      4  C   UNL     1       8.253  80.070  60.495  1.00  0.00     0.100 A 
ATOM      5  O   UNL     1       8.823  78.692  62.330  1.00  0.00    -0.456 OA
ATOM      6  C   UNL     1       6.957  80.211  61.009  1.00  0.00     0.197 A 
ATOM      7  C   UNL     1       7.615  78.804  62.869  1.00  0.00     0.146 A 
ATOM      8  O   UNL     1       6.101  80.856  60.346  1.00  0.00    -0.289 OA
ATOM      9  C   UNL     1       6.615  79.559  62.216  1.00  0.00     0.107 A 
ATOM     10  C   UNL     1       7.323  78.104  64.043  1.00  0.00     0.094 A 
ATOM     11  C   UNL     1       5.304  79.569  62.749  1.00  0.00     0.134 A 
ATOM     12  C   UNL     1       5.003  78.753  63.855  1.00  0.00     0.093 A 
BRANCH   3  13
ATOM     13  C   UNL     1      10.465  78.865  60.582  1.00  0.00     0.021 A 
ATOM     14  C   UNL     1      10.596  77.640  59.894  1.00  0.00     0.016 A 
ATOM     15  C   UNL     1      11.870  77.126  59.609  1.00  0.00     0.051 A 
ATOM     16  C   UNL     1      13.024  77.821  59.996  1.00  0.00     0.157 A 
ATOM     17  C   UNL     1      11.624  79.575  60.947  1.00  0.00     0.062 A 
ATOM     18  C   UNL     1      12.902  79.064  60.650  1.00  0.00     0.158 A 
BRANCH  16  19
ATOM     19  O   UNL     1      14.274  77.263  59.719  1.00  0.00    -0.504 OA
ATOM     20  H   UNL     1      14.623  77.167  58.771  1.00  0.00     0.293 HD
ENDBRANCH  16  19
BRANCH  18  21
ATOM     21  O   UNL     1      14.043  79.787  60.993  1.00  0.00    -0.504 OA
ATOM     22  H   UNL     1      14.446  80.481  60.364  1.00  0.00     0.293 HD
ENDBRANCH  18  21
ENDBRANCH   3  13
BRANCH  11  23
ATOM     23  O   UNL     1       4.305  80.372  62.208  1.00  0.00    -0.507 OA
ATOM     24  H   UNL     1       4.510  81.014  61.453  1.00  0.00     0.293 HD
ENDBRANCH  11  23
ENDBRANCH   1   2
BRANCH   1  25
ATOM     25  C   UNL     1       6.219  77.152  66.804  1.00  0.00     0.339 C 
ATOM     26  C   UNL     1       5.775  78.447  67.544  1.00  0.00     0.214 C 
ATOM     27  O   UNL     1       5.883  75.990  67.548  1.00  0.00    -0.332 OA
ATOM     28  C   UNL     1       4.272  78.395  67.851  1.00  0.00     0.180 C 
ATOM     29  C   UNL     1       4.475  75.856  67.708  1.00  0.00     0.179 C 
ATOM     30  C   UNL     1       3.901  77.045  68.528  1.00  0.00     0.177 C 
BRANCH  26  31
ATOM     31  O   UNL     1       6.485  78.572  68.750  1.00  0.00    -0.384 OA
ATOM     32  H   UNL     1       7.451  78.519  68.526  1.00  0.00     0.211 HD
ENDBRANCH  26  31
BRANCH  28  33
ATOM     33  O   UNL     1       3.562  78.573  66.655  1.00  0.00    -0.387 OA
ATOM     34  H   UNL     1       2.968  79.354  66.783  1.00  0.00     0.211 HD
ENDBRANCH  28  33
BRANCH  29  35
ATOM     35  C   UNL     1       4.202  74.513  68.411  1.00  0.00     0.191 C 
BRANCH  35  36
ATOM     36  O   UNL     1       3.156  73.825  67.790  1.00  0.00    -0.394 OA
ATOM     37  H   UNL     1       2.701  73.303  68.500  1.00  0.00     0.210 HD
ENDBRANCH  35  36
ENDBRANCH  29  35
BRANCH  30  38
ATOM     38  O   UNL     1       2.508  76.934  68.731  1.00  0.00    -0.387 OA
ATOM     39  H   UNL     1       2.167  76.246  68.102  1.00  0.00     0.211 HD
ENDBRANCH  30  38
ENDBRANCH   1  25
TORSDOF 11
ENDMDL
MODEL 7
REMARK VINA RESULT:    -6.880      5.642      9.183
REMARK INTER + INTRA:         -10.844
REMARK INTER:                  -9.854
REMARK INTRA:                  -0.990
REMARK UNBOUND:                -0.948
REMARK SMILES O=c1cc(-c2ccc(O)c(O)c2)oc2cc(O[C@@H]3O[C@@H](CO)[C@H](O)[C@H](O)[C@H]3O)cc(O)c12
REMARK SMILES IDX 17 1 16 2 4 3 3 4 13 5 2 6 14 7 1 8 32 9 15 10 30 11 29 12
REMARK SMILES IDX 5 13 6 14 7 15 8 16 12 17 10 18 9 19 11 21 31 23 18 25 27 26
REMARK SMILES IDX 19 27 25 28 20 29 23 30 28 31 26 33 21 35 22 36 24 38
REMARK H PARENT 9 20 11 22 31 24 28 32 26 34 22 37 24 39
REMARK Flexibility Score: inf
ROOT
ATOM      1  O   UNL     1       2.977  80.016  65.523  1.00  0.00    -0.462 OA
ENDROOT
BRANCH   1   2
ATOM      2  C   UNL     1       3.242  80.735  64.353  1.00  0.00     0.130 A 
ATOM      3  C   UNL     1       2.872  84.918  62.141  1.00  0.00     0.138 A 
ATOM      4  C   UNL     1       3.855  84.593  61.194  1.00  0.00     0.100 A 
ATOM      5  O   UNL     1       2.451  83.992  62.999  1.00  0.00    -0.456 OA
ATOM      6  C   UNL     1       4.453  83.326  61.244  1.00  0.00     0.197 A 
ATOM      7  C   UNL     1       2.971  82.774  63.080  1.00  0.00     0.146 A 
ATOM      8  O   UNL     1       5.417  83.073  60.473  1.00  0.00    -0.289 OA
ATOM      9  C   UNL     1       4.018  82.392  62.211  1.00  0.00     0.107 A 
ATOM     10  C   UNL     1       2.530  81.907  64.083  1.00  0.00     0.094 A 
ATOM     11  C   UNL     1       4.636  81.131  62.393  1.00  0.00     0.134 A 
ATOM     12  C   UNL     1       4.262  80.332  63.490  1.00  0.00     0.093 A 
BRANCH   3  13
ATOM     13  C   UNL     1       2.355  86.291  62.299  1.00  0.00     0.021 A 
ATOM     14  C   UNL     1       0.967  86.508  62.421  1.00  0.00     0.016 A 
ATOM     15  C   UNL     1       0.440  87.798  62.258  1.00  0.00     0.051 A 
ATOM     16  C   UNL     1       1.282  88.884  61.979  1.00  0.00     0.157 A 
ATOM     17  C   UNL     1       3.203  87.385  62.045  1.00  0.00     0.062 A 
ATOM     18  C   UNL     1       2.674  88.681  61.893  1.00  0.00     0.158 A 
BRANCH  16  19
ATOM     19  O   UNL     1       0.717  90.148  61.796  1.00  0.00    -0.504 OA
ATOM     20  H   UNL     1       0.213  90.626  62.537  1.00  0.00     0.293 HD
ENDBRANCH  16  19
BRANCH  18  21
ATOM     21  O   UNL     1       3.524  89.763  61.667  1.00  0.00    -0.504 OA
ATOM     22  H   UNL     1       4.453  89.640  61.264  1.00  0.00     0.293 HD
ENDBRANCH  18  21
ENDBRANCH   3  13
BRANCH  11  23
ATOM     23  O   UNL     1       5.601  80.660  61.509  1.00  0.00    -0.507 OA
ATOM     24  H   UNL     1       6.542  80.465  61.826  1.00  0.00     0.293 HD
ENDBRANCH  11  23
ENDBRANCH   1   2
BRANCH   1  25
ATOM     25  C   UNL     1       3.761  80.180  66.720  1.00  0.00     0.339 C 
ATOM     26  C   UNL     1       2.897  80.049  68.007  1.00  0.00     0.214 C 
ATOM     27  O   UNL     1       4.847  79.265  66.730  1.00  0.00    -0.332 OA
ATOM     28  C   UNL     1       2.409  78.602  68.173  1.00  0.00     0.180 C 
ATOM     29  C   UNL     1       4.397  77.914  66.732  1.00  0.00     0.179 C 
ATOM     30  C   UNL     1       3.594  77.607  68.026  1.00  0.00     0.177 C 
BRANCH  26  31
ATOM     31  O   UNL     1       3.661  80.406  69.131  1.00  0.00    -0.384 OA
ATOM     32  H   UNL     1       3.810  81.386  69.083  1.00  0.00     0.211 HD
ENDBRANCH  26  31
BRANCH  28  33
ATOM     33  O   UNL     1       1.414  78.351  67.217  1.00  0.00    -0.387 OA
ATOM     34  H   UNL     1       1.828  78.477  66.327  1.00  0.00     0.211 HD
ENDBRANCH  28  33
BRANCH  29  35
ATOM     35  C   UNL     1       5.632  77.002  66.615  1.00  0.00     0.191 C 
BRANCH  35  36
ATOM     36  O   UNL     1       5.283  75.748  66.105  1.00  0.00    -0.394 OA
ATOM     37  H   UNL     1       5.700  75.682  65.207  1.00  0.00     0.210 HD
ENDBRANCH  35  36
ENDBRANCH  29  35
BRANCH  30  38
ATOM     38  O   UNL     1       3.152  76.267  68.077  1.00  0.00    -0.387 OA
ATOM     39  H   UNL     1       2.686  76.137  68.944  1.00  0.00     0.211 HD
ENDBRANCH  30  38
ENDBRANCH   1  25
TORSDOF 11
ENDMDL
MODEL 8
REMARK VINA RESULT:    -6.589      6.700      8.692
REMARK INTER + INTRA:         -10.426
REMARK INTER:                  -9.379
REMARK INTRA:                  -1.048
REMARK UNBOUND:                -0.948
REMARK SMILES O=c1cc(-c2ccc(O)c(O)c2)oc2cc(O[C@@H]3O[C@@H](CO)[C@H](O)[C@H](O)[C@H]3O)cc(O)c12
REMARK SMILES IDX 17 1 16 2 4 3 3 4 13 5 2 6 14 7 1 8 32 9 15 10 30 11 29 12
REMARK SMILES IDX 5 13 6 14 7 15 8 16 12 17 10 18 9 19 11 21 31 23 18 25 27 26
REMARK SMILES IDX 19 27 25 28 20 29 23 30 28 31 26 33 21 35 22 36 24 38
REMARK H PARENT 9 20 11 22 31 24 28 32 26 34 22 37 24 39
REMARK Flexibility Score: inf
ROOT
ATOM      1  O   UNL     1       3.301  80.164  65.898  1.00  0.00    -0.462 OA
ENDROOT
BRANCH   1   2
ATOM      2  C   UNL     1       2.626  81.329  65.522  1.00  0.00     0.130 A 
ATOM      3  C   UNL     1       2.866  85.402  63.096  1.00  0.00     0.138 A 
ATOM      4  C   UNL     1       1.472  85.558  63.069  1.00  0.00     0.100 A 
ATOM      5  O   UNL     1       3.405  84.416  63.810  1.00  0.00    -0.456 OA
ATOM      6  C   UNL     1       0.668  84.604  63.707  1.00  0.00     0.197 A 
ATOM      7  C   UNL     1       2.692  83.494  64.445  1.00  0.00     0.146 A 
ATOM      8  O   UNL     1      -0.584  84.675  63.585  1.00  0.00    -0.289 OA
ATOM      9  C   UNL     1       1.280  83.537  64.404  1.00  0.00     0.107 A 
ATOM     10  C   UNL     1       3.352  82.440  65.083  1.00  0.00     0.094 A 
ATOM     11  C   UNL     1       0.544  82.479  64.990  1.00  0.00     0.134 A 
ATOM     12  C   UNL     1       1.230  81.367  65.510  1.00  0.00     0.093 A 
BRANCH   3  13
ATOM     13  C   UNL     1       3.766  86.228  62.270  1.00  0.00     0.021 A 
ATOM     14  C   UNL     1       3.466  87.589  62.050  1.00  0.00     0.016 A 
ATOM     15  C   UNL     1       4.122  88.298  61.033  1.00  0.00     0.051 A 
ATOM     16  C   UNL     1       5.085  87.671  60.231  1.00  0.00     0.157 A 
ATOM     17  C   UNL     1       4.752  85.605  61.482  1.00  0.00     0.062 A 
ATOM     18  C   UNL     1       5.419  86.322  60.469  1.00  0.00     0.158 A 
BRANCH  16  19
ATOM     19  O   UNL     1       5.697  88.402  59.211  1.00  0.00    -0.504 OA
ATOM     20  H   UNL     1       5.189  89.088  58.660  1.00  0.00     0.293 HD
ENDBRANCH  16  19
BRANCH  18  21
ATOM     21  O   UNL     1       6.411  85.704  59.711  1.00  0.00    -0.504 OA
ATOM     22  H   UNL     1       7.388  85.994  59.768  1.00  0.00     0.293 HD
ENDBRANCH  18  21
ENDBRANCH   3  13
BRANCH  11  23
ATOM     23  O   UNL     1      -0.845  82.517  65.068  1.00  0.00    -0.507 OA
ATOM     24  H   UNL     1      -1.414  81.997  64.413  1.00  0.00     0.293 HD
ENDBRANCH  11  23
ENDBRANCH   1   2
BRANCH   1  25
ATOM     25  C   UNL     1       3.978  80.044  67.164  1.00  0.00     0.339 C 
ATOM     26  C   UNL     1       2.993  79.727  68.327  1.00  0.00     0.214 C 
ATOM     27  O   UNL     1       5.012  79.073  67.083  1.00  0.00    -0.332 OA
ATOM     28  C   UNL     1       2.420  78.311  68.166  1.00  0.00     0.180 C 
ATOM     29  C   UNL     1       4.497  77.780  66.783  1.00  0.00     0.179 C 
ATOM     30  C   UNL     1       3.563  77.285  67.923  1.00  0.00     0.177 C 
BRANCH  26  31
ATOM     31  O   UNL     1       3.667  79.811  69.556  1.00  0.00    -0.384 OA
ATOM     32  H   UNL     1       3.808  80.775  69.747  1.00  0.00     0.211 HD
ENDBRANCH  26  31
BRANCH  28  33
ATOM     33  O   UNL     1       1.507  78.314  67.100  1.00  0.00    -0.387 OA
ATOM     34  H   UNL     1       1.771  79.050  66.494  1.00  0.00     0.211 HD
ENDBRANCH  28  33
BRANCH  29  35
ATOM     35  C   UNL     1       5.691  76.827  66.590  1.00  0.00     0.191 C 
BRANCH  35  36
ATOM     36  O   UNL     1       5.304  75.670  65.907  1.00  0.00    -0.394 OA
ATOM     37  H   UNL     1       4.949  75.044  66.590  1.00  0.00     0.210 HD
ENDBRANCH  35  36
ENDBRANCH  29  35
BRANCH  30  38
ATOM     38  O   UNL     1       3.052  75.993  67.674  1.00  0.00    -0.387 OA
ATOM     39  H   UNL     1       2.082  76.084  67.485  1.00  0.00     0.211 HD
ENDBRANCH  30  38
ENDBRANCH   1  25
TORSDOF 11
ENDMDL
MODEL 9
REMARK VINA RESULT:    -6.495      6.538      9.647
REMARK INTER + INTRA:         -10.291
REMARK INTER:                  -9.357
REMARK INTRA:                  -0.934
REMARK UNBOUND:                -0.948
REMARK SMILES O=c1cc(-c2ccc(O)c(O)c2)oc2cc(O[C@@H]3O[C@@H](CO)[C@H](O)[C@H](O)[C@H]3O)cc(O)c12
REMARK SMILES IDX 17 1 16 2 4 3 3 4 13 5 2 6 14 7 1 8 32 9 15 10 30 11 29 12
REMARK SMILES IDX 5 13 6 14 7 15 8 16 12 17 10 18 9 19 11 21 31 23 18 25 27 26
REMARK SMILES IDX 19 27 25 28 20 29 23 30 28 31 26 33 21 35 22 36 24 38
REMARK H PARENT 9 20 11 22 31 24 28 32 26 34 22 37 24 39
REMARK Flexibility Score: inf
ROOT
ATOM      1  O   UNL     1       2.562  81.259  66.628  1.00  0.00    -0.462 OA
ENDROOT
BRANCH   1   2
ATOM      2  C   UNL     1       2.804  81.745  65.339  1.00  0.00     0.130 A 
ATOM      3  C   UNL     1       2.513  85.482  62.427  1.00  0.00     0.138 A 
ATOM      4  C   UNL     1       3.437  84.944  61.519  1.00  0.00     0.100 A 
ATOM      5  O   UNL     1       2.092  84.745  63.453  1.00  0.00    -0.456 OA
ATOM      6  C   UNL     1       3.982  83.679  61.773  1.00  0.00     0.197 A 
ATOM      7  C   UNL     1       2.563  83.536  63.731  1.00  0.00     0.146 A 
ATOM      8  O   UNL     1       4.899  83.244  61.024  1.00  0.00    -0.289 OA
ATOM      9  C   UNL     1       3.553  82.954  62.908  1.00  0.00     0.107 A 
ATOM     10  C   UNL     1       2.131  82.884  64.890  1.00  0.00     0.094 A 
ATOM     11  C   UNL     1       4.124  81.716  63.290  1.00  0.00     0.134 A 
ATOM     12  C   UNL     1       3.767  81.144  64.525  1.00  0.00     0.093 A 
BRANCH   3  13
ATOM     13  C   UNL     1       2.063  86.884  62.355  1.00  0.00     0.021 A 
ATOM     14  C   UNL     1       0.686  87.176  62.255  1.00  0.00     0.016 A 
ATOM     15  C   UNL     1       0.265  88.459  61.875  1.00  0.00     0.051 A 
ATOM     16  C   UNL     1       1.200  89.466  61.598  1.00  0.00     0.157 A 
ATOM     17  C   UNL     1       3.001  87.903  62.103  1.00  0.00     0.062 A 
ATOM     18  C   UNL     1       2.577  89.193  61.732  1.00  0.00     0.158 A 
BRANCH  16  19
ATOM     19  O   UNL     1       0.742  90.722  61.196  1.00  0.00    -0.504 OA
ATOM     20  H   UNL     1       0.801  91.536  61.800  1.00  0.00     0.293 HD
ENDBRANCH  16  19
BRANCH  18  21
ATOM     21  O   UNL     1       3.512  90.202  61.509  1.00  0.00    -0.504 OA
ATOM     22  H   UNL     1       3.230  91.172  61.366  1.00  0.00     0.293 HD
ENDBRANCH  18  21
ENDBRANCH   3  13
BRANCH  11  23
ATOM     23  O   UNL     1       5.026  81.048  62.469  1.00  0.00    -0.507 OA
ATOM     24  H   UNL     1       5.127  81.304  61.495  1.00  0.00     0.293 HD
ENDBRANCH  11  23
ENDBRANCH   1   2
BRANCH   1  25
ATOM     25  C   UNL     1       1.790  80.067  66.867  1.00  0.00     0.339 C 
ATOM     26  C   UNL     1       2.660  78.911  67.440  1.00  0.00     0.214 C 
ATOM     27  O   UNL     1       0.686  80.353  67.714  1.00  0.00    -0.332 OA
ATOM     28  C   UNL     1       3.122  79.252  68.865  1.00  0.00     0.180 C 
ATOM     29  C   UNL     1       1.110  80.815  68.993  1.00  0.00     0.179 C 
ATOM     30  C   UNL     1       1.917  79.712  69.733  1.00  0.00     0.177 C 
BRANCH  26  31
ATOM     31  O   UNL     1       1.911  77.723  67.474  1.00  0.00    -0.384 OA
ATOM     32  H   UNL     1       1.162  77.868  68.109  1.00  0.00     0.211 HD
ENDBRANCH  26  31
BRANCH  28  33
ATOM     33  O   UNL     1       4.105  80.250  68.793  1.00  0.00    -0.387 OA
ATOM     34  H   UNL     1       4.111  80.716  69.666  1.00  0.00     0.211 HD
ENDBRANCH  28  33
BRANCH  29  35
ATOM     35  C   UNL     1      -0.143  81.217  69.791  1.00  0.00     0.191 C 
BRANCH  35  36
ATOM     36  O   UNL     1       0.197  82.001  70.898  1.00  0.00    -0.394 OA
ATOM     37  H   UNL     1      -0.620  82.074  71.454  1.00  0.00     0.210 HD
ENDBRANCH  35  36
ENDBRANCH  29  35
BRANCH  30  38
ATOM     38  O   UNL     1       2.333  80.124  71.018  1.00  0.00    -0.387 OA
ATOM     39  H   UNL     1       1.545  80.073  71.619  1.00  0.00     0.211 HD
ENDBRANCH  30  38
ENDBRANCH   1  25
TORSDOF 11
ENDMDL
