MODEL 1
REMARK VINA RESULT:    -3.459      0.000      0.000
REMARK INTER + INTRA:         -15.120
REMARK INTER:                  -9.122
REMARK INTRA:                  -5.998
REMARK UNBOUND:                -5.998
REMARK SMILES CCCCCCCCCCCCCCCCCCCCCCCCCCCCCC(=O)[O-]
REMARK SMILES IDX 16 1 17 2 18 3 19 4 20 5 21 6 22 7 23 8 24 9 25 10 26 11
REMARK SMILES IDX 27 12 28 13 29 14 30 15 31 16 32 17 15 18 14 19 13 20 12 21
REMARK SMILES IDX 11 22 10 23 9 24 8 25 7 26 6 27 5 28 4 29 3 30 2 31 1 32
REMARK H PARENT
REMARK Flexibility Score: inf
ROOT
ATOM      1  C   UNL     1     164.281 163.855 185.743  1.00  0.00     0.000 C 
ENDROOT
BRANCH   1   2
ATOM      2  C   UNL     1     164.406 164.768 186.978  1.00  0.00     0.000 C 
BRANCH   2   3
ATOM      3  C   UNL     1     163.275 164.631 188.014  1.00  0.00     0.000 C 
BRANCH   3   4
ATOM      4  C   UNL     1     161.941 165.229 187.543  1.00  0.00     0.000 C 
BRANCH   4   5
ATOM      5  C   UNL     1     160.781 164.251 187.790  1.00  0.00     0.000 C 
BRANCH   5   6
ATOM      6  C   UNL     1     161.035 163.317 188.991  1.00  0.00     0.000 C 
BRANCH   6   7
ATOM      7  C   UNL     1     160.804 161.827 188.690  1.00  0.00     0.000 C 
BRANCH   7   8
ATOM      8  C   UNL     1     161.450 161.371 187.368  1.00  0.00     0.000 C 
BRANCH   8   9
ATOM      9  C   UNL     1     162.949 161.029 187.510  1.00  0.00     0.000 C 
BRANCH   9  10
ATOM     10  C   UNL     1     163.311 160.282 188.808  1.00  0.00     0.000 C 
BRANCH  10  11
ATOM     11  C   UNL     1     164.802 160.313 189.194  1.00  0.00     0.000 C 
BRANCH  11  12
ATOM     12  C   UNL     1     165.508 161.668 188.976  1.00  0.00     0.000 C 
BRANCH  12  13
ATOM     13  C   UNL     1     166.648 161.980 189.967  1.00  0.00     0.006 C 
BRANCH  13  14
ATOM     14  C   UNL     1     166.507 163.328 190.690  1.00  0.00     0.053 C 
BRANCH  14  15
ATOM     15  C   UNL     1     167.346 164.395 190.055  1.00  0.00     0.041 C 
ATOM     16  O   UNL     1     167.099 165.610 190.278  1.00  0.00    -0.550 OA
ATOM     17  O   UNL     1     168.417 164.045 189.241  1.00  0.00    -0.550 OA
ENDBRANCH  14  15
ENDBRANCH  13  14
ENDBRANCH  12  13
ENDBRANCH  11  12
ENDBRANCH  10  11
ENDBRANCH   9  10
ENDBRANCH   8   9
ENDBRANCH   7   8
ENDBRANCH   6   7
ENDBRANCH   5   6
ENDBRANCH   4   5
ENDBRANCH   3   4
ENDBRANCH   2   3
ENDBRANCH   1   2
BRANCH   1  18
ATOM     18  C   UNL     1     164.003 164.580 184.413  1.00  0.00     0.000 C 
BRANCH  18  19
ATOM     19  C   UNL     1     162.566 164.387 183.880  1.00  0.00     0.000 C 
BRANCH  19  20
ATOM     20  C   UNL     1     161.949 163.046 184.313  1.00  0.00     0.000 C 
BRANCH  20  21
ATOM     21  C   UNL     1     161.584 162.148 183.120  1.00  0.00     0.000 C 
BRANCH  21  22
ATOM     22  C   UNL     1     161.993 162.762 181.769  1.00  0.00     0.000 C 
BRANCH  22  23
ATOM     23  C   UNL     1     162.442 161.697 180.756  1.00  0.00     0.000 C 
BRANCH  23  24
ATOM     24  C   UNL     1     163.935 161.349 180.886  1.00  0.00    -0.000 C 
BRANCH  24  25
ATOM     25  C   UNL     1     164.766 162.501 181.478  1.00  0.00    -0.000 C 
BRANCH  25  26
ATOM     26  C   UNL     1     166.014 162.075 182.280  1.00  0.00    -0.000 C 
BRANCH  26  27
ATOM     27  C   UNL     1     165.933 160.685 182.945  1.00  0.00    -0.000 C 
BRANCH  27  28
ATOM     28  C   UNL     1     164.914 160.578 184.100  1.00  0.00    -0.000 C 
BRANCH  28  29
ATOM     29  C   UNL     1     165.539 160.254 185.470  1.00  0.00    -0.000 C 
BRANCH  29  30
ATOM     30  C   UNL     1     166.794 161.087 185.799  1.00  0.00    -0.000 C 
BRANCH  30  31
ATOM     31  C   UNL     1     167.945 160.217 186.326  1.00  0.00    -0.003 C 
ATOM     32  C   UNL     1     168.886 161.029 187.211  1.00  0.00     0.004 C 
ENDBRANCH  30  31
ENDBRANCH  29  30
ENDBRANCH  28  29
ENDBRANCH  27  28
ENDBRANCH  26  27
ENDBRANCH  25  26
ENDBRANCH  24  25
ENDBRANCH  23  24
ENDBRANCH  22  23
ENDBRANCH  21  22
ENDBRANCH  20  21
ENDBRANCH  19  20
ENDBRANCH  18  19
ENDBRANCH   1  18
TORSDOF 28
ENDMDL
MODEL 2
REMARK VINA RESULT:    -3.352      2.218      5.591
REMARK INTER + INTRA:         -14.838
REMARK INTER:                  -8.893
REMARK INTRA:                  -5.945
REMARK UNBOUND:                -5.998
REMARK SMILES CCCCCCCCCCCCCCCCCCCCCCCCCCCCCC(=O)[O-]
REMARK SMILES IDX 16 1 17 2 18 3 19 4 20 5 21 6 22 7 23 8 24 9 25 10 26 11
REMARK SMILES IDX 27 12 28 13 29 14 30 15 31 16 32 17 15 18 14 19 13 20 12 21
REMARK SMILES IDX 11 22 10 23 9 24 8 25 7 26 6 27 5 28 4 29 3 30 2 31 1 32
REMARK H PARENT
REMARK Flexibility Score: inf
ROOT
ATOM      1  C   UNL     1     163.434 164.818 186.114  1.00  0.00     0.000 C 
ENDROOT
BRANCH   1   2
ATOM      2  C   UNL     1     164.224 165.310 187.341  1.00  0.00     0.000 C 
BRANCH   2   3
ATOM      3  C   UNL     1     164.878 164.204 188.190  1.00  0.00     0.000 C 
BRANCH   3   4
ATOM      4  C   UNL     1     166.405 164.143 188.038  1.00  0.00     0.000 C 
BRANCH   4   5
ATOM      5  C   UNL     1     166.802 163.409 186.748  1.00  0.00     0.000 C 
BRANCH   5   6
ATOM      6  C   UNL     1     167.950 162.401 186.965  1.00  0.00     0.000 C 
BRANCH   6   7
ATOM      7  C   UNL     1     168.067 161.881 188.407  1.00  0.00     0.000 C 
BRANCH   7   8
ATOM      8  C   UNL     1     167.336 160.545 188.629  1.00  0.00     0.000 C 
BRANCH   8   9
ATOM      9  C   UNL     1     166.212 160.635 189.684  1.00  0.00     0.000 C 
BRANCH   9  10
ATOM     10  C   UNL     1     164.803 160.845 189.097  1.00  0.00     0.000 C 
BRANCH  10  11
ATOM     11  C   UNL     1     164.451 159.954 187.891  1.00  0.00     0.000 C 
BRANCH  11  12
ATOM     12  C   UNL     1     164.462 160.667 186.523  1.00  0.00     0.000 C 
BRANCH  12  13
ATOM     13  C   UNL     1     165.429 160.068 185.481  1.00  0.00     0.006 C 
BRANCH  13  14
ATOM     14  C   UNL     1     165.039 160.347 184.021  1.00  0.00     0.053 C 
BRANCH  14  15
ATOM     15  C   UNL     1     165.836 161.471 183.434  1.00  0.00     0.041 C 
ATOM     16  O   UNL     1     165.470 162.664 183.607  1.00  0.00    -0.550 OA
ATOM     17  O   UNL     1     166.998 161.202 182.720  1.00  0.00    -0.550 OA
ENDBRANCH  14  15
ENDBRANCH  13  14
ENDBRANCH  12  13
ENDBRANCH  11  12
ENDBRANCH  10  11
ENDBRANCH   9  10
ENDBRANCH   8   9
ENDBRANCH   7   8
ENDBRANCH   6   7
ENDBRANCH   5   6
ENDBRANCH   4   5
ENDBRANCH   3   4
ENDBRANCH   2   3
ENDBRANCH   1   2
BRANCH   1  18
ATOM     18  C   UNL     1     162.247 165.706 185.696  1.00  0.00     0.000 C 
BRANCH  18  19
ATOM     19  C   UNL     1     160.863 165.076 185.967  1.00  0.00     0.000 C 
BRANCH  19  20
ATOM     20  C   UNL     1     160.374 165.316 187.406  1.00  0.00     0.000 C 
BRANCH  20  21
ATOM     21  C   UNL     1     160.025 164.011 188.139  1.00  0.00     0.000 C 
BRANCH  21  22
ATOM     22  C   UNL     1     161.272 163.257 188.632  1.00  0.00     0.000 C 
BRANCH  22  23
ATOM     23  C   UNL     1     161.236 161.765 188.263  1.00  0.00     0.000 C 
BRANCH  23  24
ATOM     24  C   UNL     1     160.289 161.470 187.086  1.00  0.00    -0.000 C 
BRANCH  24  25
ATOM     25  C   UNL     1     161.034 160.989 185.828  1.00  0.00    -0.000 C 
BRANCH  25  26
ATOM     26  C   UNL     1     160.687 161.740 184.525  1.00  0.00    -0.000 C 
BRANCH  26  27
ATOM     27  C   UNL     1     161.891 162.313 183.749  1.00  0.00    -0.000 C 
BRANCH  27  28
ATOM     28  C   UNL     1     161.598 162.678 182.277  1.00  0.00    -0.000 C 
BRANCH  28  29
ATOM     29  C   UNL     1     162.781 162.446 181.318  1.00  0.00    -0.000 C 
BRANCH  29  30
ATOM     30  C   UNL     1     162.736 161.091 180.584  1.00  0.00    -0.000 C 
BRANCH  30  31
ATOM     31  C   UNL     1     164.137 160.590 180.204  1.00  0.00    -0.003 C 
ATOM     32  C   UNL     1     165.057 161.753 179.848  1.00  0.00     0.004 C 
ENDBRANCH  30  31
ENDBRANCH  29  30
ENDBRANCH  28  29
ENDBRANCH  27  28
ENDBRANCH  26  27
ENDBRANCH  25  26
ENDBRANCH  24  25
ENDBRANCH  23  24
ENDBRANCH  22  23
ENDBRANCH  21  22
ENDBRANCH  20  21
ENDBRANCH  19  20
ENDBRANCH  18  19
ENDBRANCH   1  18
TORSDOF 28
ENDMDL
MODEL 3
REMARK VINA RESULT:    -3.314      2.086      5.273
REMARK INTER + INTRA:         -14.736
REMARK INTER:                  -9.385
REMARK INTRA:                  -5.350
REMARK UNBOUND:                -5.998
REMARK SMILES CCCCCCCCCCCCCCCCCCCCCCCCCCCCCC(=O)[O-]
REMARK SMILES IDX 16 1 17 2 18 3 19 4 20 5 21 6 22 7 23 8 24 9 25 10 26 11
REMARK SMILES IDX 27 12 28 13 29 14 30 15 31 16 32 17 15 18 14 19 13 20 12 21
REMARK SMILES IDX 11 22 10 23 9 24 8 25 7 26 6 27 5 28 4 29 3 30 2 31 1 32
REMARK H PARENT
REMARK Flexibility Score: inf
ROOT
ATOM      1  C   UNL     1     165.991 164.470 187.510  1.00  0.00     0.000 C 
ENDROOT
BRANCH   1   2
ATOM      2  C   UNL     1     166.522 164.114 188.911  1.00  0.00     0.000 C 
BRANCH   2   3
ATOM      3  C   UNL     1     165.755 162.996 189.641  1.00  0.00     0.000 C 
BRANCH   3   4
ATOM      4  C   UNL     1     166.615 161.757 189.931  1.00  0.00     0.000 C 
BRANCH   4   5
ATOM      5  C   UNL     1     165.803 160.466 189.740  1.00  0.00     0.000 C 
BRANCH   5   6
ATOM      6  C   UNL     1     164.578 160.664 188.822  1.00  0.00     0.000 C 
BRANCH   6   7
ATOM      7  C   UNL     1     164.781 160.158 187.384  1.00  0.00     0.000 C 
BRANCH   7   8
ATOM      8  C   UNL     1     165.161 161.277 186.398  1.00  0.00     0.000 C 
BRANCH   8   9
ATOM      9  C   UNL     1     166.535 161.057 185.729  1.00  0.00     0.000 C 
BRANCH   9  10
ATOM     10  C   UNL     1     167.538 160.258 186.583  1.00  0.00     0.000 C 
BRANCH  10  11
ATOM     11  C   UNL     1     168.800 161.030 187.014  1.00  0.00     0.000 C 
BRANCH  11  12
ATOM     12  C   UNL     1     169.966 160.153 187.515  1.00  0.00     0.000 C 
BRANCH  12  13
ATOM     13  C   UNL     1     171.374 160.674 187.164  1.00  0.00     0.006 C 
BRANCH  13  14
ATOM     14  C   UNL     1     171.698 162.061 187.739  1.00  0.00     0.053 C 
BRANCH  14  15
ATOM     15  C   UNL     1     173.075 162.118 188.326  1.00  0.00     0.041 C 
ATOM     16  O   UNL     1     174.068 161.749 187.645  1.00  0.00    -0.550 OA
ATOM     17  O   UNL     1     173.263 162.605 189.614  1.00  0.00    -0.550 OA
ENDBRANCH  14  15
ENDBRANCH  13  14
ENDBRANCH  12  13
ENDBRANCH  11  12
ENDBRANCH  10  11
ENDBRANCH   9  10
ENDBRANCH   8   9
ENDBRANCH   7   8
ENDBRANCH   6   7
ENDBRANCH   5   6
ENDBRANCH   4   5
ENDBRANCH   3   4
ENDBRANCH   2   3
ENDBRANCH   1   2
BRANCH   1  18
ATOM     18  C   UNL     1     164.730 165.354 187.489  1.00  0.00     0.000 C 
BRANCH  18  19
ATOM     19  C   UNL     1     163.533 164.724 186.743  1.00  0.00     0.000 C 
BRANCH  19  20
ATOM     20  C   UNL     1     162.218 164.833 187.535  1.00  0.00     0.000 C 
BRANCH  20  21
ATOM     21  C   UNL     1     162.029 163.679 188.533  1.00  0.00     0.000 C 
BRANCH  21  22
ATOM     22  C   UNL     1     160.546 163.369 188.805  1.00  0.00     0.000 C 
BRANCH  22  23
ATOM     23  C   UNL     1     160.032 162.192 187.961  1.00  0.00     0.000 C 
BRANCH  23  24
ATOM     24  C   UNL     1     161.141 161.183 187.614  1.00  0.00    -0.000 C 
BRANCH  24  25
ATOM     25  C   UNL     1     161.468 161.150 186.110  1.00  0.00    -0.000 C 
BRANCH  25  26
ATOM     26  C   UNL     1     160.497 161.937 185.204  1.00  0.00    -0.000 C 
BRANCH  26  27
ATOM     27  C   UNL     1     161.160 162.787 184.100  1.00  0.00    -0.000 C 
BRANCH  27  28
ATOM     28  C   UNL     1     162.700 162.699 184.052  1.00  0.00    -0.000 C 
BRANCH  28  29
ATOM     29  C   UNL     1     163.256 161.982 182.807  1.00  0.00    -0.000 C 
BRANCH  29  30
ATOM     30  C   UNL     1     163.279 160.445 182.926  1.00  0.00    -0.000 C 
BRANCH  30  31
ATOM     31  C   UNL     1     164.701 159.875 182.811  1.00  0.00    -0.003 C 
ATOM     32  C   UNL     1     165.638 160.872 182.137  1.00  0.00     0.004 C 
ENDBRANCH  30  31
ENDBRANCH  29  30
ENDBRANCH  28  29
ENDBRANCH  27  28
ENDBRANCH  26  27
ENDBRANCH  25  26
ENDBRANCH  24  25
ENDBRANCH  23  24
ENDBRANCH  22  23
ENDBRANCH  21  22
ENDBRANCH  20  21
ENDBRANCH  19  20
ENDBRANCH  18  19
ENDBRANCH   1  18
TORSDOF 28
ENDMDL
MODEL 4
REMARK VINA RESULT:    -3.282      2.459      5.661
REMARK INTER + INTRA:         -14.654
REMARK INTER:                  -8.000
REMARK INTRA:                  -6.654
REMARK UNBOUND:                -5.998
REMARK SMILES CCCCCCCCCCCCCCCCCCCCCCCCCCCCCC(=O)[O-]
REMARK SMILES IDX 16 1 17 2 18 3 19 4 20 5 21 6 22 7 23 8 24 9 25 10 26 11
REMARK SMILES IDX 27 12 28 13 29 14 30 15 31 16 32 17 15 18 14 19 13 20 12 21
REMARK SMILES IDX 11 22 10 23 9 24 8 25 7 26 6 27 5 28 4 29 3 30 2 31 1 32
REMARK H PARENT
REMARK Flexibility Score: inf
ROOT
ATOM      1  C   UNL     1     166.033 164.592 188.019  1.00  0.00     0.000 C 
ENDROOT
BRANCH   1   2
ATOM      2  C   UNL     1     164.740 164.044 187.386  1.00  0.00     0.000 C 
BRANCH   2   3
ATOM      3  C   UNL     1     163.431 164.591 187.985  1.00  0.00     0.000 C 
BRANCH   3   4
ATOM      4  C   UNL     1     162.684 163.569 188.855  1.00  0.00     0.000 C 
BRANCH   4   5
ATOM      5  C   UNL     1     161.164 163.688 188.665  1.00  0.00     0.000 C 
BRANCH   5   6
ATOM      6  C   UNL     1     160.516 162.366 188.204  1.00  0.00     0.000 C 
BRANCH   6   7
ATOM      7  C   UNL     1     161.514 161.334 187.653  1.00  0.00     0.000 C 
BRANCH   7   8
ATOM      8  C   UNL     1     161.436 161.175 186.123  1.00  0.00     0.000 C 
BRANCH   8   9
ATOM      9  C   UNL     1     162.202 162.276 185.358  1.00  0.00     0.000 C 
BRANCH   9  10
ATOM     10  C   UNL     1     161.306 163.375 184.757  1.00  0.00     0.000 C 
BRANCH  10  11
ATOM     11  C   UNL     1     162.012 164.709 184.452  1.00  0.00     0.000 C 
BRANCH  11  12
ATOM     12  C   UNL     1     163.270 164.598 183.566  1.00  0.00     0.000 C 
BRANCH  12  13
ATOM     13  C   UNL     1     164.491 165.401 184.058  1.00  0.00     0.006 C 
BRANCH  13  14
ATOM     14  C   UNL     1     164.148 166.779 184.646  1.00  0.00     0.053 C 
BRANCH  14  15
ATOM     15  C   UNL     1     163.875 167.792 183.576  1.00  0.00     0.041 C 
ATOM     16  O   UNL     1     162.693 168.014 183.202  1.00  0.00    -0.550 OA
ATOM     17  O   UNL     1     164.923 168.510 183.014  1.00  0.00    -0.550 OA
ENDBRANCH  14  15
ENDBRANCH  13  14
ENDBRANCH  12  13
ENDBRANCH  11  12
ENDBRANCH  10  11
ENDBRANCH   9  10
ENDBRANCH   8   9
ENDBRANCH   7   8
ENDBRANCH   6   7
ENDBRANCH   5   6
ENDBRANCH   4   5
ENDBRANCH   3   4
ENDBRANCH   2   3
ENDBRANCH   1   2
BRANCH   1  18
ATOM     18  C   UNL     1     166.873 163.562 188.797  1.00  0.00     0.000 C 
BRANCH  18  19
ATOM     19  C   UNL     1     166.171 162.993 190.049  1.00  0.00     0.000 C 
BRANCH  19  20
ATOM     20  C   UNL     1     166.592 161.546 190.359  1.00  0.00     0.000 C 
BRANCH  20  21
ATOM     21  C   UNL     1     166.505 160.626 189.130  1.00  0.00     0.000 C 
BRANCH  21  22
ATOM     22  C   UNL     1     165.069 160.485 188.596  1.00  0.00     0.000 C 
BRANCH  22  23
ATOM     23  C   UNL     1     165.023 160.405 187.062  1.00  0.00     0.000 C 
BRANCH  23  24
ATOM     24  C   UNL     1     166.421 160.262 186.434  1.00  0.00    -0.000 C 
BRANCH  24  25
ATOM     25  C   UNL     1     166.874 161.532 185.693  1.00  0.00    -0.000 C 
BRANCH  25  26
ATOM     26  C   UNL     1     165.939 162.009 184.562  1.00  0.00    -0.000 C 
BRANCH  26  27
ATOM     27  C   UNL     1     166.540 161.968 183.141  1.00  0.00    -0.000 C 
BRANCH  27  28
ATOM     28  C   UNL     1     165.772 161.081 182.138  1.00  0.00    -0.000 C 
BRANCH  28  29
ATOM     29  C   UNL     1     164.678 160.204 182.774  1.00  0.00    -0.000 C 
BRANCH  29  30
ATOM     30  C   UNL     1     163.241 160.653 182.441  1.00  0.00    -0.000 C 
BRANCH  30  31
ATOM     31  C   UNL     1     163.211 161.747 181.362  1.00  0.00    -0.003 C 
ATOM     32  C   UNL     1     161.779 162.177 181.058  1.00  0.00     0.004 C 
ENDBRANCH  30  31
ENDBRANCH  29  30
ENDBRANCH  28  29
ENDBRANCH  27  28
ENDBRANCH  26  27
ENDBRANCH  25  26
ENDBRANCH  24  25
ENDBRANCH  23  24
ENDBRANCH  22  23
ENDBRANCH  21  22
ENDBRANCH  20  21
ENDBRANCH  19  20
ENDBRANCH  18  19
ENDBRANCH   1  18
TORSDOF 28
ENDMDL
MODEL 5
REMARK VINA RESULT:    -3.282      2.497      5.925
REMARK INTER + INTRA:         -14.652
REMARK INTER:                  -9.280
REMARK INTRA:                  -5.372
REMARK UNBOUND:                -5.998
REMARK SMILES CCCCCCCCCCCCCCCCCCCCCCCCCCCCCC(=O)[O-]
REMARK SMILES IDX 16 1 17 2 18 3 19 4 20 5 21 6 22 7 23 8 24 9 25 10 26 11
REMARK SMILES IDX 27 12 28 13 29 14 30 15 31 16 32 17 15 18 14 19 13 20 12 21
REMARK SMILES IDX 11 22 10 23 9 24 8 25 7 26 6 27 5 28 4 29 3 30 2 31 1 32
REMARK H PARENT
REMARK Flexibility Score: inf
ROOT
ATOM      1  C   UNL     1     164.278 162.768 188.850  1.00  0.00     0.000 C 
ENDROOT
BRANCH   1   2
ATOM      2  C   UNL     1     165.522 163.207 189.645  1.00  0.00     0.000 C 
BRANCH   2   3
ATOM      3  C   UNL     1     166.458 162.066 190.086  1.00  0.00     0.000 C 
BRANCH   3   4
ATOM      4  C   UNL     1     166.188 160.741 189.357  1.00  0.00     0.000 C 
BRANCH   4   5
ATOM      5  C   UNL     1     167.156 160.555 188.177  1.00  0.00     0.000 C 
BRANCH   5   6
ATOM      6  C   UNL     1     166.429 160.461 186.820  1.00  0.00     0.000 C 
BRANCH   6   7
ATOM      7  C   UNL     1     166.888 161.502 185.786  1.00  0.00     0.000 C 
BRANCH   7   8
ATOM      8  C   UNL     1     167.403 162.804 186.427  1.00  0.00     0.000 C 
BRANCH   8   9
ATOM      9  C   UNL     1     166.469 164.010 186.187  1.00  0.00     0.000 C 
BRANCH   9  10
ATOM     10  C   UNL     1     165.277 163.717 185.257  1.00  0.00     0.000 C 
BRANCH  10  11
ATOM     11  C   UNL     1     164.262 164.865 185.102  1.00  0.00     0.000 C 
BRANCH  11  12
ATOM     12  C   UNL     1     162.806 164.425 184.848  1.00  0.00     0.000 C 
BRANCH  12  13
ATOM     13  C   UNL     1     161.780 165.573 184.762  1.00  0.00     0.006 C 
BRANCH  13  14
ATOM     14  C   UNL     1     160.599 165.442 185.735  1.00  0.00     0.053 C 
BRANCH  14  15
ATOM     15  C   UNL     1     160.423 166.672 186.572  1.00  0.00     0.041 C 
ATOM     16  O   UNL     1     160.265 166.572 187.818  1.00  0.00    -0.550 OA
ATOM     17  O   UNL     1     160.463 167.928 185.979  1.00  0.00    -0.550 OA
ENDBRANCH  14  15
ENDBRANCH  13  14
ENDBRANCH  12  13
ENDBRANCH  11  12
ENDBRANCH  10  11
ENDBRANCH   9  10
ENDBRANCH   8   9
ENDBRANCH   7   8
ENDBRANCH   6   7
ENDBRANCH   5   6
ENDBRANCH   4   5
ENDBRANCH   3   4
ENDBRANCH   2   3
ENDBRANCH   1   2
BRANCH   1  18
ATOM     18  C   UNL     1     163.310 163.902 188.464  1.00  0.00     0.000 C 
BRANCH  18  19
ATOM     19  C   UNL     1     161.826 163.592 188.765  1.00  0.00     0.000 C 
BRANCH  19  20
ATOM     20  C   UNL     1     161.521 162.084 188.752  1.00  0.00     0.000 C 
BRANCH  20  21
ATOM     21  C   UNL     1     160.294 161.734 187.895  1.00  0.00     0.000 C 
BRANCH  21  22
ATOM     22  C   UNL     1     160.604 161.738 186.388  1.00  0.00     0.000 C 
BRANCH  22  23
ATOM     23  C   UNL     1     161.994 161.160 186.077  1.00  0.00     0.000 C 
BRANCH  23  24
ATOM     24  C   UNL     1     162.197 160.882 184.577  1.00  0.00    -0.000 C 
BRANCH  24  25
ATOM     25  C   UNL     1     163.661 160.566 184.222  1.00  0.00    -0.000 C 
BRANCH  25  26
ATOM     26  C   UNL     1     164.102 160.977 182.801  1.00  0.00    -0.000 C 
BRANCH  26  27
ATOM     27  C   UNL     1     163.034 161.704 181.958  1.00  0.00    -0.000 C 
BRANCH  27  28
ATOM     28  C   UNL     1     162.960 161.259 180.482  1.00  0.00    -0.000 C 
BRANCH  28  29
ATOM     29  C   UNL     1     163.929 160.119 180.113  1.00  0.00    -0.000 C 
BRANCH  29  30
ATOM     30  C   UNL     1     164.666 160.332 178.776  1.00  0.00    -0.000 C 
BRANCH  30  31
ATOM     31  C   UNL     1     165.931 161.188 178.940  1.00  0.00    -0.003 C 
ATOM     32  C   UNL     1     166.689 160.808 180.207  1.00  0.00     0.004 C 
ENDBRANCH  30  31
ENDBRANCH  29  30
ENDBRANCH  28  29
ENDBRANCH  27  28
ENDBRANCH  26  27
ENDBRANCH  25  26
ENDBRANCH  24  25
ENDBRANCH  23  24
ENDBRANCH  22  23
ENDBRANCH  21  22
ENDBRANCH  20  21
ENDBRANCH  19  20
ENDBRANCH  18  19
ENDBRANCH   1  18
TORSDOF 28
ENDMDL
MODEL 6
REMARK VINA RESULT:    -3.262      3.735      6.923
REMARK INTER + INTRA:         -14.601
REMARK INTER:                  -8.261
REMARK INTRA:                  -6.339
REMARK UNBOUND:                -5.998
REMARK SMILES CCCCCCCCCCCCCCCCCCCCCCCCCCCCCC(=O)[O-]
REMARK SMILES IDX 16 1 17 2 18 3 19 4 20 5 21 6 22 7 23 8 24 9 25 10 26 11
REMARK SMILES IDX 27 12 28 13 29 14 30 15 31 16 32 17 15 18 14 19 13 20 12 21
REMARK SMILES IDX 11 22 10 23 9 24 8 25 7 26 6 27 5 28 4 29 3 30 2 31 1 32
REMARK H PARENT
REMARK Flexibility Score: inf
ROOT
ATOM      1  C   UNL     1     165.269 164.056 188.201  1.00  0.00     0.000 C 
ENDROOT
BRANCH   1   2
ATOM      2  C   UNL     1     165.750 163.097 189.306  1.00  0.00     0.000 C 
BRANCH   2   3
ATOM      3  C   UNL     1     166.191 161.703 188.822  1.00  0.00     0.000 C 
BRANCH   3   4
ATOM      4  C   UNL     1     165.188 160.593 189.169  1.00  0.00     0.000 C 
BRANCH   4   5
ATOM      5  C   UNL     1     164.419 160.135 187.920  1.00  0.00     0.000 C 
BRANCH   5   6
ATOM      6  C   UNL     1     165.121 160.539 186.607  1.00  0.00     0.000 C 
BRANCH   6   7
ATOM      7  C   UNL     1     164.166 161.044 185.512  1.00  0.00     0.000 C 
BRANCH   7   8
ATOM      8  C   UNL     1     164.627 160.673 184.091  1.00  0.00     0.000 C 
BRANCH   8   9
ATOM      9  C   UNL     1     163.511 160.035 183.237  1.00  0.00     0.000 C 
BRANCH   9  10
ATOM     10  C   UNL     1     163.562 160.406 181.742  1.00  0.00     0.000 C 
BRANCH  10  11
ATOM     11  C   UNL     1     164.672 161.398 181.346  1.00  0.00     0.000 C 
BRANCH  11  12
ATOM     12  C   UNL     1     164.337 162.315 180.151  1.00  0.00     0.000 C 
BRANCH  12  13
ATOM     13  C   UNL     1     162.908 162.896 180.152  1.00  0.00     0.006 C 
BRANCH  13  14
ATOM     14  C   UNL     1     162.328 163.152 178.753  1.00  0.00     0.053 C 
BRANCH  14  15
ATOM     15  C   UNL     1     161.214 162.205 178.426  1.00  0.00     0.041 C 
ATOM     16  O   UNL     1     161.124 161.103 179.029  1.00  0.00    -0.550 OA
ATOM     17  O   UNL     1     160.261 162.553 177.476  1.00  0.00    -0.550 OA
ENDBRANCH  14  15
ENDBRANCH  13  14
ENDBRANCH  12  13
ENDBRANCH  11  12
ENDBRANCH  10  11
ENDBRANCH   9  10
ENDBRANCH   8   9
ENDBRANCH   7   8
ENDBRANCH   6   7
ENDBRANCH   5   6
ENDBRANCH   4   5
ENDBRANCH   3   4
ENDBRANCH   2   3
ENDBRANCH   1   2
BRANCH   1  18
ATOM     18  C   UNL     1     163.800 163.880 187.771  1.00  0.00     0.000 C 
BRANCH  18  19
ATOM     19  C   UNL     1     162.836 163.573 188.937  1.00  0.00     0.000 C 
BRANCH  19  20
ATOM     20  C   UNL     1     161.414 163.234 188.456  1.00  0.00     0.000 C 
BRANCH  20  21
ATOM     21  C   UNL     1     161.201 161.725 188.251  1.00  0.00     0.000 C 
BRANCH  21  22
ATOM     22  C   UNL     1     160.057 161.416 187.269  1.00  0.00     0.000 C 
BRANCH  22  23
ATOM     23  C   UNL     1     160.573 160.878 185.924  1.00  0.00     0.000 C 
BRANCH  23  24
ATOM     24  C   UNL     1     160.270 161.828 184.752  1.00  0.00    -0.000 C 
BRANCH  24  25
ATOM     25  C   UNL     1     161.083 163.133 184.816  1.00  0.00    -0.000 C 
BRANCH  25  26
ATOM     26  C   UNL     1     161.929 163.449 183.565  1.00  0.00    -0.000 C 
BRANCH  26  27
ATOM     27  C   UNL     1     162.898 164.642 183.703  1.00  0.00    -0.000 C 
BRANCH  27  28
ATOM     28  C   UNL     1     164.361 164.337 183.314  1.00  0.00    -0.000 C 
BRANCH  28  29
ATOM     29  C   UNL     1     165.353 164.378 184.491  1.00  0.00    -0.000 C 
BRANCH  29  30
ATOM     30  C   UNL     1     166.775 163.907 184.129  1.00  0.00    -0.000 C 
BRANCH  30  31
ATOM     31  C   UNL     1     167.368 162.977 185.199  1.00  0.00    -0.003 C 
ATOM     32  C   UNL     1     168.330 163.733 186.110  1.00  0.00     0.004 C 
ENDBRANCH  30  31
ENDBRANCH  29  30
ENDBRANCH  28  29
ENDBRANCH  27  28
ENDBRANCH  26  27
ENDBRANCH  25  26
ENDBRANCH  24  25
ENDBRANCH  23  24
ENDBRANCH  22  23
ENDBRANCH  21  22
ENDBRANCH  20  21
ENDBRANCH  19  20
ENDBRANCH  18  19
ENDBRANCH   1  18
TORSDOF 28
ENDMDL
MODEL 7
REMARK VINA RESULT:    -3.183      2.157      5.330
REMARK INTER + INTRA:         -14.393
REMARK INTER:                  -8.362
REMARK INTRA:                  -6.031
REMARK UNBOUND:                -5.998
REMARK SMILES CCCCCCCCCCCCCCCCCCCCCCCCCCCCCC(=O)[O-]
REMARK SMILES IDX 16 1 17 2 18 3 19 4 20 5 21 6 22 7 23 8 24 9 25 10 26 11
REMARK SMILES IDX 27 12 28 13 29 14 30 15 31 16 32 17 15 18 14 19 13 20 12 21
REMARK SMILES IDX 11 22 10 23 9 24 8 25 7 26 6 27 5 28 4 29 3 30 2 31 1 32
REMARK H PARENT
REMARK Flexibility Score: inf
ROOT
ATOM      1  C   UNL     1     163.825 163.251 183.145  1.00  0.00     0.000 C 
ENDROOT
BRANCH   1   2
ATOM      2  C   UNL     1     164.137 161.937 182.405  1.00  0.00     0.000 C 
BRANCH   2   3
ATOM      3  C   UNL     1     164.488 160.740 183.310  1.00  0.00     0.000 C 
BRANCH   3   4
ATOM      4  C   UNL     1     165.291 161.136 184.558  1.00  0.00     0.000 C 
BRANCH   4   5
ATOM      5  C   UNL     1     164.914 160.254 185.758  1.00  0.00     0.000 C 
BRANCH   5   6
ATOM      6  C   UNL     1     164.226 161.048 186.888  1.00  0.00     0.000 C 
BRANCH   6   7
ATOM      7  C   UNL     1     163.996 160.240 188.176  1.00  0.00     0.000 C 
BRANCH   7   8
ATOM      8  C   UNL     1     165.090 160.467 189.236  1.00  0.00     0.000 C 
BRANCH   8   9
ATOM      9  C   UNL     1     165.830 161.811 189.067  1.00  0.00     0.000 C 
BRANCH   9  10
ATOM     10  C   UNL     1     167.333 161.676 188.759  1.00  0.00     0.000 C 
BRANCH  10  11
ATOM     11  C   UNL     1     167.767 160.321 188.168  1.00  0.00     0.000 C 
BRANCH  11  12
ATOM     12  C   UNL     1     169.225 160.259 187.669  1.00  0.00     0.000 C 
BRANCH  12  13
ATOM     13  C   UNL     1     169.578 161.263 186.553  1.00  0.00     0.006 C 
BRANCH  13  14
ATOM     14  C   UNL     1     168.611 161.249 185.359  1.00  0.00     0.053 C 
BRANCH  14  15
ATOM     15  C   UNL     1     169.158 162.003 184.186  1.00  0.00     0.041 C 
ATOM     16  O   UNL     1     170.226 162.661 184.299  1.00  0.00    -0.550 OA
ATOM     17  O   UNL     1     168.503 161.954 182.961  1.00  0.00    -0.550 OA
ENDBRANCH  14  15
ENDBRANCH  13  14
ENDBRANCH  12  13
ENDBRANCH  11  12
ENDBRANCH  10  11
ENDBRANCH   9  10
ENDBRANCH   8   9
ENDBRANCH   7   8
ENDBRANCH   6   7
ENDBRANCH   5   6
ENDBRANCH   4   5
ENDBRANCH   3   4
ENDBRANCH   2   3
ENDBRANCH   1   2
BRANCH   1  18
ATOM     18  C   UNL     1     162.329 163.535 183.382  1.00  0.00     0.000 C 
BRANCH  18  19
ATOM     19  C   UNL     1     161.786 162.973 184.714  1.00  0.00     0.000 C 
BRANCH  19  20
ATOM     20  C   UNL     1     160.987 161.672 184.527  1.00  0.00     0.000 C 
BRANCH  20  21
ATOM     21  C   UNL     1     160.805 160.893 185.840  1.00  0.00     0.000 C 
BRANCH  21  22
ATOM     22  C   UNL     1     159.875 161.614 186.832  1.00  0.00     0.000 C 
BRANCH  22  23
ATOM     23  C   UNL     1     160.389 161.530 188.278  1.00  0.00     0.000 C 
BRANCH  23  24
ATOM     24  C   UNL     1     160.262 162.868 189.029  1.00  0.00    -0.000 C 
BRANCH  24  25
ATOM     25  C   UNL     1     161.075 163.998 188.373  1.00  0.00    -0.000 C 
BRANCH  25  26
ATOM     26  C   UNL     1     162.608 163.824 188.417  1.00  0.00    -0.000 C 
BRANCH  26  27
ATOM     27  C   UNL     1     163.421 164.905 187.675  1.00  0.00    -0.000 C 
BRANCH  27  28
ATOM     28  C   UNL     1     164.450 164.359 186.662  1.00  0.00    -0.000 C 
BRANCH  28  29
ATOM     29  C   UNL     1     165.914 164.698 186.999  1.00  0.00    -0.000 C 
BRANCH  29  30
ATOM     30  C   UNL     1     166.914 164.331 185.884  1.00  0.00    -0.000 C 
BRANCH  30  31
ATOM     31  C   UNL     1     168.240 165.095 186.021  1.00  0.00    -0.003 C 
ATOM     32  C   UNL     1     168.605 165.302 187.487  1.00  0.00     0.004 C 
ENDBRANCH  30  31
ENDBRANCH  29  30
ENDBRANCH  28  29
ENDBRANCH  27  28
ENDBRANCH  26  27
ENDBRANCH  25  26
ENDBRANCH  24  25
ENDBRANCH  23  24
ENDBRANCH  22  23
ENDBRANCH  21  22
ENDBRANCH  20  21
ENDBRANCH  19  20
ENDBRANCH  18  19
ENDBRANCH   1  18
TORSDOF 28
ENDMDL
MODEL 8
REMARK VINA RESULT:    -3.174      1.974      5.391
REMARK INTER + INTRA:         -14.367
REMARK INTER:                  -8.950
REMARK INTRA:                  -5.417
REMARK UNBOUND:                -5.998
REMARK SMILES CCCCCCCCCCCCCCCCCCCCCCCCCCCCCC(=O)[O-]
REMARK SMILES IDX 16 1 17 2 18 3 19 4 20 5 21 6 22 7 23 8 24 9 25 10 26 11
REMARK SMILES IDX 27 12 28 13 29 14 30 15 31 16 32 17 15 18 14 19 13 20 12 21
REMARK SMILES IDX 11 22 10 23 9 24 8 25 7 26 6 27 5 28 4 29 3 30 2 31 1 32
REMARK H PARENT
REMARK Flexibility Score: inf
ROOT
ATOM      1  C   UNL     1     163.808 164.849 185.594  1.00  0.00     0.000 C 
ENDROOT
BRANCH   1   2
ATOM      2  C   UNL     1     164.638 164.365 186.797  1.00  0.00     0.000 C 
BRANCH   2   3
ATOM      3  C   UNL     1     166.074 163.915 186.468  1.00  0.00     0.000 C 
BRANCH   3   4
ATOM      4  C   UNL     1     167.152 164.771 187.150  1.00  0.00     0.000 C 
BRANCH   4   5
ATOM      5  C   UNL     1     167.864 163.980 188.259  1.00  0.00     0.000 C 
BRANCH   5   6
ATOM      6  C   UNL     1     167.187 164.145 189.635  1.00  0.00     0.000 C 
BRANCH   6   7
ATOM      7  C   UNL     1     166.781 162.820 190.300  1.00  0.00     0.000 C 
BRANCH   7   8
ATOM      8  C   UNL     1     165.706 162.052 189.509  1.00  0.00     0.000 C 
BRANCH   8   9
ATOM      9  C   UNL     1     166.030 160.552 189.340  1.00  0.00     0.000 C 
BRANCH   9  10
ATOM     10  C   UNL     1     167.396 160.265 188.686  1.00  0.00     0.000 C 
BRANCH  10  11
ATOM     11  C   UNL     1     167.450 160.461 187.159  1.00  0.00     0.000 C 
BRANCH  11  12
ATOM     12  C   UNL     1     168.868 160.498 186.552  1.00  0.00     0.000 C 
BRANCH  12  13
ATOM     13  C   UNL     1     169.965 161.050 187.485  1.00  0.00     0.006 C 
BRANCH  13  14
ATOM     14  C   UNL     1     171.346 160.405 187.289  1.00  0.00     0.053 C 
BRANCH  14  15
ATOM     15  C   UNL     1     172.458 161.351 187.625  1.00  0.00     0.041 C 
ATOM     16  O   UNL     1     173.596 161.199 187.106  1.00  0.00    -0.550 OA
ATOM     17  O   UNL     1     172.230 162.415 188.489  1.00  0.00    -0.550 OA
ENDBRANCH  14  15
ENDBRANCH  13  14
ENDBRANCH  12  13
ENDBRANCH  11  12
ENDBRANCH  10  11
ENDBRANCH   9  10
ENDBRANCH   8   9
ENDBRANCH   7   8
ENDBRANCH   6   7
ENDBRANCH   5   6
ENDBRANCH   4   5
ENDBRANCH   3   4
ENDBRANCH   2   3
ENDBRANCH   1   2
BRANCH   1  18
ATOM     18  C   UNL     1     162.326 165.143 185.892  1.00  0.00     0.000 C 
BRANCH  18  19
ATOM     19  C   UNL     1     162.017 165.364 187.389  1.00  0.00     0.000 C 
BRANCH  19  20
ATOM     20  C   UNL     1     160.578 164.968 187.763  1.00  0.00     0.000 C 
BRANCH  20  21
ATOM     21  C   UNL     1     160.508 163.638 188.530  1.00  0.00     0.000 C 
BRANCH  21  22
ATOM     22  C   UNL     1     161.899 163.104 188.917  1.00  0.00     0.000 C 
BRANCH  22  23
ATOM     23  C   UNL     1     162.172 161.710 188.331  1.00  0.00     0.000 C 
BRANCH  23  24
ATOM     24  C   UNL     1     161.391 161.451 187.031  1.00  0.00    -0.000 C 
BRANCH  24  25
ATOM     25  C   UNL     1     162.304 161.353 185.796  1.00  0.00    -0.000 C 
BRANCH  25  26
ATOM     26  C   UNL     1     163.765 160.946 186.083  1.00  0.00    -0.000 C 
BRANCH  26  27
ATOM     27  C   UNL     1     164.683 160.849 184.847  1.00  0.00    -0.000 C 
BRANCH  27  28
ATOM     28  C   UNL     1     163.979 161.102 183.497  1.00  0.00    -0.000 C 
BRANCH  28  29
ATOM     29  C   UNL     1     164.226 162.503 182.905  1.00  0.00    -0.000 C 
BRANCH  29  30
ATOM     30  C   UNL     1     163.412 162.796 181.629  1.00  0.00    -0.000 C 
BRANCH  30  31
ATOM     31  C   UNL     1     162.006 162.181 181.684  1.00  0.00    -0.003 C 
ATOM     32  C   UNL     1     161.389 162.099 180.291  1.00  0.00     0.004 C 
ENDBRANCH  30  31
ENDBRANCH  29  30
ENDBRANCH  28  29
ENDBRANCH  27  28
ENDBRANCH  26  27
ENDBRANCH  25  26
ENDBRANCH  24  25
ENDBRANCH  23  24
ENDBRANCH  22  23
ENDBRANCH  21  22
ENDBRANCH  20  21
ENDBRANCH  19  20
ENDBRANCH  18  19
ENDBRANCH   1  18
TORSDOF 28
ENDMDL
MODEL 9
REMARK VINA RESULT:    -3.166      2.012      6.013
REMARK INTER + INTRA:         -14.346
REMARK INTER:                  -8.465
REMARK INTRA:                  -5.881
REMARK UNBOUND:                -5.998
REMARK SMILES CCCCCCCCCCCCCCCCCCCCCCCCCCCCCC(=O)[O-]
REMARK SMILES IDX 16 1 17 2 18 3 19 4 20 5 21 6 22 7 23 8 24 9 25 10 26 11
REMARK SMILES IDX 27 12 28 13 29 14 30 15 31 16 32 17 15 18 14 19 13 20 12 21
REMARK SMILES IDX 11 22 10 23 9 24 8 25 7 26 6 27 5 28 4 29 3 30 2 31 1 32
REMARK H PARENT
REMARK Flexibility Score: inf
ROOT
ATOM      1  C   UNL     1     161.550 162.980 183.471  1.00  0.00     0.000 C 
ENDROOT
BRANCH   1   2
ATOM      2  C   UNL     1     162.095 162.556 182.094  1.00  0.00     0.000 C 
BRANCH   2   3
ATOM      3  C   UNL     1     162.958 161.280 182.093  1.00  0.00     0.000 C 
BRANCH   3   4
ATOM      4  C   UNL     1     164.429 161.540 181.735  1.00  0.00     0.000 C 
BRANCH   4   5
ATOM      5  C   UNL     1     165.367 160.693 182.609  1.00  0.00     0.000 C 
BRANCH   5   6
ATOM      6  C   UNL     1     164.640 160.044 183.806  1.00  0.00     0.000 C 
BRANCH   6   7
ATOM      7  C   UNL     1     165.309 160.303 185.165  1.00  0.00     0.000 C 
BRANCH   7   8
ATOM      8  C   UNL     1     165.892 161.723 185.291  1.00  0.00     0.000 C 
BRANCH   8   9
ATOM      9  C   UNL     1     164.809 162.821 185.362  1.00  0.00     0.000 C 
BRANCH   9  10
ATOM     10  C   UNL     1     165.137 164.091 184.553  1.00  0.00     0.000 C 
BRANCH  10  11
ATOM     11  C   UNL     1     164.600 165.407 185.146  1.00  0.00     0.000 C 
BRANCH  11  12
ATOM     12  C   UNL     1     163.093 165.657 184.933  1.00  0.00     0.000 C 
BRANCH  12  13
ATOM     13  C   UNL     1     162.218 165.502 186.194  1.00  0.00     0.006 C 
BRANCH  13  14
ATOM     14  C   UNL     1     162.870 166.023 187.484  1.00  0.00     0.053 C 
BRANCH  14  15
ATOM     15  C   UNL     1     162.761 167.512 187.605  1.00  0.00     0.041 C 
ATOM     16  O   UNL     1     161.669 168.041 187.940  1.00  0.00    -0.550 OA
ATOM     17  O   UNL     1     163.874 168.312 187.375  1.00  0.00    -0.550 OA
ENDBRANCH  14  15
ENDBRANCH  13  14
ENDBRANCH  12  13
ENDBRANCH  11  12
ENDBRANCH  10  11
ENDBRANCH   9  10
ENDBRANCH   8   9
ENDBRANCH   7   8
ENDBRANCH   6   7
ENDBRANCH   5   6
ENDBRANCH   4   5
ENDBRANCH   3   4
ENDBRANCH   2   3
ENDBRANCH   1   2
BRANCH   1  18
ATOM     18  C   UNL     1     161.324 161.832 184.472  1.00  0.00     0.000 C 
BRANCH  18  19
ATOM     19  C   UNL     1     159.893 161.775 185.052  1.00  0.00     0.000 C 
BRANCH  19  20
ATOM     20  C   UNL     1     159.879 161.522 186.569  1.00  0.00     0.000 C 
BRANCH  20  21
ATOM     21  C   UNL     1     159.969 162.820 187.389  1.00  0.00     0.000 C 
BRANCH  21  22
ATOM     22  C   UNL     1     161.061 162.763 188.470  1.00  0.00     0.000 C 
BRANCH  22  23
ATOM     23  C   UNL     1     161.775 161.403 188.508  1.00  0.00     0.000 C 
BRANCH  23  24
ATOM     24  C   UNL     1     163.307 161.536 188.452  1.00  0.00    -0.000 C 
BRANCH  24  25
ATOM     25  C   UNL     1     164.033 160.223 188.796  1.00  0.00    -0.000 C 
BRANCH  25  26
ATOM     26  C   UNL     1     165.574 160.280 188.730  1.00  0.00    -0.000 C 
BRANCH  26  27
ATOM     27  C   UNL     1     166.271 160.863 189.977  1.00  0.00    -0.000 C 
BRANCH  27  28
ATOM     28  C   UNL     1     166.704 162.339 189.846  1.00  0.00    -0.000 C 
BRANCH  28  29
ATOM     29  C   UNL     1     167.763 162.596 188.758  1.00  0.00    -0.000 C 
BRANCH  29  30
ATOM     30  C   UNL     1     167.464 163.819 187.869  1.00  0.00    -0.000 C 
BRANCH  30  31
ATOM     31  C   UNL     1     166.567 164.846 188.578  1.00  0.00    -0.003 C 
ATOM     32  C   UNL     1     166.699 166.224 187.937  1.00  0.00     0.004 C 
ENDBRANCH  30  31
ENDBRANCH  29  30
ENDBRANCH  28  29
ENDBRANCH  27  28
ENDBRANCH  26  27
ENDBRANCH  25  26
ENDBRANCH  24  25
ENDBRANCH  23  24
ENDBRANCH  22  23
ENDBRANCH  21  22
ENDBRANCH  20  21
ENDBRANCH  19  20
ENDBRANCH  18  19
ENDBRANCH   1  18
TORSDOF 28
ENDMDL
