MODEL 1
REMARK VINA RESULT:    -5.489      0.000      0.000
REMARK INTER + INTRA:          -5.650
REMARK INTER:                  -5.650
REMARK INTRA:                   0.000
REMARK UNBOUND:                 0.000
REMARK SMILES Oc1ccc2[nH]ccc2c1
REMARK SMILES IDX 3 1 4 2 5 3 9 4 8 5 7 6 6 7 10 8 2 9 1 11
REMARK H PARENT 6 10 1 12
REMARK Flexibility Score: inf
ROOT
ATOM      1  C   UNL     1     -20.261 -26.270 -19.253  1.00  0.00     0.048 A 
ATOM      2  C   UNL     1     -21.076 -27.363 -18.905  1.00  0.00     0.030 A 
ATOM      3  C   UNL     1     -21.929 -27.216 -17.812  1.00  0.00     0.046 A 
ATOM      4  C   UNL     1     -21.982 -26.052 -17.092  1.00  0.00     0.003 A 
ATOM      5  C   UNL     1     -22.912 -26.230 -16.090  1.00  0.00     0.028 A 
ATOM      6  C   UNL     1     -23.387 -27.527 -16.261  1.00  0.00     0.083 A 
ATOM      7  N   UNL     1     -22.783 -28.125 -17.314  1.00  0.00    -0.361 N 
ATOM      8  C   UNL     1     -21.189 -24.953 -17.410  1.00  0.00     0.056 A 
ATOM      9  C   UNL     1     -20.315 -25.067 -18.511  1.00  0.00     0.116 A 
ATOM     10  H   UNL     1     -22.950 -29.095 -17.664  1.00  0.00     0.166 HD
ENDROOT
BRANCH   9  11
ATOM     11  O   UNL     1     -19.497 -24.001 -18.876  1.00  0.00    -0.508 OA
ATOM     12  H   UNL     1     -18.706 -24.130 -19.497  1.00  0.00     0.293 HD
ENDBRANCH   9  11
TORSDOF 1
ENDMDL
MODEL 2
REMARK VINA RESULT:    -5.425      2.633      4.075
REMARK INTER + INTRA:          -5.584
REMARK INTER:                  -5.584
REMARK INTRA:                   0.000
REMARK UNBOUND:                 0.000
REMARK SMILES Oc1ccc2[nH]ccc2c1
REMARK SMILES IDX 3 1 4 2 5 3 9 4 8 5 7 6 6 7 10 8 2 9 1 11
REMARK H PARENT 6 10 1 12
REMARK Flexibility Score: inf
ROOT
ATOM      1  C   UNL     1     -22.886 -26.314 -15.717  1.00  0.00     0.048 A 
ATOM      2  C   UNL     1     -21.805 -25.468 -16.029  1.00  0.00     0.030 A 
ATOM      3  C   UNL     1     -21.200 -25.619 -17.275  1.00  0.00     0.046 A 
ATOM      4  C   UNL     1     -21.632 -26.556 -18.177  1.00  0.00     0.003 A 
ATOM      5  C   UNL     1     -20.834 -26.450 -19.296  1.00  0.00     0.028 A 
ATOM      6  C   UNL     1     -19.937 -25.426 -19.006  1.00  0.00     0.083 A 
ATOM      7  N   UNL     1     -20.164 -24.922 -17.771  1.00  0.00    -0.361 N 
ATOM      8  C   UNL     1     -22.697 -27.408 -17.899  1.00  0.00     0.056 A 
ATOM      9  C   UNL     1     -23.334 -27.282 -16.647  1.00  0.00     0.116 A 
ATOM     10  H   UNL     1     -19.639 -24.150 -17.303  1.00  0.00     0.166 HD
ENDROOT
BRANCH   9  11
ATOM     11  O   UNL     1     -24.405 -28.106 -16.313  1.00  0.00    -0.508 OA
ATOM     12  H   UNL     1     -24.516 -28.473 -15.374  1.00  0.00     0.293 HD
ENDBRANCH   9  11
TORSDOF 1
ENDMDL
MODEL 3
REMARK VINA RESULT:    -4.910      2.270      3.526
REMARK INTER + INTRA:          -5.053
REMARK INTER:                  -5.053
REMARK INTRA:                   0.000
REMARK UNBOUND:                 0.000
REMARK SMILES Oc1ccc2[nH]ccc2c1
REMARK SMILES IDX 3 1 4 2 5 3 9 4 8 5 7 6 6 7 10 8 2 9 1 11
REMARK H PARENT 6 10 1 12
REMARK Flexibility Score: inf
ROOT
ATOM      1  C   UNL     1     -23.305 -27.373 -16.435  1.00  0.00     0.048 A 
ATOM      2  C   UNL     1     -22.656 -27.692 -17.642  1.00  0.00     0.030 A 
ATOM      3  C   UNL     1     -21.652 -26.834 -18.087  1.00  0.00     0.046 A 
ATOM      4  C   UNL     1     -21.298 -25.714 -17.384  1.00  0.00     0.003 A 
ATOM      5  C   UNL     1     -20.288 -25.090 -18.083  1.00  0.00     0.028 A 
ATOM      6  C   UNL     1     -20.076 -25.887 -19.204  1.00  0.00     0.083 A 
ATOM      7  N   UNL     1     -20.912 -26.951 -19.202  1.00  0.00    -0.361 N 
ATOM      8  C   UNL     1     -21.921 -25.369 -16.187  1.00  0.00     0.056 A 
ATOM      9  C   UNL     1     -22.941 -26.216 -15.707  1.00  0.00     0.116 A 
ATOM     10  H   UNL     1     -20.967 -27.706 -19.922  1.00  0.00     0.166 HD
ENDROOT
BRANCH   9  11
ATOM     11  O   UNL     1     -23.600 -25.922 -14.516  1.00  0.00    -0.508 OA
ATOM     12  H   UNL     1     -24.541 -25.547 -14.511  1.00  0.00     0.293 HD
ENDBRANCH   9  11
TORSDOF 1
ENDMDL
MODEL 4
REMARK VINA RESULT:    -4.903     13.176     14.252
REMARK INTER + INTRA:          -5.047
REMARK INTER:                  -5.047
REMARK INTRA:                   0.000
REMARK UNBOUND:                 0.000
REMARK SMILES Oc1ccc2[nH]ccc2c1
REMARK SMILES IDX 3 1 4 2 5 3 9 4 8 5 7 6 6 7 10 8 2 9 1 11
REMARK H PARENT 6 10 1 12
REMARK Flexibility Score: inf
ROOT
ATOM      1  C   UNL     1      -7.185 -25.532 -21.189  1.00  0.00     0.048 A 
ATOM      2  C   UNL     1      -6.364 -24.777 -20.330  1.00  0.00     0.030 A 
ATOM      3  C   UNL     1      -6.977 -24.078 -19.293  1.00  0.00     0.046 A 
ATOM      4  C   UNL     1      -8.333 -24.113 -19.103  1.00  0.00     0.003 A 
ATOM      5  C   UNL     1      -8.617 -23.327 -18.008  1.00  0.00     0.028 A 
ATOM      6  C   UNL     1      -7.385 -22.842 -17.580  1.00  0.00     0.083 A 
ATOM      7  N   UNL     1      -6.386 -23.304 -18.367  1.00  0.00    -0.361 N 
ATOM      8  C   UNL     1      -9.174 -24.849 -19.935  1.00  0.00     0.056 A 
ATOM      9  C   UNL     1      -8.586 -25.570 -20.995  1.00  0.00     0.116 A 
ATOM     10  H   UNL     1      -5.367 -23.097 -18.273  1.00  0.00     0.166 HD
ENDROOT
BRANCH   9  11
ATOM     11  O   UNL     1      -9.375 -26.325 -21.859  1.00  0.00    -0.508 OA
ATOM     12  H   UNL     1      -8.982 -27.080 -22.410  1.00  0.00     0.293 HD
ENDBRANCH   9  11
TORSDOF 1
ENDMDL
MODEL 5
REMARK VINA RESULT:    -4.860     13.396     14.782
REMARK INTER + INTRA:          -5.002
REMARK INTER:                  -5.002
REMARK INTRA:                   0.000
REMARK UNBOUND:                 0.000
REMARK SMILES Oc1ccc2[nH]ccc2c1
REMARK SMILES IDX 3 1 4 2 5 3 9 4 8 5 7 6 6 7 10 8 2 9 1 11
REMARK H PARENT 6 10 1 12
REMARK Flexibility Score: inf
ROOT
ATOM      1  C   UNL     1      -9.192 -24.062 -19.618  1.00  0.00     0.048 A 
ATOM      2  C   UNL     1      -8.782 -24.917 -20.659  1.00  0.00     0.030 A 
ATOM      3  C   UNL     1      -7.432 -25.254 -20.729  1.00  0.00     0.046 A 
ATOM      4  C   UNL     1      -6.522 -24.778 -19.823  1.00  0.00     0.003 A 
ATOM      5  C   UNL     1      -5.290 -25.291 -20.165  1.00  0.00     0.028 A 
ATOM      6  C   UNL     1      -5.524 -26.074 -21.292  1.00  0.00     0.083 A 
ATOM      7  N   UNL     1      -6.833 -26.049 -21.632  1.00  0.00    -0.361 N 
ATOM      8  C   UNL     1      -6.895 -23.930 -18.782  1.00  0.00     0.056 A 
ATOM      9  C   UNL     1      -8.255 -23.568 -18.681  1.00  0.00     0.116 A 
ATOM     10  H   UNL     1      -7.283 -26.545 -22.434  1.00  0.00     0.166 HD
ENDROOT
BRANCH   9  11
ATOM     11  O   UNL     1      -8.687 -22.724 -17.662  1.00  0.00    -0.508 OA
ATOM     12  H   UNL     1      -9.435 -22.057 -17.811  1.00  0.00     0.293 HD
ENDBRANCH   9  11
TORSDOF 1
ENDMDL
MODEL 6
REMARK VINA RESULT:    -4.711     14.837     16.096
REMARK INTER + INTRA:          -4.849
REMARK INTER:                  -4.849
REMARK INTRA:                   0.000
REMARK UNBOUND:                 0.000
REMARK SMILES Oc1ccc2[nH]ccc2c1
REMARK SMILES IDX 3 1 4 2 5 3 9 4 8 5 7 6 6 7 10 8 2 9 1 11
REMARK H PARENT 6 10 1 12
REMARK Flexibility Score: inf
ROOT
ATOM      1  C   UNL     1      -6.700 -22.891 -15.161  1.00  0.00     0.048 A 
ATOM      2  C   UNL     1      -5.795 -21.918 -15.626  1.00  0.00     0.030 A 
ATOM      3  C   UNL     1      -5.727 -21.699 -17.001  1.00  0.00     0.046 A 
ATOM      4  C   UNL     1      -6.507 -22.399 -17.882  1.00  0.00     0.003 A 
ATOM      5  C   UNL     1      -6.202 -21.951 -19.149  1.00  0.00     0.028 A 
ATOM      6  C   UNL     1      -5.227 -20.976 -18.964  1.00  0.00     0.083 A 
ATOM      7  N   UNL     1      -4.940 -20.825 -17.651  1.00  0.00    -0.361 N 
ATOM      8  C   UNL     1      -7.411 -23.369 -17.455  1.00  0.00     0.056 A 
ATOM      9  C   UNL     1      -7.507 -23.616 -16.069  1.00  0.00     0.116 A 
ATOM     10  H   UNL     1      -4.247 -20.165 -17.232  1.00  0.00     0.166 HD
ENDROOT
BRANCH   9  11
ATOM     11  O   UNL     1      -8.393 -24.573 -15.582  1.00  0.00    -0.508 OA
ATOM     12  H   UNL     1      -8.091 -25.520 -15.384  1.00  0.00     0.293 HD
ENDBRANCH   9  11
TORSDOF 1
ENDMDL
MODEL 7
REMARK VINA RESULT:    -4.648     13.106     14.394
REMARK INTER + INTRA:          -4.783
REMARK INTER:                  -4.783
REMARK INTRA:                   0.000
REMARK UNBOUND:                 0.000
REMARK SMILES Oc1ccc2[nH]ccc2c1
REMARK SMILES IDX 3 1 4 2 5 3 9 4 8 5 7 6 6 7 10 8 2 9 1 11
REMARK H PARENT 6 10 1 12
REMARK Flexibility Score: inf
ROOT
ATOM      1  C   UNL     1      -8.631 -25.269 -20.757  1.00  0.00     0.048 A 
ATOM      2  C   UNL     1      -9.236 -24.488 -19.755  1.00  0.00     0.030 A 
ATOM      3  C   UNL     1      -8.403 -23.832 -18.851  1.00  0.00     0.046 A 
ATOM      4  C   UNL     1      -7.040 -23.933 -18.923  1.00  0.00     0.003 A 
ATOM      5  C   UNL     1      -6.514 -23.175 -17.900  1.00  0.00     0.028 A 
ATOM      6  C   UNL     1      -7.618 -22.638 -17.243  1.00  0.00     0.083 A 
ATOM      7  N   UNL     1      -8.769 -23.042 -17.827  1.00  0.00    -0.361 N 
ATOM      8  C   UNL     1      -6.409 -24.698 -19.902  1.00  0.00     0.056 A 
ATOM      9  C   UNL     1      -7.223 -25.376 -20.834  1.00  0.00     0.116 A 
ATOM     10  H   UNL     1      -9.741 -22.790 -17.539  1.00  0.00     0.166 HD
ENDROOT
BRANCH   9  11
ATOM     11  O   UNL     1      -6.650 -26.156 -21.835  1.00  0.00    -0.508 OA
ATOM     12  H   UNL     1      -7.085 -27.017 -22.148  1.00  0.00     0.293 HD
ENDBRANCH   9  11
TORSDOF 1
ENDMDL
MODEL 8
REMARK VINA RESULT:    -4.588     13.473     14.939
REMARK INTER + INTRA:          -4.722
REMARK INTER:                  -4.722
REMARK INTRA:                   0.000
REMARK UNBOUND:                 0.000
REMARK SMILES Oc1ccc2[nH]ccc2c1
REMARK SMILES IDX 3 1 4 2 5 3 9 4 8 5 7 6 6 7 10 8 2 9 1 11
REMARK H PARENT 6 10 1 12
REMARK Flexibility Score: inf
ROOT
ATOM      1  C   UNL     1      -9.328 -24.923 -20.133  1.00  0.00     0.048 A 
ATOM      2  C   UNL     1      -8.627 -23.976 -19.364  1.00  0.00     0.030 A 
ATOM      3  C   UNL     1      -7.262 -23.826 -19.602  1.00  0.00     0.046 A 
ATOM      4  C   UNL     1      -6.611 -24.570 -20.550  1.00  0.00     0.003 A 
ATOM      5  C   UNL     1      -5.287 -24.187 -20.537  1.00  0.00     0.028 A 
ATOM      6  C   UNL     1      -5.203 -23.204 -19.556  1.00  0.00     0.083 A 
ATOM      7  N   UNL     1      -6.412 -22.987 -18.988  1.00  0.00    -0.361 N 
ATOM      8  C   UNL     1      -7.274 -25.517 -21.327  1.00  0.00     0.056 A 
ATOM      9  C   UNL     1      -8.657 -25.693 -21.112  1.00  0.00     0.116 A 
ATOM     10  H   UNL     1      -6.634 -22.306 -18.227  1.00  0.00     0.166 HD
ENDROOT
BRANCH   9  11
ATOM     11  O   UNL     1      -9.375 -26.624 -21.858  1.00  0.00    -0.508 OA
ATOM     12  H   UNL     1      -8.906 -27.355 -22.383  1.00  0.00     0.293 HD
ENDBRANCH   9  11
TORSDOF 1
ENDMDL
MODEL 9
REMARK VINA RESULT:    -4.557     13.745     15.182
REMARK INTER + INTRA:          -4.690
REMARK INTER:                  -4.690
REMARK INTRA:                   0.000
REMARK UNBOUND:                 0.000
REMARK SMILES Oc1ccc2[nH]ccc2c1
REMARK SMILES IDX 3 1 4 2 5 3 9 4 8 5 7 6 6 7 10 8 2 9 1 11
REMARK H PARENT 6 10 1 12
REMARK Flexibility Score: inf
ROOT
ATOM      1  C   UNL     1      -8.739 -23.399 -20.241  1.00  0.00     0.048 A 
ATOM      2  C   UNL     1      -8.251 -24.719 -20.269  1.00  0.00     0.030 A 
ATOM      3  C   UNL     1      -7.201 -25.006 -21.139  1.00  0.00     0.046 A 
ATOM      4  C   UNL     1      -6.652 -24.046 -21.946  1.00  0.00     0.003 A 
ATOM      5  C   UNL     1      -5.648 -24.645 -22.676  1.00  0.00     0.028 A 
ATOM      6  C   UNL     1      -5.641 -25.973 -22.260  1.00  0.00     0.083 A 
ATOM      7  N   UNL     1      -6.590 -26.189 -21.322  1.00  0.00    -0.361 N 
ATOM      8  C   UNL     1      -7.112 -22.732 -21.944  1.00  0.00     0.056 A 
ATOM      9  C   UNL     1      -8.174 -22.406 -21.074  1.00  0.00     0.116 A 
ATOM     10  H   UNL     1      -6.803 -27.091 -20.841  1.00  0.00     0.166 HD
ENDROOT
BRANCH   9  11
ATOM     11  O   UNL     1      -8.675 -21.108 -21.027  1.00  0.00    -0.508 OA
ATOM     12  H   UNL     1      -9.583 -20.907 -20.623  1.00  0.00     0.293 HD
ENDBRANCH   9  11
TORSDOF 1
ENDMDL
