MODEL 1
REMARK VINA RESULT:    -7.149      0.000      0.000
REMARK INTER + INTRA:         -10.164
REMARK INTER:                  -9.657
REMARK INTRA:                  -0.507
REMARK UNBOUND:                -0.507
REMARK SMILES COc1ccc(-c2cc(=O)c3c(OC)c(OC)c(OC)cc3o2)cc1OC
REMARK SMILES IDX 7 1 8 2 9 3 10 4 11 5 12 6 15 7 18 8 21 9 22 10 23 11 6 12
REMARK SMILES IDX 3 13 25 14 4 15 24 16 5 17 2 18 1 19 26 20 27 21 13 22 14 23
REMARK SMILES IDX 19 24 20 25 16 26 17 27
REMARK H PARENT
REMARK Flexibility Score: inf
ROOT
ATOM      1  C   UNL     1     165.543 151.978 149.052  1.00  0.00     0.138 A 
ATOM      2  C   UNL     1     166.474 151.721 148.034  1.00  0.00     0.100 A 
ATOM      3  C   UNL     1     166.461 150.485 147.387  1.00  0.00     0.197 A 
ATOM      4  O   UNL     1     167.326 150.254 146.501  1.00  0.00    -0.289 OA
ATOM      5  C   UNL     1     165.502 149.514 147.754  1.00  0.00     0.111 A 
ATOM      6  C   UNL     1     165.396 148.248 147.126  1.00  0.00     0.179 A 
ATOM      7  C   UNL     1     164.489 147.283 147.635  1.00  0.00     0.204 A 
ATOM      8  C   UNL     1     163.621 147.628 148.683  1.00  0.00     0.168 A 
ATOM      9  C   UNL     1     163.686 148.908 149.255  1.00  0.00     0.098 A 
ATOM     10  C   UNL     1     164.624 149.837 148.811  1.00  0.00     0.146 A 
ATOM     11  O   UNL     1     164.677 151.029 149.399  1.00  0.00    -0.456 OA
ENDROOT
BRANCH   1  12
ATOM     12  C   UNL     1     165.510 153.275 149.773  1.00  0.00     0.021 A 
ATOM     13  C   UNL     1     165.506 155.751 151.131  1.00  0.00     0.160 A 
ATOM     14  C   UNL     1     164.560 154.770 151.463  1.00  0.00     0.161 A 
ATOM     15  C   UNL     1     166.458 155.486 150.129  1.00  0.00     0.051 A 
ATOM     16  C   UNL     1     164.568 153.535 150.785  1.00  0.00     0.062 A 
ATOM     17  C   UNL     1     166.460 154.260 149.463  1.00  0.00     0.016 A 
BRANCH  13  18
ATOM     18  O   UNL     1     165.471 156.973 151.821  1.00  0.00    -0.493 OA
ATOM     19  C   UNL     1     165.541 158.253 151.199  1.00  0.00     0.278 C 
ENDBRANCH  13  18
BRANCH  14  20
ATOM     20  O   UNL     1     163.630 155.060 152.474  1.00  0.00    -0.493 OA
ATOM     21  C   UNL     1     163.603 154.431 153.752  1.00  0.00     0.278 C 
ENDBRANCH  14  20
ENDBRANCH   1  12
BRANCH   6  22
ATOM     22  O   UNL     1     166.154 147.964 145.988  1.00  0.00    -0.492 OA
ATOM     23  C   UNL     1     167.225 147.027 146.033  1.00  0.00     0.278 C 
ENDBRANCH   6  22
BRANCH   8  24
ATOM     24  O   UNL     1     162.708 146.659 149.133  1.00  0.00    -0.493 OA
ATOM     25  C   UNL     1     161.764 146.863 150.180  1.00  0.00     0.278 C 
ENDBRANCH   8  24
BRANCH   7  26
ATOM     26  O   UNL     1     164.402 145.967 147.145  1.00  0.00    -0.490 OA
ATOM     27  C   UNL     1     163.617 145.536 146.037  1.00  0.00     0.278 C 
ENDBRANCH   7  26
TORSDOF 6
ENDMDL
MODEL 2
REMARK VINA RESULT:    -7.147      9.162     10.384
REMARK INTER + INTRA:         -10.161
REMARK INTER:                  -9.500
REMARK INTRA:                  -0.662
REMARK UNBOUND:                -0.507
REMARK SMILES COc1ccc(-c2cc(=O)c3c(OC)c(OC)c(OC)cc3o2)cc1OC
REMARK SMILES IDX 7 1 8 2 9 3 10 4 11 5 12 6 15 7 18 8 21 9 22 10 23 11 6 12
REMARK SMILES IDX 3 13 25 14 4 15 24 16 5 17 2 18 1 19 26 20 27 21 13 22 14 23
REMARK SMILES IDX 19 24 20 25 16 26 17 27
REMARK H PARENT
REMARK Flexibility Score: inf
ROOT
ATOM      1  C   UNL     1     169.625 145.360 154.163  1.00  0.00     0.138 A 
ATOM      2  C   UNL     1     168.983 145.316 152.916  1.00  0.00     0.100 A 
ATOM      3  C   UNL     1     169.469 144.464 151.923  1.00  0.00     0.197 A 
ATOM      4  O   UNL     1     168.906 144.463 150.796  1.00  0.00    -0.289 OA
ATOM      5  C   UNL     1     170.589 143.646 152.191  1.00  0.00     0.111 A 
ATOM      6  C   UNL     1     171.125 142.728 151.253  1.00  0.00     0.179 A 
ATOM      7  C   UNL     1     172.325 142.034 151.553  1.00  0.00     0.204 A 
ATOM      8  C   UNL     1     172.911 142.173 152.821  1.00  0.00     0.168 A 
ATOM      9  C   UNL     1     172.336 143.033 153.770  1.00  0.00     0.098 A 
ATOM     10  C   UNL     1     171.199 143.775 153.458  1.00  0.00     0.146 A 
ATOM     11  O   UNL     1     170.701 144.604 154.370  1.00  0.00    -0.456 OA
ENDROOT
BRANCH   1  12
ATOM     12  C   UNL     1     169.152 146.246 155.256  1.00  0.00     0.021 A 
ATOM     13  C   UNL     1     168.200 147.941 157.304  1.00  0.00     0.160 A 
ATOM     14  C   UNL     1     169.579 147.734 157.152  1.00  0.00     0.161 A 
ATOM     15  C   UNL     1     167.303 147.309 156.423  1.00  0.00     0.051 A 
ATOM     16  C   UNL     1     170.050 146.890 156.127  1.00  0.00     0.062 A 
ATOM     17  C   UNL     1     167.776 146.475 155.410  1.00  0.00     0.016 A 
BRANCH  13  18
ATOM     18  O   UNL     1     167.761 148.784 158.337  1.00  0.00    -0.493 OA
ATOM     19  C   UNL     1     166.797 148.420 159.320  1.00  0.00     0.278 C 
ENDBRANCH  13  18
BRANCH  14  20
ATOM     20  O   UNL     1     170.450 148.386 158.040  1.00  0.00    -0.493 OA
ATOM     21  C   UNL     1     171.576 147.776 158.662  1.00  0.00     0.278 C 
ENDBRANCH  14  20
ENDBRANCH   1  12
BRANCH   6  22
ATOM     22  O   UNL     1     170.455 142.479 150.053  1.00  0.00    -0.492 OA
ATOM     23  C   UNL     1     169.656 141.313 149.885  1.00  0.00     0.278 C 
ENDBRANCH   6  22
BRANCH   8  24
ATOM     24  O   UNL     1     174.076 141.438 153.097  1.00  0.00    -0.493 OA
ATOM     25  C   UNL     1     175.350 142.014 153.370  1.00  0.00     0.278 C 
ENDBRANCH   8  24
BRANCH   7  26
ATOM     26  O   UNL     1     172.984 141.194 150.637  1.00  0.00    -0.490 OA
ATOM     27  C   UNL     1     174.023 141.580 149.743  1.00  0.00     0.278 C 
ENDBRANCH   7  26
TORSDOF 6
ENDMDL
MODEL 3
REMARK VINA RESULT:    -7.032      7.643      8.945
REMARK INTER + INTRA:         -10.006
REMARK INTER:                  -9.408
REMARK INTRA:                  -0.598
REMARK UNBOUND:                -0.507
REMARK SMILES COc1ccc(-c2cc(=O)c3c(OC)c(OC)c(OC)cc3o2)cc1OC
REMARK SMILES IDX 7 1 8 2 9 3 10 4 11 5 12 6 15 7 18 8 21 9 22 10 23 11 6 12
REMARK SMILES IDX 3 13 25 14 4 15 24 16 5 17 2 18 1 19 26 20 27 21 13 22 14 23
REMARK SMILES IDX 19 24 20 25 16 26 17 27
REMARK H PARENT
REMARK Flexibility Score: inf
ROOT
ATOM      1  C   UNL     1     168.581 145.379 153.719  1.00  0.00     0.138 A 
ATOM      2  C   UNL     1     168.086 144.066 153.703  1.00  0.00     0.100 A 
ATOM      3  C   UNL     1     168.135 143.328 152.520  1.00  0.00     0.197 A 
ATOM      4  O   UNL     1     167.653 142.164 152.511  1.00  0.00    -0.289 OA
ATOM      5  C   UNL     1     168.694 143.905 151.359  1.00  0.00     0.111 A 
ATOM      6  C   UNL     1     168.815 143.215 150.127  1.00  0.00     0.179 A 
ATOM      7  C   UNL     1     169.274 143.904 148.975  1.00  0.00     0.204 A 
ATOM      8  C   UNL     1     169.715 145.232 149.087  1.00  0.00     0.168 A 
ATOM      9  C   UNL     1     169.656 145.888 150.327  1.00  0.00     0.098 A 
ATOM     10  C   UNL     1     169.138 145.243 151.448  1.00  0.00     0.146 A 
ATOM     11  O   UNL     1     169.067 145.906 152.598  1.00  0.00    -0.456 OA
ENDROOT
BRANCH   1  12
ATOM     12  C   UNL     1     168.555 146.211 154.948  1.00  0.00     0.021 A 
ATOM     13  C   UNL     1     168.453 147.815 157.269  1.00  0.00     0.160 A 
ATOM     14  C   UNL     1     169.690 147.374 156.779  1.00  0.00     0.161 A 
ATOM     15  C   UNL     1     167.272 147.462 156.591  1.00  0.00     0.051 A 
ATOM     16  C   UNL     1     169.737 146.577 155.618  1.00  0.00     0.062 A 
ATOM     17  C   UNL     1     167.326 146.673 155.442  1.00  0.00     0.016 A 
BRANCH  13  18
ATOM     18  O   UNL     1     168.438 148.605 158.430  1.00  0.00    -0.493 OA
ATOM     19  C   UNL     1     167.314 148.749 159.293  1.00  0.00     0.278 C 
ENDBRANCH  13  18
BRANCH  14  20
ATOM     20  O   UNL     1     170.852 147.752 157.471  1.00  0.00    -0.493 OA
ATOM     21  C   UNL     1     171.743 146.843 158.111  1.00  0.00     0.278 C 
ENDBRANCH  14  20
ENDBRANCH   1  12
BRANCH   6  22
ATOM     22  O   UNL     1     168.519 141.852 150.054  1.00  0.00    -0.492 OA
ATOM     23  C   UNL     1     169.554 140.875 150.012  1.00  0.00     0.278 C 
ENDBRANCH   6  22
BRANCH   8  24
ATOM     24  O   UNL     1     170.202 145.869 147.934  1.00  0.00    -0.493 OA
ATOM     25  C   UNL     1     170.709 147.199 147.897  1.00  0.00     0.278 C 
ENDBRANCH   8  24
BRANCH   7  26
ATOM     26  O   UNL     1     169.316 143.327 147.692  1.00  0.00    -0.490 OA
ATOM     27  C   UNL     1     168.191 142.964 146.899  1.00  0.00     0.278 C 
ENDBRANCH   7  26
TORSDOF 6
ENDMDL
MODEL 4
REMARK VINA RESULT:    -7.027      3.522      9.405
REMARK INTER + INTRA:          -9.999
REMARK INTER:                  -9.335
REMARK INTRA:                  -0.664
REMARK UNBOUND:                -0.507
REMARK SMILES COc1ccc(-c2cc(=O)c3c(OC)c(OC)c(OC)cc3o2)cc1OC
REMARK SMILES IDX 7 1 8 2 9 3 10 4 11 5 12 6 15 7 18 8 21 9 22 10 23 11 6 12
REMARK SMILES IDX 3 13 25 14 4 15 24 16 5 17 2 18 1 19 26 20 27 21 13 22 14 23
REMARK SMILES IDX 19 24 20 25 16 26 17 27
REMARK H PARENT
REMARK Flexibility Score: inf
ROOT
ATOM      1  C   UNL     1     165.767 147.373 146.983  1.00  0.00     0.138 A 
ATOM      2  C   UNL     1     164.912 148.321 147.566  1.00  0.00     0.100 A 
ATOM      3  C   UNL     1     165.383 149.613 147.808  1.00  0.00     0.197 A 
ATOM      4  O   UNL     1     164.617 150.443 148.366  1.00  0.00    -0.289 OA
ATOM      5  C   UNL     1     166.707 149.952 147.451  1.00  0.00     0.111 A 
ATOM      6  C   UNL     1     167.253 151.247 147.629  1.00  0.00     0.179 A 
ATOM      7  C   UNL     1     168.628 151.476 147.360  1.00  0.00     0.204 A 
ATOM      8  C   UNL     1     169.409 150.448 146.810  1.00  0.00     0.168 A 
ATOM      9  C   UNL     1     168.842 149.186 146.572  1.00  0.00     0.098 A 
ATOM     10  C   UNL     1     167.513 148.932 146.902  1.00  0.00     0.146 A 
ATOM     11  O   UNL     1     167.019 147.715 146.693  1.00  0.00    -0.456 OA
ENDROOT
BRANCH   1  12
ATOM     12  C   UNL     1     165.320 145.986 146.701  1.00  0.00     0.021 A 
ATOM     13  C   UNL     1     164.414 143.361 146.188  1.00  0.00     0.160 A 
ATOM     14  C   UNL     1     165.785 143.608 146.352  1.00  0.00     0.161 A 
ATOM     15  C   UNL     1     163.500 144.426 146.292  1.00  0.00     0.051 A 
ATOM     16  C   UNL     1     166.232 144.918 146.612  1.00  0.00     0.062 A 
ATOM     17  C   UNL     1     163.950 145.721 146.550  1.00  0.00     0.016 A 
BRANCH  13  18
ATOM     18  O   UNL     1     163.999 142.045 145.926  1.00  0.00    -0.493 OA
ATOM     19  C   UNL     1     163.654 141.094 146.928  1.00  0.00     0.278 C 
ENDBRANCH  13  18
BRANCH  14  20
ATOM     20  O   UNL     1     166.671 142.524 146.253  1.00  0.00    -0.493 OA
ATOM     21  C   UNL     1     168.041 142.631 145.877  1.00  0.00     0.278 C 
ENDBRANCH  14  20
ENDBRANCH   1  12
BRANCH   6  22
ATOM     22  O   UNL     1     166.435 152.305 148.033  1.00  0.00    -0.492 OA
ATOM     23  C   UNL     1     165.920 153.239 147.089  1.00  0.00     0.278 C 
ENDBRANCH   6  22
BRANCH   8  24
ATOM     24  O   UNL     1     170.755 150.723 146.518  1.00  0.00    -0.493 OA
ATOM     25  C   UNL     1     171.860 149.972 147.012  1.00  0.00     0.278 C 
ENDBRANCH   8  24
BRANCH   7  26
ATOM     26  O   UNL     1     169.275 152.698 147.617  1.00  0.00    -0.490 OA
ATOM     27  C   UNL     1     169.718 153.161 148.889  1.00  0.00     0.278 C 
ENDBRANCH   7  26
TORSDOF 6
ENDMDL
MODEL 5
REMARK VINA RESULT:    -6.930      3.467      8.517
REMARK INTER + INTRA:          -9.868
REMARK INTER:                  -9.296
REMARK INTRA:                  -0.572
REMARK UNBOUND:                -0.507
REMARK SMILES COc1ccc(-c2cc(=O)c3c(OC)c(OC)c(OC)cc3o2)cc1OC
REMARK SMILES IDX 7 1 8 2 9 3 10 4 11 5 12 6 15 7 18 8 21 9 22 10 23 11 6 12
REMARK SMILES IDX 3 13 25 14 4 15 24 16 5 17 2 18 1 19 26 20 27 21 13 22 14 23
REMARK SMILES IDX 19 24 20 25 16 26 17 27
REMARK H PARENT
REMARK Flexibility Score: inf
ROOT
ATOM      1  C   UNL     1     168.360 152.683 148.814  1.00  0.00     0.138 A 
ATOM      2  C   UNL     1     167.663 153.673 148.105  1.00  0.00     0.100 A 
ATOM      3  C   UNL     1     166.896 154.606 148.804  1.00  0.00     0.197 A 
ATOM      4  O   UNL     1     166.245 155.466 148.153  1.00  0.00    -0.289 OA
ATOM      5  C   UNL     1     166.843 154.551 150.214  1.00  0.00     0.111 A 
ATOM      6  C   UNL     1     166.118 155.479 151.003  1.00  0.00     0.179 A 
ATOM      7  C   UNL     1     166.014 155.283 152.404  1.00  0.00     0.204 A 
ATOM      8  C   UNL     1     166.725 154.239 153.016  1.00  0.00     0.168 A 
ATOM      9  C   UNL     1     167.496 153.364 152.235  1.00  0.00     0.098 A 
ATOM     10  C   UNL     1     167.545 153.504 150.850  1.00  0.00     0.146 A 
ATOM     11  O   UNL     1     168.260 152.636 150.140  1.00  0.00    -0.456 OA
ENDROOT
BRANCH   1  12
ATOM     12  C   UNL     1     169.193 151.665 148.123  1.00  0.00     0.021 A 
ATOM     13  C   UNL     1     170.823 149.770 146.810  1.00  0.00     0.160 A 
ATOM     14  C   UNL     1     169.427 149.686 146.703  1.00  0.00     0.161 A 
ATOM     15  C   UNL     1     171.398 150.809 147.564  1.00  0.00     0.051 A 
ATOM     16  C   UNL     1     168.617 150.636 147.356  1.00  0.00     0.062 A 
ATOM     17  C   UNL     1     170.591 151.747 148.209  1.00  0.00     0.016 A 
BRANCH  13  18
ATOM     18  O   UNL     1     171.603 148.807 146.151  1.00  0.00    -0.493 OA
ATOM     19  C   UNL     1     171.998 147.562 146.719  1.00  0.00     0.278 C 
ENDBRANCH  13  18
BRANCH  14  20
ATOM     20  O   UNL     1     168.882 148.644 145.935  1.00  0.00    -0.493 OA
ATOM     21  C   UNL     1     167.752 147.865 146.315  1.00  0.00     0.278 C 
ENDBRANCH  14  20
ENDBRANCH   1  12
BRANCH   6  22
ATOM     22  O   UNL     1     165.539 156.603 150.409  1.00  0.00    -0.492 OA
ATOM     23  C   UNL     1     165.963 157.918 150.754  1.00  0.00     0.278 C 
ENDBRANCH   6  22
BRANCH   8  24
ATOM     24  O   UNL     1     166.631 154.100 154.410  1.00  0.00    -0.493 OA
ATOM     25  C   UNL     1     165.962 153.033 155.075  1.00  0.00     0.278 C 
ENDBRANCH   8  24
BRANCH   7  26
ATOM     26  O   UNL     1     165.223 156.089 153.243  1.00  0.00    -0.490 OA
ATOM     27  C   UNL     1     163.826 155.940 153.475  1.00  0.00     0.278 C 
ENDBRANCH   7  26
TORSDOF 6
ENDMDL
MODEL 6
REMARK VINA RESULT:    -6.890      1.780      3.665
REMARK INTER + INTRA:          -9.815
REMARK INTER:                  -9.252
REMARK INTRA:                  -0.563
REMARK UNBOUND:                -0.507
REMARK SMILES COc1ccc(-c2cc(=O)c3c(OC)c(OC)c(OC)cc3o2)cc1OC
REMARK SMILES IDX 7 1 8 2 9 3 10 4 11 5 12 6 15 7 18 8 21 9 22 10 23 11 6 12
REMARK SMILES IDX 3 13 25 14 4 15 24 16 5 17 2 18 1 19 26 20 27 21 13 22 14 23
REMARK SMILES IDX 19 24 20 25 16 26 17 27
REMARK H PARENT
REMARK Flexibility Score: inf
ROOT
ATOM      1  C   UNL     1     165.727 152.893 149.380  1.00  0.00     0.138 A 
ATOM      2  C   UNL     1     164.623 152.070 149.110  1.00  0.00     0.100 A 
ATOM      3  C   UNL     1     164.804 150.896 148.379  1.00  0.00     0.197 A 
ATOM      4  O   UNL     1     163.798 150.185 148.112  1.00  0.00    -0.289 OA
ATOM      5  C   UNL     1     166.097 150.543 147.933  1.00  0.00     0.111 A 
ATOM      6  C   UNL     1     166.376 149.353 147.216  1.00  0.00     0.179 A 
ATOM      7  C   UNL     1     167.678 149.131 146.696  1.00  0.00     0.204 A 
ATOM      8  C   UNL     1     168.709 150.035 146.994  1.00  0.00     0.168 A 
ATOM      9  C   UNL     1     168.440 151.178 147.763  1.00  0.00     0.098 A 
ATOM     10  C   UNL     1     167.149 151.442 148.215  1.00  0.00     0.146 A 
ATOM     11  O   UNL     1     166.925 152.551 148.914  1.00  0.00    -0.456 OA
ENDROOT
BRANCH   1  12
ATOM     12  C   UNL     1     165.593 154.153 150.154  1.00  0.00     0.021 A 
ATOM     13  C   UNL     1     165.393 156.568 151.603  1.00  0.00     0.160 A 
ATOM     14  C   UNL     1     164.682 155.437 152.027  1.00  0.00     0.161 A 
ATOM     15  C   UNL     1     166.211 156.485 150.461  1.00  0.00     0.051 A 
ATOM     16  C   UNL     1     164.787 154.233 151.304  1.00  0.00     0.062 A 
ATOM     17  C   UNL     1     166.311 155.289 149.749  1.00  0.00     0.016 A 
BRANCH  13  18
ATOM     18  O   UNL     1     165.265 157.755 152.342  1.00  0.00    -0.493 OA
ATOM     19  C   UNL     1     166.160 158.860 152.256  1.00  0.00     0.278 C 
ENDBRANCH  13  18
BRANCH  14  20
ATOM     20  O   UNL     1     163.882 155.549 153.176  1.00  0.00    -0.493 OA
ATOM     21  C   UNL     1     162.977 154.548 153.632  1.00  0.00     0.278 C 
ENDBRANCH  14  20
ENDBRANCH   1  12
BRANCH   6  22
ATOM     22  O   UNL     1     165.384 148.383 147.052  1.00  0.00    -0.492 OA
ATOM     23  C   UNL     1     165.338 147.229 147.886  1.00  0.00     0.278 C 
ENDBRANCH   6  22
BRANCH   8  24
ATOM     24  O   UNL     1     169.994 149.762 146.497  1.00  0.00    -0.493 OA
ATOM     25  C   UNL     1     171.182 149.759 147.283  1.00  0.00     0.278 C 
ENDBRANCH   8  24
BRANCH   7  26
ATOM     26  O   UNL     1     168.010 148.035 145.879  1.00  0.00    -0.490 OA
ATOM     27  C   UNL     1     168.530 146.786 146.323  1.00  0.00     0.278 C 
ENDBRANCH   7  26
TORSDOF 6
ENDMDL
MODEL 7
REMARK VINA RESULT:    -6.679      8.384     11.645
REMARK INTER + INTRA:          -9.529
REMARK INTER:                  -9.045
REMARK INTRA:                  -0.484
REMARK UNBOUND:                -0.507
REMARK SMILES COc1ccc(-c2cc(=O)c3c(OC)c(OC)c(OC)cc3o2)cc1OC
REMARK SMILES IDX 7 1 8 2 9 3 10 4 11 5 12 6 15 7 18 8 21 9 22 10 23 11 6 12
REMARK SMILES IDX 3 13 25 14 4 15 24 16 5 17 2 18 1 19 26 20 27 21 13 22 14 23
REMARK SMILES IDX 19 24 20 25 16 26 17 27
REMARK H PARENT
REMARK Flexibility Score: inf
ROOT
ATOM      1  C   UNL     1     169.230 145.146 152.615  1.00  0.00     0.138 A 
ATOM      2  C   UNL     1     168.095 145.559 153.328  1.00  0.00     0.100 A 
ATOM      3  C   UNL     1     168.240 146.050 154.626  1.00  0.00     0.197 A 
ATOM      4  O   UNL     1     167.209 146.382 155.269  1.00  0.00    -0.289 OA
ATOM      5  C   UNL     1     169.528 146.139 155.199  1.00  0.00     0.111 A 
ATOM      6  C   UNL     1     169.769 146.657 156.496  1.00  0.00     0.179 A 
ATOM      7  C   UNL     1     171.076 146.598 157.047  1.00  0.00     0.204 A 
ATOM      8  C   UNL     1     172.142 146.134 156.262  1.00  0.00     0.168 A 
ATOM      9  C   UNL     1     171.906 145.685 154.953  1.00  0.00     0.098 A 
ATOM     10  C   UNL     1     170.615 145.671 154.429  1.00  0.00     0.146 A 
ATOM     11  O   UNL     1     170.425 145.208 153.197  1.00  0.00    -0.456 OA
ENDROOT
BRANCH   1  12
ATOM     12  C   UNL     1     169.135 144.616 151.231  1.00  0.00     0.021 A 
ATOM     13  C   UNL     1     168.945 143.553 148.622  1.00  0.00     0.160 A 
ATOM     14  C   UNL     1     169.643 144.750 148.840  1.00  0.00     0.161 A 
ATOM     15  C   UNL     1     168.354 142.887 149.711  1.00  0.00     0.051 A 
ATOM     16  C   UNL     1     169.739 145.275 150.144  1.00  0.00     0.062 A 
ATOM     17  C   UNL     1     168.453 143.412 151.000  1.00  0.00     0.016 A 
BRANCH  13  18
ATOM     18  O   UNL     1     168.864 143.057 147.311  1.00  0.00    -0.493 OA
ATOM     19  C   UNL     1     167.646 142.763 146.635  1.00  0.00     0.278 C 
ENDBRANCH  13  18
BRANCH  14  20
ATOM     20  O   UNL     1     170.231 145.387 147.735  1.00  0.00    -0.493 OA
ATOM     21  C   UNL     1     170.893 146.647 147.786  1.00  0.00     0.278 C 
ENDBRANCH  14  20
ENDBRANCH   1  12
BRANCH   6  22
ATOM     22  O   UNL     1     168.734 147.258 157.216  1.00  0.00    -0.492 OA
ATOM     23  C   UNL     1     168.497 148.659 157.133  1.00  0.00     0.278 C 
ENDBRANCH   6  22
BRANCH   8  24
ATOM     24  O   UNL     1     173.428 146.128 156.827  1.00  0.00    -0.493 OA
ATOM     25  C   UNL     1     174.626 145.853 156.108  1.00  0.00     0.278 C 
ENDBRANCH   8  24
BRANCH   7  26
ATOM     26  O   UNL     1     171.379 146.985 158.366  1.00  0.00    -0.490 OA
ATOM     27  C   UNL     1     171.609 148.315 158.817  1.00  0.00     0.278 C 
ENDBRANCH   7  26
TORSDOF 6
ENDMDL
MODEL 8
REMARK VINA RESULT:    -6.676      2.282      8.779
REMARK INTER + INTRA:          -9.525
REMARK INTER:                  -8.959
REMARK INTRA:                  -0.566
REMARK UNBOUND:                -0.507
REMARK SMILES COc1ccc(-c2cc(=O)c3c(OC)c(OC)c(OC)cc3o2)cc1OC
REMARK SMILES IDX 7 1 8 2 9 3 10 4 11 5 12 6 15 7 18 8 21 9 22 10 23 11 6 12
REMARK SMILES IDX 3 13 25 14 4 15 24 16 5 17 2 18 1 19 26 20 27 21 13 22 14 23
REMARK SMILES IDX 19 24 20 25 16 26 17 27
REMARK H PARENT
REMARK Flexibility Score: inf
ROOT
ATOM      1  C   UNL     1     165.210 147.462 147.063  1.00  0.00     0.138 A 
ATOM      2  C   UNL     1     166.018 148.294 146.273  1.00  0.00     0.100 A 
ATOM      3  C   UNL     1     166.162 149.639 146.615  1.00  0.00     0.197 A 
ATOM      4  O   UNL     1     166.861 150.382 145.876  1.00  0.00    -0.289 OA
ATOM      5  C   UNL     1     165.506 150.142 147.760  1.00  0.00     0.111 A 
ATOM      6  C   UNL     1     165.625 151.484 148.199  1.00  0.00     0.179 A 
ATOM      7  C   UNL     1     164.837 151.944 149.286  1.00  0.00     0.204 A 
ATOM      8  C   UNL     1     164.030 151.038 149.992  1.00  0.00     0.168 A 
ATOM      9  C   UNL     1     163.969 149.694 149.593  1.00  0.00     0.098 A 
ATOM     10  C   UNL     1     164.683 149.250 148.482  1.00  0.00     0.146 A 
ATOM     11  O   UNL     1     164.575 147.977 148.114  1.00  0.00    -0.456 OA
ENDROOT
BRANCH   1  12
ATOM     12  C   UNL     1     165.021 146.024 146.748  1.00  0.00     0.021 A 
ATOM     13  C   UNL     1     164.605 143.292 146.170  1.00  0.00     0.160 A 
ATOM     14  C   UNL     1     165.908 143.780 146.340  1.00  0.00     0.161 A 
ATOM     15  C   UNL     1     163.513 144.170 146.300  1.00  0.00     0.051 A 
ATOM     16  C   UNL     1     166.111 145.143 146.632  1.00  0.00     0.062 A 
ATOM     17  C   UNL     1     163.721 145.519 146.590  1.00  0.00     0.016 A 
BRANCH  13  18
ATOM     18  O   UNL     1     164.434 141.930 145.875  1.00  0.00    -0.493 OA
ATOM     19  C   UNL     1     163.617 141.038 146.627  1.00  0.00     0.278 C 
ENDBRANCH  13  18
BRANCH  14  20
ATOM     20  O   UNL     1     166.977 142.877 146.213  1.00  0.00    -0.493 OA
ATOM     21  C   UNL     1     168.305 143.128 146.662  1.00  0.00     0.278 C 
ENDBRANCH  14  20
ENDBRANCH   1  12
BRANCH   6  22
ATOM     22  O   UNL     1     166.543 152.343 147.589  1.00  0.00    -0.492 OA
ATOM     23  C   UNL     1     167.830 152.566 148.154  1.00  0.00     0.278 C 
ENDBRANCH   6  22
BRANCH   8  24
ATOM     24  O   UNL     1     163.296 151.520 151.088  1.00  0.00    -0.493 OA
ATOM     25  C   UNL     1     163.641 151.303 152.453  1.00  0.00     0.278 C 
ENDBRANCH   8  24
BRANCH   7  26
ATOM     26  O   UNL     1     164.810 153.285 149.711  1.00  0.00    -0.490 OA
ATOM     27  C   UNL     1     165.641 153.863 150.712  1.00  0.00     0.278 C 
ENDBRANCH   7  26
TORSDOF 6
ENDMDL
MODEL 9
REMARK VINA RESULT:    -6.590      8.744     11.571
REMARK INTER + INTRA:          -9.409
REMARK INTER:                  -8.870
REMARK INTRA:                  -0.539
REMARK UNBOUND:                -0.507
REMARK SMILES COc1ccc(-c2cc(=O)c3c(OC)c(OC)c(OC)cc3o2)cc1OC
REMARK SMILES IDX 7 1 8 2 9 3 10 4 11 5 12 6 15 7 18 8 21 9 22 10 23 11 6 12
REMARK SMILES IDX 3 13 25 14 4 15 24 16 5 17 2 18 1 19 26 20 27 21 13 22 14 23
REMARK SMILES IDX 19 24 20 25 16 26 17 27
REMARK H PARENT
REMARK Flexibility Score: inf
ROOT
ATOM      1  C   UNL     1     169.927 145.200 153.277  1.00  0.00     0.138 A 
ATOM      2  C   UNL     1     171.197 144.779 153.699  1.00  0.00     0.100 A 
ATOM      3  C   UNL     1     171.691 145.216 154.929  1.00  0.00     0.197 A 
ATOM      4  O   UNL     1     172.848 144.860 155.278  1.00  0.00    -0.289 OA
ATOM      5  C   UNL     1     170.902 146.063 155.738  1.00  0.00     0.111 A 
ATOM      6  C   UNL     1     171.312 146.524 157.014  1.00  0.00     0.179 A 
ATOM      7  C   UNL     1     170.517 147.471 157.710  1.00  0.00     0.204 A 
ATOM      8  C   UNL     1     169.274 147.856 157.185  1.00  0.00     0.168 A 
ATOM      9  C   UNL     1     168.843 147.342 155.951  1.00  0.00     0.098 A 
ATOM     10  C   UNL     1     169.651 146.469 155.226  1.00  0.00     0.146 A 
ATOM     11  O   UNL     1     169.224 146.028 154.046  1.00  0.00    -0.456 OA
ENDROOT
BRANCH   1  12
ATOM     12  C   UNL     1     169.350 144.766 151.979  1.00  0.00     0.021 A 
ATOM     13  C   UNL     1     168.264 143.882 149.527  1.00  0.00     0.160 A 
ATOM     14  C   UNL     1     168.761 145.189 149.641  1.00  0.00     0.161 A 
ATOM     15  C   UNL     1     168.321 143.019 150.637  1.00  0.00     0.051 A 
ATOM     16  C   UNL     1     169.306 145.624 150.865  1.00  0.00     0.062 A 
ATOM     17  C   UNL     1     168.862 143.457 151.846  1.00  0.00     0.016 A 
BRANCH  13  18
ATOM     18  O   UNL     1     167.723 143.478 148.296  1.00  0.00    -0.493 OA
ATOM     19  C   UNL     1     168.430 142.730 147.311  1.00  0.00     0.278 C 
ENDBRANCH  13  18
BRANCH  14  20
ATOM     20  O   UNL     1     168.699 146.023 148.514  1.00  0.00    -0.493 OA
ATOM     21  C   UNL     1     169.834 146.542 147.829  1.00  0.00     0.278 C 
ENDBRANCH  14  20
ENDBRANCH   1  12
BRANCH   6  22
ATOM     22  O   UNL     1     172.476 146.022 157.601  1.00  0.00    -0.492 OA
ATOM     23  C   UNL     1     172.415 145.042 158.633  1.00  0.00     0.278 C 
ENDBRANCH   6  22
BRANCH   8  24
ATOM     24  O   UNL     1     168.495 148.764 157.922  1.00  0.00    -0.493 OA
ATOM     25  C   UNL     1     167.290 148.429 158.603  1.00  0.00     0.278 C 
ENDBRANCH   8  24
BRANCH   7  26
ATOM     26  O   UNL     1     170.905 148.064 158.925  1.00  0.00    -0.490 OA
ATOM     27  C   UNL     1     172.110 148.784 159.159  1.00  0.00     0.278 C 
ENDBRANCH   7  26
TORSDOF 6
ENDMDL
