MODEL 1
REMARK VINA RESULT:    -3.758      0.000      0.000
REMARK INTER + INTRA:          -5.334
REMARK INTER:                  -4.966
REMARK INTRA:                  -0.367
REMARK UNBOUND:                -0.367
REMARK SMILES C=CCC[C@@H](O)CCC
REMARK SMILES IDX 4 1 5 2 7 3 8 4 9 5 6 6 3 8 2 9 1 10
REMARK H PARENT 6 7
REMARK Flexibility Score: inf
ROOT
ATOM      1  C   UNL     1     -39.052  22.311   6.930  1.00  0.00     0.036 C 
ENDROOT
BRANCH   1   2
ATOM      2  C   UNL     1     -40.055  23.213   6.177  1.00  0.00     0.114 C 
BRANCH   2   3
ATOM      3  C   UNL     1     -39.780  23.278   4.654  1.00  0.00     0.031 C 
BRANCH   3   4
ATOM      4  C   UNL     1     -39.071  24.573   4.222  1.00  0.00    -0.001 C 
ATOM      5  C   UNL     1     -40.027  25.608   3.630  1.00  0.00     0.004 C 
ENDBRANCH   3   4
ENDBRANCH   2   3
BRANCH   2   6
ATOM      6  O   UNL     1     -40.114  24.495   6.756  1.00  0.00    -0.393 OA
ATOM      7  H   UNL     1     -41.061  24.687   6.980  1.00  0.00     0.210 HD
ENDBRANCH   2   6
ENDBRANCH   1   2
BRANCH   1   8
ATOM      8  C   UNL     1     -38.360  22.990   8.125  1.00  0.00     0.029 C 
BRANCH   8   9
ATOM      9  C   UNL     1     -36.914  23.270   7.823  1.00  0.00    -0.035 C 
ATOM     10  C   UNL     1     -36.546  24.148   6.885  1.00  0.00     0.004 C 
ENDBRANCH   8   9
ENDBRANCH   1   8
TORSDOF 6
ENDMDL
MODEL 2
REMARK VINA RESULT:    -3.677      1.206      3.957
REMARK INTER + INTRA:          -5.227
REMARK INTER:                  -4.827
REMARK INTRA:                  -0.400
REMARK UNBOUND:                -0.367
REMARK SMILES C=CCC[C@@H](O)CCC
REMARK SMILES IDX 4 1 5 2 7 3 8 4 9 5 6 6 3 8 2 9 1 10
REMARK H PARENT 6 7
REMARK Flexibility Score: inf
ROOT
ATOM      1  C   UNL     1     -39.516  23.166   4.753  1.00  0.00     0.036 C 
ENDROOT
BRANCH   1   2
ATOM      2  C   UNL     1     -39.554  23.192   6.297  1.00  0.00     0.114 C 
BRANCH   2   3
ATOM      3  C   UNL     1     -38.665  24.307   6.902  1.00  0.00     0.031 C 
BRANCH   3   4
ATOM      4  C   UNL     1     -37.320  23.785   7.436  1.00  0.00    -0.001 C 
ATOM      5  C   UNL     1     -36.123  24.281   6.626  1.00  0.00     0.004 C 
ENDBRANCH   3   4
ENDBRANCH   2   3
BRANCH   2   6
ATOM      6  O   UNL     1     -39.246  21.926   6.830  1.00  0.00    -0.393 OA
ATOM      7  H   UNL     1     -38.342  21.975   7.236  1.00  0.00     0.210 HD
ENDBRANCH   2   6
ENDBRANCH   1   2
BRANCH   1   8
ATOM      8  C   UNL     1     -38.991  24.461   4.108  1.00  0.00     0.029 C 
BRANCH   8   9
ATOM      9  C   UNL     1     -40.125  25.301   3.586  1.00  0.00    -0.035 C 
ATOM     10  C   UNL     1     -40.113  26.634   3.675  1.00  0.00     0.004 C 
ENDBRANCH   8   9
ENDBRANCH   1   8
TORSDOF 6
ENDMDL
MODEL 3
REMARK VINA RESULT:    -3.432      1.769      4.142
REMARK INTER + INTRA:          -4.903
REMARK INTER:                  -4.532
REMARK INTRA:                  -0.370
REMARK UNBOUND:                -0.367
REMARK SMILES C=CCC[C@@H](O)CCC
REMARK SMILES IDX 4 1 5 2 7 3 8 4 9 5 6 6 3 8 2 9 1 10
REMARK H PARENT 6 7
REMARK Flexibility Score: inf
ROOT
ATOM      1  C   UNL     1     -38.344  23.521   4.469  1.00  0.00     0.036 C 
ENDROOT
BRANCH   1   2
ATOM      2  C   UNL     1     -37.809  23.553   5.918  1.00  0.00     0.114 C 
BRANCH   2   3
ATOM      3  C   UNL     1     -38.771  24.268   6.899  1.00  0.00     0.031 C 
BRANCH   3   4
ATOM      4  C   UNL     1     -39.376  23.321   7.951  1.00  0.00    -0.001 C 
ATOM      5  C   UNL     1     -38.912  21.875   7.788  1.00  0.00     0.004 C 
ENDBRANCH   3   4
ENDBRANCH   2   3
BRANCH   2   6
ATOM      6  O   UNL     1     -36.511  24.095   5.965  1.00  0.00    -0.393 OA
ATOM      7  H   UNL     1     -36.592  25.082   6.028  1.00  0.00     0.210 HD
ENDBRANCH   2   6
ENDBRANCH   1   2
BRANCH   1   8
ATOM      8  C   UNL     1     -39.810  23.964   4.323  1.00  0.00     0.029 C 
BRANCH   8   9
ATOM      9  C   UNL     1     -39.903  25.309   3.657  1.00  0.00    -0.035 C 
ATOM     10  C   UNL     1     -40.125  26.427   4.355  1.00  0.00     0.004 C 
ENDBRANCH   8   9
ENDBRANCH   1   8
TORSDOF 6
ENDMDL
MODEL 4
REMARK VINA RESULT:    -3.186      1.524      2.018
REMARK INTER + INTRA:          -4.578
REMARK INTER:                  -4.390
REMARK INTRA:                  -0.188
REMARK UNBOUND:                -0.367
REMARK SMILES C=CCC[C@@H](O)CCC
REMARK SMILES IDX 4 1 5 2 7 3 8 4 9 5 6 6 3 8 2 9 1 10
REMARK H PARENT 6 7
REMARK Flexibility Score: inf
ROOT
ATOM      1  C   UNL     1     -38.662  25.161   6.631  1.00  0.00     0.036 C 
ENDROOT
BRANCH   1   2
ATOM      2  C   UNL     1     -39.920  25.678   5.899  1.00  0.00     0.114 C 
BRANCH   2   3
ATOM      3  C   UNL     1     -39.905  25.365   4.382  1.00  0.00     0.031 C 
BRANCH   3   4
ATOM      4  C   UNL     1     -39.106  24.097   4.034  1.00  0.00    -0.001 C 
ATOM      5  C   UNL     1     -39.914  22.813   4.219  1.00  0.00     0.004 C 
ENDBRANCH   3   4
ENDBRANCH   2   3
BRANCH   2   6
ATOM      6  O   UNL     1     -40.124  27.048   6.152  1.00  0.00    -0.393 OA
ATOM      7  H   UNL     1     -41.073  27.259   5.956  1.00  0.00     0.210 HD
ENDBRANCH   2   6
ENDBRANCH   1   2
BRANCH   1   8
ATOM      8  C   UNL     1     -38.877  23.856   7.417  1.00  0.00     0.029 C 
BRANCH   8   9
ATOM      9  C   UNL     1     -37.562  23.206   7.750  1.00  0.00    -0.035 C 
ATOM     10  C   UNL     1     -36.396  23.733   7.362  1.00  0.00     0.004 C 
ENDBRANCH   8   9
ENDBRANCH   1   8
TORSDOF 6
ENDMDL
MODEL 5
REMARK VINA RESULT:    -2.790     17.431     19.093
REMARK INTER + INTRA:          -4.055
REMARK INTER:                  -3.771
REMARK INTRA:                  -0.284
REMARK UNBOUND:                -0.367
REMARK SMILES C=CCC[C@@H](O)CCC
REMARK SMILES IDX 4 1 5 2 7 3 8 4 9 5 6 6 3 8 2 9 1 10
REMARK H PARENT 6 7
REMARK Flexibility Score: inf
ROOT
ATOM      1  C   UNL     1     -20.729  15.875   6.726  1.00  0.00     0.036 C 
ENDROOT
BRANCH   1   2
ATOM      2  C   UNL     1     -20.943  16.737   7.990  1.00  0.00     0.114 C 
BRANCH   2   3
ATOM      3  C   UNL     1     -22.352  17.377   8.051  1.00  0.00     0.031 C 
BRANCH   3   4
ATOM      4  C   UNL     1     -23.239  17.002   6.850  1.00  0.00    -0.001 C 
ATOM      5  C   UNL     1     -24.497  17.862   6.747  1.00  0.00     0.004 C 
ENDBRANCH   3   4
ENDBRANCH   2   3
BRANCH   2   6
ATOM      6  O   UNL     1     -19.923  17.697   8.125  1.00  0.00    -0.393 OA
ATOM      7  H   UNL     1     -19.219  17.318   8.713  1.00  0.00     0.210 HD
ENDBRANCH   2   6
ENDBRANCH   1   2
BRANCH   1   8
ATOM      8  C   UNL     1     -19.875  16.547   5.637  1.00  0.00     0.029 C 
BRANCH   8   9
ATOM      9  C   UNL     1     -20.608  16.581   4.323  1.00  0.00    -0.035 C 
ATOM     10  C   UNL     1     -20.161  15.922   3.250  1.00  0.00     0.004 C 
ENDBRANCH   8   9
ENDBRANCH   1   8
TORSDOF 6
ENDMDL
MODEL 6
REMARK VINA RESULT:    -2.730     16.431     18.177
REMARK INTER + INTRA:          -3.975
REMARK INTER:                  -3.686
REMARK INTRA:                  -0.290
REMARK UNBOUND:                -0.367
REMARK SMILES C=CCC[C@@H](O)CCC
REMARK SMILES IDX 4 1 5 2 7 3 8 4 9 5 6 6 3 8 2 9 1 10
REMARK H PARENT 6 7
REMARK Flexibility Score: inf
ROOT
ATOM      1  C   UNL     1     -23.201  17.294   6.539  1.00  0.00     0.036 C 
ENDROOT
BRANCH   1   2
ATOM      2  C   UNL     1     -21.688  17.605   6.563  1.00  0.00     0.114 C 
BRANCH   2   3
ATOM      3  C   UNL     1     -20.822  16.361   6.877  1.00  0.00     0.031 C 
BRANCH   3   4
ATOM      4  C   UNL     1     -19.907  15.951   5.709  1.00  0.00    -0.001 C 
ATOM      5  C   UNL     1     -20.316  16.583   4.380  1.00  0.00     0.004 C 
ENDBRANCH   3   4
ENDBRANCH   2   3
BRANCH   2   6
ATOM      6  O   UNL     1     -21.407  18.676   7.433  1.00  0.00    -0.393 OA
ATOM      7  H   UNL     1     -21.044  19.424   6.892  1.00  0.00     0.210 HD
ENDBRANCH   2   6
ENDBRANCH   1   2
BRANCH   1   8
ATOM      8  C   UNL     1     -23.635  16.179   7.507  1.00  0.00     0.029 C 
BRANCH   8   9
ATOM      9  C   UNL     1     -24.977  16.486   8.114  1.00  0.00    -0.035 C 
ATOM     10  C   UNL     1     -25.480  17.724   8.125  1.00  0.00     0.004 C 
ENDBRANCH   8   9
ENDBRANCH   1   8
TORSDOF 6
ENDMDL
MODEL 7
REMARK VINA RESULT:    -2.027      1.345      4.547
REMARK INTER + INTRA:          -3.046
REMARK INTER:                  -2.986
REMARK INTRA:                  -0.060
REMARK UNBOUND:                -0.367
REMARK SMILES C=CCC[C@@H](O)CCC
REMARK SMILES IDX 4 1 5 2 7 3 8 4 9 5 6 6 3 8 2 9 1 10
REMARK H PARENT 6 7
REMARK Flexibility Score: inf
ROOT
ATOM      1  C   UNL     1     -39.297  25.064   4.393  1.00  0.00     0.036 C 
ENDROOT
BRANCH   1   2
ATOM      2  C   UNL     1     -39.060  24.500   5.812  1.00  0.00     0.114 C 
BRANCH   2   3
ATOM      3  C   UNL     1     -39.399  22.994   5.925  1.00  0.00     0.031 C 
BRANCH   3   4
ATOM      4  C   UNL     1     -38.955  22.372   7.261  1.00  0.00    -0.001 C 
ATOM      5  C   UNL     1     -37.631  22.939   7.771  1.00  0.00     0.004 C 
ENDBRANCH   3   4
ENDBRANCH   2   3
BRANCH   2   6
ATOM      6  O   UNL     1     -39.739  25.267   6.778  1.00  0.00    -0.393 OA
ATOM      7  H   UNL     1     -39.905  24.689   7.567  1.00  0.00     0.210 HD
ENDBRANCH   2   6
ENDBRANCH   1   2
BRANCH   1   8
ATOM      8  C   UNL     1     -40.125  26.360   4.354  1.00  0.00     0.029 C 
BRANCH   8   9
ATOM      9  C   UNL     1     -40.084  26.985   2.987  1.00  0.00    -0.035 C 
ATOM     10  C   UNL     1     -40.118  28.310   2.816  1.00  0.00     0.004 C 
ENDBRANCH   8   9
ENDBRANCH   1   8
TORSDOF 6
ENDMDL
MODEL 8
REMARK VINA RESULT:    -1.674      1.579      3.350
REMARK INTER + INTRA:          -2.580
REMARK INTER:                  -2.292
REMARK INTRA:                  -0.288
REMARK UNBOUND:                -0.367
REMARK SMILES C=CCC[C@@H](O)CCC
REMARK SMILES IDX 4 1 5 2 7 3 8 4 9 5 6 6 3 8 2 9 1 10
REMARK H PARENT 6 7
REMARK Flexibility Score: inf
ROOT
ATOM      1  C   UNL     1     -40.125  24.258   6.229  1.00  0.00     0.036 C 
ENDROOT
BRANCH   1   2
ATOM      2  C   UNL     1     -39.003  25.231   5.805  1.00  0.00     0.114 C 
BRANCH   2   3
ATOM      3  C   UNL     1     -37.993  25.518   6.943  1.00  0.00     0.031 C 
BRANCH   3   4
ATOM      4  C   UNL     1     -37.041  24.340   7.218  1.00  0.00    -0.001 C 
ATOM      5  C   UNL     1     -36.158  23.995   6.019  1.00  0.00     0.004 C 
ENDBRANCH   3   4
ENDBRANCH   2   3
BRANCH   2   6
ATOM      6  O   UNL     1     -39.540  26.416   5.266  1.00  0.00    -0.393 OA
ATOM      7  H   UNL     1     -39.577  27.093   5.990  1.00  0.00     0.210 HD
ENDBRANCH   2   6
ENDBRANCH   1   2
BRANCH   1   8
ATOM      8  C   UNL     1     -39.894  22.798   5.802  1.00  0.00     0.029 C 
BRANCH   8   9
ATOM      9  C   UNL     1     -39.323  21.989   6.935  1.00  0.00    -0.035 C 
ATOM     10  C   UNL     1     -39.941  21.896   8.117  1.00  0.00     0.004 C 
ENDBRANCH   8   9
ENDBRANCH   1   8
TORSDOF 6
ENDMDL
MODEL 9
REMARK VINA RESULT:    -1.437      1.508      2.189
REMARK INTER + INTRA:          -2.267
REMARK INTER:                  -2.057
REMARK INTRA:                  -0.210
REMARK UNBOUND:                -0.367
REMARK SMILES C=CCC[C@@H](O)CCC
REMARK SMILES IDX 4 1 5 2 7 3 8 4 9 5 6 6 3 8 2 9 1 10
REMARK H PARENT 6 7
REMARK Flexibility Score: inf
ROOT
ATOM      1  C   UNL     1     -37.107  23.741   7.534  1.00  0.00     0.036 C 
ENDROOT
BRANCH   1   2
ATOM      2  C   UNL     1     -38.559  23.728   7.006  1.00  0.00     0.114 C 
BRANCH   2   3
ATOM      3  C   UNL     1     -38.845  24.873   6.003  1.00  0.00     0.031 C 
BRANCH   3   4
ATOM      4  C   UNL     1     -39.114  24.372   4.573  1.00  0.00    -0.001 C 
ATOM      5  C   UNL     1     -39.820  25.409   3.701  1.00  0.00     0.004 C 
ENDBRANCH   3   4
ENDBRANCH   2   3
BRANCH   2   6
ATOM      6  O   UNL     1     -39.482  23.715   8.069  1.00  0.00    -0.393 OA
ATOM      7  H   UNL     1     -39.410  22.838   8.528  1.00  0.00     0.210 HD
ENDBRANCH   2   6
ENDBRANCH   1   2
BRANCH   1   8
ATOM      8  C   UNL     1     -36.050  24.105   6.477  1.00  0.00     0.029 C 
BRANCH   8   9
ATOM      9  C   UNL     1     -35.214  25.271   6.931  1.00  0.00    -0.035 C 
ATOM     10  C   UNL     1     -34.122  25.657   6.265  1.00  0.00     0.004 C 
ENDBRANCH   8   9
ENDBRANCH   1   8
TORSDOF 6
ENDMDL
