MODEL 1
REMARK VINA RESULT:    -4.698      0.000      0.000
REMARK INTER + INTRA:          -4.698
REMARK INTER:                  -4.698
REMARK INTRA:                   0.000
REMARK UNBOUND:                 0.000
REMARK SMILES O=c1ccc2ccc3occc3c2o1
REMARK SMILES IDX 6 1 7 2 8 3 12 4 11 5 10 6 9 7 13 8 5 9 4 10 3 11 2 12 1 13
REMARK SMILES IDX 14 14
REMARK H PARENT
REMARK Flexibility Score: inf
ROOT
ATOM      1  C   UNL     1      73.614  39.479  21.808  1.00  0.00     0.016 A 
ATOM      2  C   UNL     1      72.972  38.448  21.097  1.00  0.00     0.048 A 
ATOM      3  C   UNL     1      73.421  38.161  19.809  1.00  0.00     0.137 A 
ATOM      4  C   UNL     1      74.454  38.850  19.233  1.00  0.00     0.064 A 
ATOM      5  C   UNL     1      74.637  38.321  17.976  1.00  0.00     0.054 A 
ATOM      6  C   UNL     1      73.676  37.320  17.875  1.00  0.00     0.196 A 
ATOM      7  O   UNL     1      72.965  37.249  18.987  1.00  0.00    -0.464 OA
ATOM      8  C   UNL     1      75.114  39.877  19.904  1.00  0.00     0.149 A 
ATOM      9  C   UNL     1      74.683  40.196  21.217  1.00  0.00     0.018 A 
ATOM     10  C   UNL     1      75.342  41.226  21.895  1.00  0.00     0.019 A 
ATOM     11  C   UNL     1      76.390  41.899  21.266  1.00  0.00     0.094 A 
ATOM     12  C   UNL     1      76.758  41.526  19.966  1.00  0.00     0.336 A 
ATOM     13  O   UNL     1      77.701  42.125  19.385  1.00  0.00    -0.246 OA
ATOM     14  O   UNL     1      76.117  40.544  19.338  1.00  0.00    -0.422 OA
ENDROOT
TORSDOF 0
ENDMDL
MODEL 2
REMARK VINA RESULT:    -4.633      1.118      4.258
REMARK INTER + INTRA:          -4.633
REMARK INTER:                  -4.633
REMARK INTRA:                   0.000
REMARK UNBOUND:                 0.000
REMARK SMILES O=c1ccc2ccc3occc3c2o1
REMARK SMILES IDX 6 1 7 2 8 3 12 4 11 5 10 6 9 7 13 8 5 9 4 10 3 11 2 12 1 13
REMARK SMILES IDX 14 14
REMARK H PARENT
REMARK Flexibility Score: inf
ROOT
ATOM      1  C   UNL     1      74.541  40.203  21.977  1.00  0.00     0.016 A 
ATOM      2  C   UNL     1      75.484  41.200  21.660  1.00  0.00     0.048 A 
ATOM      3  C   UNL     1      75.940  41.277  20.345  1.00  0.00     0.137 A 
ATOM      4  C   UNL     1      75.499  40.418  19.374  1.00  0.00     0.064 A 
ATOM      5  C   UNL     1      76.142  40.766  18.209  1.00  0.00     0.054 A 
ATOM      6  C   UNL     1      76.951  41.841  18.564  1.00  0.00     0.196 A 
ATOM      7  O   UNL     1      76.808  42.122  19.848  1.00  0.00    -0.464 OA
ATOM      8  C   UNL     1      74.567  39.419  19.648  1.00  0.00     0.149 A 
ATOM      9  C   UNL     1      74.081  39.312  20.977  1.00  0.00     0.018 A 
ATOM     10  C   UNL     1      73.146  38.311  21.257  1.00  0.00     0.019 A 
ATOM     11  C   UNL     1      72.726  37.460  20.234  1.00  0.00     0.094 A 
ATOM     12  C   UNL     1      73.253  37.629  18.946  1.00  0.00     0.336 A 
ATOM     13  O   UNL     1      72.884  36.869  18.013  1.00  0.00    -0.246 OA
ATOM     14  O   UNL     1      74.142  38.587  18.701  1.00  0.00    -0.422 OA
ENDROOT
TORSDOF 0
ENDMDL
MODEL 3
REMARK VINA RESULT:    -4.511      1.395      2.547
REMARK INTER + INTRA:          -4.511
REMARK INTER:                  -4.511
REMARK INTRA:                   0.000
REMARK UNBOUND:                 0.000
REMARK SMILES O=c1ccc2ccc3occc3c2o1
REMARK SMILES IDX 6 1 7 2 8 3 12 4 11 5 10 6 9 7 13 8 5 9 4 10 3 11 2 12 1 13
REMARK SMILES IDX 14 14
REMARK H PARENT
REMARK Flexibility Score: inf
ROOT
ATOM      1  C   UNL     1      75.466  39.856  17.929  1.00  0.00     0.016 A 
ATOM      2  C   UNL     1      74.469  38.863  17.883  1.00  0.00     0.048 A 
ATOM      3  C   UNL     1      73.832  38.517  19.074  1.00  0.00     0.137 A 
ATOM      4  C   UNL     1      74.152  39.112  20.265  1.00  0.00     0.064 A 
ATOM      5  C   UNL     1      73.346  38.544  21.225  1.00  0.00     0.054 A 
ATOM      6  C   UNL     1      72.573  37.620  20.530  1.00  0.00     0.196 A 
ATOM      7  O   UNL     1      72.887  37.627  19.247  1.00  0.00    -0.464 OA
ATOM      8  C   UNL     1      75.133  40.097  20.352  1.00  0.00     0.149 A 
ATOM      9  C   UNL     1      75.802  40.474  19.158  1.00  0.00     0.018 A 
ATOM     10  C   UNL     1      76.787  41.463  19.240  1.00  0.00     0.019 A 
ATOM     11  C   UNL     1      77.077  42.040  20.477  1.00  0.00     0.094 A 
ATOM     12  C   UNL     1      76.373  41.614  21.611  1.00  0.00     0.336 A 
ATOM     13  O   UNL     1      76.624  42.125  22.733  1.00  0.00    -0.246 OA
ATOM     14  O   UNL     1      75.440  40.671  21.512  1.00  0.00    -0.422 OA
ENDROOT
TORSDOF 0
ENDMDL
MODEL 4
REMARK VINA RESULT:    -4.343      2.258      4.427
REMARK INTER + INTRA:          -4.343
REMARK INTER:                  -4.343
REMARK INTRA:                   0.000
REMARK UNBOUND:                 0.000
REMARK SMILES O=c1ccc2ccc3occc3c2o1
REMARK SMILES IDX 6 1 7 2 8 3 12 4 11 5 10 6 9 7 13 8 5 9 4 10 3 11 2 12 1 13
REMARK SMILES IDX 14 14
REMARK H PARENT
REMARK Flexibility Score: inf
ROOT
ATOM      1  C   UNL     1      74.987  41.251  20.597  1.00  0.00     0.016 A 
ATOM      2  C   UNL     1      74.131  41.855  21.538  1.00  0.00     0.048 A 
ATOM      3  C   UNL     1      72.879  41.278  21.750  1.00  0.00     0.137 A 
ATOM      4  C   UNL     1      72.474  40.159  21.075  1.00  0.00     0.064 A 
ATOM      5  C   UNL     1      71.206  39.860  21.517  1.00  0.00     0.054 A 
ATOM      6  C   UNL     1      70.923  40.847  22.456  1.00  0.00     0.196 A 
ATOM      7  O   UNL     1      71.942  41.680  22.573  1.00  0.00    -0.464 OA
ATOM      8  C   UNL     1      73.292  39.533  20.137  1.00  0.00     0.149 A 
ATOM      9  C   UNL     1      74.573  40.093  19.895  1.00  0.00     0.018 A 
ATOM     10  C   UNL     1      75.398  39.469  18.955  1.00  0.00     0.019 A 
ATOM     11  C   UNL     1      74.941  38.330  18.292  1.00  0.00     0.094 A 
ATOM     12  C   UNL     1      73.662  37.836  18.585  1.00  0.00     0.336 A 
ATOM     13  O   UNL     1      73.236  36.810  17.994  1.00  0.00    -0.246 OA
ATOM     14  O   UNL     1      72.893  38.445  19.482  1.00  0.00    -0.422 OA
ENDROOT
TORSDOF 0
ENDMDL
MODEL 5
REMARK VINA RESULT:    -4.102      1.312      4.957
REMARK INTER + INTRA:          -4.102
REMARK INTER:                  -4.102
REMARK INTRA:                   0.000
REMARK UNBOUND:                 0.000
REMARK SMILES O=c1ccc2ccc3occc3c2o1
REMARK SMILES IDX 6 1 7 2 8 3 12 4 11 5 10 6 9 7 13 8 5 9 4 10 3 11 2 12 1 13
REMARK SMILES IDX 14 14
REMARK H PARENT
REMARK Flexibility Score: inf
ROOT
ATOM      1  C   UNL     1      75.852  40.466  18.023  1.00  0.00     0.016 A 
ATOM      2  C   UNL     1      76.633  41.351  18.790  1.00  0.00     0.048 A 
ATOM      3  C   UNL     1      76.427  41.381  20.169  1.00  0.00     0.137 A 
ATOM      4  C   UNL     1      75.497  40.582  20.779  1.00  0.00     0.064 A 
ATOM      5  C   UNL     1      75.552  40.860  22.126  1.00  0.00     0.054 A 
ATOM      6  C   UNL     1      76.538  41.835  22.241  1.00  0.00     0.196 A 
ATOM      7  O   UNL     1      77.042  42.125  21.054  1.00  0.00    -0.464 OA
ATOM      8  C   UNL     1      74.706  39.694  20.055  1.00  0.00     0.149 A 
ATOM      9  C   UNL     1      74.889  39.637  18.649  1.00  0.00     0.018 A 
ATOM     10  C   UNL     1      74.097  38.747  17.917  1.00  0.00     0.019 A 
ATOM     11  C   UNL     1      73.163  37.954  18.584  1.00  0.00     0.094 A 
ATOM     12  C   UNL     1      73.041  38.066  19.976  1.00  0.00     0.336 A 
ATOM     13  O   UNL     1      72.203  37.357  20.591  1.00  0.00    -0.246 OA
ATOM     14  O   UNL     1      73.803  38.920  20.653  1.00  0.00    -0.422 OA
ENDROOT
TORSDOF 0
ENDMDL
MODEL 6
REMARK VINA RESULT:    -4.066      2.207      3.799
REMARK INTER + INTRA:          -4.066
REMARK INTER:                  -4.066
REMARK INTRA:                   0.000
REMARK UNBOUND:                 0.000
REMARK SMILES O=c1ccc2ccc3occc3c2o1
REMARK SMILES IDX 6 1 7 2 8 3 12 4 11 5 10 6 9 7 13 8 5 9 4 10 3 11 2 12 1 13
REMARK SMILES IDX 14 14
REMARK H PARENT
REMARK Flexibility Score: inf
ROOT
ATOM      1  C   UNL     1      75.027  41.213  20.615  1.00  0.00     0.016 A 
ATOM      2  C   UNL     1      75.676  40.452  19.624  1.00  0.00     0.048 A 
ATOM      3  C   UNL     1      74.979  39.389  19.052  1.00  0.00     0.137 A 
ATOM      4  C   UNL     1      73.700  39.076  19.427  1.00  0.00     0.064 A 
ATOM      5  C   UNL     1      73.316  37.989  18.676  1.00  0.00     0.054 A 
ATOM      6  C   UNL     1      74.419  37.711  17.875  1.00  0.00     0.196 A 
ATOM      7  O   UNL     1      75.397  38.565  18.123  1.00  0.00    -0.464 OA
ATOM      8  C   UNL     1      73.024  39.805  20.404  1.00  0.00     0.149 A 
ATOM      9  C   UNL     1      73.704  40.894  21.008  1.00  0.00     0.018 A 
ATOM     10  C   UNL     1      73.030  41.628  21.988  1.00  0.00     0.019 A 
ATOM     11  C   UNL     1      71.728  41.271  22.337  1.00  0.00     0.094 A 
ATOM     12  C   UNL     1      71.123  40.182  21.695  1.00  0.00     0.336 A 
ATOM     13  O   UNL     1      69.949  39.847  22.000  1.00  0.00    -0.246 OA
ATOM     14  O   UNL     1      71.782  39.495  20.765  1.00  0.00    -0.422 OA
ENDROOT
TORSDOF 0
ENDMDL
MODEL 7
REMARK VINA RESULT:    -3.882      2.245      4.044
REMARK INTER + INTRA:          -3.882
REMARK INTER:                  -3.882
REMARK INTRA:                   0.000
REMARK UNBOUND:                 0.000
REMARK SMILES O=c1ccc2ccc3occc3c2o1
REMARK SMILES IDX 6 1 7 2 8 3 12 4 11 5 10 6 9 7 13 8 5 9 4 10 3 11 2 12 1 13
REMARK SMILES IDX 14 14
REMARK H PARENT
REMARK Flexibility Score: inf
ROOT
ATOM      1  C   UNL     1      73.981  38.256  19.506  1.00  0.00     0.016 A 
ATOM      2  C   UNL     1      75.013  38.642  18.630  1.00  0.00     0.048 A 
ATOM      3  C   UNL     1      75.388  39.985  18.610  1.00  0.00     0.137 A 
ATOM      4  C   UNL     1      74.784  40.917  19.410  1.00  0.00     0.064 A 
ATOM      5  C   UNL     1      75.386  42.125  19.143  1.00  0.00     0.054 A 
ATOM      6  C   UNL     1      76.340  41.833  18.173  1.00  0.00     0.196 A 
ATOM      7  O   UNL     1      76.316  40.546  17.875  1.00  0.00    -0.464 OA
ATOM      8  C   UNL     1      73.760  40.574  20.290  1.00  0.00     0.149 A 
ATOM      9  C   UNL     1      73.352  39.216  20.336  1.00  0.00     0.018 A 
ATOM     10  C   UNL     1      72.325  38.867  21.217  1.00  0.00     0.019 A 
ATOM     11  C   UNL     1      71.740  39.852  22.013  1.00  0.00     0.094 A 
ATOM     12  C   UNL     1      72.198  41.173  21.911  1.00  0.00     0.336 A 
ATOM     13  O   UNL     1      71.680  42.073  22.622  1.00  0.00    -0.246 OA
ATOM     14  O   UNL     1      73.176  41.485  21.065  1.00  0.00    -0.422 OA
ENDROOT
TORSDOF 0
ENDMDL
MODEL 8
REMARK VINA RESULT:    -3.742      2.536      4.418
REMARK INTER + INTRA:          -3.742
REMARK INTER:                  -3.742
REMARK INTRA:                   0.000
REMARK UNBOUND:                 0.000
REMARK SMILES O=c1ccc2ccc3occc3c2o1
REMARK SMILES IDX 6 1 7 2 8 3 12 4 11 5 10 6 9 7 13 8 5 9 4 10 3 11 2 12 1 13
REMARK SMILES IDX 14 14
REMARK H PARENT
REMARK Flexibility Score: inf
ROOT
ATOM      1  C   UNL     1      75.826  41.493  22.268  1.00  0.00     0.016 A 
ATOM      2  C   UNL     1      77.085  41.736  21.685  1.00  0.00     0.048 A 
ATOM      3  C   UNL     1      77.153  41.848  20.297  1.00  0.00     0.137 A 
ATOM      4  C   UNL     1      76.044  41.727  19.505  1.00  0.00     0.064 A 
ATOM      5  C   UNL     1      76.460  41.888  18.203  1.00  0.00     0.054 A 
ATOM      6  C   UNL     1      77.832  42.101  18.300  1.00  0.00     0.196 A 
ATOM      7  O   UNL     1      78.216  42.071  19.564  1.00  0.00    -0.464 OA
ATOM      8  C   UNL     1      74.782  41.486  20.044  1.00  0.00     0.149 A 
ATOM      9  C   UNL     1      74.674  41.366  21.454  1.00  0.00     0.018 A 
ATOM     10  C   UNL     1      73.410  41.124  21.999  1.00  0.00     0.019 A 
ATOM     11  C   UNL     1      72.309  41.009  21.151  1.00  0.00     0.094 A 
ATOM     12  C   UNL     1      72.495  41.139  19.768  1.00  0.00     0.336 A 
ATOM     13  O   UNL     1      71.511  41.037  18.991  1.00  0.00    -0.246 OA
ATOM     14  O   UNL     1      73.706  41.369  19.269  1.00  0.00    -0.422 OA
ENDROOT
TORSDOF 0
ENDMDL
MODEL 9
REMARK VINA RESULT:    -3.740      3.046      4.368
REMARK INTER + INTRA:          -3.740
REMARK INTER:                  -3.740
REMARK INTRA:                   0.000
REMARK UNBOUND:                 0.000
REMARK SMILES O=c1ccc2ccc3occc3c2o1
REMARK SMILES IDX 6 1 7 2 8 3 12 4 11 5 10 6 9 7 13 8 5 9 4 10 3 11 2 12 1 13
REMARK SMILES IDX 14 14
REMARK H PARENT
REMARK Flexibility Score: inf
ROOT
ATOM      1  C   UNL     1      73.142  39.322  21.984  1.00  0.00     0.016 A 
ATOM      2  C   UNL     1      74.287  39.118  21.191  1.00  0.00     0.048 A 
ATOM      3  C   UNL     1      74.295  39.647  19.901  1.00  0.00     0.137 A 
ATOM      4  C   UNL     1      73.231  40.347  19.400  1.00  0.00     0.064 A 
ATOM      5  C   UNL     1      73.565  40.721  18.119  1.00  0.00     0.054 A 
ATOM      6  C   UNL     1      74.843  40.207  17.927  1.00  0.00     0.196 A 
ATOM      7  O   UNL     1      75.252  39.570  19.010  1.00  0.00    -0.464 OA
ATOM      8  C   UNL     1      72.080  40.571  20.153  1.00  0.00     0.149 A 
ATOM      9  C   UNL     1      72.038  40.046  21.471  1.00  0.00     0.018 A 
ATOM     10  C   UNL     1      70.886  40.267  22.231  1.00  0.00     0.019 A 
ATOM     11  C   UNL     1      69.827  40.987  21.676  1.00  0.00     0.094 A 
ATOM     12  C   UNL     1      69.944  41.474  20.367  1.00  0.00     0.336 A 
ATOM     13  O   UNL     1      68.998  42.125  19.853  1.00  0.00    -0.246 OA
ATOM     14  O   UNL     1      71.049  41.252  19.661  1.00  0.00    -0.422 OA
ENDROOT
TORSDOF 0
ENDMDL
