MODEL 1
REMARK VINA RESULT:    -3.828      0.000      0.000
REMARK INTER + INTRA:          -4.472
REMARK INTER:                  -4.388
REMARK INTRA:                  -0.084
REMARK UNBOUND:                -0.084
REMARK SMILES COc1cc(C(=O)[O-])ccc1O
REMARK SMILES IDX 5 1 9 2 4 3 10 4 3 5 11 6 6 7 7 8 8 9 2 10 1 11 12 12
REMARK H PARENT 12 13
REMARK Flexibility Score: inf
ROOT
ATOM      1  C   UNL     1     148.295 131.397 150.486  1.00  0.00     0.001 A 
ATOM      2  C   UNL     1     149.607 131.162 150.042  1.00  0.00     0.014 A 
ATOM      3  C   UNL     1     148.091 131.879 151.792  1.00  0.00     0.060 A 
ATOM      4  C   UNL     1     150.693 131.405 150.886  1.00  0.00     0.051 A 
ATOM      5  C   UNL     1     149.184 132.125 152.647  1.00  0.00     0.161 A 
ATOM      6  C   UNL     1     150.485 131.886 152.185  1.00  0.00     0.157 A 
ENDROOT
BRANCH   1   7
ATOM      7  C   UNL     1     147.142 131.140 149.595  1.00  0.00     0.072 C 
ATOM      8  O   UNL     1     145.965 131.349 149.992  1.00  0.00    -0.545 OA
ATOM      9  O   UNL     1     147.342 130.663 148.303  1.00  0.00    -0.545 OA
ENDBRANCH   1   7
BRANCH   5  10
ATOM     10  O   UNL     1     149.018 132.607 153.955  1.00  0.00    -0.493 OA
ATOM     11  C   UNL     1     147.861 132.385 154.756  1.00  0.00     0.278 C 
ENDBRANCH   5  10
BRANCH   6  12
ATOM     12  O   UNL     1     151.570 132.128 153.026  1.00  0.00    -0.504 OA
ATOM     13  H   UNL     1     152.416 131.571 152.975  1.00  0.00     0.293 HD
ENDBRANCH   6  12
TORSDOF 3
ENDMDL
MODEL 2
REMARK VINA RESULT:    -3.594      1.740      3.675
REMARK INTER + INTRA:          -4.204
REMARK INTER:                  -4.122
REMARK INTRA:                  -0.082
REMARK UNBOUND:                -0.084
REMARK SMILES COc1cc(C(=O)[O-])ccc1O
REMARK SMILES IDX 5 1 9 2 4 3 10 4 3 5 11 6 6 7 7 8 8 9 2 10 1 11 12 12
REMARK H PARENT 12 13
REMARK Flexibility Score: inf
ROOT
ATOM      1  C   UNL     1     147.820 132.338 152.572  1.00  0.00     0.001 A 
ATOM      2  C   UNL     1     149.044 132.596 153.213  1.00  0.00     0.014 A 
ATOM      3  C   UNL     1     147.820 131.614 151.366  1.00  0.00     0.060 A 
ATOM      4  C   UNL     1     150.242 132.138 152.659  1.00  0.00     0.051 A 
ATOM      5  C   UNL     1     149.026 131.150 150.804  1.00  0.00     0.161 A 
ATOM      6  C   UNL     1     150.236 131.417 151.459  1.00  0.00     0.157 A 
ENDROOT
BRANCH   1   7
ATOM      7  C   UNL     1     146.550 132.822 153.155  1.00  0.00     0.072 C 
ATOM      8  O   UNL     1     146.448 133.022 154.395  1.00  0.00    -0.545 OA
ATOM      9  O   UNL     1     145.447 133.064 152.342  1.00  0.00    -0.545 OA
ENDBRANCH   1   7
BRANCH   5  10
ATOM     10  O   UNL     1     149.063 130.424 149.604  1.00  0.00    -0.493 OA
ATOM     11  C   UNL     1     148.004 130.382 148.653  1.00  0.00     0.278 C 
ENDBRANCH   5  10
BRANCH   6  12
ATOM     12  O   UNL     1     151.433 130.961 150.909  1.00  0.00    -0.504 OA
ATOM     13  H   UNL     1     151.926 131.490 150.198  1.00  0.00     0.293 HD
ENDBRANCH   6  12
TORSDOF 3
ENDMDL
MODEL 3
REMARK VINA RESULT:    -3.518      1.447      4.184
REMARK INTER + INTRA:          -4.117
REMARK INTER:                  -4.021
REMARK INTRA:                  -0.095
REMARK UNBOUND:                -0.084
REMARK SMILES COc1cc(C(=O)[O-])ccc1O
REMARK SMILES IDX 5 1 9 2 4 3 10 4 3 5 11 6 6 7 7 8 8 9 2 10 1 11 12 12
REMARK H PARENT 12 13
REMARK Flexibility Score: inf
ROOT
ATOM      1  C   UNL     1     148.990 132.377 152.788  1.00  0.00     0.001 A 
ATOM      2  C   UNL     1     150.325 132.120 152.432  1.00  0.00     0.014 A 
ATOM      3  C   UNL     1     147.958 131.871 151.977  1.00  0.00     0.060 A 
ATOM      4  C   UNL     1     150.621 131.373 151.290  1.00  0.00     0.051 A 
ATOM      5  C   UNL     1     148.252 131.117 150.823  1.00  0.00     0.161 A 
ATOM      6  C   UNL     1     149.590 130.872 150.486  1.00  0.00     0.157 A 
ENDROOT
BRANCH   1   7
ATOM      7  C   UNL     1     148.673 133.168 153.997  1.00  0.00     0.072 C 
ATOM      8  O   UNL     1     148.349 132.596 155.071  1.00  0.00    -0.545 OA
ATOM      9  O   UNL     1     148.728 134.558 153.965  1.00  0.00    -0.545 OA
ENDBRANCH   1   7
BRANCH   5  10
ATOM     10  O   UNL     1     147.248 130.597 149.992  1.00  0.00    -0.493 OA
ATOM     11  C   UNL     1     146.435 131.378 149.122  1.00  0.00     0.278 C 
ENDBRANCH   5  10
BRANCH   6  12
ATOM     12  O   UNL     1     149.888 130.126 149.346  1.00  0.00    -0.504 OA
ATOM     13  H   UNL     1     149.887 130.545 148.423  1.00  0.00     0.293 HD
ENDBRANCH   6  12
TORSDOF 3
ENDMDL
MODEL 4
REMARK VINA RESULT:    -3.461      1.431      1.829
REMARK INTER + INTRA:          -4.051
REMARK INTER:                  -3.967
REMARK INTRA:                  -0.083
REMARK UNBOUND:                -0.084
REMARK SMILES COc1cc(C(=O)[O-])ccc1O
REMARK SMILES IDX 5 1 9 2 4 3 10 4 3 5 11 6 6 7 7 8 8 9 2 10 1 11 12 12
REMARK H PARENT 12 13
REMARK Flexibility Score: inf
ROOT
ATOM      1  C   UNL     1     147.031 131.242 150.013  1.00  0.00     0.001 A 
ATOM      2  C   UNL     1     147.781 130.293 149.297  1.00  0.00     0.014 A 
ATOM      3  C   UNL     1     147.628 131.902 151.102  1.00  0.00     0.060 A 
ATOM      4  C   UNL     1     149.099 130.011 149.662  1.00  0.00     0.051 A 
ATOM      5  C   UNL     1     148.958 131.621 151.474  1.00  0.00     0.161 A 
ATOM      6  C   UNL     1     149.688 130.671 150.746  1.00  0.00     0.157 A 
ENDROOT
BRANCH   1   7
ATOM      7  C   UNL     1     145.635 131.543 149.629  1.00  0.00     0.072 C 
ATOM      8  O   UNL     1     144.757 131.743 150.510  1.00  0.00    -0.545 OA
ATOM      9  O   UNL     1     145.270 131.608 148.289  1.00  0.00    -0.545 OA
ENDBRANCH   1   7
BRANCH   5  10
ATOM     10  O   UNL     1     149.586 132.261 152.555  1.00  0.00    -0.493 OA
ATOM     11  C   UNL     1     148.932 132.625 153.767  1.00  0.00     0.278 C 
ENDBRANCH   5  10
BRANCH   6  12
ATOM     12  O   UNL     1     151.005 130.388 151.109  1.00  0.00    -0.504 OA
ATOM     13  H   UNL     1     151.753 131.054 150.952  1.00  0.00     0.293 HD
ENDBRANCH   6  12
TORSDOF 3
ENDMDL
MODEL 5
REMARK VINA RESULT:    -3.433      1.529      2.004
REMARK INTER + INTRA:          -4.019
REMARK INTER:                  -3.919
REMARK INTRA:                  -0.100
REMARK UNBOUND:                -0.084
REMARK SMILES COc1cc(C(=O)[O-])ccc1O
REMARK SMILES IDX 5 1 9 2 4 3 10 4 3 5 11 6 6 7 7 8 8 9 2 10 1 11 12 12
REMARK H PARENT 12 13
REMARK Flexibility Score: inf
ROOT
ATOM      1  C   UNL     1     149.105 131.302 150.654  1.00  0.00     0.001 A 
ATOM      2  C   UNL     1     150.361 131.466 151.262  1.00  0.00     0.014 A 
ATOM      3  C   UNL     1     147.951 131.698 151.352  1.00  0.00     0.060 A 
ATOM      4  C   UNL     1     150.460 132.015 152.542  1.00  0.00     0.051 A 
ATOM      5  C   UNL     1     148.045 132.252 152.645  1.00  0.00     0.161 A 
ATOM      6  C   UNL     1     149.307 132.408 153.234  1.00  0.00     0.157 A 
ENDROOT
BRANCH   1   7
ATOM      7  C   UNL     1     148.997 130.720 149.298  1.00  0.00     0.072 C 
ATOM      8  O   UNL     1     148.101 129.876 149.031  1.00  0.00    -0.545 OA
ATOM      9  O   UNL     1     149.885 131.097 148.296  1.00  0.00    -0.545 OA
ENDBRANCH   1   7
BRANCH   5  10
ATOM     10  O   UNL     1     146.915 132.658 153.371  1.00  0.00    -0.493 OA
ATOM     11  C   UNL     1     146.209 133.875 153.150  1.00  0.00     0.278 C 
ENDBRANCH   5  10
BRANCH   6  12
ATOM     12  O   UNL     1     149.408 132.956 154.512  1.00  0.00    -0.504 OA
ATOM     13  H   UNL     1     149.502 132.371 155.335  1.00  0.00     0.293 HD
ENDBRANCH   6  12
TORSDOF 3
ENDMDL
MODEL 6
REMARK VINA RESULT:    -3.309      2.684      4.138
REMARK INTER + INTRA:          -3.877
REMARK INTER:                  -3.782
REMARK INTRA:                  -0.095
REMARK UNBOUND:                -0.084
REMARK SMILES COc1cc(C(=O)[O-])ccc1O
REMARK SMILES IDX 5 1 9 2 4 3 10 4 3 5 11 6 6 7 7 8 8 9 2 10 1 11 12 12
REMARK H PARENT 12 13
REMARK Flexibility Score: inf
ROOT
ATOM      1  C   UNL     1     149.514 133.856 150.981  1.00  0.00     0.001 A 
ATOM      2  C   UNL     1     150.174 133.369 152.123  1.00  0.00     0.014 A 
ATOM      3  C   UNL     1     149.314 132.993 149.888  1.00  0.00     0.060 A 
ATOM      4  C   UNL     1     150.623 132.049 152.170  1.00  0.00     0.051 A 
ATOM      5  C   UNL     1     149.767 131.659 149.932  1.00  0.00     0.161 A 
ATOM      6  C   UNL     1     150.422 131.194 151.080  1.00  0.00     0.157 A 
ENDROOT
BRANCH   1   7
ATOM      7  C   UNL     1     149.036 135.255 150.928  1.00  0.00     0.072 C 
ATOM      8  O   UNL     1     147.875 135.552 151.316  1.00  0.00    -0.545 OA
ATOM      9  O   UNL     1     149.863 136.265 150.447  1.00  0.00    -0.545 OA
ENDBRANCH   1   7
BRANCH   5  10
ATOM     10  O   UNL     1     149.584 130.771 148.860  1.00  0.00    -0.493 OA
ATOM     11  C   UNL     1     148.375 130.067 148.592  1.00  0.00     0.278 C 
ENDBRANCH   5  10
BRANCH   6  12
ATOM     12  O   UNL     1     150.872 129.875 151.129  1.00  0.00    -0.504 OA
ATOM     13  H   UNL     1     150.226 129.096 151.197  1.00  0.00     0.293 HD
ENDBRANCH   6  12
TORSDOF 3
ENDMDL
MODEL 7
REMARK VINA RESULT:    -3.274      1.700      2.167
REMARK INTER + INTRA:          -3.837
REMARK INTER:                  -3.742
REMARK INTRA:                  -0.095
REMARK UNBOUND:                -0.084
REMARK SMILES COc1cc(C(=O)[O-])ccc1O
REMARK SMILES IDX 5 1 9 2 4 3 10 4 3 5 11 6 6 7 7 8 8 9 2 10 1 11 12 12
REMARK H PARENT 12 13
REMARK Flexibility Score: inf
ROOT
ATOM      1  C   UNL     1     149.036 131.876 149.723  1.00  0.00     0.001 A 
ATOM      2  C   UNL     1     149.830 130.786 150.119  1.00  0.00     0.014 A 
ATOM      3  C   UNL     1     149.049 133.048 150.501  1.00  0.00     0.060 A 
ATOM      4  C   UNL     1     150.620 130.867 151.267  1.00  0.00     0.051 A 
ATOM      5  C   UNL     1     149.846 133.134 151.661  1.00  0.00     0.161 A 
ATOM      6  C   UNL     1     150.630 132.036 152.037  1.00  0.00     0.157 A 
ENDROOT
BRANCH   1   7
ATOM      7  C   UNL     1     148.197 131.794 148.508  1.00  0.00     0.072 C 
ATOM      8  O   UNL     1     148.660 132.127 147.385  1.00  0.00    -0.545 OA
ATOM      9  O   UNL     1     146.882 131.346 148.587  1.00  0.00    -0.545 OA
ENDBRANCH   1   7
BRANCH   5  10
ATOM     10  O   UNL     1     149.884 134.288 152.460  1.00  0.00    -0.493 OA
ATOM     11  C   UNL     1     150.511 135.510 152.083  1.00  0.00     0.278 C 
ENDBRANCH   5  10
BRANCH   6  12
ATOM     12  O   UNL     1     151.421 132.115 153.183  1.00  0.00    -0.504 OA
ATOM     13  H   UNL     1     152.239 132.712 153.224  1.00  0.00     0.293 HD
ENDBRANCH   6  12
TORSDOF 3
ENDMDL
MODEL 8
REMARK VINA RESULT:    -3.159      1.697      2.209
REMARK INTER + INTRA:          -3.705
REMARK INTER:                  -3.603
REMARK INTRA:                  -0.102
REMARK UNBOUND:                -0.084
REMARK SMILES COc1cc(C(=O)[O-])ccc1O
REMARK SMILES IDX 5 1 9 2 4 3 10 4 3 5 11 6 6 7 7 8 8 9 2 10 1 11 12 12
REMARK H PARENT 12 13
REMARK Flexibility Score: inf
ROOT
ATOM      1  C   UNL     1     149.201 132.112 150.494  1.00  0.00     0.001 A 
ATOM      2  C   UNL     1     149.614 133.419 150.184  1.00  0.00     0.014 A 
ATOM      3  C   UNL     1     148.939 131.779 151.835  1.00  0.00     0.060 A 
ATOM      4  C   UNL     1     149.760 134.372 151.193  1.00  0.00     0.051 A 
ATOM      5  C   UNL     1     149.085 132.738 152.857  1.00  0.00     0.161 A 
ATOM      6  C   UNL     1     149.497 134.036 152.527  1.00  0.00     0.157 A 
ENDROOT
BRANCH   1   7
ATOM      7  C   UNL     1     149.045 131.099 149.427  1.00  0.00     0.072 C 
ATOM      8  O   UNL     1     149.727 131.172 148.369  1.00  0.00    -0.545 OA
ATOM      9  O   UNL     1     148.143 130.051 149.575  1.00  0.00    -0.545 OA
ENDBRANCH   1   7
BRANCH   5  10
ATOM     10  O   UNL     1     148.832 132.440 154.205  1.00  0.00    -0.493 OA
ATOM     11  C   UNL     1     147.532 132.317 154.774  1.00  0.00     0.278 C 
ENDBRANCH   5  10
BRANCH   6  12
ATOM     12  O   UNL     1     149.644 134.989 153.533  1.00  0.00    -0.504 OA
ATOM     13  H   UNL     1     149.013 135.779 153.612  1.00  0.00     0.293 HD
ENDBRANCH   6  12
TORSDOF 3
ENDMDL
MODEL 9
REMARK VINA RESULT:    -2.926      2.179      3.141
REMARK INTER + INTRA:          -3.438
REMARK INTER:                  -3.336
REMARK INTRA:                  -0.102
REMARK UNBOUND:                -0.084
REMARK SMILES COc1cc(C(=O)[O-])ccc1O
REMARK SMILES IDX 5 1 9 2 4 3 10 4 3 5 11 6 6 7 7 8 8 9 2 10 1 11 12 12
REMARK H PARENT 12 13
REMARK Flexibility Score: inf
ROOT
ATOM      1  C   UNL     1     148.891 132.061 151.015  1.00  0.00     0.001 A 
ATOM      2  C   UNL     1     148.035 131.828 152.106  1.00  0.00     0.014 A 
ATOM      3  C   UNL     1     149.781 133.149 151.066  1.00  0.00     0.060 A 
ATOM      4  C   UNL     1     148.070 132.665 153.223  1.00  0.00     0.051 A 
ATOM      5  C   UNL     1     149.819 133.996 152.191  1.00  0.00     0.161 A 
ATOM      6  C   UNL     1     148.958 133.746 153.268  1.00  0.00     0.157 A 
ENDROOT
BRANCH   1   7
ATOM      7  C   UNL     1     148.856 131.176 149.830  1.00  0.00     0.072 C 
ATOM      8  O   UNL     1     149.840 131.117 149.045  1.00  0.00    -0.545 OA
ATOM      9  O   UNL     1     147.736 130.396 149.564  1.00  0.00    -0.545 OA
ENDBRANCH   1   7
BRANCH   5  10
ATOM     10  O   UNL     1     150.695 135.090 152.276  1.00  0.00    -0.493 OA
ATOM     11  C   UNL     1     150.569 136.285 151.511  1.00  0.00     0.278 C 
ENDBRANCH   5  10
BRANCH   6  12
ATOM     12  O   UNL     1     148.992 134.581 154.385  1.00  0.00    -0.504 OA
ATOM     13  H   UNL     1     149.513 134.332 155.218  1.00  0.00     0.293 HD
ENDBRANCH   6  12
TORSDOF 3
ENDMDL
