MODEL 1
REMARK VINA RESULT:    -2.925      0.000      0.000
REMARK INTER + INTRA:          -4.680
REMARK INTER:                  -4.464
REMARK INTRA:                  -0.215
REMARK UNBOUND:                -0.215
REMARK SMILES CC1=CCC[C@H](C)C(=O)C[C@@H](C(C)C)C(=O)C1
REMARK SMILES IDX 8 1 9 2 6 3 7 4 5 5 4 6 3 7 2 8 1 9 10 11 11 12 15 13 16 14
REMARK SMILES IDX 17 15 12 17 13 18 14 19
REMARK H PARENT
REMARK Flexibility Score: 70.00
ROOT
ATOM      1  C   UNL     1       0.282   5.380  -6.999  1.00  0.00     0.136 C 
ATOM      2  O   UNL     1       0.697   5.843  -8.050  1.00  0.00    -0.299 OA
ENDROOT
BRANCH   1   3
ATOM      3  C   UNL     1       0.883   4.068  -6.512  1.00  0.00     0.053 C 
ATOM      4  C   UNL     1       0.863   2.945  -7.562  1.00  0.00     0.016 C 
BRANCH   3   5
ATOM      5  C   UNL     1       2.266   4.276  -5.860  1.00  0.00     0.015 C 
BRANCH   5   6
ATOM      6  C   UNL     1       2.234   4.560  -4.345  1.00  0.00     0.028 C 
BRANCH   6   7
ATOM      7  C   UNL     1       1.217   3.673  -3.670  1.00  0.00    -0.028 C 
ATOM      8  C   UNL     1       0.150   4.125  -2.970  1.00  0.00    -0.070 CG0
ATOM      9  C   UNL     1      -0.840   3.110  -2.456  1.00  0.00     0.039 C 
ATOM     10  G   UNL     1      -0.059   5.595  -2.644  1.00  0.00     0.000 G0
ENDBRANCH   6   7
ENDBRANCH   5   6
ENDBRANCH   3   5
ENDBRANCH   1   3
BRANCH   1  11
ATOM     11  C   UNL     1      -0.793   6.139  -6.242  1.00  0.00     0.087 C 
BRANCH  11  12
ATOM     12  C   UNL     1      -0.324   6.863  -4.942  1.00  0.00     0.066 C 
BRANCH  12  13
ATOM     13  C   UNL     1      -0.937   6.295  -3.667  1.00  0.00     0.140 C 
ATOM     14  O   UNL     1      -2.125   6.460  -3.430  1.00  0.00    -0.299 OA
BRANCH  13  15
ATOM     15  C   UNL     1      -0.069   5.605  -2.640  1.00  0.00     0.106 CG0
ATOM     16  G   UNL     1       0.161   4.135  -2.952  1.00  0.00     0.000 G0
ENDBRANCH  13  15
ENDBRANCH  12  13
BRANCH  12  17
ATOM     17  C   UNL     1      -0.398   8.425  -4.978  1.00  0.00    -0.006 C 
ATOM     18  C   UNL     1      -0.467   9.029  -6.390  1.00  0.00     0.008 C 
ATOM     19  C   UNL     1       0.759   9.068  -4.194  1.00  0.00     0.008 C 
ENDBRANCH  12  17
ENDBRANCH  11  12
ENDBRANCH   1  11
TORSDOF 1
ENDMDL
MODEL 2
REMARK VINA RESULT:    -2.770     10.740     13.279
REMARK INTER + INTRA:          -4.443
REMARK INTER:                  -4.286
REMARK INTRA:                  -0.157
REMARK UNBOUND:                -0.215
REMARK SMILES CC1=CCC[C@H](C)C(=O)C[C@@H](C(C)C)C(=O)C1
REMARK SMILES IDX 8 1 9 2 6 3 7 4 5 5 4 6 3 7 2 8 1 9 10 11 11 12 15 13 16 14
REMARK SMILES IDX 17 15 12 17 13 18 14 19
REMARK H PARENT
REMARK Flexibility Score: 70.00
ROOT
ATOM      1  C   UNL     1       1.010  13.249   3.534  1.00  0.00     0.136 C 
ATOM      2  O   UNL     1       1.674  12.523   2.809  1.00  0.00    -0.299 OA
ENDROOT
BRANCH   1   3
ATOM      3  C   UNL     1       1.734  14.359   4.284  1.00  0.00     0.053 C 
ATOM      4  C   UNL     1       2.250  15.489   3.380  1.00  0.00     0.016 C 
BRANCH   3   5
ATOM      5  C   UNL     1       0.918  14.863   5.494  1.00  0.00     0.015 C 
BRANCH   5   6
ATOM      6  C   UNL     1       0.447  16.327   5.395  1.00  0.00     0.028 C 
BRANCH   6   7
ATOM      7  C   UNL     1      -0.804  16.529   6.213  1.00  0.00    -0.028 C 
ATOM      8  C   UNL     1      -2.063  16.374   5.741  1.00  0.00    -0.070 CG0
ATOM      9  C   UNL     1      -3.205  16.496   6.718  1.00  0.00     0.039 C 
ATOM     10  G   UNL     1      -2.368  16.133   4.272  1.00  0.00     0.000 G0
ENDBRANCH   6   7
ENDBRANCH   5   6
ENDBRANCH   3   5
ENDBRANCH   1   3
BRANCH   1  11
ATOM     11  C   UNL     1      -0.485  13.008   3.634  1.00  0.00     0.087 C 
BRANCH  11  12
ATOM     12  C   UNL     1      -1.391  14.079   2.951  1.00  0.00     0.066 C 
BRANCH  12  13
ATOM     13  C   UNL     1      -2.440  14.680   3.880  1.00  0.00     0.140 C 
ATOM     14  O   UNL     1      -3.383  14.001   4.263  1.00  0.00    -0.299 OA
BRANCH  13  15
ATOM     15  C   UNL     1      -2.379  16.140   4.264  1.00  0.00     0.106 CG0
ATOM     16  G   UNL     1      -2.048  16.352   5.732  1.00  0.00     0.000 G0
ENDBRANCH  13  15
ENDBRANCH  12  13
BRANCH  12  17
ATOM     17  C   UNL     1      -2.005  13.661   1.574  1.00  0.00    -0.006 C 
ATOM     18  C   UNL     1      -1.631  12.244   1.112  1.00  0.00     0.008 C 
ATOM     19  C   UNL     1      -1.664  14.674   0.468  1.00  0.00     0.008 C 
ENDBRANCH  12  17
ENDBRANCH  11  12
ENDBRANCH   1  11
TORSDOF 1
ENDMDL
MODEL 3
REMARK VINA RESULT:    -2.756      2.487      3.709
REMARK INTER + INTRA:          -4.422
REMARK INTER:                  -4.286
REMARK INTRA:                  -0.136
REMARK UNBOUND:                -0.215
REMARK SMILES CC1=CCC[C@H](C)C(=O)C[C@@H](C(C)C)C(=O)C1
REMARK SMILES IDX 8 1 9 2 6 3 7 4 5 5 4 6 3 7 2 8 1 9 10 11 11 12 15 13 16 14
REMARK SMILES IDX 17 15 12 17 13 18 14 19
REMARK H PARENT
REMARK Flexibility Score: 70.00
ROOT
ATOM      1  C   UNL     1       0.273   9.043  -5.655  1.00  0.00     0.136 C 
ATOM      2  O   UNL     1       0.793   9.767  -6.491  1.00  0.00    -0.299 OA
ENDROOT
BRANCH   1   3
ATOM      3  C   UNL     1      -1.119   8.502  -5.950  1.00  0.00     0.053 C 
ATOM      4  C   UNL     1      -1.232   7.772  -7.298  1.00  0.00     0.016 C 
BRANCH   3   5
ATOM      5  C   UNL     1      -1.685   7.693  -4.763  1.00  0.00     0.015 C 
BRANCH   5   6
ATOM      6  C   UNL     1      -1.235   6.219  -4.708  1.00  0.00     0.028 C 
BRANCH   6   7
ATOM      7  C   UNL     1      -1.195   5.740  -3.278  1.00  0.00    -0.028 C 
ATOM      8  C   UNL     1      -0.063   5.420  -2.608  1.00  0.00    -0.070 CG0
ATOM      9  C   UNL     1      -0.181   5.071  -1.146  1.00  0.00     0.039 C 
ATOM     10  G   UNL     1       1.300   5.351  -3.278  1.00  0.00     0.000 G0
ENDBRANCH   6   7
ENDBRANCH   5   6
ENDBRANCH   3   5
ENDBRANCH   1   3
BRANCH   1  11
ATOM     11  C   UNL     1       1.045   8.722  -4.389  1.00  0.00     0.087 C 
BRANCH  11  12
ATOM     12  C   UNL     1       2.067   7.547  -4.497  1.00  0.00     0.066 C 
BRANCH  12  13
ATOM     13  C   UNL     1       2.083   6.631  -3.278  1.00  0.00     0.140 C 
ATOM     14  O   UNL     1       2.778   6.908  -2.310  1.00  0.00    -0.299 OA
BRANCH  13  15
ATOM     15  C   UNL     1       1.314   5.330  -3.286  1.00  0.00     0.106 CG0
ATOM     16  G   UNL     1      -0.046   5.442  -2.618  1.00  0.00     0.000 G0
ENDBRANCH  13  15
ENDBRANCH  12  13
BRANCH  12  17
ATOM     17  C   UNL     1       3.512   7.952  -4.939  1.00  0.00    -0.006 C 
ATOM     18  C   UNL     1       3.893   9.406  -4.622  1.00  0.00     0.008 C 
ATOM     19  C   UNL     1       3.751   7.667  -6.432  1.00  0.00     0.008 C 
ENDBRANCH  12  17
ENDBRANCH  11  12
ENDBRANCH   1  11
TORSDOF 1
ENDMDL
MODEL 4
REMARK VINA RESULT:    -2.642      2.194      3.575
REMARK INTER + INTRA:          -4.248
REMARK INTER:                  -3.993
REMARK INTRA:                  -0.255
REMARK UNBOUND:                -0.215
REMARK SMILES CC1=CCC[C@H](C)C(=O)C[C@@H](C(C)C)C(=O)C1
REMARK SMILES IDX 8 1 9 2 6 3 7 4 5 5 4 6 3 7 2 8 1 9 10 11 11 12 15 13 16 14
REMARK SMILES IDX 17 15 12 17 13 18 14 19
REMARK H PARENT
REMARK Flexibility Score: 70.00
ROOT
ATOM      1  C   UNL     1       2.568   6.014  -2.487  1.00  0.00     0.136 C 
ATOM      2  O   UNL     1       3.154   6.984  -2.028  1.00  0.00    -0.299 OA
ENDROOT
BRANCH   1   3
ATOM      3  C   UNL     1       2.467   4.768  -1.618  1.00  0.00     0.053 C 
ATOM      4  C   UNL     1       3.821   4.100  -1.326  1.00  0.00     0.016 C 
BRANCH   3   5
ATOM      5  C   UNL     1       1.618   5.015  -0.353  1.00  0.00     0.015 C 
BRANCH   5   6
ATOM      6  C   UNL     1       0.093   4.939  -0.570  1.00  0.00     0.028 C 
BRANCH   6   7
ATOM      7  C   UNL     1      -0.242   3.830  -1.535  1.00  0.00    -0.028 C 
ATOM      8  C   UNL     1      -0.835   4.012  -2.738  1.00  0.00    -0.070 CG0
ATOM      9  C   UNL     1      -0.994   2.812  -3.637  1.00  0.00     0.039 C 
ATOM     10  G   UNL     1      -1.385   5.355  -3.190  1.00  0.00     0.000 G0
ENDBRANCH   6   7
ENDBRANCH   5   6
ENDBRANCH   3   5
ENDBRANCH   1   3
BRANCH   1  11
ATOM     11  C   UNL     1       1.974   6.114  -3.879  1.00  0.00     0.087 C 
BRANCH  11  12
ATOM     12  C   UNL     1       0.624   6.889  -3.986  1.00  0.00     0.066 C 
BRANCH  12  13
ATOM     13  C   UNL     1      -0.573   5.999  -4.305  1.00  0.00     0.140 C 
ATOM     14  O   UNL     1      -0.936   5.849  -5.463  1.00  0.00    -0.299 OA
BRANCH  13  15
ATOM     15  C   UNL     1      -1.378   5.369  -3.191  1.00  0.00     0.106 CG0
ATOM     16  G   UNL     1      -0.820   4.028  -2.744  1.00  0.00     0.000 G0
ENDBRANCH  13  15
ENDBRANCH  12  13
BRANCH  12  17
ATOM     17  C   UNL     1       0.653   8.169  -4.885  1.00  0.00    -0.006 C 
ATOM     18  C   UNL     1       2.008   8.893  -4.922  1.00  0.00     0.008 C 
ATOM     19  C   UNL     1      -0.456   9.163  -4.497  1.00  0.00     0.008 C 
ENDBRANCH  12  17
ENDBRANCH  11  12
ENDBRANCH   1  11
TORSDOF 1
ENDMDL
MODEL 5
REMARK VINA RESULT:    -2.640      2.261      4.629
REMARK INTER + INTRA:          -4.244
REMARK INTER:                  -4.396
REMARK INTRA:                   0.153
REMARK UNBOUND:                -0.215
REMARK SMILES CC1=CCC[C@H](C)C(=O)C[C@@H](C(C)C)C(=O)C1
REMARK SMILES IDX 8 1 9 2 6 3 7 4 5 5 4 6 3 7 2 8 1 9 10 11 11 12 15 13 16 14
REMARK SMILES IDX 17 15 12 17 13 18 14 19
REMARK H PARENT
REMARK Flexibility Score: 70.00
ROOT
ATOM      1  C   UNL     1      -1.104   6.893  -4.704  1.00  0.00     0.136 C 
ATOM      2  O   UNL     1      -2.169   7.121  -4.151  1.00  0.00    -0.299 OA
ENDROOT
BRANCH   1   3
ATOM      3  C   UNL     1      -0.469   8.016  -5.514  1.00  0.00     0.053 C 
ATOM      4  C   UNL     1      -1.424   8.673  -6.524  1.00  0.00     0.016 C 
BRANCH   3   5
ATOM      5  C   UNL     1       0.266   9.031  -4.613  1.00  0.00     0.015 C 
BRANCH   5   6
ATOM      6  C   UNL     1       1.803   9.018  -4.741  1.00  0.00     0.028 C 
BRANCH   6   7
ATOM      7  C   UNL     1       2.428   8.510  -3.466  1.00  0.00    -0.028 C 
ATOM      8  C   UNL     1       3.034   7.307  -3.335  1.00  0.00    -0.070 CG0
ATOM      9  C   UNL     1       3.714   6.996  -2.026  1.00  0.00     0.039 C 
ATOM     10  G   UNL     1       3.013   6.250  -4.428  1.00  0.00     0.000 G0
ENDBRANCH   6   7
ENDBRANCH   5   6
ENDBRANCH   3   5
ENDBRANCH   1   3
BRANCH   1  11
ATOM     11  C   UNL     1      -0.478   5.520  -4.544  1.00  0.00     0.087 C 
BRANCH  11  12
ATOM     12  C   UNL     1       0.692   5.424  -3.515  1.00  0.00     0.066 C 
BRANCH  12  13
ATOM     13  C   UNL     1       2.046   5.125  -4.149  1.00  0.00     0.140 C 
ATOM     14  O   UNL     1       2.377   3.969  -4.374  1.00  0.00    -0.299 OA
BRANCH  13  15
ATOM     15  C   UNL     1       3.028   6.241  -4.423  1.00  0.00     0.106 CG0
ATOM     16  G   UNL     1       3.035   7.302  -3.335  1.00  0.00     0.000 G0
ENDBRANCH  13  15
ENDBRANCH  12  13
BRANCH  12  17
ATOM     17  C   UNL     1       0.419   4.517  -2.271  1.00  0.00    -0.006 C 
ATOM     18  C   UNL     1      -0.361   3.229  -2.578  1.00  0.00     0.008 C 
ATOM     19  C   UNL     1      -0.285   5.293  -1.144  1.00  0.00     0.008 C 
ENDBRANCH  12  17
ENDBRANCH  11  12
ENDBRANCH   1  11
TORSDOF 1
ENDMDL
MODEL 6
REMARK VINA RESULT:    -2.589     14.743     16.113
REMARK INTER + INTRA:          -4.167
REMARK INTER:                  -4.258
REMARK INTRA:                   0.091
REMARK UNBOUND:                -0.215
REMARK SMILES CC1=CCC[C@H](C)C(=O)C[C@@H](C(C)C)C(=O)C1
REMARK SMILES IDX 8 1 9 2 6 3 7 4 5 5 4 6 3 7 2 8 1 9 10 11 11 12 15 13 16 14
REMARK SMILES IDX 17 15 12 17 13 18 14 19
REMARK H PARENT
REMARK Flexibility Score: 70.00
ROOT
ATOM      1  C   UNL     1      -6.405   9.082   7.470  1.00  0.00     0.136 C 
ATOM      2  O   UNL     1      -6.794   9.918   6.667  1.00  0.00    -0.299 OA
ENDROOT
BRANCH   1   3
ATOM      3  C   UNL     1      -5.114   9.367   8.225  1.00  0.00     0.053 C 
ATOM      4  C   UNL     1      -5.081  10.746   8.905  1.00  0.00     0.016 C 
BRANCH   3   5
ATOM      5  C   UNL     1      -4.729   8.207   9.167  1.00  0.00     0.015 C 
BRANCH   5   6
ATOM      6  C   UNL     1      -5.366   8.272  10.570  1.00  0.00     0.028 C 
BRANCH   6   7
ATOM      7  C   UNL     1      -6.022   6.956  10.906  1.00  0.00    -0.028 C 
ATOM      8  C   UNL     1      -7.352   6.721  10.828  1.00  0.00    -0.070 CG0
ATOM      9  C   UNL     1      -7.839   5.317  11.084  1.00  0.00     0.039 C 
ATOM     10  G   UNL     1      -8.368   7.815  10.544  1.00  0.00     0.000 G0
ENDBRANCH   6   7
ENDBRANCH   5   6
ENDBRANCH   3   5
ENDBRANCH   1   3
BRANCH   1  11
ATOM     11  C   UNL     1      -7.231   7.825   7.670  1.00  0.00     0.087 C 
BRANCH  11  12
ATOM     12  C   UNL     1      -8.752   8.048   7.939  1.00  0.00     0.066 C 
BRANCH  12  13
ATOM     13  C   UNL     1      -9.212   7.558   9.307  1.00  0.00     0.140 C 
ATOM     14  O   UNL     1     -10.294   7.002   9.429  1.00  0.00    -0.299 OA
BRANCH  13  15
ATOM     15  C   UNL     1      -8.383   7.834  10.541  1.00  0.00     0.106 CG0
ATOM     16  G   UNL     1      -7.366   6.741  10.826  1.00  0.00     0.000 G0
ENDBRANCH  13  15
ENDBRANCH  12  13
BRANCH  12  17
ATOM     17  C   UNL     1      -9.713   7.578   6.798  1.00  0.00    -0.006 C 
ATOM     18  C   UNL     1      -9.244   6.323   6.045  1.00  0.00     0.008 C 
ATOM     19  C   UNL     1     -10.001   8.708   5.795  1.00  0.00     0.008 C 
ENDBRANCH  12  17
ENDBRANCH  11  12
ENDBRANCH   1  11
TORSDOF 1
ENDMDL
MODEL 7
REMARK VINA RESULT:    -2.553      2.347      3.813
REMARK INTER + INTRA:          -4.111
REMARK INTER:                  -4.437
REMARK INTRA:                   0.326
REMARK UNBOUND:                -0.215
REMARK SMILES CC1=CCC[C@H](C)C(=O)C[C@@H](C(C)C)C(=O)C1
REMARK SMILES IDX 8 1 9 2 6 3 7 4 5 5 4 6 3 7 2 8 1 9 10 11 11 12 15 13 16 14
REMARK SMILES IDX 17 15 12 17 13 18 14 19
REMARK H PARENT
REMARK Flexibility Score: 70.00
ROOT
ATOM      1  C   UNL     1      -1.293   6.258  -3.363  1.00  0.00     0.136 C 
ATOM      2  O   UNL     1      -2.435   5.825  -3.312  1.00  0.00    -0.299 OA
ENDROOT
BRANCH   1   3
ATOM      3  C   UNL     1      -0.192   5.439  -2.704  1.00  0.00     0.053 C 
ATOM      4  C   UNL     1      -0.575   4.871  -1.328  1.00  0.00     0.016 C 
BRANCH   3   5
ATOM      5  C   UNL     1       0.392   4.381  -3.665  1.00  0.00     0.015 C 
BRANCH   5   6
ATOM      6  C   UNL     1       1.809   4.691  -4.188  1.00  0.00     0.028 C 
BRANCH   6   7
ATOM      7  C   UNL     1       2.620   5.380  -3.120  1.00  0.00    -0.028 C 
ATOM      8  C   UNL     1       2.993   6.680  -3.159  1.00  0.00    -0.070 CG0
ATOM      9  C   UNL     1       3.701   7.250  -1.956  1.00  0.00     0.039 C 
ATOM     10  G   UNL     1       2.772   7.565  -4.375  1.00  0.00     0.000 G0
ENDBRANCH   6   7
ENDBRANCH   5   6
ENDBRANCH   3   5
ENDBRANCH   1   3
BRANCH   1  11
ATOM     11  C   UNL     1      -1.044   7.570  -4.083  1.00  0.00     0.087 C 
BRANCH  11  12
ATOM     12  C   UNL     1       0.216   7.609  -5.004  1.00  0.00     0.066 C 
BRANCH  12  13
ATOM     13  C   UNL     1       1.427   8.276  -4.361  1.00  0.00     0.140 C 
ATOM     14  O   UNL     1       1.334   9.405  -3.900  1.00  0.00    -0.299 OA
BRANCH  13  15
ATOM     15  C   UNL     1       2.774   7.591  -4.369  1.00  0.00     0.106 CG0
ATOM     16  G   UNL     1       2.992   6.702  -3.155  1.00  0.00     0.000 G0
ENDBRANCH  13  15
ENDBRANCH  12  13
BRANCH  12  17
ATOM     17  C   UNL     1      -0.031   8.129  -6.459  1.00  0.00    -0.006 C 
ATOM     18  C   UNL     1       1.006   9.147  -6.957  1.00  0.00     0.008 C 
ATOM     19  C   UNL     1      -1.447   8.707  -6.624  1.00  0.00     0.008 C 
ENDBRANCH  12  17
ENDBRANCH  11  12
ENDBRANCH   1  11
TORSDOF 1
ENDMDL
MODEL 8
REMARK VINA RESULT:    -2.483      2.376      4.844
REMARK INTER + INTRA:          -4.005
REMARK INTER:                  -3.994
REMARK INTRA:                  -0.010
REMARK UNBOUND:                -0.215
REMARK SMILES CC1=CCC[C@H](C)C(=O)C[C@@H](C(C)C)C(=O)C1
REMARK SMILES IDX 8 1 9 2 6 3 7 4 5 5 4 6 3 7 2 8 1 9 10 11 11 12 15 13 16 14
REMARK SMILES IDX 17 15 12 17 13 18 14 19
REMARK H PARENT
REMARK Flexibility Score: 70.00
ROOT
ATOM      1  C   UNL     1       2.225   6.752  -3.021  1.00  0.00     0.136 C 
ATOM      2  O   UNL     1       3.237   6.470  -2.396  1.00  0.00    -0.299 OA
ENDROOT
BRANCH   1   3
ATOM      3  C   UNL     1       2.334   7.809  -4.112  1.00  0.00     0.053 C 
ATOM      4  C   UNL     1       2.867   9.164  -3.617  1.00  0.00     0.016 C 
BRANCH   3   5
ATOM      5  C   UNL     1       3.072   7.276  -5.358  1.00  0.00     0.015 C 
BRANCH   5   6
ATOM      6  C   UNL     1       2.155   6.840  -6.518  1.00  0.00     0.028 C 
BRANCH   6   7
ATOM      7  C   UNL     1       1.147   7.921  -6.821  1.00  0.00    -0.028 C 
ATOM      8  C   UNL     1      -0.176   7.832  -6.551  1.00  0.00    -0.070 CG0
ATOM      9  C   UNL     1      -1.033   9.047  -6.806  1.00  0.00     0.039 C 
ATOM     10  G   UNL     1      -0.833   6.555  -6.054  1.00  0.00     0.000 G0
ENDBRANCH   6   7
ENDBRANCH   5   6
ENDBRANCH   3   5
ENDBRANCH   1   3
BRANCH   1  11
ATOM     11  C   UNL     1       0.933   6.032  -2.680  1.00  0.00     0.087 C 
BRANCH  11  12
ATOM     12  C   UNL     1       0.156   5.426  -3.889  1.00  0.00     0.066 C 
BRANCH  12  13
ATOM     13  C   UNL     1      -0.809   6.403  -4.552  1.00  0.00     0.140 C 
ATOM     14  O   UNL     1      -1.615   7.025  -3.876  1.00  0.00    -0.299 OA
BRANCH  13  15
ATOM     15  C   UNL     1      -0.843   6.546  -6.057  1.00  0.00     0.106 CG0
ATOM     16  G   UNL     1      -0.182   7.825  -6.544  1.00  0.00     0.000 G0
ENDBRANCH  13  15
ENDBRANCH  12  13
BRANCH  12  17
ATOM     17  C   UNL     1      -0.511   4.034  -3.631  1.00  0.00    -0.006 C 
ATOM     18  C   UNL     1      -1.255   3.922  -2.291  1.00  0.00     0.008 C 
ATOM     19  C   UNL     1       0.503   2.885  -3.760  1.00  0.00     0.008 C 
ENDBRANCH  12  17
ENDBRANCH  11  12
ENDBRANCH   1  11
TORSDOF 1
ENDMDL
MODEL 9
REMARK VINA RESULT:    -2.379     10.583     13.229
REMARK INTER + INTRA:          -3.846
REMARK INTER:                  -4.264
REMARK INTRA:                   0.418
REMARK UNBOUND:                -0.215
REMARK SMILES CC1=CCC[C@H](C)C(=O)C[C@@H](C(C)C)C(=O)C1
REMARK SMILES IDX 8 1 9 2 6 3 7 4 5 5 4 6 3 7 2 8 1 9 10 11 11 12 15 13 16 14
REMARK SMILES IDX 17 15 12 17 13 18 14 19
REMARK H PARENT
REMARK Flexibility Score: 70.00
ROOT
ATOM      1  C   UNL     1      -3.010  12.922   5.265  1.00  0.00     0.136 C 
ATOM      2  O   UNL     1      -3.255  11.727   5.190  1.00  0.00    -0.299 OA
ENDROOT
BRANCH   1   3
ATOM      3  C   UNL     1      -2.827  13.524   6.652  1.00  0.00     0.053 C 
ATOM      4  C   UNL     1      -3.522  12.734   7.772  1.00  0.00     0.016 C 
BRANCH   3   5
ATOM      5  C   UNL     1      -1.347  13.843   6.951  1.00  0.00     0.015 C 
BRANCH   5   6
ATOM      6  C   UNL     1      -0.930  15.303   6.685  1.00  0.00     0.028 C 
BRANCH   6   7
ATOM      7  C   UNL     1       0.453  15.349   6.085  1.00  0.00    -0.028 C 
ATOM      8  C   UNL     1       0.712  15.420   4.759  1.00  0.00    -0.070 CG0
ATOM      9  C   UNL     1       2.148  15.580   4.326  1.00  0.00     0.039 C 
ATOM     10  G   UNL     1      -0.371  15.298   3.700  1.00  0.00     0.000 G0
ENDBRANCH   6   7
ENDBRANCH   5   6
ENDBRANCH   3   5
ENDBRANCH   1   3
BRANCH   1  11
ATOM     11  C   UNL     1      -2.893  13.724   3.982  1.00  0.00     0.087 C 
BRANCH  11  12
ATOM     12  C   UNL     1      -1.829  13.217   2.960  1.00  0.00     0.066 C 
BRANCH  12  13
ATOM     13  C   UNL     1      -0.477  13.911   3.086  1.00  0.00     0.140 C 
ATOM     14  O   UNL     1       0.547  13.325   2.765  1.00  0.00    -0.299 OA
BRANCH  13  15
ATOM     15  C   UNL     1      -0.377  15.292   3.691  1.00  0.00     0.106 CG0
ATOM     16  G   UNL     1       0.711  15.397   4.748  1.00  0.00     0.000 G0
ENDBRANCH  13  15
ENDBRANCH  12  13
BRANCH  12  17
ATOM     17  C   UNL     1      -2.307  13.140   1.473  1.00  0.00    -0.006 C 
ATOM     18  C   UNL     1      -2.018  11.801   0.777  1.00  0.00     0.008 C 
ATOM     19  C   UNL     1      -1.737  14.295   0.631  1.00  0.00     0.008 C 
ENDBRANCH  12  17
ENDBRANCH  11  12
ENDBRANCH   1  11
TORSDOF 1
ENDMDL
