MODEL 1
REMARK VINA RESULT:    -4.816      0.000      0.000
REMARK INTER + INTRA:         -10.539
REMARK INTER:                  -8.475
REMARK INTRA:                  -2.064
REMARK UNBOUND:                -2.064
REMARK SMILES CCCCCCCCCCCCCCC(=O)[O-]
REMARK SMILES IDX 9 1 10 2 11 3 12 4 13 5 14 6 15 7 16 8 17 9 8 10 7 11 6 12
REMARK SMILES IDX 5 13 4 14 3 15 2 16 1 17
REMARK H PARENT
REMARK Flexibility Score: inf
ROOT
ATOM      1  C   UNL     1      88.324  74.283  74.501  1.00  0.00     0.000 C 
ENDROOT
BRANCH   1   2
ATOM      2  C   UNL     1      89.757  73.764  74.310  1.00  0.00     0.000 C 
BRANCH   2   3
ATOM      3  C   UNL     1      90.113  73.545  72.829  1.00  0.00     0.000 C 
BRANCH   3   4
ATOM      4  C   UNL     1      88.877  73.553  71.911  1.00  0.00     0.000 C 
BRANCH   4   5
ATOM      5  C   UNL     1      89.101  74.189  70.524  1.00  0.00     0.006 C 
BRANCH   5   6
ATOM      6  C   UNL     1      90.492  74.808  70.323  1.00  0.00     0.053 C 
BRANCH   6   7
ATOM      7  C   UNL     1      90.412  76.200  69.776  1.00  0.00     0.041 C 
ATOM      8  O   UNL     1      91.303  77.044  70.058  1.00  0.00    -0.550 OA
ATOM      9  O   UNL     1      89.335  76.575  68.983  1.00  0.00    -0.550 OA
ENDBRANCH   6   7
ENDBRANCH   5   6
ENDBRANCH   4   5
ENDBRANCH   3   4
ENDBRANCH   2   3
ENDBRANCH   1   2
BRANCH   1  10
ATOM     10  C   UNL     1      87.429  73.278  75.248  1.00  0.00     0.000 C 
BRANCH  10  11
ATOM     11  C   UNL     1      85.951  73.382  74.837  1.00  0.00    -0.000 C 
BRANCH  11  12
ATOM     12  C   UNL     1      85.739  74.307  73.626  1.00  0.00    -0.000 C 
BRANCH  12  13
ATOM     13  C   UNL     1      85.044  75.625  74.007  1.00  0.00    -0.000 C 
BRANCH  13  14
ATOM     14  C   UNL     1      85.793  76.860  73.477  1.00  0.00    -0.000 C 
BRANCH  14  15
ATOM     15  C   UNL     1      86.771  76.524  72.338  1.00  0.00    -0.000 C 
BRANCH  15  16
ATOM     16  C   UNL     1      87.872  77.572  72.096  1.00  0.00    -0.003 C 
ATOM     17  C   UNL     1      89.038  77.451  73.076  1.00  0.00     0.004 C 
ENDBRANCH  15  16
ENDBRANCH  14  15
ENDBRANCH  13  14
ENDBRANCH  12  13
ENDBRANCH  11  12
ENDBRANCH  10  11
ENDBRANCH   1  10
TORSDOF 13
ENDMDL
MODEL 2
REMARK VINA RESULT:    -4.630      2.851      5.329
REMARK INTER + INTRA:         -10.212
REMARK INTER:                  -8.214
REMARK INTRA:                  -1.998
REMARK UNBOUND:                -2.064
REMARK SMILES CCCCCCCCCCCCCCC(=O)[O-]
REMARK SMILES IDX 9 1 10 2 11 3 12 4 13 5 14 6 15 7 16 8 17 9 8 10 7 11 6 12
REMARK SMILES IDX 5 13 4 14 3 15 2 16 1 17
REMARK H PARENT
REMARK Flexibility Score: inf
ROOT
ATOM      1  C   UNL     1      88.264  76.608  73.377  1.00  0.00     0.000 C 
ENDROOT
BRANCH   1   2
ATOM      2  C   UNL     1      89.680  76.018  73.472  1.00  0.00     0.000 C 
BRANCH   2   3
ATOM      3  C   UNL     1      89.670  74.494  73.682  1.00  0.00     0.000 C 
BRANCH   3   4
ATOM      4  C   UNL     1      88.394  73.997  74.386  1.00  0.00     0.000 C 
BRANCH   4   5
ATOM      5  C   UNL     1      87.315  73.419  73.448  1.00  0.00     0.006 C 
BRANCH   5   6
ATOM      6  C   UNL     1      85.976  73.104  74.132  1.00  0.00     0.053 C 
BRANCH   6   7
ATOM      7  C   UNL     1      85.267  74.347  74.574  1.00  0.00     0.041 C 
ATOM      8  O   UNL     1      84.875  74.465  75.765  1.00  0.00    -0.550 OA
ATOM      9  O   UNL     1      85.007  75.362  73.660  1.00  0.00    -0.550 OA
ENDBRANCH   6   7
ENDBRANCH   5   6
ENDBRANCH   4   5
ENDBRANCH   3   4
ENDBRANCH   2   3
ENDBRANCH   1   2
BRANCH   1  10
ATOM     10  C   UNL     1      87.994  77.271  72.014  1.00  0.00     0.000 C 
BRANCH  10  11
ATOM     11  C   UNL     1      87.198  76.363  71.062  1.00  0.00    -0.000 C 
BRANCH  11  12
ATOM     12  C   UNL     1      87.753  76.385  69.626  1.00  0.00    -0.000 C 
BRANCH  12  13
ATOM     13  C   UNL     1      89.265  76.664  69.584  1.00  0.00    -0.000 C 
BRANCH  13  14
ATOM     14  C   UNL     1      90.071  75.461  69.064  1.00  0.00    -0.000 C 
BRANCH  14  15
ATOM     15  C   UNL     1      90.838  74.727  70.179  1.00  0.00    -0.000 C 
BRANCH  15  16
ATOM     16  C   UNL     1      90.437  73.254  70.382  1.00  0.00    -0.003 C 
ATOM     17  C   UNL     1      88.988  72.969  69.993  1.00  0.00     0.004 C 
ENDBRANCH  15  16
ENDBRANCH  14  15
ENDBRANCH  13  14
ENDBRANCH  12  13
ENDBRANCH  11  12
ENDBRANCH  10  11
ENDBRANCH   1  10
TORSDOF 13
ENDMDL
MODEL 3
REMARK VINA RESULT:    -4.512      2.160      5.130
REMARK INTER + INTRA:         -10.005
REMARK INTER:                  -8.195
REMARK INTRA:                  -1.810
REMARK UNBOUND:                -2.064
REMARK SMILES CCCCCCCCCCCCCCC(=O)[O-]
REMARK SMILES IDX 9 1 10 2 11 3 12 4 13 5 14 6 15 7 16 8 17 9 8 10 7 11 6 12
REMARK SMILES IDX 5 13 4 14 3 15 2 16 1 17
REMARK H PARENT
REMARK Flexibility Score: inf
ROOT
ATOM      1  C   UNL     1      87.180  77.453  72.740  1.00  0.00     0.000 C 
ENDROOT
BRANCH   1   2
ATOM      2  C   UNL     1      85.930  76.929  73.465  1.00  0.00     0.000 C 
BRANCH   2   3
ATOM      3  C   UNL     1      85.608  75.469  73.104  1.00  0.00     0.000 C 
BRANCH   3   4
ATOM      4  C   UNL     1      86.090  74.469  74.172  1.00  0.00     0.000 C 
BRANCH   4   5
ATOM      5  C   UNL     1      87.351  73.667  73.790  1.00  0.00     0.006 C 
BRANCH   5   6
ATOM      6  C   UNL     1      88.390  73.538  74.914  1.00  0.00     0.053 C 
BRANCH   6   7
ATOM      7  C   UNL     1      89.667  74.247  74.582  1.00  0.00     0.041 C 
ATOM      8  O   UNL     1      89.639  75.412  74.105  1.00  0.00    -0.550 OA
ATOM      9  O   UNL     1      90.886  73.607  74.767  1.00  0.00    -0.550 OA
ENDBRANCH   6   7
ENDBRANCH   5   6
ENDBRANCH   4   5
ENDBRANCH   3   4
ENDBRANCH   2   3
ENDBRANCH   1   2
BRANCH   1  10
ATOM     10  C   UNL     1      87.506  76.644  71.472  1.00  0.00     0.000 C 
BRANCH  10  11
ATOM     11  C   UNL     1      88.900  76.962  70.908  1.00  0.00    -0.000 C 
BRANCH  11  12
ATOM     12  C   UNL     1      89.042  76.564  69.428  1.00  0.00    -0.000 C 
BRANCH  12  13
ATOM     13  C   UNL     1      88.097  75.417  69.034  1.00  0.00    -0.000 C 
BRANCH  13  14
ATOM     14  C   UNL     1      88.816  74.058  68.968  1.00  0.00    -0.000 C 
BRANCH  14  15
ATOM     15  C   UNL     1      88.745  73.279  70.294  1.00  0.00    -0.000 C 
BRANCH  15  16
ATOM     16  C   UNL     1      90.027  73.326  71.145  1.00  0.00    -0.003 C 
ATOM     17  C   UNL     1      91.234  73.865  70.379  1.00  0.00     0.004 C 
ENDBRANCH  15  16
ENDBRANCH  14  15
ENDBRANCH  13  14
ENDBRANCH  12  13
ENDBRANCH  11  12
ENDBRANCH  10  11
ENDBRANCH   1  10
TORSDOF 13
ENDMDL
MODEL 4
REMARK VINA RESULT:    -4.488      0.835      2.765
REMARK INTER + INTRA:          -9.963
REMARK INTER:                  -7.744
REMARK INTRA:                  -2.218
REMARK UNBOUND:                -2.064
REMARK SMILES CCCCCCCCCCCCCCC(=O)[O-]
REMARK SMILES IDX 9 1 10 2 11 3 12 4 13 5 14 6 15 7 16 8 17 9 8 10 7 11 6 12
REMARK SMILES IDX 5 13 4 14 3 15 2 16 1 17
REMARK H PARENT
REMARK Flexibility Score: inf
ROOT
ATOM      1  C   UNL     1      89.184  75.280  74.399  1.00  0.00     0.000 C 
ENDROOT
BRANCH   1   2
ATOM      2  C   UNL     1      89.430  73.815  74.005  1.00  0.00     0.000 C 
BRANCH   2   3
ATOM      3  C   UNL     1      89.991  73.675  72.579  1.00  0.00     0.000 C 
BRANCH   3   4
ATOM      4  C   UNL     1      88.892  73.450  71.525  1.00  0.00     0.000 C 
BRANCH   4   5
ATOM      5  C   UNL     1      89.222  73.984  70.116  1.00  0.00     0.006 C 
BRANCH   5   6
ATOM      6  C   UNL     1      90.542  74.765  70.023  1.00  0.00     0.053 C 
BRANCH   6   7
ATOM      7  C   UNL     1      90.315  76.215  69.725  1.00  0.00     0.041 C 
ATOM      8  O   UNL     1      91.190  77.069  70.029  1.00  0.00    -0.550 OA
ATOM      9  O   UNL     1      89.123  76.627  69.142  1.00  0.00    -0.550 OA
ENDBRANCH   6   7
ENDBRANCH   5   6
ENDBRANCH   4   5
ENDBRANCH   3   4
ENDBRANCH   2   3
ENDBRANCH   1   2
BRANCH   1  10
ATOM     10  C   UNL     1      89.805  76.270  73.398  1.00  0.00     0.000 C 
BRANCH  10  11
ATOM     11  C   UNL     1      88.827  77.378  72.975  1.00  0.00    -0.000 C 
BRANCH  11  12
ATOM     12  C   UNL     1      87.360  77.012  73.267  1.00  0.00    -0.000 C 
BRANCH  12  13
ATOM     13  C   UNL     1      86.698  76.262  72.099  1.00  0.00    -0.000 C 
BRANCH  13  14
ATOM     14  C   UNL     1      85.565  75.330  72.564  1.00  0.00    -0.000 C 
BRANCH  14  15
ATOM     15  C   UNL     1      85.157  75.570  74.028  1.00  0.00    -0.000 C 
BRANCH  15  16
ATOM     16  C   UNL     1      85.142  74.309  74.913  1.00  0.00    -0.003 C 
ATOM     17  C   UNL     1      86.003  73.177  74.355  1.00  0.00     0.004 C 
ENDBRANCH  15  16
ENDBRANCH  14  15
ENDBRANCH  13  14
ENDBRANCH  12  13
ENDBRANCH  11  12
ENDBRANCH  10  11
ENDBRANCH   1  10
TORSDOF 13
ENDMDL
MODEL 5
REMARK VINA RESULT:    -4.128      1.589      3.588
REMARK INTER + INTRA:          -9.328
REMARK INTER:                  -8.193
REMARK INTRA:                  -1.135
REMARK UNBOUND:                -2.064
REMARK SMILES CCCCCCCCCCCCCCC(=O)[O-]
REMARK SMILES IDX 9 1 10 2 11 3 12 4 13 5 14 6 15 7 16 8 17 9 8 10 7 11 6 12
REMARK SMILES IDX 5 13 4 14 3 15 2 16 1 17
REMARK H PARENT
REMARK Flexibility Score: inf
ROOT
ATOM      1  C   UNL     1      87.536  76.770  72.968  1.00  0.00     0.000 C 
ENDROOT
BRANCH   1   2
ATOM      2  C   UNL     1      87.799  77.329  71.561  1.00  0.00     0.000 C 
BRANCH   2   3
ATOM      3  C   UNL     1      87.454  76.320  70.452  1.00  0.00     0.000 C 
BRANCH   3   4
ATOM      4  C   UNL     1      88.414  76.402  69.251  1.00  0.00     0.000 C 
BRANCH   4   5
ATOM      5  C   UNL     1      89.911  76.284  69.604  1.00  0.00     0.006 C 
BRANCH   5   6
ATOM      6  C   UNL     1      90.214  75.367  70.799  1.00  0.00     0.053 C 
BRANCH   6   7
ATOM      7  C   UNL     1      90.344  73.934  70.387  1.00  0.00     0.041 C 
ATOM      8  O   UNL     1      91.473  73.457  70.096  1.00  0.00    -0.550 OA
ATOM      9  O   UNL     1      89.213  73.132  70.290  1.00  0.00    -0.550 OA
ENDBRANCH   6   7
ENDBRANCH   5   6
ENDBRANCH   4   5
ENDBRANCH   3   4
ENDBRANCH   2   3
ENDBRANCH   1   2
BRANCH   1  10
ATOM     10  C   UNL     1      86.063  76.911  73.391  1.00  0.00     0.000 C 
BRANCH  10  11
ATOM     11  C   UNL     1      85.221  75.676  73.030  1.00  0.00    -0.000 C 
BRANCH  11  12
ATOM     12  C   UNL     1      85.204  74.626  74.155  1.00  0.00    -0.000 C 
BRANCH  12  13
ATOM     13  C   UNL     1      86.226  73.500  73.926  1.00  0.00    -0.000 C 
BRANCH  13  14
ATOM     14  C   UNL     1      87.098  73.235  75.166  1.00  0.00    -0.000 C 
BRANCH  14  15
ATOM     15  C   UNL     1      88.461  73.946  75.102  1.00  0.00    -0.000 C 
BRANCH  15  16
ATOM     16  C   UNL     1      89.281  73.665  73.829  1.00  0.00    -0.003 C 
ATOM     17  C   UNL     1      90.703  73.192  74.126  1.00  0.00     0.004 C 
ENDBRANCH  15  16
ENDBRANCH  14  15
ENDBRANCH  13  14
ENDBRANCH  12  13
ENDBRANCH  11  12
ENDBRANCH  10  11
ENDBRANCH   1  10
TORSDOF 13
ENDMDL
MODEL 6
REMARK VINA RESULT:    -3.919     11.745     14.083
REMARK INTER + INTRA:          -8.961
REMARK INTER:                  -7.537
REMARK INTRA:                  -1.424
REMARK UNBOUND:                -2.064
REMARK SMILES CCCCCCCCCCCCCCC(=O)[O-]
REMARK SMILES IDX 9 1 10 2 11 3 12 4 13 5 14 6 15 7 16 8 17 9 8 10 7 11 6 12
REMARK SMILES IDX 5 13 4 14 3 15 2 16 1 17
REMARK H PARENT
REMARK Flexibility Score: inf
ROOT
ATOM      1  C   UNL     1      93.028  83.038  80.800  1.00  0.00     0.000 C 
ENDROOT
BRANCH   1   2
ATOM      2  C   UNL     1      92.668  84.292  81.612  1.00  0.00     0.000 C 
BRANCH   2   3
ATOM      3  C   UNL     1      91.156  84.419  81.862  1.00  0.00     0.000 C 
BRANCH   3   4
ATOM      4  C   UNL     1      90.364  83.196  81.362  1.00  0.00     0.000 C 
BRANCH   4   5
ATOM      5  C   UNL     1      89.611  83.408  80.032  1.00  0.00     0.006 C 
BRANCH   5   6
ATOM      6  C   UNL     1      89.477  84.876  79.602  1.00  0.00     0.053 C 
BRANCH   6   7
ATOM      7  C   UNL     1      88.116  85.426  79.901  1.00  0.00     0.041 C 
ATOM      8  O   UNL     1      87.772  85.655  81.091  1.00  0.00    -0.550 OA
ATOM      9  O   UNL     1      87.215  85.652  78.867  1.00  0.00    -0.550 OA
ENDBRANCH   6   7
ENDBRANCH   5   6
ENDBRANCH   4   5
ENDBRANCH   3   4
ENDBRANCH   2   3
ENDBRANCH   1   2
BRANCH   1  10
ATOM     10  C   UNL     1      93.600  83.380  79.413  1.00  0.00     0.000 C 
BRANCH  10  11
ATOM     11  C   UNL     1      93.751  84.893  79.190  1.00  0.00    -0.000 C 
BRANCH  11  12
ATOM     12  C   UNL     1      95.216  85.314  78.973  1.00  0.00    -0.000 C 
BRANCH  12  13
ATOM     13  C   UNL     1      96.068  85.156  80.243  1.00  0.00    -0.000 C 
BRANCH  13  14
ATOM     14  C   UNL     1      97.210  84.140  80.064  1.00  0.00    -0.000 C 
BRANCH  14  15
ATOM     15  C   UNL     1      96.905  82.777  80.708  1.00  0.00    -0.000 C 
BRANCH  15  16
ATOM     16  C   UNL     1      98.061  82.170  81.524  1.00  0.00    -0.003 C 
ATOM     17  C   UNL     1      99.159  83.182  81.848  1.00  0.00     0.004 C 
ENDBRANCH  15  16
ENDBRANCH  14  15
ENDBRANCH  13  14
ENDBRANCH  12  13
ENDBRANCH  11  12
ENDBRANCH  10  11
ENDBRANCH   1  10
TORSDOF 13
ENDMDL
MODEL 7
REMARK VINA RESULT:    -3.888     13.014     15.368
REMARK INTER + INTRA:          -8.906
REMARK INTER:                  -7.404
REMARK INTRA:                  -1.502
REMARK UNBOUND:                -2.064
REMARK SMILES CCCCCCCCCCCCCCC(=O)[O-]
REMARK SMILES IDX 9 1 10 2 11 3 12 4 13 5 14 6 15 7 16 8 17 9 8 10 7 11 6 12
REMARK SMILES IDX 5 13 4 14 3 15 2 16 1 17
REMARK H PARENT
REMARK Flexibility Score: inf
ROOT
ATOM      1  C   UNL     1      95.712  86.106  80.225  1.00  0.00     0.000 C 
ENDROOT
BRANCH   1   2
ATOM      2  C   UNL     1      95.293  85.396  78.929  1.00  0.00     0.000 C 
BRANCH   2   3
ATOM      3  C   UNL     1      93.863  84.833  79.001  1.00  0.00     0.000 C 
BRANCH   3   4
ATOM      4  C   UNL     1      93.825  83.354  79.430  1.00  0.00     0.000 C 
BRANCH   4   5
ATOM      5  C   UNL     1      93.126  83.086  80.779  1.00  0.00     0.006 C 
BRANCH   5   6
ATOM      6  C   UNL     1      91.993  84.067  81.117  1.00  0.00     0.053 C 
BRANCH   6   7
ATOM      7  C   UNL     1      90.688  83.644  80.517  1.00  0.00     0.041 C 
ATOM      8  O   UNL     1      90.380  84.003  79.349  1.00  0.00    -0.550 OA
ATOM      9  O   UNL     1      89.795  82.881  81.260  1.00  0.00    -0.550 OA
ENDBRANCH   6   7
ENDBRANCH   5   6
ENDBRANCH   4   5
ENDBRANCH   3   4
ENDBRANCH   2   3
ENDBRANCH   1   2
BRANCH   1  10
ATOM     10  C   UNL     1      96.668  85.255  81.079  1.00  0.00     0.000 C 
BRANCH  10  11
ATOM     11  C   UNL     1      97.436  84.213  80.250  1.00  0.00    -0.000 C 
BRANCH  11  12
ATOM     12  C   UNL     1      97.247  82.781  80.781  1.00  0.00    -0.000 C 
BRANCH  12  13
ATOM     13  C   UNL     1      98.333  82.381  81.794  1.00  0.00    -0.000 C 
BRANCH  13  14
ATOM     14  C   UNL     1      99.682  83.064  81.511  1.00  0.00    -0.000 C 
BRANCH  14  15
ATOM     15  C   UNL     1     100.600  83.108  82.746  1.00  0.00    -0.000 C 
BRANCH  15  16
ATOM     16  C   UNL     1     100.944  84.522  83.250  1.00  0.00    -0.003 C 
ATOM     17  C   UNL     1      99.933  85.578  82.805  1.00  0.00     0.004 C 
ENDBRANCH  15  16
ENDBRANCH  14  15
ENDBRANCH  13  14
ENDBRANCH  12  13
ENDBRANCH  11  12
ENDBRANCH  10  11
ENDBRANCH   1  10
TORSDOF 13
ENDMDL
MODEL 8
REMARK VINA RESULT:    -3.871      1.274      3.172
REMARK INTER + INTRA:          -8.877
REMARK INTER:                  -7.313
REMARK INTRA:                  -1.565
REMARK UNBOUND:                -2.064
REMARK SMILES CCCCCCCCCCCCCCC(=O)[O-]
REMARK SMILES IDX 9 1 10 2 11 3 12 4 13 5 14 6 15 7 16 8 17 9 8 10 7 11 6 12
REMARK SMILES IDX 5 13 4 14 3 15 2 16 1 17
REMARK H PARENT
REMARK Flexibility Score: inf
ROOT
ATOM      1  C   UNL     1      87.694  77.144  72.443  1.00  0.00     0.000 C 
ENDROOT
BRANCH   1   2
ATOM      2  C   UNL     1      87.471  76.321  71.165  1.00  0.00     0.000 C 
BRANCH   2   3
ATOM      3  C   UNL     1      88.123  74.930  71.238  1.00  0.00     0.000 C 
BRANCH   3   4
ATOM      4  C   UNL     1      88.685  74.462  69.883  1.00  0.00     0.000 C 
BRANCH   4   5
ATOM      5  C   UNL     1      90.169  74.809  69.639  1.00  0.00     0.006 C 
BRANCH   5   6
ATOM      6  C   UNL     1      90.431  76.282  69.291  1.00  0.00     0.053 C 
BRANCH   6   7
ATOM      7  C   UNL     1      91.228  76.976  70.352  1.00  0.00     0.041 C 
ATOM      8  O   UNL     1      90.843  76.953  71.551  1.00  0.00    -0.550 OA
ATOM      9  O   UNL     1      92.379  77.676  70.012  1.00  0.00    -0.550 OA
ENDBRANCH   6   7
ENDBRANCH   5   6
ENDBRANCH   4   5
ENDBRANCH   3   4
ENDBRANCH   2   3
ENDBRANCH   1   2
BRANCH   1  10
ATOM     10  C   UNL     1      86.418  77.267  73.294  1.00  0.00     0.000 C 
BRANCH  10  11
ATOM     11  C   UNL     1      85.417  76.131  73.029  1.00  0.00    -0.000 C 
BRANCH  11  12
ATOM     12  C   UNL     1      85.276  75.178  74.230  1.00  0.00    -0.000 C 
BRANCH  12  13
ATOM     13  C   UNL     1      85.353  73.698  73.819  1.00  0.00    -0.000 C 
BRANCH  13  14
ATOM     14  C   UNL     1      86.342  72.897  74.684  1.00  0.00    -0.000 C 
BRANCH  14  15
ATOM     15  C   UNL     1      87.432  73.779  75.318  1.00  0.00    -0.000 C 
BRANCH  15  16
ATOM     16  C   UNL     1      88.815  73.684  74.648  1.00  0.00    -0.003 C 
ATOM     17  C   UNL     1      89.519  75.036  74.534  1.00  0.00     0.004 C 
ENDBRANCH  15  16
ENDBRANCH  14  15
ENDBRANCH  13  14
ENDBRANCH  12  13
ENDBRANCH  11  12
ENDBRANCH  10  11
ENDBRANCH   1  10
TORSDOF 13
ENDMDL
MODEL 9
REMARK VINA RESULT:    -3.865     12.698     14.673
REMARK INTER + INTRA:          -8.866
REMARK INTER:                  -7.548
REMARK INTRA:                  -1.318
REMARK UNBOUND:                -2.064
REMARK SMILES CCCCCCCCCCCCCCC(=O)[O-]
REMARK SMILES IDX 9 1 10 2 11 3 12 4 13 5 14 6 15 7 16 8 17 9 8 10 7 11 6 12
REMARK SMILES IDX 5 13 4 14 3 15 2 16 1 17
REMARK H PARENT
REMARK Flexibility Score: inf
ROOT
ATOM      1  C   UNL     1      95.189  85.368  78.702  1.00  0.00     0.000 C 
ENDROOT
BRANCH   1   2
ATOM      2  C   UNL     1      96.101  85.595  79.918  1.00  0.00     0.000 C 
BRANCH   2   3
ATOM      3  C   UNL     1      97.147  84.480  80.086  1.00  0.00     0.000 C 
BRANCH   3   4
ATOM      4  C   UNL     1      97.046  83.768  81.448  1.00  0.00     0.000 C 
BRANCH   4   5
ATOM      5  C   UNL     1      98.034  82.600  81.646  1.00  0.00     0.006 C 
BRANCH   5   6
ATOM      6  C   UNL     1      99.516  83.003  81.608  1.00  0.00     0.053 C 
BRANCH   6   7
ATOM      7  C   UNL     1      99.822  84.105  82.575  1.00  0.00     0.041 C 
ATOM      8  O   UNL     1     100.295  85.197  82.162  1.00  0.00    -0.550 OA
ATOM      9  O   UNL     1      99.616  83.914  83.936  1.00  0.00    -0.550 OA
ENDBRANCH   6   7
ENDBRANCH   5   6
ENDBRANCH   4   5
ENDBRANCH   3   4
ENDBRANCH   2   3
ENDBRANCH   1   2
BRANCH   1  10
ATOM     10  C   UNL     1      93.802  84.833  79.098  1.00  0.00     0.000 C 
BRANCH  10  11
ATOM     11  C   UNL     1      93.801  83.316  79.352  1.00  0.00    -0.000 C 
BRANCH  11  12
ATOM     12  C   UNL     1      93.187  82.947  80.714  1.00  0.00    -0.000 C 
BRANCH  12  13
ATOM     13  C   UNL     1      92.921  84.180  81.593  1.00  0.00    -0.000 C 
BRANCH  13  14
ATOM     14  C   UNL     1      91.481  84.217  82.135  1.00  0.00    -0.000 C 
BRANCH  14  15
ATOM     15  C   UNL     1      90.578  83.140  81.509  1.00  0.00    -0.000 C 
BRANCH  15  16
ATOM     16  C   UNL     1      89.573  83.662  80.466  1.00  0.00    -0.003 C 
ATOM     17  C   UNL     1      88.441  82.676  80.181  1.00  0.00     0.004 C 
ENDBRANCH  15  16
ENDBRANCH  14  15
ENDBRANCH  13  14
ENDBRANCH  12  13
ENDBRANCH  11  12
ENDBRANCH  10  11
ENDBRANCH   1  10
TORSDOF 13
ENDMDL
