MODEL 1
REMARK VINA RESULT:    -5.305      0.000      0.000
REMARK INTER + INTRA:          -7.233
REMARK INTER:                  -6.856
REMARK INTRA:                  -0.377
REMARK UNBOUND:                -0.377
REMARK SMILES CCO[C@H]1O[C@H](CO)[C@H](O)[C@H](O)[C@H]1O
REMARK SMILES IDX 4 1 13 2 11 3 9 4 6 5 5 6 3 7 2 8 1 9 14 10 12 12 7 14 8 15
REMARK SMILES IDX 10 17
REMARK H PARENT 14 11 12 13 8 16 10 18
REMARK Flexibility Score: inf
ROOT
ATOM      1  C   UNL     1      -6.028   6.475 -11.512  1.00  0.00     0.281 C 
ATOM      2  C   UNL     1      -6.682   7.244 -10.343  1.00  0.00     0.202 C 
ATOM      3  C   UNL     1      -5.882   8.516 -10.024  1.00  0.00     0.179 C 
ATOM      4  C   UNL     1      -4.392   8.171  -9.839  1.00  0.00     0.177 C 
ATOM      5  C   UNL     1      -3.902   7.379 -11.071  1.00  0.00     0.178 C 
ATOM      6  O   UNL     1      -4.661   6.190 -11.235  1.00  0.00    -0.341 OA
ENDROOT
BRANCH   1   7
ATOM      7  O   UNL     1      -6.173   7.206 -12.721  1.00  0.00    -0.350 OA
BRANCH   7   8
ATOM      8  C   UNL     1      -6.850   6.427 -13.685  1.00  0.00     0.160 C 
ATOM      9  C   UNL     1      -5.830   5.637 -14.490  1.00  0.00     0.035 C 
ENDBRANCH   7   8
ENDBRANCH   1   7
BRANCH   2  10
ATOM     10  O   UNL     1      -8.003   7.592 -10.668  1.00  0.00    -0.385 OA
ATOM     11  H   UNL     1      -8.380   6.834 -11.186  1.00  0.00     0.211 HD
ENDBRANCH   2  10
BRANCH   3  12
ATOM     12  O   UNL     1      -6.398   9.114  -8.864  1.00  0.00    -0.387 OA
ATOM     13  H   UNL     1      -7.212   9.612  -9.136  1.00  0.00     0.211 HD
ENDBRANCH   3  12
BRANCH   5  14
ATOM     14  C   UNL     1      -2.419   6.996 -10.944  1.00  0.00     0.191 C 
BRANCH  14  15
ATOM     15  O   UNL     1      -2.275   5.706 -10.413  1.00  0.00    -0.394 OA
ATOM     16  H   UNL     1      -1.940   5.816  -9.485  1.00  0.00     0.210 HD
ENDBRANCH  14  15
ENDBRANCH   5  14
BRANCH   4  17
ATOM     17  O   UNL     1      -4.210   7.404  -8.674  1.00  0.00    -0.387 OA
ATOM     18  H   UNL     1      -3.792   7.999  -7.999  1.00  0.00     0.211 HD
ENDBRANCH   4  17
TORSDOF 7
ENDMDL
MODEL 2
REMARK VINA RESULT:    -4.888      1.569      2.492
REMARK INTER + INTRA:          -6.694
REMARK INTER:                  -6.237
REMARK INTRA:                  -0.457
REMARK UNBOUND:                -0.377
REMARK SMILES CCO[C@H]1O[C@H](CO)[C@H](O)[C@H](O)[C@H]1O
REMARK SMILES IDX 4 1 13 2 11 3 9 4 6 5 5 6 3 7 2 8 1 9 14 10 12 12 7 14 8 15
REMARK SMILES IDX 10 17
REMARK H PARENT 14 11 12 13 8 16 10 18
REMARK Flexibility Score: inf
ROOT
ATOM      1  C   UNL     1      -4.907   6.457 -12.971  1.00  0.00     0.281 C 
ATOM      2  C   UNL     1      -6.430   6.395 -12.719  1.00  0.00     0.202 C 
ATOM      3  C   UNL     1      -6.848   7.459 -11.694  1.00  0.00     0.179 C 
ATOM      4  C   UNL     1      -5.964   7.357 -10.436  1.00  0.00     0.177 C 
ATOM      5  C   UNL     1      -4.480   7.399 -10.859  1.00  0.00     0.178 C 
ATOM      6  O   UNL     1      -4.183   6.336 -11.752  1.00  0.00    -0.341 OA
ENDROOT
BRANCH   1   7
ATOM      7  O   UNL     1      -4.574   7.654 -13.658  1.00  0.00    -0.350 OA
BRANCH   7   8
ATOM      8  C   UNL     1      -3.546   7.409 -14.595  1.00  0.00     0.160 C 
ATOM      9  C   UNL     1      -4.079   6.495 -15.689  1.00  0.00     0.035 C 
ENDBRANCH   7   8
ENDBRANCH   1   7
BRANCH   2  10
ATOM     10  O   UNL     1      -7.130   6.603 -13.919  1.00  0.00    -0.385 OA
ATOM     11  H   UNL     1      -8.063   6.833 -13.670  1.00  0.00     0.211 HD
ENDBRANCH   2  10
BRANCH   3  12
ATOM     12  O   UNL     1      -8.201   7.283 -11.362  1.00  0.00    -0.387 OA
ATOM     13  H   UNL     1      -8.229   6.628 -10.616  1.00  0.00     0.211 HD
ENDBRANCH   3  12
BRANCH   5  14
ATOM     14  C   UNL     1      -3.542   7.293  -9.646  1.00  0.00     0.191 C 
BRANCH  14  15
ATOM     15  O   UNL     1      -4.204   7.654  -8.464  1.00  0.00    -0.394 OA
ATOM     16  H   UNL     1      -4.351   8.634  -8.507  1.00  0.00     0.210 HD
ENDBRANCH  14  15
ENDBRANCH   5  14
BRANCH   4  17
ATOM     17  O   UNL     1      -6.231   6.158  -9.749  1.00  0.00    -0.387 OA
ATOM     18  H   UNL     1      -5.632   6.139  -8.958  1.00  0.00     0.211 HD
ENDBRANCH   4  17
TORSDOF 7
ENDMDL
MODEL 3
REMARK VINA RESULT:    -4.871     11.535     14.160
REMARK INTER + INTRA:          -6.672
REMARK INTER:                  -6.232
REMARK INTRA:                  -0.440
REMARK UNBOUND:                -0.377
REMARK SMILES CCO[C@H]1O[C@H](CO)[C@H](O)[C@H](O)[C@H]1O
REMARK SMILES IDX 4 1 13 2 11 3 9 4 6 5 5 6 3 7 2 8 1 9 14 10 12 12 7 14 8 15
REMARK SMILES IDX 10 17
REMARK H PARENT 14 11 12 13 8 16 10 18
REMARK Flexibility Score: inf
ROOT
ATOM      1  C   UNL     1      -4.882  -2.690 -19.340  1.00  0.00     0.281 C 
ATOM      2  C   UNL     1      -5.019  -2.903 -20.864  1.00  0.00     0.202 C 
ATOM      3  C   UNL     1      -6.499  -3.020 -21.258  1.00  0.00     0.179 C 
ATOM      4  C   UNL     1      -7.199  -4.072 -20.377  1.00  0.00     0.177 C 
ATOM      5  C   UNL     1      -6.939  -3.737 -18.891  1.00  0.00     0.178 C 
ATOM      6  O   UNL     1      -5.546  -3.721 -18.619  1.00  0.00    -0.341 OA
ENDROOT
BRANCH   1   7
ATOM      7  O   UNL     1      -5.369  -1.405 -18.980  1.00  0.00    -0.350 OA
BRANCH   7   8
ATOM      8  C   UNL     1      -4.537  -0.825 -17.999  1.00  0.00     0.160 C 
ATOM      9  C   UNL     1      -3.555   0.121 -18.675  1.00  0.00     0.035 C 
ENDBRANCH   7   8
ENDBRANCH   1   7
BRANCH   2  10
ATOM     10  O   UNL     1      -4.433  -1.833 -21.559  1.00  0.00    -0.385 OA
ATOM     11  H   UNL     1      -4.976  -1.027 -21.354  1.00  0.00     0.211 HD
ENDBRANCH   2  10
BRANCH   3  12
ATOM     12  O   UNL     1      -6.595  -3.370 -22.614  1.00  0.00    -0.387 OA
ATOM     13  H   UNL     1      -6.080  -2.691 -23.122  1.00  0.00     0.211 HD
ENDBRANCH   3  12
BRANCH   5  14
ATOM     14  C   UNL     1      -7.607  -4.757 -17.956  1.00  0.00     0.191 C 
BRANCH  14  15
ATOM     15  O   UNL     1      -8.640  -5.442 -18.612  1.00  0.00    -0.394 OA
ATOM     16  H   UNL     1      -9.448  -4.869 -18.548  1.00  0.00     0.210 HD
ENDBRANCH  14  15
ENDBRANCH   5  14
BRANCH   4  17
ATOM     17  O   UNL     1      -6.709  -5.358 -20.669  1.00  0.00    -0.387 OA
ATOM     18  H   UNL     1      -5.718  -5.305 -20.629  1.00  0.00     0.211 HD
ENDBRANCH   4  17
TORSDOF 7
ENDMDL
MODEL 4
REMARK VINA RESULT:    -4.731      1.873      3.502
REMARK INTER + INTRA:          -6.492
REMARK INTER:                  -6.314
REMARK INTRA:                  -0.178
REMARK UNBOUND:                -0.377
REMARK SMILES CCO[C@H]1O[C@H](CO)[C@H](O)[C@H](O)[C@H]1O
REMARK SMILES IDX 4 1 13 2 11 3 9 4 6 5 5 6 3 7 2 8 1 9 14 10 12 12 7 14 8 15
REMARK SMILES IDX 10 17
REMARK H PARENT 14 11 12 13 8 16 10 18
REMARK Flexibility Score: inf
ROOT
ATOM      1  C   UNL     1      -6.735   7.345 -11.857  1.00  0.00     0.281 C 
ATOM      2  C   UNL     1      -6.174   7.290 -13.295  1.00  0.00     0.202 C 
ATOM      3  C   UNL     1      -4.956   6.356 -13.361  1.00  0.00     0.179 C 
ATOM      4  C   UNL     1      -3.939   6.735 -12.268  1.00  0.00     0.177 C 
ATOM      5  C   UNL     1      -4.661   6.780 -10.903  1.00  0.00     0.178 C 
ATOM      6  O   UNL     1      -5.723   7.721 -10.929  1.00  0.00    -0.341 OA
ENDROOT
BRANCH   1   7
ATOM      7  O   UNL     1      -7.320   6.098 -11.512  1.00  0.00    -0.350 OA
BRANCH   7   8
ATOM      8  C   UNL     1      -8.507   6.303 -10.775  1.00  0.00     0.160 C 
ATOM      9  C   UNL     1      -9.022   4.960 -10.279  1.00  0.00     0.035 C 
ENDBRANCH   7   8
ENDBRANCH   1   7
BRANCH   2  10
ATOM     10  O   UNL     1      -7.161   6.834 -14.185  1.00  0.00    -0.385 OA
ATOM     11  H   UNL     1      -7.704   6.165 -13.692  1.00  0.00     0.211 HD
ENDBRANCH   2  10
BRANCH   3  12
ATOM     12  O   UNL     1      -4.368   6.443 -14.633  1.00  0.00    -0.387 OA
ATOM     13  H   UNL     1      -3.438   6.759 -14.496  1.00  0.00     0.211 HD
ENDBRANCH   3  12
BRANCH   5  14
ATOM     14  C   UNL     1      -3.699   7.162  -9.767  1.00  0.00     0.191 C 
BRANCH  14  15
ATOM     15  O   UNL     1      -4.404   7.537  -8.614  1.00  0.00    -0.394 OA
ATOM     16  H   UNL     1      -5.339   7.227  -8.738  1.00  0.00     0.210 HD
ENDBRANCH  14  15
ENDBRANCH   5  14
BRANCH   4  17
ATOM     17  O   UNL     1      -3.369   7.991 -12.547  1.00  0.00    -0.387 OA
ATOM     18  H   UNL     1      -3.486   8.151 -13.520  1.00  0.00     0.211 HD
ENDBRANCH   4  17
TORSDOF 7
ENDMDL
MODEL 5
REMARK VINA RESULT:    -4.647      1.580      3.553
REMARK INTER + INTRA:          -6.383
REMARK INTER:                  -6.151
REMARK INTRA:                  -0.233
REMARK UNBOUND:                -0.377
REMARK SMILES CCO[C@H]1O[C@H](CO)[C@H](O)[C@H](O)[C@H]1O
REMARK SMILES IDX 4 1 13 2 11 3 9 4 6 5 5 6 3 7 2 8 1 9 14 10 12 12 7 14 8 15
REMARK SMILES IDX 10 17
REMARK H PARENT 14 11 12 13 8 16 10 18
REMARK Flexibility Score: inf
ROOT
ATOM      1  C   UNL     1      -5.411   7.054 -12.966  1.00  0.00     0.281 C 
ATOM      2  C   UNL     1      -4.264   7.295 -11.960  1.00  0.00     0.202 C 
ATOM      3  C   UNL     1      -4.429   6.390 -10.730  1.00  0.00     0.179 C 
ATOM      4  C   UNL     1      -5.852   6.531 -10.157  1.00  0.00     0.177 C 
ATOM      5  C   UNL     1      -6.875   6.294 -11.290  1.00  0.00     0.178 C 
ATOM      6  O   UNL     1      -6.679   7.225 -12.343  1.00  0.00    -0.341 OA
ENDROOT
BRANCH   1   7
ATOM      7  O   UNL     1      -5.286   5.765 -13.549  1.00  0.00    -0.350 OA
BRANCH   7   8
ATOM      8  C   UNL     1      -5.708   5.796 -14.896  1.00  0.00     0.160 C 
ATOM      9  C   UNL     1      -4.511   6.098 -15.784  1.00  0.00     0.035 C 
ENDBRANCH   7   8
ENDBRANCH   1   7
BRANCH   2  10
ATOM     10  O   UNL     1      -3.023   7.038 -12.566  1.00  0.00    -0.385 OA
ATOM     11  H   UNL     1      -2.660   7.915 -12.858  1.00  0.00     0.211 HD
ENDBRANCH   2  10
BRANCH   3  12
ATOM     12  O   UNL     1      -3.472   6.736  -9.763  1.00  0.00    -0.387 OA
ATOM     13  H   UNL     1      -3.824   7.530  -9.283  1.00  0.00     0.211 HD
ENDBRANCH   3  12
BRANCH   5  14
ATOM     14  C   UNL     1      -8.320   6.429 -10.783  1.00  0.00     0.191 C 
BRANCH  14  15
ATOM     15  O   UNL     1      -8.840   5.183 -10.404  1.00  0.00    -0.394 OA
ATOM     16  H   UNL     1      -9.797   5.181 -10.667  1.00  0.00     0.210 HD
ENDBRANCH  14  15
ENDBRANCH   5  14
BRANCH   4  17
ATOM     17  O   UNL     1      -6.033   7.814  -9.611  1.00  0.00    -0.387 OA
ATOM     18  H   UNL     1      -6.884   8.168  -9.980  1.00  0.00     0.211 HD
ENDBRANCH   4  17
TORSDOF 7
ENDMDL
MODEL 6
REMARK VINA RESULT:    -4.490      1.342      3.991
REMARK INTER + INTRA:          -6.180
REMARK INTER:                  -5.760
REMARK INTRA:                  -0.420
REMARK UNBOUND:                -0.377
REMARK SMILES CCO[C@H]1O[C@H](CO)[C@H](O)[C@H](O)[C@H]1O
REMARK SMILES IDX 4 1 13 2 11 3 9 4 6 5 5 6 3 7 2 8 1 9 14 10 12 12 7 14 8 15
REMARK SMILES IDX 10 17
REMARK H PARENT 14 11 12 13 8 16 10 18
REMARK Flexibility Score: inf
ROOT
ATOM      1  C   UNL     1      -4.785   7.511 -11.495  1.00  0.00     0.281 C 
ATOM      2  C   UNL     1      -6.237   7.737 -11.019  1.00  0.00     0.202 C 
ATOM      3  C   UNL     1      -7.119   6.538 -11.398  1.00  0.00     0.179 C 
ATOM      4  C   UNL     1      -6.957   6.214 -12.895  1.00  0.00     0.177 C 
ATOM      5  C   UNL     1      -5.454   6.052 -13.214  1.00  0.00     0.178 C 
ATOM      6  O   UNL     1      -4.743   7.237 -12.891  1.00  0.00    -0.341 OA
ENDROOT
BRANCH   1   7
ATOM      7  O   UNL     1      -4.180   6.470 -10.742  1.00  0.00    -0.350 OA
BRANCH   7   8
ATOM      8  C   UNL     1      -2.900   6.868 -10.301  1.00  0.00     0.160 C 
ATOM      9  C   UNL     1      -1.875   5.840 -10.756  1.00  0.00     0.035 C 
ENDBRANCH   7   8
ENDBRANCH   1   7
BRANCH   2  10
ATOM     10  O   UNL     1      -6.269   7.919  -9.627  1.00  0.00    -0.385 OA
ATOM     11  H   UNL     1      -6.138   7.025  -9.217  1.00  0.00     0.211 HD
ENDBRANCH   2  10
BRANCH   3  12
ATOM     12  O   UNL     1      -8.460   6.830 -11.099  1.00  0.00    -0.387 OA
ATOM     13  H   UNL     1      -9.002   6.077 -11.451  1.00  0.00     0.211 HD
ENDBRANCH   3  12
BRANCH   5  14
ATOM     14  C   UNL     1      -5.223   5.734 -14.700  1.00  0.00     0.191 C 
BRANCH  14  15
ATOM     15  O   UNL     1      -5.323   6.891 -15.485  1.00  0.00    -0.394 OA
ATOM     16  H   UNL     1      -5.639   7.616 -14.884  1.00  0.00     0.210 HD
ENDBRANCH  14  15
ENDBRANCH   5  14
BRANCH   4  17
ATOM     17  O   UNL     1      -7.502   7.247 -13.679  1.00  0.00    -0.387 OA
ATOM     18  H   UNL     1      -6.778   7.908 -13.831  1.00  0.00     0.211 HD
ENDBRANCH   4  17
TORSDOF 7
ENDMDL
MODEL 7
REMARK VINA RESULT:    -4.231      1.576      1.981
REMARK INTER + INTRA:          -5.846
REMARK INTER:                  -5.744
REMARK INTRA:                  -0.101
REMARK UNBOUND:                -0.377
REMARK SMILES CCO[C@H]1O[C@H](CO)[C@H](O)[C@H](O)[C@H]1O
REMARK SMILES IDX 4 1 13 2 11 3 9 4 6 5 5 6 3 7 2 8 1 9 14 10 12 12 7 14 8 15
REMARK SMILES IDX 10 17
REMARK H PARENT 14 11 12 13 8 16 10 18
REMARK Flexibility Score: inf
ROOT
ATOM      1  C   UNL     1      -5.283   6.284 -11.967  1.00  0.00     0.281 C 
ATOM      2  C   UNL     1      -5.267   6.337 -10.424  1.00  0.00     0.202 C 
ATOM      3  C   UNL     1      -4.421   7.521  -9.936  1.00  0.00     0.179 C 
ATOM      4  C   UNL     1      -3.036   7.496 -10.612  1.00  0.00     0.177 C 
ATOM      5  C   UNL     1      -3.226   7.410 -12.142  1.00  0.00     0.178 C 
ATOM      6  O   UNL     1      -3.960   6.246 -12.490  1.00  0.00    -0.341 OA
ENDROOT
BRANCH   1   7
ATOM      7  O   UNL     1      -6.016   7.384 -12.486  1.00  0.00    -0.350 OA
BRANCH   7   8
ATOM      8  C   UNL     1      -7.139   6.924 -13.210  1.00  0.00     0.160 C 
ATOM      9  C   UNL     1      -6.662   6.211 -14.466  1.00  0.00     0.035 C 
ENDBRANCH   7   8
ENDBRANCH   1   7
BRANCH   2  10
ATOM     10  O   UNL     1      -6.575   6.461  -9.928  1.00  0.00    -0.385 OA
ATOM     11  H   UNL     1      -6.858   5.555  -9.636  1.00  0.00     0.211 HD
ENDBRANCH   2  10
BRANCH   3  12
ATOM     12  O   UNL     1      -4.289   7.458  -8.539  1.00  0.00    -0.387 OA
ATOM     13  H   UNL     1      -3.840   6.597  -8.333  1.00  0.00     0.211 HD
ENDBRANCH   3  12
BRANCH   5  14
ATOM     14  C   UNL     1      -1.877   7.373 -12.878  1.00  0.00     0.191 C 
BRANCH  14  15
ATOM     15  O   UNL     1      -2.060   7.376 -14.268  1.00  0.00    -0.394 OA
ATOM     16  H   UNL     1      -2.314   8.302 -14.520  1.00  0.00     0.210 HD
ENDBRANCH  14  15
ENDBRANCH   5  14
BRANCH   4  17
ATOM     17  O   UNL     1      -2.293   6.391 -10.159  1.00  0.00    -0.387 OA
ATOM     18  H   UNL     1      -1.696   6.120 -10.905  1.00  0.00     0.211 HD
ENDBRANCH   4  17
TORSDOF 7
ENDMDL
MODEL 8
REMARK VINA RESULT:    -4.074      1.964      3.610
REMARK INTER + INTRA:          -5.642
REMARK INTER:                  -5.206
REMARK INTRA:                  -0.436
REMARK UNBOUND:                -0.377
REMARK SMILES CCO[C@H]1O[C@H](CO)[C@H](O)[C@H](O)[C@H]1O
REMARK SMILES IDX 4 1 13 2 11 3 9 4 6 5 5 6 3 7 2 8 1 9 14 10 12 12 7 14 8 15
REMARK SMILES IDX 10 17
REMARK H PARENT 14 11 12 13 8 16 10 18
REMARK Flexibility Score: inf
ROOT
ATOM      1  C   UNL     1      -6.566   6.194 -11.205  1.00  0.00     0.281 C 
ATOM      2  C   UNL     1      -5.385   7.030 -10.665  1.00  0.00     0.202 C 
ATOM      3  C   UNL     1      -5.075   8.197 -11.614  1.00  0.00     0.179 C 
ATOM      4  C   UNL     1      -4.914   7.679 -13.055  1.00  0.00     0.177 C 
ATOM      5  C   UNL     1      -6.155   6.839 -13.429  1.00  0.00     0.178 C 
ATOM      6  O   UNL     1      -6.310   5.749 -12.533  1.00  0.00    -0.341 OA
ENDROOT
BRANCH   1   7
ATOM      7  O   UNL     1      -7.770   6.942 -11.129  1.00  0.00    -0.350 OA
BRANCH   7   8
ATOM      8  C   UNL     1      -8.881   6.074 -11.070  1.00  0.00     0.160 C 
ATOM      9  C   UNL     1      -8.610   4.987 -10.041  1.00  0.00     0.035 C 
ENDBRANCH   7   8
ENDBRANCH   1   7
BRANCH   2  10
ATOM     10  O   UNL     1      -5.688   7.533  -9.389  1.00  0.00    -0.385 OA
ATOM     11  H   UNL     1      -4.826   7.630  -8.907  1.00  0.00     0.211 HD
ENDBRANCH   2  10
BRANCH   3  12
ATOM     12  O   UNL     1      -3.905   8.847 -11.190  1.00  0.00    -0.387 OA
ATOM     13  H   UNL     1      -4.031   9.814 -11.377  1.00  0.00     0.211 HD
ENDBRANCH   3  12
BRANCH   5  14
ATOM     14  C   UNL     1      -6.053   6.284 -14.858  1.00  0.00     0.191 C 
BRANCH  14  15
ATOM     15  O   UNL     1      -5.210   7.078 -15.649  1.00  0.00    -0.394 OA
ATOM     16  H   UNL     1      -5.133   7.955 -15.190  1.00  0.00     0.210 HD
ENDBRANCH  14  15
ENDBRANCH   5  14
BRANCH   4  17
ATOM     17  O   UNL     1      -3.754   6.890 -13.163  1.00  0.00    -0.387 OA
ATOM     18  H   UNL     1      -3.496   6.629 -12.240  1.00  0.00     0.211 HD
ENDBRANCH   4  17
TORSDOF 7
ENDMDL
MODEL 9
REMARK VINA RESULT:    -3.711      2.455      5.099
REMARK INTER + INTRA:          -5.174
REMARK INTER:                  -4.734
REMARK INTRA:                  -0.440
REMARK UNBOUND:                -0.377
REMARK SMILES CCO[C@H]1O[C@H](CO)[C@H](O)[C@H](O)[C@H]1O
REMARK SMILES IDX 4 1 13 2 11 3 9 4 6 5 5 6 3 7 2 8 1 9 14 10 12 12 7 14 8 15
REMARK SMILES IDX 10 17
REMARK H PARENT 14 11 12 13 8 16 10 18
REMARK Flexibility Score: inf
ROOT
ATOM      1  C   UNL     1      -4.037   7.191 -11.943  1.00  0.00     0.281 C 
ATOM      2  C   UNL     1      -2.879   7.491 -12.920  1.00  0.00     0.202 C 
ATOM      3  C   UNL     1      -3.409   8.184 -14.183  1.00  0.00     0.179 C 
ATOM      4  C   UNL     1      -4.582   7.381 -14.775  1.00  0.00     0.177 C 
ATOM      5  C   UNL     1      -5.633   7.137 -13.669  1.00  0.00     0.178 C 
ATOM      6  O   UNL     1      -5.058   6.431 -12.580  1.00  0.00    -0.341 OA
ENDROOT
BRANCH   1   7
ATOM      7  O   UNL     1      -4.548   8.402 -11.404  1.00  0.00    -0.350 OA
BRANCH   7   8
ATOM      8  C   UNL     1      -5.013   8.192 -10.087  1.00  0.00     0.160 C 
ATOM      9  C   UNL     1      -4.011   7.326  -9.338  1.00  0.00     0.035 C 
ENDBRANCH   7   8
ENDBRANCH   1   7
BRANCH   2  10
ATOM     10  O   UNL     1      -1.922   8.313 -12.302  1.00  0.00    -0.385 OA
ATOM     11  H   UNL     1      -1.532   7.788 -11.555  1.00  0.00     0.211 HD
ENDBRANCH   2  10
BRANCH   3  12
ATOM     12  O   UNL     1      -2.371   8.304 -15.121  1.00  0.00    -0.387 OA
ATOM     13  H   UNL     1      -2.492   7.569 -15.777  1.00  0.00     0.211 HD
ENDBRANCH   3  12
BRANCH   5  14
ATOM     14  C   UNL     1      -6.831   6.331 -14.195  1.00  0.00     0.191 C 
BRANCH  14  15
ATOM     15  O   UNL     1      -6.832   6.285 -15.596  1.00  0.00    -0.394 OA
ATOM     16  H   UNL     1      -6.042   6.805 -15.899  1.00  0.00     0.210 HD
ENDBRANCH  14  15
ENDBRANCH   5  14
BRANCH   4  17
ATOM     17  O   UNL     1      -4.125   6.149 -15.279  1.00  0.00    -0.387 OA
ATOM     18  H   UNL     1      -3.497   6.356 -16.020  1.00  0.00     0.211 HD
ENDBRANCH   4  17
TORSDOF 7
ENDMDL
