MODEL 1
REMARK VINA RESULT:    -3.802      0.000      0.000
REMARK INTER + INTRA:          -6.171
REMARK INTER:                  -5.580
REMARK INTRA:                  -0.591
REMARK UNBOUND:                -0.591
REMARK SMILES O=C([O-])CCCCCCCC(=O)[O-]
REMARK SMILES IDX 7 1 6 2 5 3 4 4 2 5 1 6 3 7 8 8 9 9 10 10 11 11 12 12 13 13
REMARK H PARENT
REMARK Flexibility Score: inf
ROOT
ATOM      1  C   UNL     1      56.282  20.919  49.971  1.00  0.00     0.000 C 
ENDROOT
BRANCH   1   2
ATOM      2  C   UNL     1      56.350  20.647  48.457  1.00  0.00     0.000 C 
BRANCH   2   3
ATOM      3  C   UNL     1      56.784  21.880  47.645  1.00  0.00     0.006 C 
BRANCH   3   4
ATOM      4  C   UNL     1      56.421  23.194  48.349  1.00  0.00     0.053 C 
BRANCH   4   5
ATOM      5  C   UNL     1      55.181  23.809  47.777  1.00  0.00     0.041 C 
ATOM      6  O   UNL     1      54.046  23.440  48.178  1.00  0.00    -0.550 OA
ATOM      7  O   UNL     1      55.280  24.769  46.778  1.00  0.00    -0.550 OA
ENDBRANCH   4   5
ENDBRANCH   3   4
ENDBRANCH   2   3
ENDBRANCH   1   2
BRANCH   1   8
ATOM      8  C   UNL     1      54.868  20.867  50.580  1.00  0.00     0.000 C 
BRANCH   8   9
ATOM      9  C   UNL     1      54.548  22.083  51.461  1.00  0.00     0.006 C 
BRANCH   9  10
ATOM     10  C   UNL     1      54.457  21.682  52.936  1.00  0.00     0.053 C 
BRANCH  10  11
ATOM     11  C   UNL     1      55.822  21.605  53.543  1.00  0.00     0.041 C 
ATOM     12  O   UNL     1      56.076  20.739  54.422  1.00  0.00    -0.550 OA
ATOM     13  O   UNL     1      56.800  22.520  53.176  1.00  0.00    -0.550 OA
ENDBRANCH  10  11
ENDBRANCH   9  10
ENDBRANCH   8   9
ENDBRANCH   1   8
TORSDOF 8
ENDMDL
MODEL 2
REMARK VINA RESULT:    -3.799      2.556      3.523
REMARK INTER + INTRA:          -6.166
REMARK INTER:                  -5.619
REMARK INTRA:                  -0.548
REMARK UNBOUND:                -0.591
REMARK SMILES O=C([O-])CCCCCCCC(=O)[O-]
REMARK SMILES IDX 7 1 6 2 5 3 4 4 2 5 1 6 3 7 8 8 9 9 10 10 11 11 12 12 13 13
REMARK H PARENT
REMARK Flexibility Score: inf
ROOT
ATOM      1  C   UNL     1      53.777  23.653  48.519  1.00  0.00     0.000 C 
ENDROOT
BRANCH   1   2
ATOM      2  C   UNL     1      55.119  23.721  47.768  1.00  0.00     0.000 C 
BRANCH   2   3
ATOM      3  C   UNL     1      56.261  23.011  48.516  1.00  0.00     0.006 C 
BRANCH   3   4
ATOM      4  C   UNL     1      56.625  21.666  47.873  1.00  0.00     0.053 C 
BRANCH   4   5
ATOM      5  C   UNL     1      56.426  20.523  48.821  1.00  0.00     0.041 C 
ATOM      6  O   UNL     1      57.117  19.477  48.708  1.00  0.00    -0.550 OA
ATOM      7  O   UNL     1      55.455  20.603  49.811  1.00  0.00    -0.550 OA
ENDBRANCH   4   5
ENDBRANCH   3   4
ENDBRANCH   2   3
ENDBRANCH   1   2
BRANCH   1   8
ATOM      8  C   UNL     1      53.589  24.719  49.616  1.00  0.00     0.000 C 
BRANCH   8   9
ATOM      9  C   UNL     1      53.040  24.140  50.927  1.00  0.00     0.006 C 
BRANCH   9  10
ATOM     10  C   UNL     1      54.096  23.286  51.635  1.00  0.00     0.053 C 
BRANCH  10  11
ATOM     11  C   UNL     1      53.451  22.370  52.627  1.00  0.00     0.041 C 
ATOM     12  O   UNL     1      54.102  21.411  53.119  1.00  0.00    -0.550 OA
ATOM     13  O   UNL     1      52.117  22.545  52.970  1.00  0.00    -0.550 OA
ENDBRANCH  10  11
ENDBRANCH   9  10
ENDBRANCH   8   9
ENDBRANCH   1   8
TORSDOF 8
ENDMDL
MODEL 3
REMARK VINA RESULT:    -3.745      2.538      5.113
REMARK INTER + INTRA:          -6.088
REMARK INTER:                  -5.562
REMARK INTRA:                  -0.526
REMARK UNBOUND:                -0.591
REMARK SMILES O=C([O-])CCCCCCCC(=O)[O-]
REMARK SMILES IDX 7 1 6 2 5 3 4 4 2 5 1 6 3 7 8 8 9 9 10 10 11 11 12 12 13 13
REMARK H PARENT
REMARK Flexibility Score: inf
ROOT
ATOM      1  C   UNL     1      53.798  23.942  48.265  1.00  0.00     0.000 C 
ENDROOT
BRANCH   1   2
ATOM      2  C   UNL     1      53.738  24.700  49.603  1.00  0.00     0.000 C 
BRANCH   2   3
ATOM      3  C   UNL     1      52.977  23.929  50.696  1.00  0.00     0.006 C 
BRANCH   3   4
ATOM      4  C   UNL     1      53.914  23.394  51.786  1.00  0.00     0.053 C 
BRANCH   4   5
ATOM      5  C   UNL     1      53.182  22.555  52.788  1.00  0.00     0.041 C 
ATOM      6  O   UNL     1      52.066  22.929  53.235  1.00  0.00    -0.550 OA
ATOM      7  O   UNL     1      53.747  21.372  53.249  1.00  0.00    -0.550 OA
ENDBRANCH   4   5
ENDBRANCH   3   4
ENDBRANCH   2   3
ENDBRANCH   1   2
BRANCH   1   8
ATOM      8  C   UNL     1      55.207  23.807  47.656  1.00  0.00     0.000 C 
BRANCH   8   9
ATOM      9  C   UNL     1      56.188  23.059  48.570  1.00  0.00     0.006 C 
BRANCH   9  10
ATOM     10  C   UNL     1      56.615  21.729  47.944  1.00  0.00     0.053 C 
BRANCH  10  11
ATOM     11  C   UNL     1      56.198  20.583  48.811  1.00  0.00     0.041 C 
ATOM     12  O   UNL     1      56.431  19.399  48.451  1.00  0.00    -0.550 OA
ATOM     13  O   UNL     1      55.507  20.820  49.992  1.00  0.00    -0.550 OA
ENDBRANCH  10  11
ENDBRANCH   9  10
ENDBRANCH   8   9
ENDBRANCH   1   8
TORSDOF 8
ENDMDL
MODEL 4
REMARK VINA RESULT:    -3.675      1.691      5.546
REMARK INTER + INTRA:          -5.985
REMARK INTER:                  -5.496
REMARK INTRA:                  -0.489
REMARK UNBOUND:                -0.591
REMARK SMILES O=C([O-])CCCCCCCC(=O)[O-]
REMARK SMILES IDX 7 1 6 2 5 3 4 4 2 5 1 6 3 7 8 8 9 9 10 10 11 11 12 12 13 13
REMARK H PARENT
REMARK Flexibility Score: inf
ROOT
ATOM      1  C   UNL     1      55.268  21.074  49.876  1.00  0.00     0.000 C 
ENDROOT
BRANCH   1   2
ATOM      2  C   UNL     1      55.830  21.271  51.296  1.00  0.00     0.000 C 
BRANCH   2   3
ATOM      3  C   UNL     1      55.087  22.360  52.089  1.00  0.00     0.006 C 
BRANCH   3   4
ATOM      4  C   UNL     1      53.727  21.873  52.608  1.00  0.00     0.053 C 
BRANCH   4   5
ATOM      5  C   UNL     1      53.844  21.231  53.957  1.00  0.00     0.041 C 
ATOM      6  O   UNL     1      54.836  21.474  54.691  1.00  0.00    -0.550 OA
ATOM      7  O   UNL     1      52.868  20.342  54.389  1.00  0.00    -0.550 OA
ENDBRANCH   4   5
ENDBRANCH   3   4
ENDBRANCH   2   3
ENDBRANCH   1   2
BRANCH   1   8
ATOM      8  C   UNL     1      56.279  20.544  48.843  1.00  0.00     0.000 C 
BRANCH   8   9
ATOM      9  C   UNL     1      56.760  21.624  47.864  1.00  0.00     0.006 C 
BRANCH   9  10
ATOM     10  C   UNL     1      55.951  22.914  48.030  1.00  0.00     0.053 C 
BRANCH  10  11
ATOM     11  C   UNL     1      56.844  24.043  48.440  1.00  0.00     0.041 C 
ATOM     12  O   UNL     1      57.564  24.622  47.585  1.00  0.00    -0.550 OA
ATOM     13  O   UNL     1      56.917  24.422  49.773  1.00  0.00    -0.550 OA
ENDBRANCH  10  11
ENDBRANCH   9  10
ENDBRANCH   8   9
ENDBRANCH   1   8
TORSDOF 8
ENDMDL
MODEL 5
REMARK VINA RESULT:    -3.659      2.011      2.570
REMARK INTER + INTRA:          -5.962
REMARK INTER:                  -5.569
REMARK INTRA:                  -0.393
REMARK UNBOUND:                -0.591
REMARK SMILES O=C([O-])CCCCCCCC(=O)[O-]
REMARK SMILES IDX 7 1 6 2 5 3 4 4 2 5 1 6 3 7 8 8 9 9 10 10 11 11 12 12 13 13
REMARK H PARENT
REMARK Flexibility Score: inf
ROOT
ATOM      1  C   UNL     1      55.743  21.560  50.623  1.00  0.00     0.000 C 
ENDROOT
BRANCH   1   2
ATOM      2  C   UNL     1      55.937  20.760  49.323  1.00  0.00     0.000 C 
BRANCH   2   3
ATOM      3  C   UNL     1      56.377  21.638  48.139  1.00  0.00     0.006 C 
BRANCH   3   4
ATOM      4  C   UNL     1      56.310  23.134  48.471  1.00  0.00     0.053 C 
BRANCH   4   5
ATOM      5  C   UNL     1      55.208  23.822  47.724  1.00  0.00     0.041 C 
ATOM      6  O   UNL     1      55.479  24.680  46.844  1.00  0.00    -0.550 OA
ATOM      7  O   UNL     1      53.882  23.535  48.022  1.00  0.00    -0.550 OA
ENDBRANCH   4   5
ENDBRANCH   3   4
ENDBRANCH   2   3
ENDBRANCH   1   2
BRANCH   1   8
ATOM      8  C   UNL     1      54.395  21.332  51.333  1.00  0.00     0.000 C 
BRANCH   8   9
ATOM      9  C   UNL     1      54.469  21.561  52.850  1.00  0.00     0.006 C 
BRANCH   9  10
ATOM     10  C   UNL     1      53.213  22.273  53.359  1.00  0.00     0.053 C 
BRANCH  10  11
ATOM     11  C   UNL     1      52.142  21.279  53.683  1.00  0.00     0.041 C 
ATOM     12  O   UNL     1      50.932  21.563  53.480  1.00  0.00    -0.550 OA
ATOM     13  O   UNL     1      52.476  20.057  54.253  1.00  0.00    -0.550 OA
ENDBRANCH  10  11
ENDBRANCH   9  10
ENDBRANCH   8   9
ENDBRANCH   1   8
TORSDOF 8
ENDMDL
MODEL 6
REMARK VINA RESULT:    -3.619      1.929      2.911
REMARK INTER + INTRA:          -5.902
REMARK INTER:                  -5.380
REMARK INTRA:                  -0.522
REMARK UNBOUND:                -0.591
REMARK SMILES O=C([O-])CCCCCCCC(=O)[O-]
REMARK SMILES IDX 7 1 6 2 5 3 4 4 2 5 1 6 3 7 8 8 9 9 10 10 11 11 12 12 13 13
REMARK H PARENT
REMARK Flexibility Score: inf
ROOT
ATOM      1  C   UNL     1      53.833  24.516  49.094  1.00  0.00     0.000 C 
ENDROOT
BRANCH   1   2
ATOM      2  C   UNL     1      53.824  24.196  47.589  1.00  0.00     0.000 C 
BRANCH   2   3
ATOM      3  C   UNL     1      54.876  24.995  46.800  1.00  0.00     0.006 C 
BRANCH   3   4
ATOM      4  C   UNL     1      56.218  25.073  47.539  1.00  0.00     0.053 C 
BRANCH   4   5
ATOM      5  C   UNL     1      57.231  24.136  46.956  1.00  0.00     0.041 C 
ATOM      6  O   UNL     1      58.110  24.566  46.165  1.00  0.00    -0.550 OA
ATOM      7  O   UNL     1      57.185  22.783  47.266  1.00  0.00    -0.550 OA
ENDBRANCH   4   5
ENDBRANCH   3   4
ENDBRANCH   2   3
ENDBRANCH   1   2
BRANCH   1   8
ATOM      8  C   UNL     1      53.719  23.291  50.021  1.00  0.00     0.000 C 
BRANCH   8   9
ATOM      9  C   UNL     1      54.999  22.443  50.056  1.00  0.00     0.006 C 
BRANCH   9  10
ATOM     10  C   UNL     1      54.905  21.352  51.127  1.00  0.00     0.053 C 
BRANCH  10  11
ATOM     11  C   UNL     1      55.516  21.823  52.409  1.00  0.00     0.041 C 
ATOM     12  O   UNL     1      55.091  21.384  53.510  1.00  0.00    -0.550 OA
ATOM     13  O   UNL     1      56.519  22.782  52.391  1.00  0.00    -0.550 OA
ENDBRANCH  10  11
ENDBRANCH   9  10
ENDBRANCH   8   9
ENDBRANCH   1   8
TORSDOF 8
ENDMDL
MODEL 7
REMARK VINA RESULT:    -3.599      1.976      5.629
REMARK INTER + INTRA:          -5.873
REMARK INTER:                  -5.330
REMARK INTRA:                  -0.544
REMARK UNBOUND:                -0.591
REMARK SMILES O=C([O-])CCCCCCCC(=O)[O-]
REMARK SMILES IDX 7 1 6 2 5 3 4 4 2 5 1 6 3 7 8 8 9 9 10 10 11 11 12 12 13 13
REMARK H PARENT
REMARK Flexibility Score: inf
ROOT
ATOM      1  C   UNL     1      53.485  24.526  49.499  1.00  0.00     0.000 C 
ENDROOT
BRANCH   1   2
ATOM      2  C   UNL     1      53.708  23.699  50.779  1.00  0.00     0.000 C 
BRANCH   2   3
ATOM      3  C   UNL     1      54.948  22.792  50.698  1.00  0.00     0.006 C 
BRANCH   3   4
ATOM      4  C   UNL     1      54.695  21.410  51.314  1.00  0.00     0.053 C 
BRANCH   4   5
ATOM      5  C   UNL     1      54.252  21.509  52.742  1.00  0.00     0.041 C 
ATOM      6  O   UNL     1      53.107  21.109  53.079  1.00  0.00    -0.550 OA
ATOM      7  O   UNL     1      55.094  22.070  53.694  1.00  0.00    -0.550 OA
ENDBRANCH   4   5
ENDBRANCH   3   4
ENDBRANCH   2   3
ENDBRANCH   1   2
BRANCH   1   8
ATOM      8  C   UNL     1      53.782  23.782  48.184  1.00  0.00     0.000 C 
BRANCH   8   9
ATOM      9  C   UNL     1      54.732  24.556  47.258  1.00  0.00     0.006 C 
BRANCH   9  10
ATOM     10  C   UNL     1      56.143  24.620  47.851  1.00  0.00     0.053 C 
BRANCH  10  11
ATOM     11  C   UNL     1      57.030  23.603  47.204  1.00  0.00     0.041 C 
ATOM     12  O   UNL     1      57.000  22.403  47.587  1.00  0.00    -0.550 OA
ATOM     13  O   UNL     1      57.924  23.988  46.215  1.00  0.00    -0.550 OA
ENDBRANCH  10  11
ENDBRANCH   9  10
ENDBRANCH   8   9
ENDBRANCH   1   8
TORSDOF 8
ENDMDL
MODEL 8
REMARK VINA RESULT:    -3.556      1.996      5.664
REMARK INTER + INTRA:          -5.810
REMARK INTER:                  -5.307
REMARK INTRA:                  -0.502
REMARK UNBOUND:                -0.591
REMARK SMILES O=C([O-])CCCCCCCC(=O)[O-]
REMARK SMILES IDX 7 1 6 2 5 3 4 4 2 5 1 6 3 7 8 8 9 9 10 10 11 11 12 12 13 13
REMARK H PARENT
REMARK Flexibility Score: inf
ROOT
ATOM      1  C   UNL     1      53.899  23.537  50.080  1.00  0.00     0.000 C 
ENDROOT
BRANCH   1   2
ATOM      2  C   UNL     1      54.932  22.422  49.840  1.00  0.00     0.000 C 
BRANCH   2   3
ATOM      3  C   UNL     1      54.811  21.266  50.847  1.00  0.00     0.006 C 
BRANCH   3   4
ATOM      4  C   UNL     1      55.421  21.619  52.210  1.00  0.00     0.053 C 
BRANCH   4   5
ATOM      5  C   UNL     1      54.399  21.580  53.305  1.00  0.00     0.041 C 
ATOM      6  O   UNL     1      54.762  21.537  54.509  1.00  0.00    -0.550 OA
ATOM      7  O   UNL     1      53.046  21.563  52.991  1.00  0.00    -0.550 OA
ENDBRANCH   4   5
ENDBRANCH   3   4
ENDBRANCH   2   3
ENDBRANCH   1   2
BRANCH   1   8
ATOM      8  C   UNL     1      53.732  24.533  48.916  1.00  0.00     0.000 C 
BRANCH   8   9
ATOM      9  C   UNL     1      54.307  24.010  47.592  1.00  0.00     0.006 C 
BRANCH   9  10
ATOM     10  C   UNL     1      55.332  24.990  47.015  1.00  0.00     0.053 C 
BRANCH  10  11
ATOM     11  C   UNL     1      56.719  24.589  47.408  1.00  0.00     0.041 C 
ATOM     12  O   UNL     1      57.164  24.884  48.548  1.00  0.00    -0.550 OA
ATOM     13  O   UNL     1      57.538  23.933  46.498  1.00  0.00    -0.550 OA
ENDBRANCH  10  11
ENDBRANCH   9  10
ENDBRANCH   8   9
ENDBRANCH   1   8
TORSDOF 8
ENDMDL
