MODEL 1
REMARK VINA RESULT:    -3.054      0.000      0.000
REMARK INTER + INTRA:          -7.973
REMARK INTER:                  -5.553
REMARK INTRA:                  -2.420
REMARK UNBOUND:                -2.420
REMARK SMILES CCCCCCCCCCCCCCCCC
REMARK SMILES IDX 9 1 8 2 7 3 6 4 5 5 4 6 3 7 2 8 1 9 10 10 11 11 12 12 13 13
REMARK SMILES IDX 14 14 15 15 16 16 17 17
REMARK H PARENT
REMARK Flexibility Score: inf
ROOT
ATOM      1  C   UNL     1     -58.996  27.292 -16.824  1.00  0.00    -0.000 C 
ENDROOT
BRANCH   1   2
ATOM      2  C   UNL     1     -58.607  28.606 -16.113  1.00  0.00    -0.000 C 
BRANCH   2   3
ATOM      3  C   UNL     1     -59.424  28.883 -14.840  1.00  0.00    -0.000 C 
BRANCH   3   4
ATOM      4  C   UNL     1     -60.418  27.757 -14.510  1.00  0.00    -0.000 C 
BRANCH   4   5
ATOM      5  C   UNL     1     -60.156  27.121 -13.136  1.00  0.00    -0.000 C 
BRANCH   5   6
ATOM      6  C   UNL     1     -58.951  26.163 -13.143  1.00  0.00    -0.000 C 
BRANCH   6   7
ATOM      7  C   UNL     1     -57.798  26.672 -12.252  1.00  0.00    -0.000 C 
BRANCH   7   8
ATOM      8  C   UNL     1     -56.530  27.043 -13.040  1.00  0.00    -0.003 C 
ATOM      9  C   UNL     1     -56.260  28.545 -13.067  1.00  0.00     0.004 C 
ENDBRANCH   7   8
ENDBRANCH   6   7
ENDBRANCH   5   6
ENDBRANCH   4   5
ENDBRANCH   3   4
ENDBRANCH   2   3
ENDBRANCH   1   2
BRANCH   1  10
ATOM     10  C   UNL     1     -57.943  26.189 -16.618  1.00  0.00    -0.000 C 
BRANCH  10  11
ATOM     11  C   UNL     1     -56.505  26.728 -16.677  1.00  0.00    -0.000 C 
BRANCH  11  12
ATOM     12  C   UNL     1     -55.469  25.608 -16.879  1.00  0.00    -0.000 C 
BRANCH  12  13
ATOM     13  C   UNL     1     -54.965  25.024 -15.550  1.00  0.00    -0.000 C 
BRANCH  13  14
ATOM     14  C   UNL     1     -55.806  23.829 -15.070  1.00  0.00    -0.000 C 
BRANCH  14  15
ATOM     15  C   UNL     1     -55.645  23.553 -13.564  1.00  0.00    -0.000 C 
BRANCH  15  16
ATOM     16  C   UNL     1     -56.919  23.047 -12.863  1.00  0.00    -0.003 C 
ATOM     17  C   UNL     1     -56.720  21.709 -12.153  1.00  0.00     0.004 C 
ENDBRANCH  15  16
ENDBRANCH  14  15
ENDBRANCH  13  14
ENDBRANCH  12  13
ENDBRANCH  11  12
ENDBRANCH  10  11
ENDBRANCH   1  10
TORSDOF 14
ENDMDL
MODEL 2
REMARK VINA RESULT:    -3.014      1.306      4.209
REMARK INTER + INTRA:          -7.901
REMARK INTER:                  -5.399
REMARK INTRA:                  -2.502
REMARK UNBOUND:                -2.420
REMARK SMILES CCCCCCCCCCCCCCCCC
REMARK SMILES IDX 9 1 8 2 7 3 6 4 5 5 4 6 3 7 2 8 1 9 10 10 11 11 12 12 13 13
REMARK SMILES IDX 14 14 15 15 16 16 17 17
REMARK H PARENT
REMARK Flexibility Score: inf
ROOT
ATOM      1  C   UNL     1     -59.147  27.366 -16.696  1.00  0.00    -0.000 C 
ENDROOT
BRANCH   1   2
ATOM      2  C   UNL     1     -58.068  26.264 -16.767  1.00  0.00    -0.000 C 
BRANCH   2   3
ATOM      3  C   UNL     1     -56.631  26.800 -16.644  1.00  0.00    -0.000 C 
BRANCH   3   4
ATOM      4  C   UNL     1     -55.566  25.713 -16.868  1.00  0.00    -0.000 C 
BRANCH   4   5
ATOM      5  C   UNL     1     -55.395  24.793 -15.649  1.00  0.00    -0.000 C 
BRANCH   5   6
ATOM      6  C   UNL     1     -53.997  24.898 -15.015  1.00  0.00    -0.000 C 
BRANCH   6   7
ATOM      7  C   UNL     1     -53.998  24.477 -13.530  1.00  0.00    -0.000 C 
BRANCH   7   8
ATOM      8  C   UNL     1     -54.020  25.666 -12.554  1.00  0.00    -0.003 C 
ATOM      9  C   UNL     1     -53.357  26.919 -13.121  1.00  0.00     0.004 C 
ENDBRANCH   7   8
ENDBRANCH   6   7
ENDBRANCH   5   6
ENDBRANCH   4   5
ENDBRANCH   3   4
ENDBRANCH   2   3
ENDBRANCH   1   2
BRANCH   1  10
ATOM     10  C   UNL     1     -58.569  28.712 -16.222  1.00  0.00    -0.000 C 
BRANCH  10  11
ATOM     11  C   UNL     1     -59.077  29.114 -14.829  1.00  0.00    -0.000 C 
BRANCH  11  12
ATOM     12  C   UNL     1     -60.209  28.197 -14.333  1.00  0.00    -0.000 C 
BRANCH  12  13
ATOM     13  C   UNL     1     -59.810  27.391 -13.087  1.00  0.00    -0.000 C 
BRANCH  13  14
ATOM     14  C   UNL     1     -58.320  27.540 -12.737  1.00  0.00    -0.000 C 
BRANCH  14  15
ATOM     15  C   UNL     1     -57.512  26.258 -13.010  1.00  0.00    -0.000 C 
BRANCH  15  16
ATOM     16  C   UNL     1     -58.363  25.020 -13.345  1.00  0.00    -0.003 C 
ATOM     17  C   UNL     1     -57.746  23.716 -12.843  1.00  0.00     0.004 C 
ENDBRANCH  15  16
ENDBRANCH  14  15
ENDBRANCH  13  14
ENDBRANCH  12  13
ENDBRANCH  11  12
ENDBRANCH  10  11
ENDBRANCH   1  10
TORSDOF 14
ENDMDL
MODEL 3
REMARK VINA RESULT:    -3.006      1.531      4.652
REMARK INTER + INTRA:          -7.886
REMARK INTER:                  -5.403
REMARK INTRA:                  -2.483
REMARK UNBOUND:                -2.420
REMARK SMILES CCCCCCCCCCCCCCCCC
REMARK SMILES IDX 9 1 8 2 7 3 6 4 5 5 4 6 3 7 2 8 1 9 10 10 11 11 12 12 13 13
REMARK SMILES IDX 14 14 15 15 16 16 17 17
REMARK H PARENT
REMARK Flexibility Score: inf
ROOT
ATOM      1  C   UNL     1     -57.432  29.105 -14.924  1.00  0.00    -0.000 C 
ENDROOT
BRANCH   1   2
ATOM      2  C   UNL     1     -58.729  28.924 -15.740  1.00  0.00    -0.000 C 
BRANCH   2   3
ATOM      3  C   UNL     1     -58.579  27.962 -16.931  1.00  0.00    -0.000 C 
BRANCH   3   4
ATOM      4  C   UNL     1     -58.200  26.535 -16.504  1.00  0.00    -0.000 C 
BRANCH   4   5
ATOM      5  C   UNL     1     -56.735  26.193 -16.815  1.00  0.00    -0.000 C 
BRANCH   5   6
ATOM      6  C   UNL     1     -56.181  25.073 -15.916  1.00  0.00    -0.000 C 
BRANCH   6   7
ATOM      7  C   UNL     1     -54.648  25.160 -15.756  1.00  0.00    -0.000 C 
BRANCH   7   8
ATOM      8  C   UNL     1     -54.147  24.702 -14.376  1.00  0.00    -0.003 C 
ATOM      9  C   UNL     1     -53.966  23.189 -14.276  1.00  0.00     0.004 C 
ENDBRANCH   7   8
ENDBRANCH   6   7
ENDBRANCH   5   6
ENDBRANCH   4   5
ENDBRANCH   3   4
ENDBRANCH   2   3
ENDBRANCH   1   2
BRANCH   1  10
ATOM     10  C   UNL     1     -57.557  28.529 -13.502  1.00  0.00    -0.000 C 
BRANCH  10  11
ATOM     11  C   UNL     1     -56.413  27.563 -13.155  1.00  0.00    -0.000 C 
BRANCH  11  12
ATOM     12  C   UNL     1     -56.914  26.301 -12.430  1.00  0.00    -0.000 C 
BRANCH  12  13
ATOM     13  C   UNL     1     -58.251  25.791 -12.991  1.00  0.00    -0.000 C 
BRANCH  13  14
ATOM     14  C   UNL     1     -59.310  25.578 -11.896  1.00  0.00    -0.000 C 
BRANCH  14  15
ATOM     15  C   UNL     1     -60.564  26.446 -12.103  1.00  0.00    -0.000 C 
BRANCH  15  16
ATOM     16  C   UNL     1     -60.882  26.777 -13.572  1.00  0.00    -0.003 C 
ATOM     17  C   UNL     1     -61.643  28.092 -13.738  1.00  0.00     0.004 C 
ENDBRANCH  15  16
ENDBRANCH  14  15
ENDBRANCH  13  14
ENDBRANCH  12  13
ENDBRANCH  11  12
ENDBRANCH  10  11
ENDBRANCH   1  10
TORSDOF 14
ENDMDL
MODEL 4
REMARK VINA RESULT:    -3.004      1.297      2.516
REMARK INTER + INTRA:          -7.883
REMARK INTER:                  -5.388
REMARK INTRA:                  -2.494
REMARK UNBOUND:                -2.420
REMARK SMILES CCCCCCCCCCCCCCCCC
REMARK SMILES IDX 9 1 8 2 7 3 6 4 5 5 4 6 3 7 2 8 1 9 10 10 11 11 12 12 13 13
REMARK SMILES IDX 14 14 15 15 16 16 17 17
REMARK H PARENT
REMARK Flexibility Score: inf
ROOT
ATOM      1  C   UNL     1     -57.928  26.527 -16.460  1.00  0.00    -0.000 C 
ENDROOT
BRANCH   1   2
ATOM      2  C   UNL     1     -58.599  27.819 -16.973  1.00  0.00    -0.000 C 
BRANCH   2   3
ATOM      3  C   UNL     1     -58.753  28.904 -15.893  1.00  0.00    -0.000 C 
BRANCH   3   4
ATOM      4  C   UNL     1     -57.489  29.078 -15.035  1.00  0.00    -0.000 C 
BRANCH   4   5
ATOM      5  C   UNL     1     -57.778  28.977 -13.529  1.00  0.00    -0.000 C 
BRANCH   5   6
ATOM      6  C   UNL     1     -57.501  27.572 -12.963  1.00  0.00    -0.000 C 
BRANCH   6   7
ATOM      7  C   UNL     1     -58.754  26.948 -12.315  1.00  0.00    -0.000 C 
BRANCH   7   8
ATOM      8  C   UNL     1     -59.643  26.180 -13.308  1.00  0.00    -0.003 C 
ATOM      9  C   UNL     1     -60.944  26.909 -13.635  1.00  0.00     0.004 C 
ENDBRANCH   7   8
ENDBRANCH   6   7
ENDBRANCH   5   6
ENDBRANCH   4   5
ENDBRANCH   3   4
ENDBRANCH   2   3
ENDBRANCH   1   2
BRANCH   1  10
ATOM     10  C   UNL     1     -56.476  26.395 -16.954  1.00  0.00    -0.000 C 
BRANCH  10  11
ATOM     11  C   UNL     1     -55.632  25.471 -16.063  1.00  0.00    -0.000 C 
BRANCH  11  12
ATOM     12  C   UNL     1     -56.490  24.688 -15.053  1.00  0.00    -0.000 C 
BRANCH  12  13
ATOM     13  C   UNL     1     -55.649  24.045 -13.939  1.00  0.00    -0.000 C 
BRANCH  13  14
ATOM     14  C   UNL     1     -56.376  24.027 -12.583  1.00  0.00    -0.000 C 
BRANCH  14  15
ATOM     15  C   UNL     1     -57.672  23.196 -12.613  1.00  0.00    -0.000 C 
BRANCH  15  16
ATOM     16  C   UNL     1     -58.152  22.704 -11.236  1.00  0.00    -0.003 C 
ATOM     17  C   UNL     1     -59.090  23.691 -10.541  1.00  0.00     0.004 C 
ENDBRANCH  15  16
ENDBRANCH  14  15
ENDBRANCH  13  14
ENDBRANCH  12  13
ENDBRANCH  11  12
ENDBRANCH  10  11
ENDBRANCH   1  10
TORSDOF 14
ENDMDL
MODEL 5
REMARK VINA RESULT:    -2.945      1.134      2.271
REMARK INTER + INTRA:          -7.776
REMARK INTER:                  -5.106
REMARK INTRA:                  -2.670
REMARK UNBOUND:                -2.420
REMARK SMILES CCCCCCCCCCCCCCCCC
REMARK SMILES IDX 9 1 8 2 7 3 6 4 5 5 4 6 3 7 2 8 1 9 10 10 11 11 12 12 13 13
REMARK SMILES IDX 14 14 15 15 16 16 17 17
REMARK H PARENT
REMARK Flexibility Score: inf
ROOT
ATOM      1  C   UNL     1     -58.467  28.951 -14.565  1.00  0.00    -0.000 C 
ENDROOT
BRANCH   1   2
ATOM      2  C   UNL     1     -59.919  28.765 -14.078  1.00  0.00    -0.000 C 
BRANCH   2   3
ATOM      3  C   UNL     1     -60.041  27.876 -12.828  1.00  0.00    -0.000 C 
BRANCH   3   4
ATOM      4  C   UNL     1     -60.107  26.377 -13.164  1.00  0.00    -0.000 C 
BRANCH   4   5
ATOM      5  C   UNL     1     -58.829  25.624 -12.760  1.00  0.00    -0.000 C 
BRANCH   5   6
ATOM      6  C   UNL     1     -57.878  26.481 -11.905  1.00  0.00    -0.000 C 
BRANCH   6   7
ATOM      7  C   UNL     1     -56.395  26.165 -12.192  1.00  0.00    -0.000 C 
BRANCH   7   8
ATOM      8  C   UNL     1     -55.646  27.313 -12.892  1.00  0.00    -0.003 C 
ATOM      9  C   UNL     1     -54.139  27.082 -12.973  1.00  0.00     0.004 C 
ENDBRANCH   7   8
ENDBRANCH   6   7
ENDBRANCH   5   6
ENDBRANCH   4   5
ENDBRANCH   3   4
ENDBRANCH   2   3
ENDBRANCH   1   2
BRANCH   1  10
ATOM     10  C   UNL     1     -58.326  28.693 -16.076  1.00  0.00    -0.000 C 
BRANCH  10  11
ATOM     11  C   UNL     1     -58.975  27.370 -16.511  1.00  0.00    -0.000 C 
BRANCH  11  12
ATOM     12  C   UNL     1     -58.022  26.172 -16.356  1.00  0.00    -0.000 C 
BRANCH  12  13
ATOM     13  C   UNL     1     -56.577  26.513 -16.755  1.00  0.00    -0.000 C 
BRANCH  13  14
ATOM     14  C   UNL     1     -55.551  25.533 -16.163  1.00  0.00    -0.000 C 
BRANCH  14  15
ATOM     15  C   UNL     1     -56.202  24.442 -15.293  1.00  0.00    -0.000 C 
BRANCH  15  16
ATOM     16  C   UNL     1     -55.208  23.501 -14.590  1.00  0.00    -0.003 C 
ATOM     17  C   UNL     1     -55.701  22.056 -14.516  1.00  0.00     0.004 C 
ENDBRANCH  15  16
ENDBRANCH  14  15
ENDBRANCH  13  14
ENDBRANCH  12  13
ENDBRANCH  11  12
ENDBRANCH  10  11
ENDBRANCH   1  10
TORSDOF 14
ENDMDL
MODEL 6
REMARK VINA RESULT:    -2.941      2.281      5.576
REMARK INTER + INTRA:          -7.768
REMARK INTER:                  -5.941
REMARK INTRA:                  -1.826
REMARK UNBOUND:                -2.420
REMARK SMILES CCCCCCCCCCCCCCCCC
REMARK SMILES IDX 9 1 8 2 7 3 6 4 5 5 4 6 3 7 2 8 1 9 10 10 11 11 12 12 13 13
REMARK SMILES IDX 14 14 15 15 16 16 17 17
REMARK H PARENT
REMARK Flexibility Score: inf
ROOT
ATOM      1  C   UNL     1     -58.225  26.505 -16.522  1.00  0.00    -0.000 C 
ENDROOT
BRANCH   1   2
ATOM      2  C   UNL     1     -56.715  26.295 -16.762  1.00  0.00    -0.000 C 
BRANCH   2   3
ATOM      3  C   UNL     1     -56.017  25.505 -15.642  1.00  0.00    -0.000 C 
BRANCH   3   4
ATOM      4  C   UNL     1     -54.595  25.057 -16.022  1.00  0.00    -0.000 C 
BRANCH   4   5
ATOM      5  C   UNL     1     -53.631  25.072 -14.825  1.00  0.00    -0.000 C 
BRANCH   5   6
ATOM      6  C   UNL     1     -52.153  25.032 -15.251  1.00  0.00    -0.000 C 
BRANCH   6   7
ATOM      7  C   UNL     1     -51.311  26.108 -14.533  1.00  0.00    -0.000 C 
BRANCH   7   8
ATOM      8  C   UNL     1     -49.978  26.417 -15.236  1.00  0.00    -0.003 C 
ATOM      9  C   UNL     1     -49.666  25.452 -16.378  1.00  0.00     0.004 C 
ENDBRANCH   7   8
ENDBRANCH   6   7
ENDBRANCH   5   6
ENDBRANCH   4   5
ENDBRANCH   3   4
ENDBRANCH   2   3
ENDBRANCH   1   2
BRANCH   1  10
ATOM     10  C   UNL     1     -58.649  27.967 -16.749  1.00  0.00    -0.000 C 
BRANCH  10  11
ATOM     11  C   UNL     1     -59.150  28.642 -15.464  1.00  0.00    -0.000 C 
BRANCH  11  12
ATOM     12  C   UNL     1     -59.898  27.662 -14.542  1.00  0.00    -0.000 C 
BRANCH  12  13
ATOM     13  C   UNL     1     -59.358  27.679 -13.103  1.00  0.00    -0.000 C 
BRANCH  13  14
ATOM     14  C   UNL     1     -58.509  26.440 -12.774  1.00  0.00    -0.000 C 
BRANCH  14  15
ATOM     15  C   UNL     1     -57.036  26.785 -12.490  1.00  0.00    -0.000 C 
BRANCH  15  16
ATOM     16  C   UNL     1     -56.703  28.287 -12.556  1.00  0.00    -0.003 C 
ATOM     17  C   UNL     1     -55.792  28.647 -13.730  1.00  0.00     0.004 C 
ENDBRANCH  15  16
ENDBRANCH  14  15
ENDBRANCH  13  14
ENDBRANCH  12  13
ENDBRANCH  11  12
ENDBRANCH  10  11
ENDBRANCH   1  10
TORSDOF 14
ENDMDL
MODEL 7
REMARK VINA RESULT:    -2.911      1.202      2.577
REMARK INTER + INTRA:          -7.715
REMARK INTER:                  -5.094
REMARK INTRA:                  -2.620
REMARK UNBOUND:                -2.420
REMARK SMILES CCCCCCCCCCCCCCCCC
REMARK SMILES IDX 9 1 8 2 7 3 6 4 5 5 4 6 3 7 2 8 1 9 10 10 11 11 12 12 13 13
REMARK SMILES IDX 14 14 15 15 16 16 17 17
REMARK H PARENT
REMARK Flexibility Score: inf
ROOT
ATOM      1  C   UNL     1     -58.606  27.684 -16.770  1.00  0.00    -0.000 C 
ENDROOT
BRANCH   1   2
ATOM      2  C   UNL     1     -58.124  28.650 -15.667  1.00  0.00    -0.000 C 
BRANCH   2   3
ATOM      3  C   UNL     1     -58.659  28.304 -14.267  1.00  0.00    -0.000 C 
BRANCH   3   4
ATOM      4  C   UNL     1     -60.144  27.908 -14.275  1.00  0.00    -0.000 C 
BRANCH   4   5
ATOM      5  C   UNL     1     -60.378  26.482 -13.751  1.00  0.00    -0.000 C 
BRANCH   5   6
ATOM      6  C   UNL     1     -59.079  25.794 -13.295  1.00  0.00    -0.000 C 
BRANCH   6   7
ATOM      7  C   UNL     1     -59.046  25.564 -11.769  1.00  0.00    -0.000 C 
BRANCH   7   8
ATOM      8  C   UNL     1     -58.109  24.423 -11.339  1.00  0.00    -0.003 C 
ATOM      9  C   UNL     1     -58.080  23.265 -12.335  1.00  0.00     0.004 C 
ENDBRANCH   7   8
ENDBRANCH   6   7
ENDBRANCH   5   6
ENDBRANCH   4   5
ENDBRANCH   3   4
ENDBRANCH   2   3
ENDBRANCH   1   2
BRANCH   1  10
ATOM     10  C   UNL     1     -57.846  26.346 -16.740  1.00  0.00    -0.000 C 
BRANCH  10  11
ATOM     11  C   UNL     1     -56.357  26.505 -17.085  1.00  0.00    -0.000 C 
BRANCH  11  12
ATOM     12  C   UNL     1     -55.485  25.419 -16.431  1.00  0.00    -0.000 C 
BRANCH  12  13
ATOM     13  C   UNL     1     -56.146  24.804 -15.187  1.00  0.00    -0.000 C 
BRANCH  13  14
ATOM     14  C   UNL     1     -55.183  24.706 -13.991  1.00  0.00    -0.000 C 
BRANCH  14  15
ATOM     15  C   UNL     1     -54.563  26.064 -13.613  1.00  0.00    -0.000 C 
BRANCH  15  16
ATOM     16  C   UNL     1     -55.579  27.138 -13.186  1.00  0.00    -0.003 C 
ATOM     17  C   UNL     1     -55.710  27.269 -11.669  1.00  0.00     0.004 C 
ENDBRANCH  15  16
ENDBRANCH  14  15
ENDBRANCH  13  14
ENDBRANCH  12  13
ENDBRANCH  11  12
ENDBRANCH  10  11
ENDBRANCH   1  10
TORSDOF 14
ENDMDL
MODEL 8
REMARK VINA RESULT:    -2.901      1.055      4.630
REMARK INTER + INTRA:          -7.695
REMARK INTER:                  -5.069
REMARK INTRA:                  -2.626
REMARK UNBOUND:                -2.420
REMARK SMILES CCCCCCCCCCCCCCCCC
REMARK SMILES IDX 9 1 8 2 7 3 6 4 5 5 4 6 3 7 2 8 1 9 10 10 11 11 12 12 13 13
REMARK SMILES IDX 14 14 15 15 16 16 17 17
REMARK H PARENT
REMARK Flexibility Score: inf
ROOT
ATOM      1  C   UNL     1     -58.289  28.742 -15.732  1.00  0.00    -0.000 C 
ENDROOT
BRANCH   1   2
ATOM      2  C   UNL     1     -58.961  27.845 -16.793  1.00  0.00    -0.000 C 
BRANCH   2   3
ATOM      3  C   UNL     1     -58.246  26.499 -17.006  1.00  0.00    -0.000 C 
BRANCH   3   4
ATOM      4  C   UNL     1     -56.780  26.520 -16.542  1.00  0.00    -0.000 C 
BRANCH   4   5
ATOM      5  C   UNL     1     -56.315  25.165 -15.987  1.00  0.00    -0.000 C 
BRANCH   5   6
ATOM      6  C   UNL     1     -54.827  25.161 -15.593  1.00  0.00    -0.000 C 
BRANCH   6   7
ATOM      7  C   UNL     1     -54.466  23.960 -14.694  1.00  0.00    -0.000 C 
BRANCH   7   8
ATOM      8  C   UNL     1     -55.669  23.064 -14.352  1.00  0.00    -0.003 C 
ATOM      9  C   UNL     1     -55.360  21.574 -14.478  1.00  0.00     0.004 C 
ENDBRANCH   7   8
ENDBRANCH   6   7
ENDBRANCH   5   6
ENDBRANCH   4   5
ENDBRANCH   3   4
ENDBRANCH   2   3
ENDBRANCH   1   2
BRANCH   1  10
ATOM     10  C   UNL     1     -59.208  28.997 -14.524  1.00  0.00    -0.000 C 
BRANCH  10  11
ATOM     11  C   UNL     1     -60.292  27.919 -14.370  1.00  0.00    -0.000 C 
BRANCH  11  12
ATOM     12  C   UNL     1     -60.010  26.971 -13.191  1.00  0.00    -0.000 C 
BRANCH  12  13
ATOM     13  C   UNL     1     -59.172  25.751 -13.603  1.00  0.00    -0.000 C 
BRANCH  13  14
ATOM     14  C   UNL     1     -57.867  25.630 -12.797  1.00  0.00    -0.000 C 
BRANCH  14  15
ATOM     15  C   UNL     1     -57.598  26.858 -11.910  1.00  0.00    -0.000 C 
BRANCH  15  16
ATOM     16  C   UNL     1     -56.143  27.360 -11.930  1.00  0.00    -0.003 C 
ATOM     17  C   UNL     1     -55.719  27.912 -13.291  1.00  0.00     0.004 C 
ENDBRANCH  15  16
ENDBRANCH  14  15
ENDBRANCH  13  14
ENDBRANCH  12  13
ENDBRANCH  11  12
ENDBRANCH  10  11
ENDBRANCH   1  10
TORSDOF 14
ENDMDL
MODEL 9
REMARK VINA RESULT:    -2.892      2.188      3.445
REMARK INTER + INTRA:          -7.680
REMARK INTER:                  -5.674
REMARK INTRA:                  -2.006
REMARK UNBOUND:                -2.420
REMARK SMILES CCCCCCCCCCCCCCCCC
REMARK SMILES IDX 9 1 8 2 7 3 6 4 5 5 4 6 3 7 2 8 1 9 10 10 11 11 12 12 13 13
REMARK SMILES IDX 14 14 15 15 16 16 17 17
REMARK H PARENT
REMARK Flexibility Score: inf
ROOT
ATOM      1  C   UNL     1     -58.163  26.330 -16.964  1.00  0.00    -0.000 C 
ENDROOT
BRANCH   1   2
ATOM      2  C   UNL     1     -59.022  27.608 -16.852  1.00  0.00    -0.000 C 
BRANCH   2   3
ATOM      3  C   UNL     1     -58.387  28.704 -15.980  1.00  0.00    -0.000 C 
BRANCH   3   4
ATOM      4  C   UNL     1     -59.207  29.015 -14.717  1.00  0.00    -0.000 C 
BRANCH   4   5
ATOM      5  C   UNL     1     -59.929  27.777 -14.161  1.00  0.00    -0.000 C 
BRANCH   5   6
ATOM      6  C   UNL     1     -59.040  26.942 -13.222  1.00  0.00    -0.000 C 
BRANCH   6   7
ATOM      7  C   UNL     1     -58.020  27.814 -12.459  1.00  0.00    -0.000 C 
BRANCH   7   8
ATOM      8  C   UNL     1     -56.565  27.337 -12.613  1.00  0.00    -0.003 C 
ATOM      9  C   UNL     1     -55.678  28.346 -13.338  1.00  0.00     0.004 C 
ENDBRANCH   7   8
ENDBRANCH   6   7
ENDBRANCH   5   6
ENDBRANCH   4   5
ENDBRANCH   3   4
ENDBRANCH   2   3
ENDBRANCH   1   2
BRANCH   1  10
ATOM     10  C   UNL     1     -56.753  26.528 -16.378  1.00  0.00    -0.000 C 
BRANCH  10  11
ATOM     11  C   UNL     1     -56.251  25.290 -15.620  1.00  0.00    -0.000 C 
BRANCH  11  12
ATOM     12  C   UNL     1     -54.724  25.121 -15.723  1.00  0.00    -0.000 C 
BRANCH  12  13
ATOM     13  C   UNL     1     -54.059  24.932 -14.351  1.00  0.00    -0.000 C 
BRANCH  13  14
ATOM     14  C   UNL     1     -52.750  25.729 -14.212  1.00  0.00    -0.000 C 
BRANCH  14  15
ATOM     15  C   UNL     1     -51.651  25.243 -15.174  1.00  0.00    -0.000 C 
BRANCH  15  16
ATOM     16  C   UNL     1     -50.262  25.858 -14.928  1.00  0.00    -0.003 C 
ATOM     17  C   UNL     1     -49.433  25.995 -16.205  1.00  0.00     0.004 C 
ENDBRANCH  15  16
ENDBRANCH  14  15
ENDBRANCH  13  14
ENDBRANCH  12  13
ENDBRANCH  11  12
ENDBRANCH  10  11
ENDBRANCH   1  10
TORSDOF 14
ENDMDL
