MODEL 1
REMARK VINA RESULT:    -3.752      0.000      0.000
REMARK INTER + INTRA:          -5.953
REMARK INTER:                  -5.726
REMARK INTRA:                  -0.228
REMARK UNBOUND:                -0.228
REMARK SMILES CC1=CCC[C@H](C)C(=O)C[C@H](C(C)C)C(=O)C1
REMARK SMILES IDX 8 1 9 2 6 3 7 4 5 5 4 6 3 7 2 8 1 9 10 11 11 12 15 13 16 14
REMARK SMILES IDX 17 15 12 17 13 18 14 19
REMARK H PARENT
REMARK Flexibility Score: 70.00
ROOT
ATOM      1  C   UNL     1      -1.555  26.633 -13.694  1.00  0.00     0.136 C 
ATOM      2  O   UNL     1      -1.129  27.741 -13.397  1.00  0.00    -0.299 OA
ENDROOT
BRANCH   1   3
ATOM      3  C   UNL     1      -0.570  25.469 -13.835  1.00  0.00     0.053 C 
ATOM      4  C   UNL     1       0.855  25.955 -14.155  1.00  0.00     0.016 C 
BRANCH   3   5
ATOM      5  C   UNL     1      -0.542  24.561 -12.572  1.00  0.00     0.015 C 
BRANCH   5   6
ATOM      6  C   UNL     1      -1.346  23.247 -12.662  1.00  0.00     0.028 C 
BRANCH   6   7
ATOM      7  C   UNL     1      -2.617  23.121 -11.845  1.00  0.00    -0.028 C 
ATOM      8  C   UNL     1      -3.897  23.179 -12.289  1.00  0.00    -0.070 CG0
ATOM      9  C   UNL     1      -4.993  23.205 -11.252  1.00  0.00     0.039 C 
ATOM     10  G   UNL     1      -4.308  23.111 -13.752  1.00  0.00     0.000 G0
ENDBRANCH   6   7
ENDBRANCH   5   6
ENDBRANCH   3   5
ENDBRANCH   1   3
BRANCH   1  11
ATOM     11  C   UNL     1      -3.044  26.512 -14.004  1.00  0.00     0.087 C 
BRANCH  11  12
ATOM     12  C   UNL     1      -3.422  25.324 -14.926  1.00  0.00     0.066 C 
BRANCH  12  13
ATOM     13  C   UNL     1      -4.560  24.489 -14.359  1.00  0.00     0.140 C 
ATOM     14  O   UNL     1      -5.672  24.995 -14.307  1.00  0.00    -0.299 OA
BRANCH  13  15
ATOM     15  C   UNL     1      -4.344  23.106 -13.765  1.00  0.00     0.106 CG0
ATOM     16  G   UNL     1      -3.920  23.191 -12.308  1.00  0.00     0.000 G0
ENDBRANCH  13  15
ENDBRANCH  12  13
BRANCH  12  17
ATOM     17  C   UNL     1      -3.761  25.783 -16.382  1.00  0.00    -0.006 C 
ATOM     18  C   UNL     1      -2.484  26.124 -17.173  1.00  0.00     0.008 C 
ATOM     19  C   UNL     1      -4.701  27.002 -16.412  1.00  0.00     0.008 C 
ENDBRANCH  12  17
ENDBRANCH  11  12
ENDBRANCH   1  11
TORSDOF 1
ENDMDL
MODEL 2
REMARK VINA RESULT:    -3.656      1.842      4.160
REMARK INTER + INTRA:          -5.807
REMARK INTER:                  -5.507
REMARK INTRA:                  -0.300
REMARK UNBOUND:                -0.228
REMARK SMILES CC1=CCC[C@H](C)C(=O)C[C@H](C(C)C)C(=O)C1
REMARK SMILES IDX 8 1 9 2 6 3 7 4 5 5 4 6 3 7 2 8 1 9 10 11 11 12 15 13 16 14
REMARK SMILES IDX 17 15 12 17 13 18 14 19
REMARK H PARENT
REMARK Flexibility Score: 70.00
ROOT
ATOM      1  C   UNL     1      -3.944  26.015 -16.695  1.00  0.00     0.136 C 
ATOM      2  O   UNL     1      -3.621  25.782 -17.852  1.00  0.00    -0.299 OA
ENDROOT
BRANCH   1   3
ATOM      3  C   UNL     1      -5.154  26.914 -16.426  1.00  0.00     0.053 C 
ATOM      4  C   UNL     1      -5.275  28.043 -17.465  1.00  0.00     0.016 C 
BRANCH   3   5
ATOM      5  C   UNL     1      -6.486  26.112 -16.367  1.00  0.00     0.015 C 
BRANCH   5   6
ATOM      6  C   UNL     1      -6.370  24.629 -15.957  1.00  0.00     0.028 C 
BRANCH   6   7
ATOM      7  C   UNL     1      -6.789  24.231 -14.557  1.00  0.00    -0.028 C 
ATOM      8  C   UNL     1      -5.995  23.810 -13.541  1.00  0.00    -0.070 CG0
ATOM      9  C   UNL     1      -6.673  23.300 -12.293  1.00  0.00     0.039 C 
ATOM     10  G   UNL     1      -4.478  23.916 -13.531  1.00  0.00     0.000 G0
ENDBRANCH   6   7
ENDBRANCH   5   6
ENDBRANCH   3   5
ENDBRANCH   1   3
BRANCH   1  11
ATOM     11  C   UNL     1      -3.047  25.465 -15.590  1.00  0.00     0.087 C 
BRANCH  11  12
ATOM     12  C   UNL     1      -3.198  26.171 -14.218  1.00  0.00     0.066 C 
BRANCH  12  13
ATOM     13  C   UNL     1      -4.008  25.347 -13.229  1.00  0.00     0.140 C 
ATOM     14  O   UNL     1      -4.224  25.827 -12.125  1.00  0.00    -0.299 OA
BRANCH  13  15
ATOM     15  C   UNL     1      -4.459  23.925 -13.522  1.00  0.00     0.106 CG0
ATOM     16  G   UNL     1      -5.976  23.818 -13.530  1.00  0.00     0.000 G0
ENDBRANCH  13  15
ENDBRANCH  12  13
BRANCH  12  17
ATOM     17  C   UNL     1      -1.820  26.566 -13.594  1.00  0.00    -0.006 C 
ATOM     18  C   UNL     1      -1.742  28.080 -13.323  1.00  0.00     0.008 C 
ATOM     19  C   UNL     1      -0.632  26.161 -14.486  1.00  0.00     0.008 C 
ENDBRANCH  12  17
ENDBRANCH  11  12
ENDBRANCH   1  11
TORSDOF 1
ENDMDL
MODEL 3
REMARK VINA RESULT:    -3.446     13.988     15.688
REMARK INTER + INTRA:          -5.487
REMARK INTER:                  -5.049
REMARK INTRA:                  -0.438
REMARK UNBOUND:                -0.228
REMARK SMILES CC1=CCC[C@H](C)C(=O)C[C@H](C(C)C)C(=O)C1
REMARK SMILES IDX 8 1 9 2 6 3 7 4 5 5 4 6 3 7 2 8 1 9 10 11 11 12 15 13 16 14
REMARK SMILES IDX 17 15 12 17 13 18 14 19
REMARK H PARENT
REMARK Flexibility Score: 70.00
ROOT
ATOM      1  C   UNL     1      11.689  32.804 -14.188  1.00  0.00     0.136 C 
ATOM      2  O   UNL     1      11.657  33.346 -15.285  1.00  0.00    -0.299 OA
ENDROOT
BRANCH   1   3
ATOM      3  C   UNL     1      11.694  31.275 -14.114  1.00  0.00     0.053 C 
ATOM      4  C   UNL     1      12.693  30.752 -13.066  1.00  0.00     0.016 C 
BRANCH   3   5
ATOM      5  C   UNL     1      10.281  30.690 -13.829  1.00  0.00     0.015 C 
BRANCH   5   6
ATOM      6  C   UNL     1      10.127  29.894 -12.516  1.00  0.00     0.028 C 
BRANCH   6   7
ATOM      7  C   UNL     1       9.075  30.340 -11.520  1.00  0.00    -0.028 C 
ATOM      8  C   UNL     1       9.181  31.313 -10.582  1.00  0.00    -0.070 CG0
ATOM      9  C   UNL     1       8.052  31.448  -9.589  1.00  0.00     0.039 C 
ATOM     10  G   UNL     1      10.299  32.342 -10.528  1.00  0.00     0.000 G0
ENDBRANCH   6   7
ENDBRANCH   5   6
ENDBRANCH   3   5
ENDBRANCH   1   3
BRANCH   1  11
ATOM     11  C   UNL     1      11.620  33.702 -12.956  1.00  0.00     0.087 C 
BRANCH  11  12
ATOM     12  C   UNL     1      10.189  34.120 -12.534  1.00  0.00     0.066 C 
BRANCH  12  13
ATOM     13  C   UNL     1       9.855  33.692 -11.113  1.00  0.00     0.140 C 
ATOM     14  O   UNL     1       9.274  34.492 -10.395  1.00  0.00    -0.299 OA
BRANCH  13  15
ATOM     15  C   UNL     1      10.308  32.363 -10.530  1.00  0.00     0.106 CG0
ATOM     16  G   UNL     1       9.198  31.326 -10.592  1.00  0.00     0.000 G0
ENDBRANCH  13  15
ENDBRANCH  12  13
BRANCH  12  17
ATOM     17  C   UNL     1       9.937  35.653 -12.711  1.00  0.00    -0.006 C 
ATOM     18  C   UNL     1       8.779  35.921 -13.690  1.00  0.00     0.008 C 
ATOM     19  C   UNL     1      11.188  36.402 -13.207  1.00  0.00     0.008 C 
ENDBRANCH  12  17
ENDBRANCH  11  12
ENDBRANCH   1  11
TORSDOF 1
ENDMDL
MODEL 4
REMARK VINA RESULT:    -3.351     15.902     17.566
REMARK INTER + INTRA:          -5.342
REMARK INTER:                  -5.334
REMARK INTRA:                  -0.009
REMARK UNBOUND:                -0.228
REMARK SMILES CC1=CCC[C@H](C)C(=O)C[C@H](C(C)C)C(=O)C1
REMARK SMILES IDX 8 1 9 2 6 3 7 4 5 5 4 6 3 7 2 8 1 9 10 11 11 12 15 13 16 14
REMARK SMILES IDX 17 15 12 17 13 18 14 19
REMARK H PARENT
REMARK Flexibility Score: 70.00
ROOT
ATOM      1  C   UNL     1      12.591  34.784 -15.770  1.00  0.00     0.136 C 
ATOM      2  O   UNL     1      12.973  35.187 -16.861  1.00  0.00    -0.299 OA
ENDROOT
BRANCH   1   3
ATOM      3  C   UNL     1      12.001  33.375 -15.662  1.00  0.00     0.053 C 
ATOM      4  C   UNL     1      12.844  32.336 -16.423  1.00  0.00     0.016 C 
BRANCH   3   5
ATOM      5  C   UNL     1      11.818  32.920 -14.186  1.00  0.00     0.015 C 
BRANCH   5   6
ATOM      6  C   UNL     1      10.378  32.569 -13.756  1.00  0.00     0.028 C 
BRANCH   6   7
ATOM      7  C   UNL     1       9.953  32.879 -12.335  1.00  0.00    -0.028 C 
ATOM      8  C   UNL     1       9.693  34.095 -11.793  1.00  0.00    -0.070 CG0
ATOM      9  C   UNL     1       9.460  34.158 -10.303  1.00  0.00     0.039 C 
ATOM     10  G   UNL     1       9.513  35.376 -12.593  1.00  0.00     0.000 G0
ENDBRANCH   6   7
ENDBRANCH   5   6
ENDBRANCH   3   5
ENDBRANCH   1   3
BRANCH   1  11
ATOM     11  C   UNL     1      12.642  35.762 -14.601  1.00  0.00     0.087 C 
BRANCH  11  12
ATOM     12  C   UNL     1      11.288  36.432 -14.254  1.00  0.00     0.066 C 
BRANCH  12  13
ATOM     13  C   UNL     1      10.814  36.090 -12.850  1.00  0.00     0.140 C 
ATOM     14  O   UNL     1      11.578  36.304 -11.919  1.00  0.00    -0.299 OA
BRANCH  13  15
ATOM     15  C   UNL     1       9.486  35.403 -12.578  1.00  0.00     0.106 CG0
ATOM     16  G   UNL     1       9.682  34.105 -11.810  1.00  0.00     0.000 G0
ENDBRANCH  13  15
ENDBRANCH  12  13
BRANCH  12  17
ATOM     17  C   UNL     1      11.321  37.983 -14.451  1.00  0.00    -0.006 C 
ATOM     18  C   UNL     1       9.899  38.574 -14.483  1.00  0.00     0.008 C 
ATOM     19  C   UNL     1      12.057  38.398 -15.739  1.00  0.00     0.008 C 
ENDBRANCH  12  17
ENDBRANCH  11  12
ENDBRANCH   1  11
TORSDOF 1
ENDMDL
MODEL 5
REMARK VINA RESULT:    -3.293      1.951      3.765
REMARK INTER + INTRA:          -5.253
REMARK INTER:                  -4.751
REMARK INTRA:                  -0.502
REMARK UNBOUND:                -0.228
REMARK SMILES CC1=CCC[C@H](C)C(=O)C[C@H](C(C)C)C(=O)C1
REMARK SMILES IDX 8 1 9 2 6 3 7 4 5 5 4 6 3 7 2 8 1 9 10 11 11 12 15 13 16 14
REMARK SMILES IDX 17 15 12 17 13 18 14 19
REMARK H PARENT
REMARK Flexibility Score: 70.00
ROOT
ATOM      1  C   UNL     1      -3.165  25.955 -13.072  1.00  0.00     0.136 C 
ATOM      2  O   UNL     1      -3.268  27.159 -12.879  1.00  0.00    -0.299 OA
ENDROOT
BRANCH   1   3
ATOM      3  C   UNL     1      -2.397  25.461 -14.301  1.00  0.00     0.053 C 
ATOM      4  C   UNL     1      -2.913  26.104 -15.600  1.00  0.00     0.016 C 
BRANCH   3   5
ATOM      5  C   UNL     1      -0.864  25.693 -14.174  1.00  0.00     0.015 C 
BRANCH   5   6
ATOM      6  C   UNL     1      -0.191  25.119 -12.909  1.00  0.00     0.028 C 
BRANCH   6   7
ATOM      7  C   UNL     1       0.011  23.620 -12.816  1.00  0.00    -0.028 C 
ATOM      8  C   UNL     1      -0.608  22.750 -11.979  1.00  0.00    -0.070 CG0
ATOM      9  C   UNL     1      -0.103  21.329 -11.956  1.00  0.00     0.039 C 
ATOM     10  G   UNL     1      -1.839  23.079 -11.149  1.00  0.00     0.000 G0
ENDBRANCH   6   7
ENDBRANCH   5   6
ENDBRANCH   3   5
ENDBRANCH   1   3
BRANCH   1  11
ATOM     11  C   UNL     1      -3.903  25.023 -12.115  1.00  0.00     0.087 C 
BRANCH  11  12
ATOM     12  C   UNL     1      -4.016  23.554 -12.595  1.00  0.00     0.066 C 
BRANCH  12  13
ATOM     13  C   UNL     1      -3.113  22.616 -11.810  1.00  0.00     0.140 C 
ATOM     14  O   UNL     1      -3.482  21.461 -11.654  1.00  0.00    -0.299 OA
BRANCH  13  15
ATOM     15  C   UNL     1      -1.836  23.085 -11.130  1.00  0.00     0.106 CG0
ATOM     16  G   UNL     1      -0.611  22.756 -11.968  1.00  0.00     0.000 G0
ENDBRANCH  13  15
ENDBRANCH  12  13
BRANCH  12  17
ATOM     17  C   UNL     1      -5.489  23.031 -12.575  1.00  0.00    -0.006 C 
ATOM     18  C   UNL     1      -6.189  23.275 -13.925  1.00  0.00     0.008 C 
ATOM     19  C   UNL     1      -6.329  23.678 -11.458  1.00  0.00     0.008 C 
ENDBRANCH  12  17
ENDBRANCH  11  12
ENDBRANCH   1  11
TORSDOF 1
ENDMDL
MODEL 6
REMARK VINA RESULT:    -3.241     13.360     15.970
REMARK INTER + INTRA:          -5.174
REMARK INTER:                  -5.250
REMARK INTRA:                   0.076
REMARK UNBOUND:                -0.228
REMARK SMILES CC1=CCC[C@H](C)C(=O)C[C@H](C(C)C)C(=O)C1
REMARK SMILES IDX 8 1 9 2 6 3 7 4 5 5 4 6 3 7 2 8 1 9 10 11 11 12 15 13 16 14
REMARK SMILES IDX 17 15 12 17 13 18 14 19
REMARK H PARENT
REMARK Flexibility Score: 70.00
ROOT
ATOM      1  C   UNL     1       8.988  34.261 -11.095  1.00  0.00     0.136 C 
ATOM      2  O   UNL     1       8.496  35.277 -10.621  1.00  0.00    -0.299 OA
ENDROOT
BRANCH   1   3
ATOM      3  C   UNL     1       9.753  34.353 -12.419  1.00  0.00     0.053 C 
ATOM      4  C   UNL     1       9.006  35.207 -13.459  1.00  0.00     0.016 C 
BRANCH   3   5
ATOM      5  C   UNL     1      11.197  34.899 -12.233  1.00  0.00     0.015 C 
BRANCH   5   6
ATOM      6  C   UNL     1      12.343  33.908 -12.526  1.00  0.00     0.028 C 
BRANCH   6   7
ATOM      7  C   UNL     1      12.017  32.625 -13.263  1.00  0.00    -0.028 C 
ATOM      8  C   UNL     1      11.985  31.365 -12.761  1.00  0.00    -0.070 CG0
ATOM      9  C   UNL     1      11.807  30.230 -13.739  1.00  0.00     0.039 C 
ATOM     10  G   UNL     1      12.008  31.026 -11.279  1.00  0.00     0.000 G0
ENDBRANCH   6   7
ENDBRANCH   5   6
ENDBRANCH   3   5
ENDBRANCH   1   3
BRANCH   1  11
ATOM     11  C   UNL     1       8.717  32.945 -10.375  1.00  0.00     0.087 C 
BRANCH  11  12
ATOM     12  C   UNL     1       9.488  31.723 -10.938  1.00  0.00     0.066 C 
BRANCH  12  13
ATOM     13  C   UNL     1      10.942  31.700 -10.492  1.00  0.00     0.140 C 
ATOM     14  O   UNL     1      11.247  32.345  -9.499  1.00  0.00    -0.299 OA
BRANCH  13  15
ATOM     15  C   UNL     1      12.032  31.000 -11.288  1.00  0.00     0.106 CG0
ATOM     16  G   UNL     1      11.970  31.378 -12.760  1.00  0.00     0.000 G0
ENDBRANCH  13  15
ENDBRANCH  12  13
BRANCH  12  17
ATOM     17  C   UNL     1       8.793  30.366 -10.590  1.00  0.00    -0.006 C 
ATOM     18  C   UNL     1       7.953  29.849 -11.772  1.00  0.00     0.008 C 
ATOM     19  C   UNL     1       7.890  30.468  -9.348  1.00  0.00     0.008 C 
ENDBRANCH  12  17
ENDBRANCH  11  12
ENDBRANCH   1  11
TORSDOF 1
ENDMDL
MODEL 7
REMARK VINA RESULT:    -3.224     11.682     14.620
REMARK INTER + INTRA:          -5.148
REMARK INTER:                  -4.666
REMARK INTRA:                  -0.482
REMARK UNBOUND:                -0.228
REMARK SMILES CC1=CCC[C@H](C)C(=O)C[C@H](C(C)C)C(=O)C1
REMARK SMILES IDX 8 1 9 2 6 3 7 4 5 5 4 6 3 7 2 8 1 9 10 11 11 12 15 13 16 14
REMARK SMILES IDX 17 15 12 17 13 18 14 19
REMARK H PARENT
REMARK Flexibility Score: 70.00
ROOT
ATOM      1  C   UNL     1      11.805  31.316 -12.481  1.00  0.00     0.136 C 
ATOM      2  O   UNL     1      12.926  30.829 -12.422  1.00  0.00    -0.299 OA
ENDROOT
BRANCH   1   3
ATOM      3  C   UNL     1      11.106  31.413 -13.840  1.00  0.00     0.053 C 
ATOM      4  C   UNL     1      12.080  31.812 -14.962  1.00  0.00     0.016 C 
BRANCH   3   5
ATOM      5  C   UNL     1      10.374  30.095 -14.226  1.00  0.00     0.015 C 
BRANCH   5   6
ATOM      6  C   UNL     1      10.108  29.103 -13.074  1.00  0.00     0.028 C 
BRANCH   6   7
ATOM      7  C   UNL     1       8.689  28.953 -12.563  1.00  0.00    -0.028 C 
ATOM      8  C   UNL     1       8.223  29.224 -11.318  1.00  0.00    -0.070 CG0
ATOM      9  C   UNL     1       6.803  28.822 -11.004  1.00  0.00     0.039 C 
ATOM     10  G   UNL     1       8.992  29.996 -10.257  1.00  0.00     0.000 G0
ENDBRANCH   6   7
ENDBRANCH   5   6
ENDBRANCH   3   5
ENDBRANCH   1   3
BRANCH   1  11
ATOM     11  C   UNL     1      11.217  31.887 -11.194  1.00  0.00     0.087 C 
BRANCH  11  12
ATOM     12  C   UNL     1       9.742  32.350 -11.302  1.00  0.00     0.066 C 
BRANCH  12  13
ATOM     13  C   UNL     1       8.807  31.514 -10.443  1.00  0.00     0.140 C 
ATOM     14  O   UNL     1       7.927  32.093  -9.821  1.00  0.00    -0.299 OA
BRANCH  13  15
ATOM     15  C   UNL     1       8.991  30.017 -10.248  1.00  0.00     0.106 CG0
ATOM     16  G   UNL     1       8.235  29.226 -11.304  1.00  0.00     0.000 G0
ENDBRANCH  13  15
ENDBRANCH  12  13
BRANCH  12  17
ATOM     17  C   UNL     1       9.567  33.869 -10.973  1.00  0.00    -0.006 C 
ATOM     18  C   UNL     1       9.649  34.731 -12.246  1.00  0.00     0.008 C 
ATOM     19  C   UNL     1      10.613  34.377  -9.964  1.00  0.00     0.008 C 
ENDBRANCH  12  17
ENDBRANCH  11  12
ENDBRANCH   1  11
TORSDOF 1
ENDMDL
MODEL 8
REMARK VINA RESULT:    -3.202     15.497     17.436
REMARK INTER + INTRA:          -5.114
REMARK INTER:                  -5.342
REMARK INTRA:                   0.228
REMARK UNBOUND:                -0.228
REMARK SMILES CC1=CCC[C@H](C)C(=O)C[C@H](C(C)C)C(=O)C1
REMARK SMILES IDX 8 1 9 2 6 3 7 4 5 5 4 6 3 7 2 8 1 9 10 11 11 12 15 13 16 14
REMARK SMILES IDX 17 15 12 17 13 18 14 19
REMARK H PARENT
REMARK Flexibility Score: 70.00
ROOT
ATOM      1  C   UNL     1      11.267  31.799 -13.733  1.00  0.00     0.136 C 
ATOM      2  O   UNL     1      11.470  30.650 -13.364  1.00  0.00    -0.299 OA
ENDROOT
BRANCH   1   3
ATOM      3  C   UNL     1      12.166  32.402 -14.816  1.00  0.00     0.053 C 
ATOM      4  C   UNL     1      12.383  31.433 -15.992  1.00  0.00     0.016 C 
BRANCH   3   5
ATOM      5  C   UNL     1      11.624  33.759 -15.348  1.00  0.00     0.015 C 
BRANCH   5   6
ATOM      6  C   UNL     1      12.490  35.002 -15.050  1.00  0.00     0.028 C 
BRANCH   6   7
ATOM      7  C   UNL     1      11.796  36.332 -14.837  1.00  0.00    -0.028 C 
ATOM      8  C   UNL     1      11.170  36.770 -13.716  1.00  0.00    -0.070 CG0
ATOM      9  C   UNL     1      10.397  38.063 -13.811  1.00  0.00     0.039 C 
ATOM     10  G   UNL     1      11.280  36.109 -12.351  1.00  0.00     0.000 G0
ENDBRANCH   6   7
ENDBRANCH   5   6
ENDBRANCH   3   5
ENDBRANCH   1   3
BRANCH   1  11
ATOM     11  C   UNL     1      10.182  32.590 -13.009  1.00  0.00     0.087 C 
BRANCH  11  12
ATOM     12  C   UNL     1      10.701  33.556 -11.914  1.00  0.00     0.066 C 
BRANCH  12  13
ATOM     13  C   UNL     1      10.277  34.995 -12.161  1.00  0.00     0.140 C 
ATOM     14  O   UNL     1       9.085  35.225 -12.306  1.00  0.00    -0.299 OA
BRANCH  13  15
ATOM     15  C   UNL     1      11.278  36.125 -12.339  1.00  0.00     0.106 CG0
ATOM     16  G   UNL     1      11.160  36.757 -13.717  1.00  0.00     0.000 G0
ENDBRANCH  13  15
ENDBRANCH  12  13
BRANCH  12  17
ATOM     17  C   UNL     1      10.283  33.108 -10.475  1.00  0.00    -0.006 C 
ATOM     18  C   UNL     1      10.950  31.775 -10.088  1.00  0.00     0.008 C 
ATOM     19  C   UNL     1       8.758  32.959 -10.324  1.00  0.00     0.008 C 
ENDBRANCH  12  17
ENDBRANCH  11  12
ENDBRANCH   1  11
TORSDOF 1
ENDMDL
MODEL 9
REMARK VINA RESULT:    -3.117     14.154     16.396
REMARK INTER + INTRA:          -4.984
REMARK INTER:                  -5.347
REMARK INTRA:                   0.363
REMARK UNBOUND:                -0.228
REMARK SMILES CC1=CCC[C@H](C)C(=O)C[C@H](C(C)C)C(=O)C1
REMARK SMILES IDX 8 1 9 2 6 3 7 4 5 5 4 6 3 7 2 8 1 9 10 11 11 12 15 13 16 14
REMARK SMILES IDX 17 15 12 17 13 18 14 19
REMARK H PARENT
REMARK Flexibility Score: 70.00
ROOT
ATOM      1  C   UNL     1      11.057  31.370 -14.065  1.00  0.00     0.136 C 
ATOM      2  O   UNL     1      11.438  30.490 -14.825  1.00  0.00    -0.299 OA
ENDROOT
BRANCH   1   3
ATOM      3  C   UNL     1      10.286  30.979 -12.801  1.00  0.00     0.053 C 
ATOM      4  C   UNL     1       9.375  29.761 -13.035  1.00  0.00     0.016 C 
BRANCH   3   5
ATOM      5  C   UNL     1      11.227  30.706 -11.593  1.00  0.00     0.015 C 
BRANCH   5   6
ATOM      6  C   UNL     1      11.067  31.646 -10.380  1.00  0.00     0.028 C 
BRANCH   6   7
ATOM      7  C   UNL     1       9.873  32.578 -10.341  1.00  0.00    -0.028 C 
ATOM      8  C   UNL     1       9.866  33.924 -10.514  1.00  0.00    -0.070 CG0
ATOM      9  C   UNL     1       8.570  34.651 -10.250  1.00  0.00     0.039 C 
ATOM     10  G   UNL     1      11.034  34.731 -11.056  1.00  0.00     0.000 G0
ENDBRANCH   6   7
ENDBRANCH   5   6
ENDBRANCH   3   5
ENDBRANCH   1   3
BRANCH   1  11
ATOM     11  C   UNL     1      11.295  32.817 -14.487  1.00  0.00     0.087 C 
BRANCH  11  12
ATOM     12  C   UNL     1      10.675  33.880 -13.544  1.00  0.00     0.066 C 
BRANCH  12  13
ATOM     13  C   UNL     1      11.568  34.189 -12.352  1.00  0.00     0.140 C 
ATOM     14  O   UNL     1      12.749  33.883 -12.426  1.00  0.00    -0.299 OA
BRANCH  13  15
ATOM     15  C   UNL     1      11.028  34.759 -11.050  1.00  0.00     0.106 CG0
ATOM     16  G   UNL     1       9.881  33.917 -10.512  1.00  0.00     0.000 G0
ENDBRANCH  13  15
ENDBRANCH  12  13
BRANCH  12  17
ATOM     17  C   UNL     1      10.300  35.199 -14.295  1.00  0.00    -0.006 C 
ATOM     18  C   UNL     1      11.533  36.101 -14.492  1.00  0.00     0.008 C 
ATOM     19  C   UNL     1       9.210  36.004 -13.565  1.00  0.00     0.008 C 
ENDBRANCH  12  17
ENDBRANCH  11  12
ENDBRANCH   1  11
TORSDOF 1
ENDMDL
