MODEL 1
REMARK VINA RESULT:    -1.655      0.000      0.000
REMARK INTER + INTRA:          -4.469
REMARK INTER:                  -3.009
REMARK INTRA:                  -1.460
REMARK UNBOUND:                -1.460
REMARK SMILES CCCCCC=CCC=CCCCCCCCC(=O)[O-]
REMARK SMILES IDX 11 1 12 2 13 3 14 4 15 5 16 6 17 7 18 8 19 9 20 10 10 11
REMARK SMILES IDX 9 12 8 13 7 14 6 15 5 16 4 17 3 18 2 19 1 20
REMARK H PARENT
REMARK Flexibility Score: inf
ROOT
ATOM      1  C   UNL     1     -21.193   0.343  13.607  1.00  0.00     0.027 C 
ENDROOT
BRANCH   1   2
ATOM      2  C   UNL     1     -22.119   1.317  12.860  1.00  0.00     0.004 C 
BRANCH   2   3
ATOM      3  C   UNL     1     -21.632   1.691  11.447  1.00  0.00     0.000 C 
BRANCH   3   4
ATOM      4  C   UNL     1     -22.778   1.895  10.432  1.00  0.00     0.000 C 
BRANCH   4   5
ATOM      5  C   UNL     1     -22.254   2.226   9.024  1.00  0.00     0.000 C 
BRANCH   5   6
ATOM      6  C   UNL     1     -21.321   1.137   8.470  1.00  0.00     0.006 C 
BRANCH   6   7
ATOM      7  C   UNL     1     -21.098   1.268   6.957  1.00  0.00     0.053 C 
BRANCH   7   8
ATOM      8  C   UNL     1     -21.013  -0.084   6.323  1.00  0.00     0.041 C 
ATOM      9  O   UNL     1     -20.050  -0.368   5.563  1.00  0.00    -0.550 OA
ATOM     10  O   UNL     1     -22.022  -1.015   6.535  1.00  0.00    -0.550 OA
ENDBRANCH   7   8
ENDBRANCH   6   7
ENDBRANCH   5   6
ENDBRANCH   4   5
ENDBRANCH   3   4
ENDBRANCH   2   3
ENDBRANCH   1   2
BRANCH   1  11
ATOM     11  C   UNL     1     -21.775  -1.048  13.681  1.00  0.00    -0.031 C 
ATOM     12  C   UNL     1     -21.447  -2.060  12.856  1.00  0.00    -0.027 C 
BRANCH  12  13
ATOM     13  C   UNL     1     -20.378  -1.993  11.797  1.00  0.00     0.054 C 
BRANCH  13  14
ATOM     14  C   UNL     1     -20.995  -1.665  10.462  1.00  0.00    -0.027 C 
ATOM     15  C   UNL     1     -20.657  -2.227   9.287  1.00  0.00    -0.031 C 
BRANCH  15  16
ATOM     16  C   UNL     1     -19.612  -3.301   9.097  1.00  0.00     0.027 C 
BRANCH  16  17
ATOM     17  C   UNL     1     -19.895  -4.222   7.897  1.00  0.00     0.004 C 
BRANCH  17  18
ATOM     18  C   UNL     1     -20.155  -5.693   8.270  1.00  0.00     0.000 C 
BRANCH  18  19
ATOM     19  C   UNL     1     -21.584  -6.146   7.937  1.00  0.00    -0.003 C 
ATOM     20  C   UNL     1     -22.408  -6.338   9.206  1.00  0.00     0.004 C 
ENDBRANCH  18  19
ENDBRANCH  17  18
ENDBRANCH  16  17
ENDBRANCH  15  16
ENDBRANCH  13  14
ENDBRANCH  12  13
ENDBRANCH   1  11
TORSDOF 14
ENDMDL
MODEL 2
REMARK VINA RESULT:    -1.566      1.902      6.085
REMARK INTER + INTRA:          -4.309
REMARK INTER:                  -2.906
REMARK INTRA:                  -1.403
REMARK UNBOUND:                -1.460
REMARK SMILES CCCCCC=CCC=CCCCCCCCC(=O)[O-]
REMARK SMILES IDX 11 1 12 2 13 3 14 4 15 5 16 6 17 7 18 8 19 9 20 10 10 11
REMARK SMILES IDX 9 12 8 13 7 14 6 15 5 16 4 17 3 18 2 19 1 20
REMARK H PARENT
REMARK Flexibility Score: inf
ROOT
ATOM      1  C   UNL     1     -21.801  -1.001  13.389  1.00  0.00     0.027 C 
ENDROOT
BRANCH   1   2
ATOM      2  C   UNL     1     -20.721  -1.813  12.656  1.00  0.00     0.004 C 
BRANCH   2   3
ATOM      3  C   UNL     1     -21.191  -2.430  11.325  1.00  0.00     0.000 C 
BRANCH   3   4
ATOM      4  C   UNL     1     -20.625  -1.715  10.078  1.00  0.00     0.000 C 
BRANCH   4   5
ATOM      5  C   UNL     1     -20.205  -2.708   8.980  1.00  0.00     0.000 C 
BRANCH   5   6
ATOM      6  C   UNL     1     -20.699  -2.290   7.586  1.00  0.00     0.006 C 
BRANCH   6   7
ATOM      7  C   UNL     1     -21.352  -0.902   7.585  1.00  0.00     0.053 C 
BRANCH   7   8
ATOM      8  C   UNL     1     -20.972  -0.147   6.351  1.00  0.00     0.041 C 
ATOM      9  O   UNL     1     -19.970  -0.502   5.674  1.00  0.00    -0.550 OA
ATOM     10  O   UNL     1     -21.696   0.977   5.973  1.00  0.00    -0.550 OA
ENDBRANCH   7   8
ENDBRANCH   6   7
ENDBRANCH   5   6
ENDBRANCH   4   5
ENDBRANCH   3   4
ENDBRANCH   2   3
ENDBRANCH   1   2
BRANCH   1  11
ATOM     11  C   UNL     1     -21.386   0.435  13.599  1.00  0.00    -0.031 C 
ATOM     12  C   UNL     1     -21.703   1.452  12.777  1.00  0.00    -0.027 C 
BRANCH  12  13
ATOM     13  C   UNL     1     -22.603   1.336  11.574  1.00  0.00     0.054 C 
BRANCH  13  14
ATOM     14  C   UNL     1     -21.776   1.278  10.316  1.00  0.00    -0.027 C 
ATOM     15  C   UNL     1     -21.908   2.099   9.257  1.00  0.00    -0.031 C 
BRANCH  15  16
ATOM     16  C   UNL     1     -22.897   3.235   9.147  1.00  0.00     0.027 C 
BRANCH  16  17
ATOM     17  C   UNL     1     -22.434   4.355   8.198  1.00  0.00     0.004 C 
BRANCH  17  18
ATOM     18  C   UNL     1     -22.213   5.718   8.880  1.00  0.00     0.000 C 
BRANCH  18  19
ATOM     19  C   UNL     1     -20.747   6.172   8.838  1.00  0.00    -0.003 C 
ATOM     20  C   UNL     1     -20.079   5.996  10.198  1.00  0.00     0.004 C 
ENDBRANCH  18  19
ENDBRANCH  17  18
ENDBRANCH  16  17
ENDBRANCH  15  16
ENDBRANCH  13  14
ENDBRANCH  12  13
ENDBRANCH   1  11
TORSDOF 14
ENDMDL
MODEL 3
REMARK VINA RESULT:    -1.378      2.931      4.980
REMARK INTER + INTRA:          -3.965
REMARK INTER:                  -4.116
REMARK INTRA:                   0.151
REMARK UNBOUND:                -1.460
REMARK SMILES CCCCCC=CCC=CCCCCCCCC(=O)[O-]
REMARK SMILES IDX 11 1 12 2 13 3 14 4 15 5 16 6 17 7 18 8 19 9 20 10 10 11
REMARK SMILES IDX 9 12 8 13 7 14 6 15 5 16 4 17 3 18 2 19 1 20
REMARK H PARENT
REMARK Flexibility Score: inf
ROOT
ATOM      1  C   UNL     1     -20.931   1.551   7.353  1.00  0.00     0.027 C 
ENDROOT
BRANCH   1   2
ATOM      2  C   UNL     1     -21.672   2.833   7.768  1.00  0.00     0.004 C 
BRANCH   2   3
ATOM      3  C   UNL     1     -22.538   2.677   9.034  1.00  0.00     0.000 C 
BRANCH   3   4
ATOM      4  C   UNL     1     -22.037   1.574   9.992  1.00  0.00     0.000 C 
BRANCH   4   5
ATOM      5  C   UNL     1     -22.663   1.693  11.392  1.00  0.00     0.000 C 
BRANCH   5   6
ATOM      6  C   UNL     1     -21.658   1.392  12.516  1.00  0.00     0.006 C 
BRANCH   6   7
ATOM      7  C   UNL     1     -21.422  -0.111  12.707  1.00  0.00     0.053 C 
BRANCH   7   8
ATOM      8  C   UNL     1     -21.559  -0.483  14.149  1.00  0.00     0.041 C 
ATOM      9  O   UNL     1     -22.658  -0.910  14.592  1.00  0.00    -0.550 OA
ATOM     10  O   UNL     1     -20.486  -0.314  15.016  1.00  0.00    -0.550 OA
ENDBRANCH   7   8
ENDBRANCH   6   7
ENDBRANCH   5   6
ENDBRANCH   4   5
ENDBRANCH   3   4
ENDBRANCH   2   3
ENDBRANCH   1   2
BRANCH   1  11
ATOM     11  C   UNL     1     -21.664   0.799   6.268  1.00  0.00    -0.031 C 
ATOM     12  C   UNL     1     -21.593  -0.531   6.076  1.00  0.00    -0.027 C 
BRANCH  12  13
ATOM     13  C   UNL     1     -20.853  -1.490   6.972  1.00  0.00     0.054 C 
BRANCH  13  14
ATOM     14  C   UNL     1     -21.089  -1.130   8.417  1.00  0.00    -0.027 C 
ATOM     15  C   UNL     1     -20.680  -1.851   9.477  1.00  0.00    -0.031 C 
BRANCH  15  16
ATOM     16  C   UNL     1     -19.897  -3.141   9.410  1.00  0.00     0.027 C 
BRANCH  16  17
ATOM     17  C   UNL     1     -20.072  -3.891   8.077  1.00  0.00     0.004 C 
BRANCH  17  18
ATOM     18  C   UNL     1     -19.972  -5.424   8.190  1.00  0.00     0.000 C 
BRANCH  18  19
ATOM     19  C   UNL     1     -21.313  -6.127   7.935  1.00  0.00    -0.003 C 
ATOM     20  C   UNL     1     -22.148  -6.192   9.210  1.00  0.00     0.004 C 
ENDBRANCH  18  19
ENDBRANCH  17  18
ENDBRANCH  16  17
ENDBRANCH  15  16
ENDBRANCH  13  14
ENDBRANCH  12  13
ENDBRANCH   1  11
TORSDOF 14
ENDMDL
MODEL 4
REMARK VINA RESULT:    -1.365      2.986      7.594
REMARK INTER + INTRA:          -3.942
REMARK INTER:                  -4.012
REMARK INTRA:                   0.070
REMARK UNBOUND:                -1.460
REMARK SMILES CCCCCC=CCC=CCCCCCCCC(=O)[O-]
REMARK SMILES IDX 11 1 12 2 13 3 14 4 15 5 16 6 17 7 18 8 19 9 20 10 10 11
REMARK SMILES IDX 9 12 8 13 7 14 6 15 5 16 4 17 3 18 2 19 1 20
REMARK H PARENT
REMARK Flexibility Score: inf
ROOT
ATOM      1  C   UNL     1     -21.273  -1.586   7.042  1.00  0.00     0.027 C 
ENDROOT
BRANCH   1   2
ATOM      2  C   UNL     1     -20.607  -2.943   7.324  1.00  0.00     0.004 C 
BRANCH   2   3
ATOM      3  C   UNL     1     -20.011  -3.069   8.740  1.00  0.00     0.000 C 
BRANCH   3   4
ATOM      4  C   UNL     1     -20.407  -1.911   9.682  1.00  0.00     0.000 C 
BRANCH   4   5
ATOM      5  C   UNL     1     -21.235  -2.396  10.884  1.00  0.00     0.000 C 
BRANCH   5   6
ATOM      6  C   UNL     1     -20.674  -1.901  12.227  1.00  0.00     0.006 C 
BRANCH   6   7
ATOM      7  C   UNL     1     -21.776  -1.448  13.194  1.00  0.00     0.053 C 
BRANCH   7   8
ATOM      8  C   UNL     1     -21.446  -0.109  13.772  1.00  0.00     0.041 C 
ATOM      9  O   UNL     1     -21.756   0.943  13.152  1.00  0.00    -0.550 OA
ATOM     10  O   UNL     1     -20.755  -0.022  14.974  1.00  0.00    -0.550 OA
ENDBRANCH   7   8
ENDBRANCH   6   7
ENDBRANCH   5   6
ENDBRANCH   4   5
ENDBRANCH   3   4
ENDBRANCH   2   3
ENDBRANCH   1   2
BRANCH   1  11
ATOM     11  C   UNL     1     -20.374  -0.668   6.251  1.00  0.00    -0.031 C 
ATOM     12  C   UNL     1     -20.448   0.676   6.264  1.00  0.00    -0.027 C 
BRANCH  12  13
ATOM     13  C   UNL     1     -21.372   1.476   7.146  1.00  0.00     0.054 C 
BRANCH  13  14
ATOM     14  C   UNL     1     -21.336   0.936   8.552  1.00  0.00    -0.027 C 
ATOM     15  C   UNL     1     -21.928   1.501   9.621  1.00  0.00    -0.031 C 
BRANCH  15  16
ATOM     16  C   UNL     1     -22.747   2.770   9.599  1.00  0.00     0.027 C 
BRANCH  16  17
ATOM     17  C   UNL     1     -22.340   3.738   8.474  1.00  0.00     0.004 C 
BRANCH  17  18
ATOM     18  C   UNL     1     -22.447   5.229   8.846  1.00  0.00     0.000 C 
BRANCH  18  19
ATOM     19  C   UNL     1     -21.104   5.964   8.742  1.00  0.00    -0.003 C 
ATOM     20  C   UNL     1     -20.345   5.909  10.064  1.00  0.00     0.004 C 
ENDBRANCH  18  19
ENDBRANCH  17  18
ENDBRANCH  16  17
ENDBRANCH  15  16
ENDBRANCH  13  14
ENDBRANCH  12  13
ENDBRANCH   1  11
TORSDOF 14
ENDMDL
MODEL 5
REMARK VINA RESULT:    -1.145      2.725      7.011
REMARK INTER + INTRA:          -3.542
REMARK INTER:                  -2.363
REMARK INTRA:                  -1.178
REMARK UNBOUND:                -1.460
REMARK SMILES CCCCCC=CCC=CCCCCCCCC(=O)[O-]
REMARK SMILES IDX 11 1 12 2 13 3 14 4 15 5 16 6 17 7 18 8 19 9 20 10 10 11
REMARK SMILES IDX 9 12 8 13 7 14 6 15 5 16 4 17 3 18 2 19 1 20
REMARK H PARENT
REMARK Flexibility Score: inf
ROOT
ATOM      1  C   UNL     1     -20.997  -1.461   9.089  1.00  0.00     0.027 C 
ENDROOT
BRANCH   1   2
ATOM      2  C   UNL     1     -20.418  -2.329  10.219  1.00  0.00     0.004 C 
BRANCH   2   3
ATOM      3  C   UNL     1     -20.527  -1.694  11.618  1.00  0.00     0.000 C 
BRANCH   3   4
ATOM      4  C   UNL     1     -21.469  -2.461  12.573  1.00  0.00     0.000 C 
BRANCH   4   5
ATOM      5  C   UNL     1     -21.869  -1.617  13.796  1.00  0.00     0.000 C 
BRANCH   5   6
ATOM      6  C   UNL     1     -20.986  -0.371  13.968  1.00  0.00     0.006 C 
BRANCH   6   7
ATOM      7  C   UNL     1     -21.797   0.931  13.952  1.00  0.00     0.053 C 
BRANCH   7   8
ATOM      8  C   UNL     1     -21.783   1.537  12.584  1.00  0.00     0.041 C 
ATOM      9  O   UNL     1     -22.470   1.029  11.659  1.00  0.00    -0.550 OA
ATOM     10  O   UNL     1     -20.977   2.637  12.319  1.00  0.00    -0.550 OA
ENDBRANCH   7   8
ENDBRANCH   6   7
ENDBRANCH   5   6
ENDBRANCH   4   5
ENDBRANCH   3   4
ENDBRANCH   2   3
ENDBRANCH   1   2
BRANCH   1  11
ATOM     11  C   UNL     1     -20.604  -1.973   7.724  1.00  0.00    -0.031 C 
ATOM     12  C   UNL     1     -21.103  -1.515   6.561  1.00  0.00    -0.027 C 
BRANCH  12  13
ATOM     13  C   UNL     1     -22.055  -0.354   6.434  1.00  0.00     0.054 C 
BRANCH  13  14
ATOM     14  C   UNL     1     -21.282   0.935   6.311  1.00  0.00    -0.027 C 
ATOM     15  C   UNL     1     -21.160   1.867   7.274  1.00  0.00    -0.031 C 
BRANCH  15  16
ATOM     16  C   UNL     1     -21.762   1.781   8.657  1.00  0.00     0.027 C 
BRANCH  16  17
ATOM     17  C   UNL     1     -22.473   3.075   9.093  1.00  0.00     0.004 C 
BRANCH  17  18
ATOM     18  C   UNL     1     -22.367   4.232   8.082  1.00  0.00     0.000 C 
BRANCH  18  19
ATOM     19  C   UNL     1     -22.296   5.607   8.760  1.00  0.00    -0.003 C 
ATOM     20  C   UNL     1     -20.902   5.872   9.319  1.00  0.00     0.004 C 
ENDBRANCH  18  19
ENDBRANCH  17  18
ENDBRANCH  16  17
ENDBRANCH  15  16
ENDBRANCH  13  14
ENDBRANCH  12  13
ENDBRANCH   1  11
TORSDOF 14
ENDMDL
MODEL 6
REMARK VINA RESULT:    -1.068      1.978      4.592
REMARK INTER + INTRA:          -3.403
REMARK INTER:                  -2.192
REMARK INTRA:                  -1.211
REMARK UNBOUND:                -1.460
REMARK SMILES CCCCCC=CCC=CCCCCCCCC(=O)[O-]
REMARK SMILES IDX 11 1 12 2 13 3 14 4 15 5 16 6 17 7 18 8 19 9 20 10 10 11
REMARK SMILES IDX 9 12 8 13 7 14 6 15 5 16 4 17 3 18 2 19 1 20
REMARK H PARENT
REMARK Flexibility Score: inf
ROOT
ATOM      1  C   UNL     1     -21.639   0.930   9.267  1.00  0.00     0.027 C 
ENDROOT
BRANCH   1   2
ATOM      2  C   UNL     1     -22.374   1.475  10.503  1.00  0.00     0.004 C 
BRANCH   2   3
ATOM      3  C   UNL     1     -21.469   2.246  11.484  1.00  0.00     0.000 C 
BRANCH   3   4
ATOM      4  C   UNL     1     -21.504   1.688  12.924  1.00  0.00     0.000 C 
BRANCH   4   5
ATOM      5  C   UNL     1     -22.555   0.578  13.092  1.00  0.00     0.000 C 
BRANCH   5   6
ATOM      6  C   UNL     1     -22.149  -0.465  14.146  1.00  0.00     0.006 C 
BRANCH   6   7
ATOM      7  C   UNL     1     -20.876  -1.227  13.758  1.00  0.00     0.053 C 
BRANCH   7   8
ATOM      8  C   UNL     1     -21.079  -1.964  12.473  1.00  0.00     0.041 C 
ATOM      9  O   UNL     1     -21.814  -2.987  12.438  1.00  0.00    -0.550 OA
ATOM     10  O   UNL     1     -20.422  -1.549  11.322  1.00  0.00    -0.550 OA
ENDBRANCH   7   8
ENDBRANCH   6   7
ENDBRANCH   5   6
ENDBRANCH   4   5
ENDBRANCH   3   4
ENDBRANCH   2   3
ENDBRANCH   1   2
BRANCH   1  11
ATOM     11  C   UNL     1     -21.761   1.856   8.081  1.00  0.00    -0.031 C 
ATOM     12  C   UNL     1     -21.101   1.703   6.918  1.00  0.00    -0.027 C 
BRANCH  12  13
ATOM     13  C   UNL     1     -20.217   0.530   6.581  1.00  0.00     0.054 C 
BRANCH  13  14
ATOM     14  C   UNL     1     -21.062  -0.666   6.225  1.00  0.00    -0.027 C 
ATOM     15  C   UNL     1     -21.129  -1.812   6.927  1.00  0.00    -0.031 C 
BRANCH  15  16
ATOM     16  C   UNL     1     -20.382  -2.099   8.209  1.00  0.00     0.027 C 
BRANCH  16  17
ATOM     17  C   UNL     1     -20.542  -3.550   8.694  1.00  0.00     0.004 C 
BRANCH  17  18
ATOM     18  C   UNL     1     -19.642  -4.568   7.969  1.00  0.00     0.000 C 
BRANCH  18  19
ATOM     19  C   UNL     1     -20.242  -5.981   7.947  1.00  0.00    -0.003 C 
ATOM     20  C   UNL     1     -21.592  -6.014   8.655  1.00  0.00     0.004 C 
ENDBRANCH  18  19
ENDBRANCH  17  18
ENDBRANCH  16  17
ENDBRANCH  15  16
ENDBRANCH  13  14
ENDBRANCH  12  13
ENDBRANCH   1  11
TORSDOF 14
ENDMDL
MODEL 7
REMARK VINA RESULT:    -0.978      2.250      6.622
REMARK INTER + INTRA:          -3.239
REMARK INTER:                  -1.940
REMARK INTRA:                  -1.299
REMARK UNBOUND:                -1.460
REMARK SMILES CCCCCC=CCC=CCCCCCCCC(=O)[O-]
REMARK SMILES IDX 11 1 12 2 13 3 14 4 15 5 16 6 17 7 18 8 19 9 20 10 10 11
REMARK SMILES IDX 9 12 8 13 7 14 6 15 5 16 4 17 3 18 2 19 1 20
REMARK H PARENT
REMARK Flexibility Score: inf
ROOT
ATOM      1  C   UNL     1     -20.502  -0.763   6.313  1.00  0.00     0.027 C 
ENDROOT
BRANCH   1   2
ATOM      2  C   UNL     1     -21.269  -1.633   7.323  1.00  0.00     0.004 C 
BRANCH   2   3
ATOM      3  C   UNL     1     -20.677  -1.616   8.745  1.00  0.00     0.000 C 
BRANCH   3   4
ATOM      4  C   UNL     1     -20.249  -3.010   9.253  1.00  0.00     0.000 C 
BRANCH   4   5
ATOM      5  C   UNL     1     -19.880  -3.960   8.101  1.00  0.00     0.000 C 
BRANCH   5   6
ATOM      6  C   UNL     1     -20.031  -5.441   8.485  1.00  0.00     0.006 C 
BRANCH   6   7
ATOM      7  C   UNL     1     -21.202  -6.120   7.763  1.00  0.00     0.053 C 
BRANCH   7   8
ATOM      8  C   UNL     1     -22.308  -6.416   8.725  1.00  0.00     0.041 C 
ATOM      9  O   UNL     1     -22.282  -5.935   9.889  1.00  0.00    -0.550 OA
ATOM     10  O   UNL     1     -23.345  -7.262   8.353  1.00  0.00    -0.550 OA
ENDBRANCH   7   8
ENDBRANCH   6   7
ENDBRANCH   5   6
ENDBRANCH   4   5
ENDBRANCH   3   4
ENDBRANCH   2   3
ENDBRANCH   1   2
BRANCH   1  11
ATOM     11  C   UNL     1     -21.348   0.369   5.783  1.00  0.00    -0.031 C 
ATOM     12  C   UNL     1     -21.668   1.477   6.476  1.00  0.00    -0.027 C 
BRANCH  12  13
ATOM     13  C   UNL     1     -21.150   1.808   7.852  1.00  0.00     0.054 C 
BRANCH  13  14
ATOM     14  C   UNL     1     -22.201   2.554   8.632  1.00  0.00    -0.027 C 
ATOM     15  C   UNL     1     -22.590   2.269   9.889  1.00  0.00    -0.031 C 
BRANCH  15  16
ATOM     16  C   UNL     1     -22.030   1.160  10.748  1.00  0.00     0.027 C 
BRANCH  16  17
ATOM     17  C   UNL     1     -22.234   1.395  12.256  1.00  0.00     0.004 C 
BRANCH  17  18
ATOM     18  C   UNL     1     -21.204   0.690  13.157  1.00  0.00     0.000 C 
BRANCH  18  19
ATOM     19  C   UNL     1     -21.638  -0.726  13.560  1.00  0.00    -0.003 C 
ATOM     20  C   UNL     1     -21.246  -1.744  12.494  1.00  0.00     0.004 C 
ENDBRANCH  18  19
ENDBRANCH  17  18
ENDBRANCH  16  17
ENDBRANCH  15  16
ENDBRANCH  13  14
ENDBRANCH  12  13
ENDBRANCH   1  11
TORSDOF 14
ENDMDL
MODEL 8
REMARK VINA RESULT:    -0.970      2.835      5.802
REMARK INTER + INTRA:          -3.224
REMARK INTER:                  -1.820
REMARK INTRA:                  -1.403
REMARK UNBOUND:                -1.460
REMARK SMILES CCCCCC=CCC=CCCCCCCCC(=O)[O-]
REMARK SMILES IDX 11 1 12 2 13 3 14 4 15 5 16 6 17 7 18 8 19 9 20 10 10 11
REMARK SMILES IDX 9 12 8 13 7 14 6 15 5 16 4 17 3 18 2 19 1 20
REMARK H PARENT
REMARK Flexibility Score: inf
ROOT
ATOM      1  C   UNL     1     -21.501  -1.378   6.932  1.00  0.00     0.027 C 
ENDROOT
BRANCH   1   2
ATOM      2  C   UNL     1     -20.705  -0.378   6.077  1.00  0.00     0.004 C 
BRANCH   2   3
ATOM      3  C   UNL     1     -20.224   0.866   6.848  1.00  0.00     0.000 C 
BRANCH   3   4
ATOM      4  C   UNL     1     -21.365   1.831   7.238  1.00  0.00     0.000 C 
BRANCH   4   5
ATOM      5  C   UNL     1     -21.793   1.661   8.706  1.00  0.00     0.000 C 
BRANCH   5   6
ATOM      6  C   UNL     1     -22.215   2.989   9.356  1.00  0.00     0.006 C 
BRANCH   6   7
ATOM      7  C   UNL     1     -22.564   4.066   8.320  1.00  0.00     0.053 C 
BRANCH   7   8
ATOM      8  C   UNL     1     -22.029   5.395   8.749  1.00  0.00     0.041 C 
ATOM      9  O   UNL     1     -22.453   6.452   8.210  1.00  0.00    -0.550 OA
ATOM     10  O   UNL     1     -21.029   5.465   9.711  1.00  0.00    -0.550 OA
ENDBRANCH   7   8
ENDBRANCH   6   7
ENDBRANCH   5   6
ENDBRANCH   4   5
ENDBRANCH   3   4
ENDBRANCH   2   3
ENDBRANCH   1   2
BRANCH   1  11
ATOM     11  C   UNL     1     -20.623  -2.473   7.487  1.00  0.00    -0.031 C 
ATOM     12  C   UNL     1     -20.308  -2.617   8.788  1.00  0.00    -0.027 C 
BRANCH  12  13
ATOM     13  C   UNL     1     -20.863  -1.771   9.904  1.00  0.00     0.054 C 
BRANCH  13  14
ATOM     14  C   UNL     1     -19.976  -1.874  11.118  1.00  0.00    -0.027 C 
ATOM     15  C   UNL     1     -20.403  -1.984  12.390  1.00  0.00    -0.031 C 
BRANCH  15  16
ATOM     16  C   UNL     1     -21.848  -2.041  12.827  1.00  0.00     0.027 C 
BRANCH  16  17
ATOM     17  C   UNL     1     -22.195  -1.012  13.918  1.00  0.00     0.004 C 
BRANCH  17  18
ATOM     18  C   UNL     1     -21.066  -0.015  14.235  1.00  0.00     0.000 C 
BRANCH  18  19
ATOM     19  C   UNL     1     -21.305   1.370  13.617  1.00  0.00    -0.003 C 
ATOM     20  C   UNL     1     -22.040   1.255  12.285  1.00  0.00     0.004 C 
ENDBRANCH  18  19
ENDBRANCH  17  18
ENDBRANCH  16  17
ENDBRANCH  15  16
ENDBRANCH  13  14
ENDBRANCH  12  13
ENDBRANCH   1  11
TORSDOF 14
ENDMDL
MODEL 9
REMARK VINA RESULT:    -0.895      2.189      6.246
REMARK INTER + INTRA:          -3.087
REMARK INTER:                  -1.627
REMARK INTRA:                  -1.460
REMARK UNBOUND:                -1.460
REMARK SMILES CCCCCC=CCC=CCCCCCCCC(=O)[O-]
REMARK SMILES IDX 11 1 12 2 13 3 14 4 15 5 16 6 17 7 18 8 19 9 20 10 10 11
REMARK SMILES IDX 9 12 8 13 7 14 6 15 5 16 4 17 3 18 2 19 1 20
REMARK H PARENT
REMARK Flexibility Score: inf
ROOT
ATOM      1  C   UNL     1     -20.547   0.795   6.850  1.00  0.00     0.027 C 
ENDROOT
BRANCH   1   2
ATOM      2  C   UNL     1     -21.478  -0.366   6.463  1.00  0.00     0.004 C 
BRANCH   2   3
ATOM      3  C   UNL     1     -20.992  -1.749   6.939  1.00  0.00     0.000 C 
BRANCH   3   4
ATOM      4  C   UNL     1     -20.651  -1.798   8.445  1.00  0.00     0.000 C 
BRANCH   4   5
ATOM      5  C   UNL     1     -20.036  -3.147   8.858  1.00  0.00     0.000 C 
BRANCH   5   6
ATOM      6  C   UNL     1     -20.186  -4.222   7.769  1.00  0.00     0.006 C 
BRANCH   6   7
ATOM      7  C   UNL     1     -20.189  -5.644   8.344  1.00  0.00     0.053 C 
BRANCH   7   8
ATOM      8  C   UNL     1     -21.588  -6.088   8.633  1.00  0.00     0.041 C 
ATOM      9  O   UNL     1     -22.220  -6.780   7.791  1.00  0.00    -0.550 OA
ATOM     10  O   UNL     1     -22.211  -5.699   9.812  1.00  0.00    -0.550 OA
ENDBRANCH   7   8
ENDBRANCH   6   7
ENDBRANCH   5   6
ENDBRANCH   4   5
ENDBRANCH   3   4
ENDBRANCH   2   3
ENDBRANCH   1   2
BRANCH   1  11
ATOM     11  C   UNL     1     -21.318   2.035   7.232  1.00  0.00    -0.031 C 
ATOM     12  C   UNL     1     -21.865   2.254   8.442  1.00  0.00    -0.027 C 
BRANCH  12  13
ATOM     13  C   UNL     1     -21.710   1.344   9.632  1.00  0.00     0.054 C 
BRANCH  13  14
ATOM     14  C   UNL     1     -22.854   1.551  10.591  1.00  0.00    -0.027 C 
ATOM     15  C   UNL     1     -22.743   1.641  11.930  1.00  0.00    -0.031 C 
BRANCH  15  16
ATOM     16  C   UNL     1     -21.452   1.566  12.709  1.00  0.00     0.027 C 
BRANCH  16  17
ATOM     17  C   UNL     1     -21.598   0.850  14.064  1.00  0.00     0.004 C 
BRANCH  17  18
ATOM     18  C   UNL     1     -20.910  -0.526  14.135  1.00  0.00     0.000 C 
BRANCH  18  19
ATOM     19  C   UNL     1     -21.655  -1.604  13.335  1.00  0.00    -0.003 C 
ATOM     20  C   UNL     1     -20.910  -1.946  12.049  1.00  0.00     0.004 C 
ENDBRANCH  18  19
ENDBRANCH  17  18
ENDBRANCH  16  17
ENDBRANCH  15  16
ENDBRANCH  13  14
ENDBRANCH  12  13
ENDBRANCH   1  11
TORSDOF 14
ENDMDL
