MODEL 1
REMARK VINA RESULT:    -2.265      0.000      0.000
REMARK INTER + INTRA:          -2.989
REMARK INTER:                  -3.456
REMARK INTRA:                   0.467
REMARK UNBOUND:                 0.467
REMARK SMILES CC1=CCC[C@H](C)C(=O)C[C@@H](C(C)C)C(=O)C1
REMARK SMILES IDX 8 1 9 2 6 3 7 4 5 5 4 6 3 7 2 8 1 9 10 11 11 12 15 13 16 14
REMARK SMILES IDX 17 15 12 17 13 18 14 19
REMARK H PARENT
REMARK Flexibility Score: 70.00
ROOT
ATOM      1  C   UNL     1       7.656 -33.399  15.645  1.00  0.00     0.136 C 
ATOM      2  O   UNL     1       6.876 -32.458  15.660  1.00  0.00    -0.299 OA
ENDROOT
BRANCH   1   3
ATOM      3  C   UNL     1       7.199 -34.700  14.995  1.00  0.00     0.053 C 
ATOM      4  C   UNL     1       5.877 -34.600  14.211  1.00  0.00     0.016 C 
BRANCH   3   5
ATOM      5  C   UNL     1       8.315 -35.346  14.135  1.00  0.00     0.015 C 
BRANCH   5   6
ATOM      6  C   UNL     1       8.819 -34.470  12.968  1.00  0.00     0.028 C 
BRANCH   6   7
ATOM      7  C   UNL     1      10.324 -34.318  13.003  1.00  0.00    -0.028 C 
ATOM      8  C   UNL     1      11.007 -33.184  13.287  1.00  0.00    -0.070 CG0
ATOM      9  C   UNL     1      12.513 -33.238  13.250  1.00  0.00     0.039 C 
ATOM     10  G   UNL     1      10.341 -31.883  13.684  1.00  0.00     0.000 G0
ENDBRANCH   6   7
ENDBRANCH   5   6
ENDBRANCH   3   5
ENDBRANCH   1   3
BRANCH   1  11
ATOM     11  C   UNL     1       9.037 -33.187  16.239  1.00  0.00     0.087 C 
BRANCH  11  12
ATOM     12  C   UNL     1       9.508 -31.711  16.178  1.00  0.00     0.066 C 
BRANCH  12  13
ATOM     13  C   UNL     1      10.610 -31.562  15.143  1.00  0.00     0.140 C 
ATOM     14  O   UNL     1      11.717 -31.176  15.490  1.00  0.00    -0.299 OA
BRANCH  13  15
ATOM     15  C   UNL     1      10.360 -31.854  13.687  1.00  0.00     0.106 CG0
ATOM     16  G   UNL     1      11.007 -33.164  13.291  1.00  0.00     0.000 G0
ENDBRANCH  13  15
ENDBRANCH  12  13
BRANCH  12  17
ATOM     17  C   UNL     1       9.998 -31.189  17.566  1.00  0.00    -0.006 C 
ATOM     18  C   UNL     1       9.018 -31.544  18.700  1.00  0.00     0.008 C 
ATOM     19  C   UNL     1      10.203 -29.662  17.546  1.00  0.00     0.008 C 
ENDBRANCH  12  17
ENDBRANCH  11  12
ENDBRANCH   1  11
TORSDOF 1
ENDMDL
MODEL 2
REMARK VINA RESULT:    -1.944      1.819      4.228
REMARK INTER + INTRA:          -2.500
REMARK INTER:                  -3.388
REMARK INTRA:                   0.889
REMARK UNBOUND:                 0.467
REMARK SMILES CC1=CCC[C@H](C)C(=O)C[C@@H](C(C)C)C(=O)C1
REMARK SMILES IDX 8 1 9 2 6 3 7 4 5 5 4 6 3 7 2 8 1 9 10 11 11 12 15 13 16 14
REMARK SMILES IDX 17 15 12 17 13 18 14 19
REMARK H PARENT
REMARK Flexibility Score: 70.00
ROOT
ATOM      1  C   UNL     1      10.470 -32.235  14.192  1.00  0.00     0.136 C 
ATOM      2  O   UNL     1      11.311 -31.605  14.818  1.00  0.00    -0.299 OA
ENDROOT
BRANCH   1   3
ATOM      3  C   UNL     1      10.951 -33.333  13.250  1.00  0.00     0.053 C 
ATOM      4  C   UNL     1      12.468 -33.337  12.983  1.00  0.00     0.016 C 
BRANCH   3   5
ATOM      5  C   UNL     1      10.453 -34.735  13.685  1.00  0.00     0.015 C 
BRANCH   5   6
ATOM      6  C   UNL     1       9.255 -35.275  12.875  1.00  0.00     0.028 C 
BRANCH   6   7
ATOM      7  C   UNL     1       8.284 -36.026  13.761  1.00  0.00    -0.028 C 
ATOM      8  C   UNL     1       7.078 -35.581  14.183  1.00  0.00    -0.070 CG0
ATOM      9  C   UNL     1       6.266 -36.481  15.080  1.00  0.00     0.039 C 
ATOM     10  G   UNL     1       6.482 -34.253  13.764  1.00  0.00     0.000 G0
ENDBRANCH   6   7
ENDBRANCH   5   6
ENDBRANCH   3   5
ENDBRANCH   1   3
BRANCH   1  11
ATOM     11  C   UNL     1       9.009 -31.905  14.435  1.00  0.00     0.087 C 
BRANCH  11  12
ATOM     12  C   UNL     1       8.262 -32.995  15.247  1.00  0.00     0.066 C 
BRANCH  12  13
ATOM     13  C   UNL     1       6.847 -33.154  14.720  1.00  0.00     0.140 C 
ATOM     14  O   UNL     1       5.969 -32.397  15.108  1.00  0.00    -0.299 OA
BRANCH  13  15
ATOM     15  C   UNL     1       6.493 -34.247  13.748  1.00  0.00     0.106 CG0
ATOM     16  G   UNL     1       7.062 -35.573  14.210  1.00  0.00     0.000 G0
ENDBRANCH  13  15
ENDBRANCH  12  13
BRANCH  12  17
ATOM     17  C   UNL     1       8.236 -32.679  16.776  1.00  0.00    -0.006 C 
ATOM     18  C   UNL     1       9.212 -31.549  17.154  1.00  0.00     0.008 C 
ATOM     19  C   UNL     1       8.578 -33.929  17.609  1.00  0.00     0.008 C 
ENDBRANCH  12  17
ENDBRANCH  11  12
ENDBRANCH   1  11
TORSDOF 1
ENDMDL
MODEL 3
REMARK VINA RESULT:    -1.830      2.383      3.845
REMARK INTER + INTRA:          -2.325
REMARK INTER:                  -3.173
REMARK INTRA:                   0.848
REMARK UNBOUND:                 0.467
REMARK SMILES CC1=CCC[C@H](C)C(=O)C[C@@H](C(C)C)C(=O)C1
REMARK SMILES IDX 8 1 9 2 6 3 7 4 5 5 4 6 3 7 2 8 1 9 10 11 11 12 15 13 16 14
REMARK SMILES IDX 17 15 12 17 13 18 14 19
REMARK H PARENT
REMARK Flexibility Score: 70.00
ROOT
ATOM      1  C   UNL     1       8.139 -32.282  13.696  1.00  0.00     0.136 C 
ATOM      2  O   UNL     1       7.316 -31.895  12.878  1.00  0.00    -0.299 OA
ENDROOT
BRANCH   1   3
ATOM      3  C   UNL     1       9.381 -33.001  13.180  1.00  0.00     0.053 C 
ATOM      4  C   UNL     1      10.716 -32.449  13.714  1.00  0.00     0.016 C 
BRANCH   3   5
ATOM      5  C   UNL     1       9.288 -34.536  13.378  1.00  0.00     0.015 C 
BRANCH   5   6
ATOM      6  C   UNL     1       7.909 -35.147  13.051  1.00  0.00     0.028 C 
BRANCH   6   7
ATOM      7  C   UNL     1       7.505 -36.180  14.082  1.00  0.00    -0.028 C 
ATOM      8  C   UNL     1       7.045 -35.927  15.329  1.00  0.00    -0.070 CG0
ATOM      9  C   UNL     1       6.713 -37.104  16.212  1.00  0.00     0.039 C 
ATOM     10  G   UNL     1       6.801 -34.532  15.865  1.00  0.00     0.000 G0
ENDBRANCH   6   7
ENDBRANCH   5   6
ENDBRANCH   3   5
ENDBRANCH   1   3
BRANCH   1  11
ATOM     11  C   UNL     1       7.881 -31.978  15.160  1.00  0.00     0.087 C 
BRANCH  11  12
ATOM     12  C   UNL     1       8.788 -32.789  16.121  1.00  0.00     0.066 C 
BRANCH  12  13
ATOM     13  C   UNL     1       8.069 -34.048  16.573  1.00  0.00     0.140 C 
ATOM     14  O   UNL     1       8.517 -34.698  17.506  1.00  0.00    -0.299 OA
BRANCH  13  15
ATOM     15  C   UNL     1       6.825 -34.531  15.875  1.00  0.00     0.106 CG0
ATOM     16  G   UNL     1       7.033 -35.927  15.326  1.00  0.00     0.000 G0
ENDBRANCH  13  15
ENDBRANCH  12  13
BRANCH  12  17
ATOM     17  C   UNL     1       9.235 -31.950  17.360  1.00  0.00    -0.006 C 
ATOM     18  C   UNL     1       8.037 -31.472  18.202  1.00  0.00     0.008 C 
ATOM     19  C   UNL     1      10.063 -30.723  16.933  1.00  0.00     0.008 C 
ENDBRANCH  12  17
ENDBRANCH  11  12
ENDBRANCH   1  11
TORSDOF 1
ENDMDL
MODEL 4
REMARK VINA RESULT:    -1.526      1.989      5.305
REMARK INTER + INTRA:          -1.862
REMARK INTER:                  -2.499
REMARK INTRA:                   0.637
REMARK UNBOUND:                 0.467
REMARK SMILES CC1=CCC[C@H](C)C(=O)C[C@@H](C(C)C)C(=O)C1
REMARK SMILES IDX 8 1 9 2 6 3 7 4 5 5 4 6 3 7 2 8 1 9 10 11 11 12 15 13 16 14
REMARK SMILES IDX 17 15 12 17 13 18 14 19
REMARK H PARENT
REMARK Flexibility Score: 70.00
ROOT
ATOM      1  C   UNL     1      10.969 -31.834  13.840  1.00  0.00     0.136 C 
ATOM      2  O   UNL     1      10.647 -30.920  13.095  1.00  0.00    -0.299 OA
ENDROOT
BRANCH   1   3
ATOM      3  C   UNL     1      12.187 -31.636  14.735  1.00  0.00     0.053 C 
ATOM      4  C   UNL     1      13.462 -31.182  13.999  1.00  0.00     0.016 C 
BRANCH   3   5
ATOM      5  C   UNL     1      11.879 -30.715  15.944  1.00  0.00     0.015 C 
BRANCH   5   6
ATOM      6  C   UNL     1      10.376 -30.467  16.199  1.00  0.00     0.028 C 
BRANCH   6   7
ATOM      7  C   UNL     1       9.921 -31.120  17.487  1.00  0.00    -0.028 C 
ATOM      8  C   UNL     1       8.779 -31.824  17.666  1.00  0.00    -0.070 CG0
ATOM      9  C   UNL     1       8.500 -32.380  19.039  1.00  0.00     0.039 C 
ATOM     10  G   UNL     1       7.795 -32.121  16.554  1.00  0.00     0.000 G0
ENDBRANCH   6   7
ENDBRANCH   5   6
ENDBRANCH   3   5
ENDBRANCH   1   3
BRANCH   1  11
ATOM     11  C   UNL     1      10.105 -33.082  13.848  1.00  0.00     0.087 C 
BRANCH  11  12
ATOM     12  C   UNL     1       8.613 -32.791  14.155  1.00  0.00     0.066 C 
BRANCH  12  13
ATOM     13  C   UNL     1       8.302 -33.151  15.597  1.00  0.00     0.140 C 
ATOM     14  O   UNL     1       8.457 -34.302  15.980  1.00  0.00    -0.299 OA
BRANCH  13  15
ATOM     15  C   UNL     1       7.778 -32.124  16.565  1.00  0.00     0.106 CG0
ATOM     16  G   UNL     1       8.799 -31.846  17.648  1.00  0.00     0.000 G0
ENDBRANCH  13  15
ENDBRANCH  12  13
BRANCH  12  17
ATOM     17  C   UNL     1       7.651 -33.552  13.190  1.00  0.00    -0.006 C 
ATOM     18  C   UNL     1       6.178 -33.431  13.621  1.00  0.00     0.008 C 
ATOM     19  C   UNL     1       8.021 -35.045  13.098  1.00  0.00     0.008 C 
ENDBRANCH  12  17
ENDBRANCH  11  12
ENDBRANCH   1  11
TORSDOF 1
ENDMDL
MODEL 5
REMARK VINA RESULT:    -1.462      1.815      3.860
REMARK INTER + INTRA:          -1.764
REMARK INTER:                  -3.914
REMARK INTRA:                   2.150
REMARK UNBOUND:                 0.467
REMARK SMILES CC1=CCC[C@H](C)C(=O)C[C@@H](C(C)C)C(=O)C1
REMARK SMILES IDX 8 1 9 2 6 3 7 4 5 5 4 6 3 7 2 8 1 9 10 11 11 12 15 13 16 14
REMARK SMILES IDX 17 15 12 17 13 18 14 19
REMARK H PARENT
REMARK Flexibility Score: 70.00
ROOT
ATOM      1  C   UNL     1       8.315 -34.636  13.170  1.00  0.00     0.136 C 
ATOM      2  O   UNL     1       8.926 -35.678  12.985  1.00  0.00    -0.299 OA
ENDROOT
BRANCH   1   3
ATOM      3  C   UNL     1       6.856 -34.727  13.605  1.00  0.00     0.053 C 
ATOM      4  C   UNL     1       6.163 -36.060  13.265  1.00  0.00     0.016 C 
BRANCH   3   5
ATOM      5  C   UNL     1       6.670 -34.362  15.100  1.00  0.00     0.015 C 
BRANCH   5   6
ATOM      6  C   UNL     1       7.750 -34.933  16.043  1.00  0.00     0.028 C 
BRANCH   6   7
ATOM      7  C   UNL     1       8.105 -33.948  17.136  1.00  0.00    -0.028 C 
ATOM      8  C   UNL     1       8.507 -32.668  16.959  1.00  0.00    -0.070 CG0
ATOM      9  C   UNL     1       8.832 -31.853  18.186  1.00  0.00     0.039 C 
ATOM     10  G   UNL     1       8.601 -32.000  15.604  1.00  0.00     0.000 G0
ENDBRANCH   6   7
ENDBRANCH   5   6
ENDBRANCH   3   5
ENDBRANCH   1   3
BRANCH   1  11
ATOM     11  C   UNL     1       9.067 -33.330  12.993  1.00  0.00     0.087 C 
BRANCH  11  12
ATOM     12  C   UNL     1      10.273 -33.184  13.957  1.00  0.00     0.066 C 
BRANCH  12  13
ATOM     13  C   UNL     1       9.965 -32.139  15.016  1.00  0.00     0.140 C 
ATOM     14  O   UNL     1      10.859 -31.411  15.424  1.00  0.00    -0.299 OA
BRANCH  13  15
ATOM     15  C   UNL     1       8.584 -31.997  15.596  1.00  0.00     0.106 CG0
ATOM     16  G   UNL     1       8.512 -32.649  16.961  1.00  0.00     0.000 G0
ENDBRANCH  13  15
ENDBRANCH  12  13
BRANCH  12  17
ATOM     17  C   UNL     1      11.591 -32.817  13.204  1.00  0.00    -0.006 C 
ATOM     18  C   UNL     1      12.478 -34.049  12.950  1.00  0.00     0.008 C 
ATOM     19  C   UNL     1      12.407 -31.770  13.987  1.00  0.00     0.008 C 
ENDBRANCH  12  17
ENDBRANCH  11  12
ENDBRANCH   1  11
TORSDOF 1
ENDMDL
MODEL 6
REMARK VINA RESULT:    -1.094      1.657      3.906
REMARK INTER + INTRA:          -1.202
REMARK INTER:                  -2.477
REMARK INTRA:                   1.275
REMARK UNBOUND:                 0.467
REMARK SMILES CC1=CCC[C@H](C)C(=O)C[C@@H](C(C)C)C(=O)C1
REMARK SMILES IDX 8 1 9 2 6 3 7 4 5 5 4 6 3 7 2 8 1 9 10 11 11 12 15 13 16 14
REMARK SMILES IDX 17 15 12 17 13 18 14 19
REMARK H PARENT
REMARK Flexibility Score: 70.00
ROOT
ATOM      1  C   UNL     1      10.747 -31.232  15.332  1.00  0.00     0.136 C 
ATOM      2  O   UNL     1      11.485 -30.751  16.180  1.00  0.00    -0.299 OA
ENDROOT
BRANCH   1   3
ATOM      3  C   UNL     1      11.343 -31.567  13.969  1.00  0.00     0.053 C 
ATOM      4  C   UNL     1      12.858 -31.841  13.976  1.00  0.00     0.016 C 
BRANCH   3   5
ATOM      5  C   UNL     1      10.569 -32.707  13.259  1.00  0.00     0.015 C 
BRANCH   5   6
ATOM      6  C   UNL     1      10.613 -34.068  13.987  1.00  0.00     0.028 C 
BRANCH   6   7
ATOM      7  C   UNL     1       9.444 -34.944  13.590  1.00  0.00    -0.028 C 
ATOM      8  C   UNL     1       8.160 -34.795  13.991  1.00  0.00    -0.070 CG0
ATOM      9  C   UNL     1       7.144 -35.791  13.493  1.00  0.00     0.039 C 
ATOM     10  G   UNL     1       7.685 -33.659  14.872  1.00  0.00     0.000 G0
ENDBRANCH   6   7
ENDBRANCH   5   6
ENDBRANCH   3   5
ENDBRANCH   1   3
BRANCH   1  11
ATOM     11  C   UNL     1       9.303 -31.498  15.715  1.00  0.00     0.087 C 
BRANCH  11  12
ATOM     12  C   UNL     1       9.150 -32.602  16.794  1.00  0.00     0.066 C 
BRANCH  12  13
ATOM     13  C   UNL     1       8.296 -33.736  16.255  1.00  0.00     0.140 C 
ATOM     14  O   UNL     1       8.142 -34.747  16.926  1.00  0.00    -0.299 OA
BRANCH  13  15
ATOM     15  C   UNL     1       7.655 -33.656  14.896  1.00  0.00     0.106 CG0
ATOM     16  G   UNL     1       8.137 -34.788  14.014  1.00  0.00     0.000 G0
ENDBRANCH  13  15
ENDBRANCH  12  13
BRANCH  12  17
ATOM     17  C   UNL     1       8.539 -32.050  18.121  1.00  0.00    -0.006 C 
ATOM     18  C   UNL     1       9.532 -31.163  18.894  1.00  0.00     0.008 C 
ATOM     19  C   UNL     1       8.078 -33.198  19.041  1.00  0.00     0.008 C 
ENDBRANCH  12  17
ENDBRANCH  11  12
ENDBRANCH   1  11
TORSDOF 1
ENDMDL
MODEL 7
REMARK VINA RESULT:    -0.517      1.739      4.214
REMARK INTER + INTRA:          -0.322
REMARK INTER:                  -1.690
REMARK INTRA:                   1.369
REMARK UNBOUND:                 0.467
REMARK SMILES CC1=CCC[C@H](C)C(=O)C[C@@H](C(C)C)C(=O)C1
REMARK SMILES IDX 8 1 9 2 6 3 7 4 5 5 4 6 3 7 2 8 1 9 10 11 11 12 15 13 16 14
REMARK SMILES IDX 17 15 12 17 13 18 14 19
REMARK H PARENT
REMARK Flexibility Score: 70.00
ROOT
ATOM      1  C   UNL     1       8.643 -32.488  16.679  1.00  0.00     0.136 C 
ATOM      2  O   UNL     1       9.060 -32.863  17.766  1.00  0.00    -0.299 OA
ENDROOT
BRANCH   1   3
ATOM      3  C   UNL     1       9.430 -31.410  15.942  1.00  0.00     0.053 C 
ATOM      4  C   UNL     1      10.839 -31.141  16.504  1.00  0.00     0.016 C 
BRANCH   3   5
ATOM      5  C   UNL     1       9.474 -31.663  14.414  1.00  0.00     0.015 C 
BRANCH   5   6
ATOM      6  C   UNL     1      10.840 -32.139  13.877  1.00  0.00     0.028 C 
BRANCH   6   7
ATOM      7  C   UNL     1      10.870 -33.642  13.700  1.00  0.00    -0.028 C 
ATOM      8  C   UNL     1       9.841 -34.420  13.292  1.00  0.00    -0.070 CG0
ATOM      9  C   UNL     1      10.073 -35.907  13.197  1.00  0.00     0.039 C 
ATOM     10  G   UNL     1       8.490 -33.873  12.880  1.00  0.00     0.000 G0
ENDBRANCH   6   7
ENDBRANCH   5   6
ENDBRANCH   3   5
ENDBRANCH   1   3
BRANCH   1  11
ATOM     11  C   UNL     1       7.397 -33.155  16.128  1.00  0.00     0.087 C 
BRANCH  11  12
ATOM     12  C   UNL     1       7.699 -34.450  15.329  1.00  0.00     0.066 C 
BRANCH  12  13
ATOM     13  C   UNL     1       7.389 -34.235  13.858  1.00  0.00     0.140 C 
ATOM     14  O   UNL     1       6.243 -34.378  13.455  1.00  0.00    -0.299 OA
BRANCH  13  15
ATOM     15  C   UNL     1       8.471 -33.876  12.875  1.00  0.00     0.106 CG0
ATOM     16  G   UNL     1       9.808 -34.415  13.338  1.00  0.00     0.000 G0
ENDBRANCH  13  15
ENDBRANCH  12  13
BRANCH  12  17
ATOM     17  C   UNL     1       6.904 -35.679  15.874  1.00  0.00    -0.006 C 
ATOM     18  C   UNL     1       7.360 -36.086  17.288  1.00  0.00     0.008 C 
ATOM     19  C   UNL     1       7.047 -36.894  14.937  1.00  0.00     0.008 C 
ENDBRANCH  12  17
ENDBRANCH  11  12
ENDBRANCH   1  11
TORSDOF 1
ENDMDL
MODEL 8
REMARK VINA RESULT:    -0.256      1.946      3.751
REMARK INTER + INTRA:           0.077
REMARK INTER:                  -0.749
REMARK INTRA:                   0.826
REMARK UNBOUND:                 0.467
REMARK SMILES CC1=CCC[C@H](C)C(=O)C[C@@H](C(C)C)C(=O)C1
REMARK SMILES IDX 8 1 9 2 6 3 7 4 5 5 4 6 3 7 2 8 1 9 10 11 11 12 15 13 16 14
REMARK SMILES IDX 17 15 12 17 13 18 14 19
REMARK H PARENT
REMARK Flexibility Score: 70.00
ROOT
ATOM      1  C   UNL     1       9.302 -32.227  16.413  1.00  0.00     0.136 C 
ATOM      2  O   UNL     1       9.636 -31.187  16.962  1.00  0.00    -0.299 OA
ENDROOT
BRANCH   1   3
ATOM      3  C   UNL     1       7.860 -32.696  16.579  1.00  0.00     0.053 C 
ATOM      4  C   UNL     1       6.849 -32.022  15.633  1.00  0.00     0.016 C 
BRANCH   3   5
ATOM      5  C   UNL     1       7.740 -34.240  16.523  1.00  0.00     0.015 C 
BRANCH   5   6
ATOM      6  C   UNL     1       6.713 -34.771  15.499  1.00  0.00     0.028 C 
BRANCH   6   7
ATOM      7  C   UNL     1       7.286 -35.911  14.684  1.00  0.00    -0.028 C 
ATOM      8  C   UNL     1       8.013 -35.796  13.548  1.00  0.00    -0.070 CG0
ATOM      9  C   UNL     1       8.477 -37.063  12.875  1.00  0.00     0.039 C 
ATOM     10  G   UNL     1       8.423 -34.468  12.948  1.00  0.00     0.000 G0
ENDBRANCH   6   7
ENDBRANCH   5   6
ENDBRANCH   3   5
ENDBRANCH   1   3
BRANCH   1  11
ATOM     11  C   UNL     1      10.337 -32.951  15.572  1.00  0.00     0.087 C 
BRANCH  11  12
ATOM     12  C   UNL     1      10.130 -32.758  14.048  1.00  0.00     0.066 C 
BRANCH  12  13
ATOM     13  C   UNL     1       9.836 -34.096  13.392  1.00  0.00     0.140 C 
ATOM     14  O   UNL     1      10.748 -34.884  13.192  1.00  0.00    -0.299 OA
BRANCH  13  15
ATOM     15  C   UNL     1       8.443 -34.463  12.955  1.00  0.00     0.106 CG0
ATOM     16  G   UNL     1       8.033 -35.793  13.552  1.00  0.00     0.000 G0
ENDBRANCH  13  15
ENDBRANCH  12  13
BRANCH  12  17
ATOM     17  C   UNL     1      11.361 -32.082  13.365  1.00  0.00    -0.006 C 
ATOM     18  C   UNL     1      12.597 -33.000  13.352  1.00  0.00     0.008 C 
ATOM     19  C   UNL     1      11.731 -30.760  14.066  1.00  0.00     0.008 C 
ENDBRANCH  12  17
ENDBRANCH  11  12
ENDBRANCH   1  11
TORSDOF 1
ENDMDL
MODEL 9
REMARK VINA RESULT:    -0.047      1.790      5.258
REMARK INTER + INTRA:           0.395
REMARK INTER:                  -1.541
REMARK INTRA:                   1.936
REMARK UNBOUND:                 0.467
REMARK SMILES CC1=CCC[C@H](C)C(=O)C[C@@H](C(C)C)C(=O)C1
REMARK SMILES IDX 8 1 9 2 6 3 7 4 5 5 4 6 3 7 2 8 1 9 10 11 11 12 15 13 16 14
REMARK SMILES IDX 17 15 12 17 13 18 14 19
REMARK H PARENT
REMARK Flexibility Score: 70.00
ROOT
ATOM      1  C   UNL     1      11.242 -31.879  14.049  1.00  0.00     0.136 C 
ATOM      2  O   UNL     1      10.385 -31.214  13.485  1.00  0.00    -0.299 OA
ENDROOT
BRANCH   1   3
ATOM      3  C   UNL     1      12.037 -31.222  15.173  1.00  0.00     0.053 C 
ATOM      4  C   UNL     1      13.155 -30.272  14.703  1.00  0.00     0.016 C 
BRANCH   3   5
ATOM      5  C   UNL     1      11.116 -30.534  16.213  1.00  0.00     0.015 C 
BRANCH   5   6
ATOM      6  C   UNL     1      10.330 -31.504  17.120  1.00  0.00     0.028 C 
BRANCH   6   7
ATOM      7  C   UNL     1       8.859 -31.526  16.760  1.00  0.00    -0.028 C 
ATOM      8  C   UNL     1       8.245 -32.429  15.961  1.00  0.00    -0.070 CG0
ATOM      9  C   UNL     1       6.767 -32.263  15.713  1.00  0.00     0.039 C 
ATOM     10  G   UNL     1       8.950 -33.619  15.345  1.00  0.00     0.000 G0
ENDBRANCH   6   7
ENDBRANCH   5   6
ENDBRANCH   3   5
ENDBRANCH   1   3
BRANCH   1  11
ATOM     11  C   UNL     1      11.420 -33.322  13.616  1.00  0.00     0.087 C 
BRANCH  11  12
ATOM     12  C   UNL     1      10.140 -33.936  12.993  1.00  0.00     0.066 C 
BRANCH  12  13
ATOM     13  C   UNL     1       8.924 -33.538  13.810  1.00  0.00     0.140 C 
ATOM     14  O   UNL     1       7.930 -33.107  13.244  1.00  0.00    -0.299 OA
BRANCH  13  15
ATOM     15  C   UNL     1       8.925 -33.635  15.313  1.00  0.00     0.106 CG0
ATOM     16  G   UNL     1       8.251 -32.423  15.923  1.00  0.00     0.000 G0
ENDBRANCH  13  15
ENDBRANCH  12  13
BRANCH  12  17
ATOM     17  C   UNL     1      10.226 -35.491  12.877  1.00  0.00    -0.006 C 
ATOM     18  C   UNL     1       8.913 -36.179  13.295  1.00  0.00     0.008 C 
ATOM     19  C   UNL     1      11.376 -36.051  13.737  1.00  0.00     0.008 C 
ENDBRANCH  12  17
ENDBRANCH  11  12
ENDBRANCH   1  11
TORSDOF 1
ENDMDL
