MODEL 1
REMARK VINA RESULT:    -2.991      0.000      0.000
REMARK INTER + INTRA:          -3.254
REMARK INTER:                  -3.254
REMARK INTRA:                   0.000
REMARK UNBOUND:                 0.000
REMARK SMILES [NH3+]CC(=O)[O-]
REMARK SMILES IDX 2 1 1 2 3 6 4 7 5 8
REMARK H PARENT 1 3 1 4 1 5
REMARK Flexibility Score: inf
ROOT
ATOM      1  C   UNL     1       1.842  -1.768 -21.881  1.00  0.00     0.312 C 
ENDROOT
BRANCH   1   2
ATOM      2  N   UNL     1       0.694  -1.994 -21.004  1.00  0.00    -0.353 N 
ATOM      3  H   UNL     1       0.349  -1.084 -20.622  1.00  0.00     0.344 HD
ATOM      4  H   UNL     1       0.964  -2.629 -20.218  1.00  0.00     0.344 HD
ATOM      5  H   UNL     1      -0.073  -2.444 -21.554  1.00  0.00     0.344 HD
ENDBRANCH   1   2
BRANCH   1   6
ATOM      6  C   UNL     1       1.758  -0.419 -22.525  1.00  0.00     0.096 C 
ATOM      7  O   UNL     1       2.759   0.065 -23.115  1.00  0.00    -0.544 OA
ATOM      8  O   UNL     1       0.558   0.281 -22.518  1.00  0.00    -0.544 OA
ENDBRANCH   1   6
TORSDOF 2
ENDMDL
MODEL 2
REMARK VINA RESULT:    -2.883      5.118      5.490
REMARK INTER + INTRA:          -3.135
REMARK INTER:                  -3.135
REMARK INTRA:                   0.000
REMARK UNBOUND:                 0.000
REMARK SMILES [NH3+]CC(=O)[O-]
REMARK SMILES IDX 2 1 1 2 3 6 4 7 5 8
REMARK H PARENT 1 3 1 4 1 5
REMARK Flexibility Score: inf
ROOT
ATOM      1  C   UNL     1       4.489  -5.611 -23.073  1.00  0.00     0.312 C 
ENDROOT
BRANCH   1   2
ATOM      2  N   UNL     1       3.485  -6.644 -23.323  1.00  0.00    -0.353 N 
ATOM      3  H   UNL     1       3.283  -6.709 -24.347  1.00  0.00     0.344 HD
ATOM      4  H   UNL     1       2.606  -6.423 -22.801  1.00  0.00     0.344 HD
ATOM      5  H   UNL     1       3.852  -7.566 -22.991  1.00  0.00     0.344 HD
ENDBRANCH   1   2
BRANCH   1   6
ATOM      6  C   UNL     1       4.245  -4.944 -21.755  1.00  0.00     0.096 C 
ATOM      7  O   UNL     1       4.781  -5.395 -20.709  1.00  0.00    -0.544 OA
ATOM      8  O   UNL     1       3.470  -3.794 -21.692  1.00  0.00    -0.544 OA
ENDBRANCH   1   6
TORSDOF 2
ENDMDL
MODEL 3
REMARK VINA RESULT:    -2.850      2.358      2.898
REMARK INTER + INTRA:          -3.100
REMARK INTER:                  -3.100
REMARK INTRA:                   0.000
REMARK UNBOUND:                 0.000
REMARK SMILES [NH3+]CC(=O)[O-]
REMARK SMILES IDX 2 1 1 2 3 6 4 7 5 8
REMARK H PARENT 1 3 1 4 1 5
REMARK Flexibility Score: inf
ROOT
ATOM      1  C   UNL     1       2.343  -0.743 -22.593  1.00  0.00     0.312 C 
ENDROOT
BRANCH   1   2
ATOM      2  N   UNL     1       2.026   0.411 -21.753  1.00  0.00    -0.353 N 
ATOM      3  H   UNL     1       1.049   0.734 -21.941  1.00  0.00     0.344 HD
ATOM      4  H   UNL     1       2.700   1.189 -21.945  1.00  0.00     0.344 HD
ATOM      5  H   UNL     1       2.106   0.135 -20.748  1.00  0.00     0.344 HD
ENDBRANCH   1   2
BRANCH   1   6
ATOM      6  C   UNL     1       2.055  -2.020 -21.867  1.00  0.00     0.096 C 
ATOM      7  O   UNL     1       0.998  -2.141 -21.194  1.00  0.00    -0.544 OA
ATOM      8  O   UNL     1       2.927  -3.095 -21.979  1.00  0.00    -0.544 OA
ENDBRANCH   1   6
TORSDOF 2
ENDMDL
MODEL 4
REMARK VINA RESULT:    -2.632      7.379      7.760
REMARK INTER + INTRA:          -2.863
REMARK INTER:                  -2.863
REMARK INTRA:                   0.000
REMARK UNBOUND:                 0.000
REMARK SMILES [NH3+]CC(=O)[O-]
REMARK SMILES IDX 2 1 1 2 3 6 4 7 5 8
REMARK H PARENT 1 3 1 4 1 5
REMARK Flexibility Score: inf
ROOT
ATOM      1  C   UNL     1      -4.088   2.946 -21.613  1.00  0.00     0.312 C 
ENDROOT
BRANCH   1   2
ATOM      2  N   UNL     1      -3.616   2.871 -20.232  1.00  0.00    -0.353 N 
ATOM      3  H   UNL     1      -4.102   2.094 -19.728  1.00  0.00     0.344 HD
ATOM      4  H   UNL     1      -3.795   3.778 -19.743  1.00  0.00     0.344 HD
ATOM      5  H   UNL     1      -2.587   2.684 -20.231  1.00  0.00     0.344 HD
ENDBRANCH   1   2
BRANCH   1   6
ATOM      6  C   UNL     1      -5.515   2.504 -21.709  1.00  0.00     0.096 C 
ATOM      7  O   UNL     1      -5.893   1.452 -21.129  1.00  0.00    -0.544 OA
ATOM      8  O   UNL     1      -6.439   3.281 -22.395  1.00  0.00    -0.544 OA
ENDBRANCH   1   6
TORSDOF 2
ENDMDL
MODEL 5
REMARK VINA RESULT:    -2.590      6.490      6.920
REMARK INTER + INTRA:          -2.817
REMARK INTER:                  -2.817
REMARK INTRA:                   0.000
REMARK UNBOUND:                 0.000
REMARK SMILES [NH3+]CC(=O)[O-]
REMARK SMILES IDX 2 1 1 2 3 6 4 7 5 8
REMARK H PARENT 1 3 1 4 1 5
REMARK Flexibility Score: inf
ROOT
ATOM      1  C   UNL     1      -0.811   5.461 -23.939  1.00  0.00     0.312 C 
ENDROOT
BRANCH   1   2
ATOM      2  N   UNL     1      -0.654   6.363 -22.799  1.00  0.00    -0.353 N 
ATOM      3  H   UNL     1       0.155   7.007 -22.959  1.00  0.00     0.344 HD
ATOM      4  H   UNL     1      -0.500   5.810 -21.924  1.00  0.00     0.344 HD
ATOM      5  H   UNL     1      -1.525   6.932 -22.690  1.00  0.00     0.344 HD
ENDBRANCH   1   2
BRANCH   1   6
ATOM      6  C   UNL     1      -1.824   4.401 -23.640  1.00  0.00     0.096 C 
ATOM      7  O   UNL     1      -1.517   3.417 -22.917  1.00  0.00    -0.544 OA
ATOM      8  O   UNL     1      -3.123   4.527 -24.116  1.00  0.00    -0.544 OA
ENDBRANCH   1   6
TORSDOF 2
ENDMDL
MODEL 6
REMARK VINA RESULT:    -2.579      4.689      5.142
REMARK INTER + INTRA:          -2.805
REMARK INTER:                  -2.805
REMARK INTRA:                   0.000
REMARK UNBOUND:                 0.000
REMARK SMILES [NH3+]CC(=O)[O-]
REMARK SMILES IDX 2 1 1 2 3 6 4 7 5 8
REMARK H PARENT 1 3 1 4 1 5
REMARK Flexibility Score: inf
ROOT
ATOM      1  C   UNL     1       3.462  -3.733 -21.631  1.00  0.00     0.312 C 
ENDROOT
BRANCH   1   2
ATOM      2  N   UNL     1       3.064  -3.043 -22.857  1.00  0.00    -0.353 N 
ATOM      3  H   UNL     1       3.667  -2.202 -23.008  1.00  0.00     0.344 HD
ATOM      4  H   UNL     1       2.061  -2.753 -22.795  1.00  0.00     0.344 HD
ATOM      5  H   UNL     1       3.178  -3.693 -23.668  1.00  0.00     0.344 HD
ENDBRANCH   1   2
BRANCH   1   6
ATOM      6  C   UNL     1       4.304  -4.929 -21.947  1.00  0.00     0.096 C 
ATOM      7  O   UNL     1       4.427  -5.321 -23.138  1.00  0.00    -0.544 OA
ATOM      8  O   UNL     1       4.996  -5.580 -20.934  1.00  0.00    -0.544 OA
ENDBRANCH   1   6
TORSDOF 2
ENDMDL
MODEL 7
REMARK VINA RESULT:    -2.516      4.566      4.944
REMARK INTER + INTRA:          -2.736
REMARK INTER:                  -2.736
REMARK INTRA:                   0.000
REMARK UNBOUND:                 0.000
REMARK SMILES [NH3+]CC(=O)[O-]
REMARK SMILES IDX 2 1 1 2 3 6 4 7 5 8
REMARK H PARENT 1 3 1 4 1 5
REMARK Flexibility Score: inf
ROOT
ATOM      1  C   UNL     1      -1.160   1.731 -23.391  1.00  0.00     0.312 C 
ENDROOT
BRANCH   1   2
ATOM      2  N   UNL     1      -1.495   0.563 -22.578  1.00  0.00    -0.353 N 
ATOM      3  H   UNL     1      -1.647  -0.270 -23.192  1.00  0.00     0.344 HD
ATOM      4  H   UNL     1      -2.358   0.753 -22.018  1.00  0.00     0.344 HD
ATOM      5  H   UNL     1      -0.704   0.363 -21.924  1.00  0.00     0.344 HD
ENDBRANCH   1   2
BRANCH   1   6
ATOM      6  C   UNL     1      -1.879   2.946 -22.893  1.00  0.00     0.096 C 
ATOM      7  O   UNL     1      -2.885   2.825 -22.146  1.00  0.00    -0.544 OA
ATOM      8  O   UNL     1      -1.406   4.213 -23.210  1.00  0.00    -0.544 OA
ENDBRANCH   1   6
TORSDOF 2
ENDMDL
MODEL 8
REMARK VINA RESULT:    -2.493      6.982      7.582
REMARK INTER + INTRA:          -2.712
REMARK INTER:                  -2.712
REMARK INTRA:                   0.000
REMARK UNBOUND:                 0.000
REMARK SMILES [NH3+]CC(=O)[O-]
REMARK SMILES IDX 2 1 1 2 3 6 4 7 5 8
REMARK H PARENT 1 3 1 4 1 5
REMARK Flexibility Score: inf
ROOT
ATOM      1  C   UNL     1      -4.638   2.322 -21.017  1.00  0.00     0.312 C 
ENDROOT
BRANCH   1   2
ATOM      2  N   UNL     1      -3.755   2.793 -19.952  1.00  0.00    -0.353 N 
ATOM      3  H   UNL     1      -3.250   3.656 -20.259  1.00  0.00     0.344 HD
ATOM      4  H   UNL     1      -3.064   2.047 -19.704  1.00  0.00     0.344 HD
ATOM      5  H   UNL     1      -4.327   3.018 -19.106  1.00  0.00     0.344 HD
ENDBRANCH   1   2
BRANCH   1   6
ATOM      6  C   UNL     1      -4.883   3.407 -22.019  1.00  0.00     0.096 C 
ATOM      7  O   UNL     1      -5.954   4.068 -21.989  1.00  0.00    -0.544 OA
ATOM      8  O   UNL     1      -3.905   3.724 -22.953  1.00  0.00    -0.544 OA
ENDBRANCH   1   6
TORSDOF 2
ENDMDL
MODEL 9
REMARK VINA RESULT:    -2.399      5.180      5.671
REMARK INTER + INTRA:          -2.610
REMARK INTER:                  -2.610
REMARK INTRA:                   0.000
REMARK UNBOUND:                 0.000
REMARK SMILES [NH3+]CC(=O)[O-]
REMARK SMILES IDX 2 1 1 2 3 6 4 7 5 8
REMARK H PARENT 1 3 1 4 1 5
REMARK Flexibility Score: inf
ROOT
ATOM      1  C   UNL     1      -3.402   3.217 -22.286  1.00  0.00     0.312 C 
ENDROOT
BRANCH   1   2
ATOM      2  N   UNL     1      -3.416   2.884 -20.863  1.00  0.00    -0.353 N 
ATOM      3  H   UNL     1      -3.133   3.717 -20.297  1.00  0.00     0.344 HD
ATOM      4  H   UNL     1      -2.763   2.089 -20.674  1.00  0.00     0.344 HD
ATOM      5  H   UNL     1      -4.384   2.600 -20.587  1.00  0.00     0.344 HD
ENDBRANCH   1   2
BRANCH   1   6
ATOM      6  C   UNL     1      -2.013   3.125 -22.837  1.00  0.00     0.096 C 
ATOM      7  O   UNL     1      -1.414   4.165 -23.221  1.00  0.00    -0.544 OA
ATOM      8  O   UNL     1      -1.361   1.900 -22.878  1.00  0.00    -0.544 OA
ENDBRANCH   1   6
TORSDOF 2
ENDMDL
