MODEL 1
REMARK VINA RESULT:    -3.881      0.000      0.000
REMARK INTER + INTRA:          -4.962
REMARK INTER:                  -4.789
REMARK INTRA:                  -0.173
REMARK UNBOUND:                -0.173
REMARK SMILES CCCCCC(=O)[O-]
REMARK SMILES IDX 4 1 5 2 6 3 7 4 8 5 3 6 2 7 1 8
REMARK H PARENT
REMARK Flexibility Score: inf
ROOT
ATOM      1  C   UNL     1      -2.375  37.247  18.393  1.00  0.00     0.006 C 
ENDROOT
BRANCH   1   2
ATOM      2  C   UNL     1      -3.859  37.150  18.768  1.00  0.00     0.053 C 
BRANCH   2   3
ATOM      3  C   UNL     1      -4.176  35.784  19.289  1.00  0.00     0.041 C 
ATOM      4  O   UNL     1      -3.903  35.480  20.480  1.00  0.00    -0.550 OA
ATOM      5  O   UNL     1      -4.730  34.829  18.446  1.00  0.00    -0.550 OA
ENDBRANCH   2   3
ENDBRANCH   1   2
BRANCH   1   6
ATOM      6  C   UNL     1      -2.089  36.783  16.953  1.00  0.00     0.000 C 
BRANCH   6   7
ATOM      7  C   UNL     1      -3.134  37.225  15.913  1.00  0.00    -0.003 C 
ATOM      8  C   UNL     1      -3.018  36.469  14.591  1.00  0.00     0.004 C 
ENDBRANCH   6   7
ENDBRANCH   1   6
TORSDOF 4
ENDMDL
MODEL 2
REMARK VINA RESULT:    -3.870      1.301      1.633
REMARK INTER + INTRA:          -4.948
REMARK INTER:                  -4.846
REMARK INTRA:                  -0.102
REMARK UNBOUND:                -0.173
REMARK SMILES CCCCCC(=O)[O-]
REMARK SMILES IDX 4 1 5 2 6 3 7 4 8 5 3 6 2 7 1 8
REMARK H PARENT
REMARK Flexibility Score: inf
ROOT
ATOM      1  C   UNL     1      -3.389  36.186  17.055  1.00  0.00     0.006 C 
ENDROOT
BRANCH   1   2
ATOM      2  C   UNL     1      -3.333  37.273  18.136  1.00  0.00     0.053 C 
BRANCH   2   3
ATOM      3  C   UNL     1      -4.135  36.862  19.330  1.00  0.00     0.041 C 
ATOM      4  O   UNL     1      -3.839  35.815  19.964  1.00  0.00    -0.550 OA
ATOM      5  O   UNL     1      -5.241  37.610  19.716  1.00  0.00    -0.550 OA
ENDBRANCH   2   3
ENDBRANCH   1   2
BRANCH   1   6
ATOM      6  C   UNL     1      -2.273  36.330  16.004  1.00  0.00     0.000 C 
BRANCH   6   7
ATOM      7  C   UNL     1      -2.765  36.450  14.551  1.00  0.00    -0.003 C 
ATOM      8  C   UNL     1      -3.876  37.484  14.379  1.00  0.00     0.004 C 
ENDBRANCH   6   7
ENDBRANCH   1   6
TORSDOF 4
ENDMDL
MODEL 3
REMARK VINA RESULT:    -3.723      4.081      6.503
REMARK INTER + INTRA:          -4.767
REMARK INTER:                  -4.587
REMARK INTRA:                  -0.180
REMARK UNBOUND:                -0.173
REMARK SMILES CCCCCC(=O)[O-]
REMARK SMILES IDX 4 1 5 2 6 3 7 4 8 5 3 6 2 7 1 8
REMARK H PARENT
REMARK Flexibility Score: inf
ROOT
ATOM      1  C   UNL     1      -6.082  35.636  22.227  1.00  0.00     0.006 C 
ENDROOT
BRANCH   1   2
ATOM      2  C   UNL     1      -4.846  35.889  21.355  1.00  0.00     0.053 C 
BRANCH   2   3
ATOM      3  C   UNL     1      -4.813  37.313  20.898  1.00  0.00     0.041 C 
ATOM      4  O   UNL     1      -5.144  37.609  19.719  1.00  0.00    -0.550 OA
ATOM      5  O   UNL     1      -4.370  38.310  21.759  1.00  0.00    -0.550 OA
ENDBRANCH   2   3
ENDBRANCH   1   2
BRANCH   1   6
ATOM      6  C   UNL     1      -5.732  35.034  23.600  1.00  0.00     0.000 C 
BRANCH   6   7
ATOM      7  C   UNL     1      -6.063  35.935  24.804  1.00  0.00    -0.003 C 
ATOM      8  C   UNL     1      -5.045  37.056  25.009  1.00  0.00     0.004 C 
ENDBRANCH   6   7
ENDBRANCH   1   6
TORSDOF 4
ENDMDL
MODEL 4
REMARK VINA RESULT:    -3.721      1.502      1.730
REMARK INTER + INTRA:          -4.764
REMARK INTER:                  -4.662
REMARK INTRA:                  -0.102
REMARK UNBOUND:                -0.173
REMARK SMILES CCCCCC(=O)[O-]
REMARK SMILES IDX 4 1 5 2 6 3 7 4 8 5 3 6 2 7 1 8
REMARK H PARENT
REMARK Flexibility Score: inf
ROOT
ATOM      1  C   UNL     1      -3.118  36.872  18.738  1.00  0.00     0.006 C 
ENDROOT
BRANCH   1   2
ATOM      2  C   UNL     1      -4.258  35.903  19.079  1.00  0.00     0.053 C 
BRANCH   2   3
ATOM      3  C   UNL     1      -5.235  36.554  20.006  1.00  0.00     0.041 C 
ATOM      4  O   UNL     1      -5.367  37.806  20.012  1.00  0.00    -0.550 OA
ATOM      5  O   UNL     1      -5.967  35.781  20.899  1.00  0.00    -0.550 OA
ENDBRANCH   2   3
ENDBRANCH   1   2
BRANCH   1   6
ATOM      6  C   UNL     1      -3.094  37.267  17.250  1.00  0.00     0.000 C 
BRANCH   6   7
ATOM      7  C   UNL     1      -2.813  36.107  16.278  1.00  0.00    -0.003 C 
ATOM      8  C   UNL     1      -3.035  36.487  14.815  1.00  0.00     0.004 C 
ENDBRANCH   6   7
ENDBRANCH   1   6
TORSDOF 4
ENDMDL
MODEL 5
REMARK VINA RESULT:    -3.693      1.642      1.945
REMARK INTER + INTRA:          -4.730
REMARK INTER:                  -4.610
REMARK INTRA:                  -0.120
REMARK UNBOUND:                -0.173
REMARK SMILES CCCCCC(=O)[O-]
REMARK SMILES IDX 4 1 5 2 6 3 7 4 8 5 3 6 2 7 1 8
REMARK H PARENT
REMARK Flexibility Score: inf
ROOT
ATOM      1  C   UNL     1      -3.143  37.025  19.103  1.00  0.00     0.006 C 
ENDROOT
BRANCH   1   2
ATOM      2  C   UNL     1      -4.110  35.915  19.533  1.00  0.00     0.053 C 
BRANCH   2   3
ATOM      3  C   UNL     1      -5.248  36.489  20.318  1.00  0.00     0.041 C 
ATOM      4  O   UNL     1      -6.068  35.728  20.894  1.00  0.00    -0.550 OA
ATOM      5  O   UNL     1      -5.430  37.865  20.372  1.00  0.00    -0.550 OA
ENDBRANCH   2   3
ENDBRANCH   1   2
BRANCH   1   6
ATOM      6  C   UNL     1      -3.215  37.330  17.596  1.00  0.00     0.000 C 
BRANCH   6   7
ATOM      7  C   UNL     1      -3.205  36.090  16.684  1.00  0.00    -0.003 C 
ATOM      8  C   UNL     1      -2.101  36.132  15.630  1.00  0.00     0.004 C 
ENDBRANCH   6   7
ENDBRANCH   1   6
TORSDOF 4
ENDMDL
MODEL 6
REMARK VINA RESULT:    -3.657      2.300      4.237
REMARK INTER + INTRA:          -4.685
REMARK INTER:                  -4.568
REMARK INTRA:                  -0.117
REMARK UNBOUND:                -0.173
REMARK SMILES CCCCCC(=O)[O-]
REMARK SMILES IDX 4 1 5 2 6 3 7 4 8 5 3 6 2 7 1 8
REMARK H PARENT
REMARK Flexibility Score: inf
ROOT
ATOM      1  C   UNL     1      -3.798  37.262  18.730  1.00  0.00     0.006 C 
ENDROOT
BRANCH   1   2
ATOM      2  C   UNL     1      -2.441  37.254  18.014  1.00  0.00     0.053 C 
BRANCH   2   3
ATOM      3  C   UNL     1      -2.608  36.846  16.584  1.00  0.00     0.041 C 
ATOM      4  O   UNL     1      -1.992  35.844  16.134  1.00  0.00    -0.550 OA
ATOM      5  O   UNL     1      -3.406  37.602  15.735  1.00  0.00    -0.550 OA
ENDBRANCH   2   3
ENDBRANCH   1   2
BRANCH   1   6
ATOM      6  C   UNL     1      -4.289  35.850  19.098  1.00  0.00     0.000 C 
BRANCH   6   7
ATOM      7  C   UNL     1      -5.333  35.804  20.228  1.00  0.00    -0.003 C 
ATOM      8  C   UNL     1      -4.706  35.801  21.621  1.00  0.00     0.004 C 
ENDBRANCH   6   7
ENDBRANCH   1   6
TORSDOF 4
ENDMDL
MODEL 7
REMARK VINA RESULT:    -3.630      3.375      5.715
REMARK INTER + INTRA:          -4.652
REMARK INTER:                  -4.512
REMARK INTRA:                  -0.139
REMARK UNBOUND:                -0.173
REMARK SMILES CCCCCC(=O)[O-]
REMARK SMILES IDX 4 1 5 2 6 3 7 4 8 5 3 6 2 7 1 8
REMARK H PARENT
REMARK Flexibility Score: inf
ROOT
ATOM      1  C   UNL     1      -5.740  35.729  21.274  1.00  0.00     0.006 C 
ENDROOT
BRANCH   1   2
ATOM      2  C   UNL     1      -4.563  35.782  20.293  1.00  0.00     0.053 C 
BRANCH   2   3
ATOM      3  C   UNL     1      -4.580  37.068  19.527  1.00  0.00     0.041 C 
ATOM      4  O   UNL     1      -5.364  37.995  19.861  1.00  0.00    -0.550 OA
ATOM      5  O   UNL     1      -3.764  37.225  18.414  1.00  0.00    -0.550 OA
ENDBRANCH   2   3
ENDBRANCH   1   2
BRANCH   1   6
ATOM      6  C   UNL     1      -5.290  35.663  22.745  1.00  0.00     0.000 C 
BRANCH   6   7
ATOM      7  C   UNL     1      -5.115  37.031  23.429  1.00  0.00    -0.003 C 
ATOM      8  C   UNL     1      -5.064  36.936  24.953  1.00  0.00     0.004 C 
ENDBRANCH   6   7
ENDBRANCH   1   6
TORSDOF 4
ENDMDL
MODEL 8
REMARK VINA RESULT:    -3.620      4.283      5.669
REMARK INTER + INTRA:          -4.640
REMARK INTER:                  -4.447
REMARK INTRA:                  -0.193
REMARK UNBOUND:                -0.173
REMARK SMILES CCCCCC(=O)[O-]
REMARK SMILES IDX 4 1 5 2 6 3 7 4 8 5 3 6 2 7 1 8
REMARK H PARENT
REMARK Flexibility Score: inf
ROOT
ATOM      1  C   UNL     1      -5.410  35.334  22.828  1.00  0.00     0.006 C 
ENDROOT
BRANCH   1   2
ATOM      2  C   UNL     1      -6.057  36.167  23.942  1.00  0.00     0.053 C 
BRANCH   2   3
ATOM      3  C   UNL     1      -5.153  37.289  24.346  1.00  0.00     0.041 C 
ATOM      4  O   UNL     1      -4.594  37.279  25.474  1.00  0.00    -0.550 OA
ATOM      5  O   UNL     1      -4.965  38.371  23.495  1.00  0.00    -0.550 OA
ENDBRANCH   2   3
ENDBRANCH   1   2
BRANCH   1   6
ATOM      6  C   UNL     1      -6.014  35.620  21.441  1.00  0.00     0.000 C 
BRANCH   6   7
ATOM      7  C   UNL     1      -4.997  36.060  20.372  1.00  0.00    -0.003 C 
ATOM      8  C   UNL     1      -5.117  37.538  20.006  1.00  0.00     0.004 C 
ENDBRANCH   6   7
ENDBRANCH   1   6
TORSDOF 4
ENDMDL
MODEL 9
REMARK VINA RESULT:    -3.610      2.639      4.889
REMARK INTER + INTRA:          -4.627
REMARK INTER:                  -4.515
REMARK INTRA:                  -0.112
REMARK UNBOUND:                -0.173
REMARK SMILES CCCCCC(=O)[O-]
REMARK SMILES IDX 4 1 5 2 6 3 7 4 8 5 3 6 2 7 1 8
REMARK H PARENT
REMARK Flexibility Score: inf
ROOT
ATOM      1  C   UNL     1      -4.921  37.414  19.831  1.00  0.00     0.006 C 
ENDROOT
BRANCH   1   2
ATOM      2  C   UNL     1      -3.916  36.510  19.106  1.00  0.00     0.053 C 
BRANCH   2   3
ATOM      3  C   UNL     1      -2.975  37.331  18.284  1.00  0.00     0.041 C 
ATOM      4  O   UNL     1      -3.153  37.448  17.043  1.00  0.00    -0.550 OA
ATOM      5  O   UNL     1      -1.871  37.929  18.879  1.00  0.00    -0.550 OA
ENDBRANCH   2   3
ENDBRANCH   1   2
BRANCH   1   6
ATOM      6  C   UNL     1      -4.912  37.214  21.358  1.00  0.00     0.000 C 
BRANCH   6   7
ATOM      7  C   UNL     1      -4.633  35.773  21.820  1.00  0.00    -0.003 C 
ATOM      8  C   UNL     1      -5.664  35.256  22.821  1.00  0.00     0.004 C 
ENDBRANCH   6   7
ENDBRANCH   1   6
TORSDOF 4
ENDMDL
