MODEL 1
REMARK VINA RESULT:    -2.246      0.000      0.000
REMARK INTER + INTRA:          -2.995
REMARK INTER:                  -3.166
REMARK INTRA:                   0.171
REMARK UNBOUND:                 0.171
REMARK SMILES CC1=CCC(=C(C)C)C(=O)CC(C)=CCC1
REMARK SMILES IDX 12 1 14 2 13 3 15 4 16 5 2 6 1 7 3 8 11 10 9 11 10 12 5 13
REMARK SMILES IDX 6 14 7 15 8 16 4 17
REMARK H PARENT
REMARK Flexibility Score: 60.00
ROOT
ATOM      1  C   UNL     1      77.855   4.722  64.087  1.00  0.00    -0.070 C 
ATOM      2  C   UNL     1      79.028   4.086  63.873  1.00  0.00    -0.027 C 
ATOM      3  C   UNL     1      76.825   4.036  64.949  1.00  0.00     0.039 C 
ENDROOT
BRANCH   2   4
ATOM      4  C   UNL     1      80.141   4.564  62.966  1.00  0.00     0.032 C 
BRANCH   4   5
ATOM      5  C   UNL     1      80.116   3.968  61.543  1.00  0.00     0.034 C 
BRANCH   5   6
ATOM      6  C   UNL     1      80.444   4.984  60.464  1.00  0.00    -0.077 C 
ATOM      7  C   UNL     1      81.897   5.295  60.213  1.00  0.00     0.039 C 
ATOM      8  C   UNL     1      79.516   5.678  59.761  1.00  0.00    -0.023 CG0
ATOM      9  G   UNL     1      78.010   5.522  59.831  1.00  0.00     0.000 G0
ENDBRANCH   5   6
ENDBRANCH   4   5
ENDBRANCH   2   4
BRANCH   1  10
ATOM     10  C   UNL     1      77.493   6.040  63.432  1.00  0.00     0.111 C 
BRANCH  10  11
ATOM     11  C   UNL     1      76.828   5.833  62.096  1.00  0.00     0.163 C 
ATOM     12  O   UNL     1      75.834   5.060  62.041  1.00  0.00    -0.294 OA
BRANCH  11  13
ATOM     13  C   UNL     1      77.340   6.459  60.841  1.00  0.00    -0.002 C 
ATOM     14  C   UNL     1      77.145   7.790  60.593  1.00  0.00    -0.069 C 
ATOM     15  C   UNL     1      76.550   8.703  61.642  1.00  0.00     0.039 C 
ATOM     16  C   UNL     1      77.509   8.418  59.266  1.00  0.00     0.039 C 
BRANCH  13  17
ATOM     17  C   UNL     1      77.993   5.539  59.821  1.00  0.00     0.066 CG0
ATOM     18  G   UNL     1      79.500   5.695  59.787  1.00  0.00     0.000 G0
ENDBRANCH  13  17
ENDBRANCH  11  13
ENDBRANCH  10  11
ENDBRANCH   1  10
TORSDOF 0
ENDMDL
MODEL 2
REMARK VINA RESULT:    -2.234      5.429      7.177
REMARK INTER + INTRA:          -2.977
REMARK INTER:                  -3.350
REMARK INTRA:                   0.373
REMARK UNBOUND:                 0.171
REMARK SMILES CC1=CCC(=C(C)C)C(=O)CC(C)=CCC1
REMARK SMILES IDX 12 1 14 2 13 3 15 4 16 5 2 6 1 7 3 8 11 10 9 11 10 12 5 13
REMARK SMILES IDX 6 14 7 15 8 16 4 17
REMARK H PARENT
REMARK Flexibility Score: 60.00
ROOT
ATOM      1  C   UNL     1      81.110   1.968  68.244  1.00  0.00    -0.070 C 
ATOM      2  C   UNL     1      81.427   0.786  68.817  1.00  0.00    -0.027 C 
ATOM      3  C   UNL     1      80.514   3.040  69.120  1.00  0.00     0.039 C 
ENDROOT
BRANCH   2   4
ATOM      4  C   UNL     1      81.942  -0.438  68.092  1.00  0.00     0.032 C 
BRANCH   4   5
ATOM      5  C   UNL     1      80.869  -1.229  67.315  1.00  0.00     0.034 C 
BRANCH   5   6
ATOM      6  C   UNL     1      81.183  -1.369  65.836  1.00  0.00    -0.077 C 
ATOM      7  C   UNL     1      82.390  -2.187  65.451  1.00  0.00     0.039 C 
ATOM      8  C   UNL     1      80.492  -0.752  64.847  1.00  0.00    -0.023 CG0
ATOM      9  G   UNL     1      79.246   0.097  64.994  1.00  0.00     0.000 G0
ENDBRANCH   5   6
ENDBRANCH   4   5
ENDBRANCH   2   4
BRANCH   1  10
ATOM     10  C   UNL     1      81.239   2.231  66.757  1.00  0.00     0.111 C 
BRANCH  10  11
ATOM     11  C   UNL     1      79.891   2.362  66.096  1.00  0.00     0.163 C 
ATOM     12  O   UNL     1      79.026   3.091  66.650  1.00  0.00    -0.294 OA
BRANCH  11  13
ATOM     13  C   UNL     1      79.533   1.615  64.853  1.00  0.00    -0.002 C 
ATOM     14  C   UNL     1      79.394   2.269  63.661  1.00  0.00    -0.069 C 
ATOM     15  C   UNL     1      79.750   3.733  63.523  1.00  0.00     0.039 C 
ATOM     16  C   UNL     1      78.878   1.571  62.421  1.00  0.00     0.039 C 
BRANCH  13  17
ATOM     17  C   UNL     1      79.239   0.130  64.995  1.00  0.00     0.066 CG0
ATOM     18  G   UNL     1      80.484  -0.721  64.845  1.00  0.00     0.000 G0
ENDBRANCH  13  17
ENDBRANCH  11  13
ENDBRANCH  10  11
ENDBRANCH   1  10
TORSDOF 0
ENDMDL
MODEL 3
REMARK VINA RESULT:    -2.202      5.938      8.736
REMARK INTER + INTRA:          -2.932
REMARK INTER:                  -3.154
REMARK INTRA:                   0.222
REMARK UNBOUND:                 0.171
REMARK SMILES CC1=CCC(=C(C)C)C(=O)CC(C)=CCC1
REMARK SMILES IDX 12 1 14 2 13 3 15 4 16 5 2 6 1 7 3 8 11 10 9 11 10 12 5 13
REMARK SMILES IDX 6 14 7 15 8 16 4 17
REMARK H PARENT
REMARK Flexibility Score: 60.00
ROOT
ATOM      1  C   UNL     1      79.619   1.227  63.675  1.00  0.00    -0.070 C 
ATOM      2  C   UNL     1      79.587   2.522  64.058  1.00  0.00    -0.027 C 
ATOM      3  C   UNL     1      78.900   0.849  62.404  1.00  0.00     0.039 C 
ENDROOT
BRANCH   2   4
ATOM      4  C   UNL     1      80.161   3.078  65.343  1.00  0.00     0.032 C 
BRANCH   4   5
ATOM      5  C   UNL     1      79.343   2.756  66.611  1.00  0.00     0.034 C 
BRANCH   5   6
ATOM      6  C   UNL     1      80.194   2.238  67.756  1.00  0.00    -0.077 C 
ATOM      7  C   UNL     1      81.265   3.149  68.300  1.00  0.00     0.039 C 
ATOM      8  C   UNL     1      80.101   0.989  68.273  1.00  0.00    -0.023 CG0
ATOM      9  G   UNL     1      79.097  -0.083  67.900  1.00  0.00     0.000 G0
ENDBRANCH   5   6
ENDBRANCH   4   5
ENDBRANCH   2   4
BRANCH   1  10
ATOM     10  C   UNL     1      80.259   0.131  64.502  1.00  0.00     0.111 C 
BRANCH  10  11
ATOM     11  C   UNL     1      79.255  -0.553  65.393  1.00  0.00     0.163 C 
ATOM     12  O   UNL     1      78.086  -0.718  64.952  1.00  0.00    -0.294 OA
BRANCH  11  13
ATOM     13  C   UNL     1      79.581  -0.980  66.786  1.00  0.00    -0.002 C 
ATOM     14  C   UNL     1      80.209  -2.172  67.023  1.00  0.00    -0.069 C 
ATOM     15  C   UNL     1      80.737  -3.019  65.886  1.00  0.00     0.039 C 
ATOM     16  C   UNL     1      80.409  -2.706  68.424  1.00  0.00     0.039 C 
BRANCH  13  17
ATOM     17  C   UNL     1      79.099  -0.087  67.918  1.00  0.00     0.066 CG0
ATOM     18  G   UNL     1      80.090   1.010  68.248  1.00  0.00     0.000 G0
ENDBRANCH  13  17
ENDBRANCH  11  13
ENDBRANCH  10  11
ENDBRANCH   1  10
TORSDOF 0
ENDMDL
MODEL 4
REMARK VINA RESULT:    -2.181      1.573      4.171
REMARK INTER + INTRA:          -2.904
REMARK INTER:                  -3.122
REMARK INTRA:                   0.218
REMARK UNBOUND:                 0.171
REMARK SMILES CC1=CCC(=C(C)C)C(=O)CC(C)=CCC1
REMARK SMILES IDX 12 1 14 2 13 3 15 4 16 5 2 6 1 7 3 8 11 10 9 11 10 12 5 13
REMARK SMILES IDX 6 14 7 15 8 16 4 17
REMARK H PARENT
REMARK Flexibility Score: 60.00
ROOT
ATOM      1  C   UNL     1      76.817   7.120  61.590  1.00  0.00    -0.070 C 
ATOM      2  C   UNL     1      77.301   7.046  60.331  1.00  0.00    -0.027 C 
ATOM      3  C   UNL     1      76.468   8.482  62.134  1.00  0.00     0.039 C 
ENDROOT
BRANCH   2   4
ATOM      4  C   UNL     1      77.795   5.791  59.646  1.00  0.00     0.032 C 
BRANCH   4   5
ATOM      5  C   UNL     1      79.313   5.539  59.770  1.00  0.00     0.034 C 
BRANCH   5   6
ATOM      6  C   UNL     1      79.648   4.148  60.277  1.00  0.00    -0.077 C 
ATOM      7  C   UNL     1      79.638   3.018  59.279  1.00  0.00     0.039 C 
ATOM      8  C   UNL     1      79.889   3.845  61.576  1.00  0.00    -0.023 CG0
ATOM      9  G   UNL     1      79.968   4.811  62.740  1.00  0.00     0.000 G0
ENDBRANCH   5   6
ENDBRANCH   4   5
ENDBRANCH   2   4
BRANCH   1  10
ATOM     10  C   UNL     1      76.694   5.918  62.505  1.00  0.00     0.111 C 
BRANCH  10  11
ATOM     11  C   UNL     1      77.788   5.894  63.541  1.00  0.00     0.163 C 
ATOM     12  O   UNL     1      77.900   6.887  64.309  1.00  0.00    -0.294 OA
BRANCH  11  13
ATOM     13  C   UNL     1      78.768   4.772  63.646  1.00  0.00    -0.002 C 
ATOM     14  C   UNL     1      78.610   3.792  64.586  1.00  0.00    -0.069 C 
ATOM     15  C   UNL     1      77.365   3.720  65.442  1.00  0.00     0.039 C 
ATOM     16  C   UNL     1      79.665   2.733  64.823  1.00  0.00     0.039 C 
BRANCH  13  17
ATOM     17  C   UNL     1      79.984   4.824  62.735  1.00  0.00     0.066 CG0
ATOM     18  G   UNL     1      79.878   3.854  61.577  1.00  0.00     0.000 G0
ENDBRANCH  13  17
ENDBRANCH  11  13
ENDBRANCH  10  11
ENDBRANCH   1  10
TORSDOF 0
ENDMDL
MODEL 5
REMARK VINA RESULT:    -2.041     17.775     18.890
REMARK INTER + INTRA:          -2.706
REMARK INTER:                  -3.198
REMARK INTRA:                   0.492
REMARK UNBOUND:                 0.171
REMARK SMILES CC1=CCC(=C(C)C)C(=O)CC(C)=CCC1
REMARK SMILES IDX 12 1 14 2 13 3 15 4 16 5 2 6 1 7 3 8 11 10 9 11 10 12 5 13
REMARK SMILES IDX 6 14 7 15 8 16 4 17
REMARK H PARENT
REMARK Flexibility Score: 60.00
ROOT
ATOM      1  C   UNL     1      69.448  -9.451  57.067  1.00  0.00    -0.070 C 
ATOM      2  C   UNL     1      68.552  -8.471  57.321  1.00  0.00    -0.027 C 
ATOM      3  C   UNL     1      69.469 -10.644  57.989  1.00  0.00     0.039 C 
ENDROOT
BRANCH   2   4
ATOM      4  C   UNL     1      68.442  -7.160  56.574  1.00  0.00     0.032 C 
BRANCH   4   5
ATOM      5  C   UNL     1      67.065  -6.894  55.931  1.00  0.00     0.034 C 
BRANCH   5   6
ATOM      6  C   UNL     1      66.654  -7.962  54.933  1.00  0.00    -0.077 C 
ATOM      7  C   UNL     1      65.349  -8.678  55.171  1.00  0.00     0.039 C 
ATOM      8  C   UNL     1      67.416  -8.361  53.885  1.00  0.00    -0.023 CG0
ATOM      9  G   UNL     1      68.743  -7.779  53.445  1.00  0.00     0.000 G0
ENDBRANCH   5   6
ENDBRANCH   4   5
ENDBRANCH   2   4
BRANCH   1  10
ATOM     10  C   UNL     1      70.484  -9.365  55.965  1.00  0.00     0.111 C 
BRANCH  10  11
ATOM     11  C   UNL     1      69.911  -9.764  54.630  1.00  0.00     0.163 C 
ATOM     12  O   UNL     1      69.509 -10.950  54.487  1.00  0.00    -0.294 OA
BRANCH  11  13
ATOM     13  C   UNL     1      69.861  -8.828  53.468  1.00  0.00    -0.002 C 
ATOM     14  C   UNL     1      70.827  -8.862  52.501  1.00  0.00    -0.069 C 
ATOM     15  C   UNL     1      71.884  -9.943  52.486  1.00  0.00     0.039 C 
ATOM     16  C   UNL     1      70.893  -7.826  51.399  1.00  0.00     0.039 C 
BRANCH  13  17
ATOM     17  C   UNL     1      68.755  -7.785  53.463  1.00  0.00     0.066 CG0
ATOM     18  G   UNL     1      67.415  -8.363  53.872  1.00  0.00     0.000 G0
ENDBRANCH  13  17
ENDBRANCH  11  13
ENDBRANCH  10  11
ENDBRANCH   1  10
TORSDOF 0
ENDMDL
MODEL 6
REMARK VINA RESULT:    -1.943     13.198     15.934
REMARK INTER + INTRA:          -2.568
REMARK INTER:                  -3.122
REMARK INTRA:                   0.554
REMARK UNBOUND:                 0.171
REMARK SMILES CC1=CCC(=C(C)C)C(=O)CC(C)=CCC1
REMARK SMILES IDX 12 1 14 2 13 3 15 4 16 5 2 6 1 7 3 8 11 10 9 11 10 12 5 13
REMARK SMILES IDX 6 14 7 15 8 16 4 17
REMARK H PARENT
REMARK Flexibility Score: 60.00
ROOT
ATOM      1  C   UNL     1      71.320  -8.750  65.712  1.00  0.00    -0.070 C 
ATOM      2  C   UNL     1      70.288  -8.750  66.585  1.00  0.00    -0.027 C 
ATOM      3  C   UNL     1      71.047  -8.311  64.295  1.00  0.00     0.039 C 
ENDROOT
BRANCH   2   4
ATOM      4  C   UNL     1      70.339  -9.244  68.014  1.00  0.00     0.032 C 
BRANCH   4   5
ATOM      5  C   UNL     1      70.315  -8.133  69.085  1.00  0.00     0.034 C 
BRANCH   5   6
ATOM      6  C   UNL     1      70.164  -6.741  68.498  1.00  0.00    -0.077 C 
ATOM      7  C   UNL     1      68.773  -6.166  68.411  1.00  0.00     0.039 C 
ATOM      8  C   UNL     1      71.185  -6.012  67.986  1.00  0.00    -0.023 CG0
ATOM      9  G   UNL     1      72.656  -6.377  67.981  1.00  0.00     0.000 G0
ENDBRANCH   5   6
ENDBRANCH   4   5
ENDBRANCH   2   4
BRANCH   1  10
ATOM     10  C   UNL     1      72.705  -9.253  66.063  1.00  0.00     0.111 C 
BRANCH  10  11
ATOM     11  C   UNL     1      73.648  -8.118  66.369  1.00  0.00     0.163 C 
ATOM     12  O   UNL     1      74.874  -8.382  66.496  1.00  0.00    -0.294 OA
BRANCH  11  13
ATOM     13  C   UNL     1      73.174  -6.718  66.583  1.00  0.00    -0.002 C 
ATOM     14  C   UNL     1      73.285  -5.783  65.592  1.00  0.00    -0.069 C 
ATOM     15  C   UNL     1      73.741  -6.165  64.201  1.00  0.00     0.039 C 
ATOM     16  C   UNL     1      72.963  -4.324  65.829  1.00  0.00     0.039 C 
BRANCH  13  17
ATOM     17  C   UNL     1      72.660  -6.363  67.969  1.00  0.00     0.066 CG0
ATOM     18  G   UNL     1      71.180  -6.035  67.968  1.00  0.00     0.000 G0
ENDBRANCH  13  17
ENDBRANCH  11  13
ENDBRANCH  10  11
ENDBRANCH   1  10
TORSDOF 0
ENDMDL
MODEL 7
REMARK VINA RESULT:    -1.897      2.132      3.146
REMARK INTER + INTRA:          -2.502
REMARK INTER:                  -3.003
REMARK INTRA:                   0.501
REMARK UNBOUND:                 0.171
REMARK SMILES CC1=CCC(=C(C)C)C(=O)CC(C)=CCC1
REMARK SMILES IDX 12 1 14 2 13 3 15 4 16 5 2 6 1 7 3 8 11 10 9 11 10 12 5 13
REMARK SMILES IDX 6 14 7 15 8 16 4 17
REMARK H PARENT
REMARK Flexibility Score: 60.00
ROOT
ATOM      1  C   UNL     1      79.002   2.879  64.848  1.00  0.00    -0.070 C 
ATOM      2  C   UNL     1      79.948   3.185  63.933  1.00  0.00    -0.027 C 
ATOM      3  C   UNL     1      78.928   1.455  65.339  1.00  0.00     0.039 C 
ENDROOT
BRANCH   2   4
ATOM      4  C   UNL     1      80.119   4.525  63.252  1.00  0.00     0.032 C 
BRANCH   4   5
ATOM      5  C   UNL     1      80.079   4.477  61.710  1.00  0.00     0.034 C 
BRANCH   5   6
ATOM      6  C   UNL     1      78.732   4.042  61.160  1.00  0.00    -0.077 C 
ATOM      7  C   UNL     1      78.722   2.963  60.107  1.00  0.00     0.039 C 
ATOM      8  C   UNL     1      77.549   4.606  61.502  1.00  0.00    -0.023 CG0
ATOM      9  G   UNL     1      77.316   5.684  62.541  1.00  0.00     0.000 G0
ENDBRANCH   5   6
ENDBRANCH   4   5
ENDBRANCH   2   4
BRANCH   1  10
ATOM     10  C   UNL     1      77.962   3.870  65.331  1.00  0.00     0.111 C 
BRANCH  10  11
ATOM     11  C   UNL     1      76.800   3.967  64.376  1.00  0.00     0.163 C 
ATOM     12  O   UNL     1      76.156   2.915  64.116  1.00  0.00    -0.294 OA
BRANCH  11  13
ATOM     13  C   UNL     1      76.431   5.241  63.691  1.00  0.00    -0.002 C 
ATOM     14  C   UNL     1      75.293   5.916  64.036  1.00  0.00    -0.069 C 
ATOM     15  C   UNL     1      74.456   5.488  65.221  1.00  0.00     0.039 C 
ATOM     16  C   UNL     1      74.809   7.119  63.256  1.00  0.00     0.039 C 
BRANCH  13  17
ATOM     17  C   UNL     1      77.316   5.694  62.540  1.00  0.00     0.066 CG0
ATOM     18  G   UNL     1      77.526   4.603  61.511  1.00  0.00     0.000 G0
ENDBRANCH  13  17
ENDBRANCH  11  13
ENDBRANCH  10  11
ENDBRANCH   1  10
TORSDOF 0
ENDMDL
MODEL 8
REMARK VINA RESULT:    -1.892      7.206      9.252
REMARK INTER + INTRA:          -2.496
REMARK INTER:                  -2.674
REMARK INTRA:                   0.179
REMARK UNBOUND:                 0.171
REMARK SMILES CC1=CCC(=C(C)C)C(=O)CC(C)=CCC1
REMARK SMILES IDX 12 1 14 2 13 3 15 4 16 5 2 6 1 7 3 8 11 10 9 11 10 12 5 13
REMARK SMILES IDX 6 14 7 15 8 16 4 17
REMARK H PARENT
REMARK Flexibility Score: 60.00
ROOT
ATOM      1  C   UNL     1      80.920   1.331  67.961  1.00  0.00    -0.070 C 
ATOM      2  C   UNL     1      81.635   0.561  68.812  1.00  0.00    -0.027 C 
ATOM      3  C   UNL     1      80.530   2.714  68.418  1.00  0.00     0.039 C 
ENDROOT
BRANCH   2   4
ATOM      4  C   UNL     1      82.036  -0.878  68.577  1.00  0.00     0.032 C 
BRANCH   4   5
ATOM      5  C   UNL     1      80.989  -1.922  69.017  1.00  0.00     0.034 C 
BRANCH   5   6
ATOM      6  C   UNL     1      80.628  -2.907  67.919  1.00  0.00    -0.077 C 
ATOM      7  C   UNL     1      81.621  -3.995  67.600  1.00  0.00     0.039 C 
ATOM      8  C   UNL     1      79.506  -2.830  67.162  1.00  0.00    -0.023 CG0
ATOM      9  G   UNL     1      78.368  -1.840  67.312  1.00  0.00     0.000 G0
ENDBRANCH   5   6
ENDBRANCH   4   5
ENDBRANCH   2   4
BRANCH   1  10
ATOM     10  C   UNL     1      80.417   0.839  66.619  1.00  0.00     0.111 C 
BRANCH  10  11
ATOM     11  C   UNL     1      78.937   0.558  66.649  1.00  0.00     0.163 C 
ATOM     12  O   UNL     1      78.169   1.461  67.075  1.00  0.00    -0.294 OA
BRANCH  11  13
ATOM     13  C   UNL     1      78.365  -0.763  66.250  1.00  0.00    -0.002 C 
ATOM     14  C   UNL     1      77.809  -0.939  65.013  1.00  0.00    -0.069 C 
ATOM     15  C   UNL     1      77.893   0.139  63.955  1.00  0.00     0.039 C 
ATOM     16  C   UNL     1      77.081  -2.211  64.637  1.00  0.00     0.039 C 
BRANCH  13  17
ATOM     17  C   UNL     1      78.343  -1.858  67.304  1.00  0.00     0.066 CG0
ATOM     18  G   UNL     1      79.508  -2.817  67.163  1.00  0.00     0.000 G0
ENDBRANCH  13  17
ENDBRANCH  11  13
ENDBRANCH  10  11
ENDBRANCH   1  10
TORSDOF 0
ENDMDL
MODEL 9
REMARK VINA RESULT:    -1.842      2.339      4.222
REMARK INTER + INTRA:          -2.426
REMARK INTER:                  -2.901
REMARK INTRA:                   0.475
REMARK UNBOUND:                 0.171
REMARK SMILES CC1=CCC(=C(C)C)C(=O)CC(C)=CCC1
REMARK SMILES IDX 12 1 14 2 13 3 15 4 16 5 2 6 1 7 3 8 11 10 9 11 10 12 5 13
REMARK SMILES IDX 6 14 7 15 8 16 4 17
REMARK H PARENT
REMARK Flexibility Score: 60.00
ROOT
ATOM      1  C   UNL     1      75.665   4.132  64.528  1.00  0.00    -0.070 C 
ATOM      2  C   UNL     1      75.954   3.502  65.689  1.00  0.00    -0.027 C 
ATOM      3  C   UNL     1      74.545   5.141  64.532  1.00  0.00     0.039 C 
ENDROOT
BRANCH   2   4
ATOM      4  C   UNL     1      76.971   2.396  65.865  1.00  0.00     0.032 C 
BRANCH   4   5
ATOM      5  C   UNL     1      78.400   2.877  66.193  1.00  0.00     0.034 C 
BRANCH   5   6
ATOM      6  C   UNL     1      79.424   2.465  65.149  1.00  0.00    -0.077 C 
ATOM      7  C   UNL     1      79.986   1.069  65.232  1.00  0.00     0.039 C 
ATOM      8  C   UNL     1      79.914   3.291  64.193  1.00  0.00    -0.023 CG0
ATOM      9  G   UNL     1      79.488   4.718  63.910  1.00  0.00     0.000 G0
ENDBRANCH   5   6
ENDBRANCH   4   5
ENDBRANCH   2   4
BRANCH   1  10
ATOM     10  C   UNL     1      76.347   3.808  63.215  1.00  0.00     0.111 C 
BRANCH  10  11
ATOM     11  C   UNL     1      77.202   4.952  62.735  1.00  0.00     0.163 C 
ATOM     12  O   UNL     1      76.627   6.014  62.376  1.00  0.00    -0.294 OA
BRANCH  11  13
ATOM     13  C   UNL     1      78.687   4.846  62.614  1.00  0.00    -0.002 C 
ATOM     14  C   UNL     1      79.286   4.775  61.387  1.00  0.00    -0.069 C 
ATOM     15  C   UNL     1      78.489   4.960  60.114  1.00  0.00     0.039 C 
ATOM     16  C   UNL     1      80.767   4.509  61.233  1.00  0.00     0.039 C 
BRANCH  13  17
ATOM     17  C   UNL     1      79.483   4.724  63.904  1.00  0.00     0.066 CG0
ATOM     18  G   UNL     1      79.910   3.297  64.185  1.00  0.00     0.000 G0
ENDBRANCH  13  17
ENDBRANCH  11  13
ENDBRANCH  10  11
ENDBRANCH   1  10
TORSDOF 0
ENDMDL
