MODEL 1
REMARK VINA RESULT:    -5.968      0.000      0.000
REMARK INTER + INTRA:          -7.808
REMARK INTER:                  -7.364
REMARK INTRA:                  -0.444
REMARK UNBOUND:                -0.444
REMARK SMILES CC(C)=CCC[C@@H](C)c1ccc(C)cc1
REMARK SMILES IDX 6 1 7 2 8 3 9 4 13 5 12 6 11 7 14 8 10 9 15 10 5 11 4 12
REMARK SMILES IDX 2 13 1 14 3 15
REMARK H PARENT
REMARK Flexibility Score: inf
ROOT
ATOM      1  C   UNL     1     -14.066 -23.214 -40.702  1.00  0.00     0.012 C 
ENDROOT
BRANCH   1   2
ATOM      2  C   UNL     1     -14.980 -21.969 -40.652  1.00  0.00     0.016 C 
ATOM      3  C   UNL     1     -16.388 -22.255 -41.199  1.00  0.00     0.013 C 
BRANCH   2   4
ATOM      4  C   UNL     1     -15.064 -21.430 -39.235  1.00  0.00    -0.045 A 
ATOM      5  C   UNL     1     -15.319 -19.929 -35.193  1.00  0.00     0.044 C 
ATOM      6  C   UNL     1     -15.252 -20.430 -36.604  1.00  0.00    -0.051 A 
ATOM      7  C   UNL     1     -14.326 -19.883 -37.505  1.00  0.00     0.004 A 
ATOM      8  C   UNL     1     -16.066 -21.494 -37.017  1.00  0.00     0.004 A 
ATOM      9  C   UNL     1     -14.236 -20.374 -38.811  1.00  0.00     0.004 A 
ATOM     10  C   UNL     1     -15.979 -21.986 -38.323  1.00  0.00     0.004 A 
ENDBRANCH   2   4
ENDBRANCH   1   2
BRANCH   1  11
ATOM     11  C   UNL     1     -13.820 -23.710 -42.134  1.00  0.00     0.028 C 
BRANCH  11  12
ATOM     12  C   UNL     1     -12.637 -24.644 -42.179  1.00  0.00    -0.028 C 
ATOM     13  C   UNL     1     -11.628 -24.557 -43.075  1.00  0.00    -0.080 C 
ATOM     14  C   UNL     1     -11.624 -23.522 -44.176  1.00  0.00     0.039 C 
ATOM     15  C   UNL     1     -10.488 -25.537 -42.973  1.00  0.00     0.039 C 
ENDBRANCH  11  12
ENDBRANCH   1  11
TORSDOF 4
ENDMDL
MODEL 2
REMARK VINA RESULT:    -5.784      1.468      6.342
REMARK INTER + INTRA:          -7.581
REMARK INTER:                  -6.728
REMARK INTRA:                  -0.853
REMARK UNBOUND:                -0.444
REMARK SMILES CC(C)=CCC[C@@H](C)c1ccc(C)cc1
REMARK SMILES IDX 6 1 7 2 8 3 9 4 13 5 12 6 11 7 14 8 10 9 15 10 5 11 4 12
REMARK SMILES IDX 2 13 1 14 3 15
REMARK H PARENT
REMARK Flexibility Score: inf
ROOT
ATOM      1  C   UNL     1     -16.519 -22.148 -40.305  1.00  0.00     0.012 C 
ENDROOT
BRANCH   1   2
ATOM      2  C   UNL     1     -15.254 -22.928 -39.882  1.00  0.00     0.016 C 
ATOM      3  C   UNL     1     -15.590 -24.188 -39.067  1.00  0.00     0.013 C 
BRANCH   2   4
ATOM      4  C   UNL     1     -14.424 -23.292 -41.099  1.00  0.00    -0.045 A 
ATOM      5  C   UNL     1     -12.042 -24.353 -44.543  1.00  0.00     0.044 C 
ATOM      6  C   UNL     1     -12.855 -23.958 -43.347  1.00  0.00    -0.051 A 
ATOM      7  C   UNL     1     -14.105 -23.344 -43.513  1.00  0.00     0.004 A 
ATOM      8  C   UNL     1     -12.403 -24.258 -42.054  1.00  0.00     0.004 A 
ATOM      9  C   UNL     1     -14.881 -23.008 -42.400  1.00  0.00     0.004 A 
ATOM     10  C   UNL     1     -13.176 -23.922 -40.939  1.00  0.00     0.004 A 
ENDBRANCH   2   4
ENDBRANCH   1   2
BRANCH   1  11
ATOM     11  C   UNL     1     -16.835 -20.976 -39.365  1.00  0.00     0.028 C 
BRANCH  11  12
ATOM     12  C   UNL     1     -15.929 -19.804 -39.651  1.00  0.00    -0.028 C 
ATOM     13  C   UNL     1     -14.905 -19.419 -38.858  1.00  0.00    -0.080 C 
ATOM     14  C   UNL     1     -14.602 -20.112 -37.550  1.00  0.00     0.039 C 
ATOM     15  C   UNL     1     -14.058 -18.251 -39.293  1.00  0.00     0.039 C 
ENDBRANCH  11  12
ENDBRANCH   1  11
TORSDOF 4
ENDMDL
MODEL 3
REMARK VINA RESULT:    -5.660      1.337      6.247
REMARK INTER + INTRA:          -7.427
REMARK INTER:                  -6.750
REMARK INTRA:                  -0.677
REMARK UNBOUND:                -0.444
REMARK SMILES CC(C)=CCC[C@@H](C)c1ccc(C)cc1
REMARK SMILES IDX 6 1 7 2 8 3 9 4 13 5 12 6 11 7 14 8 10 9 15 10 5 11 4 12
REMARK SMILES IDX 2 13 1 14 3 15
REMARK H PARENT
REMARK Flexibility Score: inf
ROOT
ATOM      1  C   UNL     1     -15.273 -23.287 -40.931  1.00  0.00     0.012 C 
ENDROOT
BRANCH   1   2
ATOM      2  C   UNL     1     -14.712 -23.863 -42.251  1.00  0.00     0.016 C 
ATOM      3  C   UNL     1     -14.794 -22.855 -43.409  1.00  0.00     0.013 C 
BRANCH   2   4
ATOM      4  C   UNL     1     -13.281 -24.332 -42.058  1.00  0.00    -0.045 A 
ATOM      5  C   UNL     1      -9.220 -25.687 -41.486  1.00  0.00     0.044 C 
ATOM      6  C   UNL     1     -10.622 -25.190 -41.672  1.00  0.00    -0.051 A 
ATOM      7  C   UNL     1     -10.993 -24.549 -42.863  1.00  0.00     0.004 A 
ATOM      8  C   UNL     1     -11.592 -25.420 -40.685  1.00  0.00     0.004 A 
ATOM      9  C   UNL     1     -12.309 -24.118 -43.053  1.00  0.00     0.004 A 
ATOM     10  C   UNL     1     -12.908 -24.989 -40.872  1.00  0.00     0.004 A 
ENDBRANCH   2   4
ENDBRANCH   1   2
BRANCH   1  11
ATOM     11  C   UNL     1     -15.003 -21.783 -40.780  1.00  0.00     0.028 C 
BRANCH  11  12
ATOM     12  C   UNL     1     -14.605 -21.452 -39.363  1.00  0.00    -0.028 C 
ATOM     13  C   UNL     1     -14.529 -20.198 -38.864  1.00  0.00    -0.080 C 
ATOM     14  C   UNL     1     -14.788 -18.980 -39.720  1.00  0.00     0.039 C 
ATOM     15  C   UNL     1     -14.157 -20.022 -37.415  1.00  0.00     0.039 C 
ENDBRANCH  11  12
ENDBRANCH   1  11
TORSDOF 4
ENDMDL
MODEL 4
REMARK VINA RESULT:    -5.608      4.348      7.098
REMARK INTER + INTRA:          -7.364
REMARK INTER:                  -6.585
REMARK INTRA:                  -0.779
REMARK UNBOUND:                -0.444
REMARK SMILES CC(C)=CCC[C@@H](C)c1ccc(C)cc1
REMARK SMILES IDX 6 1 7 2 8 3 9 4 13 5 12 6 11 7 14 8 10 9 15 10 5 11 4 12
REMARK SMILES IDX 2 13 1 14 3 15
REMARK H PARENT
REMARK Flexibility Score: inf
ROOT
ATOM      1  C   UNL     1     -10.853 -26.898 -39.646  1.00  0.00     0.012 C 
ENDROOT
BRANCH   1   2
ATOM      2  C   UNL     1     -10.151 -25.718 -40.355  1.00  0.00     0.016 C 
ATOM      3  C   UNL     1      -8.843 -26.145 -41.041  1.00  0.00     0.013 C 
BRANCH   2   4
ATOM      4  C   UNL     1     -11.087 -25.071 -41.361  1.00  0.00    -0.045 A 
ATOM      5  C   UNL     1     -13.771 -23.220 -44.194  1.00  0.00     0.044 C 
ATOM      6  C   UNL     1     -12.849 -23.890 -43.220  1.00  0.00    -0.051 A 
ATOM      7  C   UNL     1     -11.527 -24.185 -43.586  1.00  0.00     0.004 A 
ATOM      8  C   UNL     1     -13.278 -24.166 -41.914  1.00  0.00     0.004 A 
ATOM      9  C   UNL     1     -10.655 -24.776 -42.667  1.00  0.00     0.004 A 
ATOM     10  C   UNL     1     -12.408 -24.758 -40.994  1.00  0.00     0.004 A 
ENDBRANCH   2   4
ENDBRANCH   1   2
BRANCH   1  11
ATOM     11  C   UNL     1      -9.971 -27.554 -38.575  1.00  0.00     0.028 C 
BRANCH  11  12
ATOM     12  C   UNL     1     -10.204 -26.917 -37.228  1.00  0.00    -0.028 C 
ATOM     13  C   UNL     1      -9.317 -26.111 -36.601  1.00  0.00    -0.080 C 
ATOM     14  C   UNL     1      -7.955 -25.814 -37.184  1.00  0.00     0.039 C 
ATOM     15  C   UNL     1      -9.704 -25.511 -35.274  1.00  0.00     0.039 C 
ENDBRANCH  11  12
ENDBRANCH   1  11
TORSDOF 4
ENDMDL
MODEL 5
REMARK VINA RESULT:    -5.595      2.716      6.125
REMARK INTER + INTRA:          -7.348
REMARK INTER:                  -6.062
REMARK INTRA:                  -1.287
REMARK UNBOUND:                -0.444
REMARK SMILES CC(C)=CCC[C@@H](C)c1ccc(C)cc1
REMARK SMILES IDX 6 1 7 2 8 3 9 4 13 5 12 6 11 7 14 8 10 9 15 10 5 11 4 12
REMARK SMILES IDX 2 13 1 14 3 15
REMARK H PARENT
REMARK Flexibility Score: inf
ROOT
ATOM      1  C   UNL     1     -14.950 -19.799 -37.105  1.00  0.00     0.012 C 
ENDROOT
BRANCH   1   2
ATOM      2  C   UNL     1     -15.271 -19.358 -38.551  1.00  0.00     0.016 C 
ATOM      3  C   UNL     1     -14.141 -18.521 -39.171  1.00  0.00     0.013 C 
BRANCH   2   4
ATOM      4  C   UNL     1     -15.570 -20.567 -39.420  1.00  0.00    -0.045 A 
ATOM      5  C   UNL     1     -16.447 -23.988 -41.906  1.00  0.00     0.044 C 
ATOM      6  C   UNL     1     -16.152 -22.816 -41.019  1.00  0.00    -0.051 A 
ATOM      7  C   UNL     1     -14.879 -22.662 -40.451  1.00  0.00     0.004 A 
ATOM      8  C   UNL     1     -17.125 -21.830 -40.802  1.00  0.00     0.004 A 
ATOM      9  C   UNL     1     -14.591 -21.551 -39.654  1.00  0.00     0.004 A 
ATOM     10  C   UNL     1     -16.840 -20.718 -40.004  1.00  0.00     0.004 A 
ENDBRANCH   2   4
ENDBRANCH   1   2
BRANCH   1  11
ATOM     11  C   UNL     1     -16.202 -20.219 -36.322  1.00  0.00     0.028 C 
BRANCH  11  12
ATOM     12  C   UNL     1     -15.911 -21.416 -35.452  1.00  0.00    -0.028 C 
ATOM     13  C   UNL     1     -16.226 -22.691 -35.777  1.00  0.00    -0.080 C 
ATOM     14  C   UNL     1     -16.967 -23.032 -37.049  1.00  0.00     0.039 C 
ATOM     15  C   UNL     1     -15.836 -23.792 -34.826  1.00  0.00     0.039 C 
ENDBRANCH  11  12
ENDBRANCH   1  11
TORSDOF 4
ENDMDL
MODEL 6
REMARK VINA RESULT:    -5.592      1.125      6.788
REMARK INTER + INTRA:          -7.344
REMARK INTER:                  -6.652
REMARK INTRA:                  -0.693
REMARK UNBOUND:                -0.444
REMARK SMILES CC(C)=CCC[C@@H](C)c1ccc(C)cc1
REMARK SMILES IDX 6 1 7 2 8 3 9 4 13 5 12 6 11 7 14 8 10 9 15 10 5 11 4 12
REMARK SMILES IDX 2 13 1 14 3 15
REMARK H PARENT
REMARK Flexibility Score: inf
ROOT
ATOM      1  C   UNL     1     -14.419 -21.422 -39.508  1.00  0.00     0.012 C 
ENDROOT
BRANCH   1   2
ATOM      2  C   UNL     1     -15.236 -22.510 -40.240  1.00  0.00     0.016 C 
ATOM      3  C   UNL     1     -16.599 -21.989 -40.725  1.00  0.00     0.013 C 
BRANCH   2   4
ATOM      4  C   UNL     1     -14.443 -23.074 -41.405  1.00  0.00    -0.045 A 
ATOM      5  C   UNL     1     -12.168 -24.703 -44.696  1.00  0.00     0.044 C 
ATOM      6  C   UNL     1     -12.942 -24.111 -43.556  1.00  0.00    -0.051 A 
ATOM      7  C   UNL     1     -14.148 -23.437 -43.795  1.00  0.00     0.004 A 
ATOM      8  C   UNL     1     -12.502 -24.285 -42.236  1.00  0.00     0.004 A 
ATOM      9  C   UNL     1     -14.890 -22.917 -42.730  1.00  0.00     0.004 A 
ATOM     10  C   UNL     1     -13.241 -23.766 -41.170  1.00  0.00     0.004 A 
ENDBRANCH   2   4
ENDBRANCH   1   2
BRANCH   1  11
ATOM     11  C   UNL     1     -15.293 -20.266 -39.001  1.00  0.00     0.028 C 
BRANCH  11  12
ATOM     12  C   UNL     1     -15.007 -19.978 -37.548  1.00  0.00    -0.028 C 
ATOM     13  C   UNL     1     -15.648 -20.565 -36.513  1.00  0.00    -0.080 C 
ATOM     14  C   UNL     1     -16.777 -21.547 -36.724  1.00  0.00     0.039 C 
ATOM     15  C   UNL     1     -15.227 -20.208 -35.111  1.00  0.00     0.039 C 
ENDBRANCH  11  12
ENDBRANCH   1  11
TORSDOF 4
ENDMDL
MODEL 7
REMARK VINA RESULT:    -5.327      3.642      6.101
REMARK INTER + INTRA:          -7.017
REMARK INTER:                  -6.158
REMARK INTRA:                  -0.859
REMARK UNBOUND:                -0.444
REMARK SMILES CC(C)=CCC[C@@H](C)c1ccc(C)cc1
REMARK SMILES IDX 6 1 7 2 8 3 9 4 13 5 12 6 11 7 14 8 10 9 15 10 5 11 4 12
REMARK SMILES IDX 2 13 1 14 3 15
REMARK H PARENT
REMARK Flexibility Score: inf
ROOT
ATOM      1  C   UNL     1      -9.636 -24.951 -41.268  1.00  0.00     0.012 C 
ENDROOT
BRANCH   1   2
ATOM      2  C   UNL     1     -10.421 -25.170 -42.581  1.00  0.00     0.016 C 
ATOM      3  C   UNL     1     -10.534 -26.658 -42.952  1.00  0.00     0.013 C 
BRANCH   2   4
ATOM      4  C   UNL     1     -11.801 -24.544 -42.484  1.00  0.00    -0.045 A 
ATOM      5  C   UNL     1     -15.721 -22.758 -42.172  1.00  0.00     0.044 C 
ATOM      6  C   UNL     1     -14.373 -23.406 -42.284  1.00  0.00    -0.051 A 
ATOM      7  C   UNL     1     -13.734 -23.495 -43.529  1.00  0.00     0.004 A 
ATOM      8  C   UNL     1     -13.712 -23.866 -41.137  1.00  0.00     0.004 A 
ATOM      9  C   UNL     1     -12.461 -24.065 -43.630  1.00  0.00     0.004 A 
ATOM     10  C   UNL     1     -12.440 -24.437 -41.235  1.00  0.00     0.004 A 
ENDBRANCH   2   4
ENDBRANCH   1   2
BRANCH   1  11
ATOM     11  C   UNL     1      -9.082 -26.259 -40.684  1.00  0.00     0.028 C 
BRANCH  11  12
ATOM     12  C   UNL     1      -8.887 -26.136 -39.193  1.00  0.00    -0.028 C 
ATOM     13  C   UNL     1      -9.799 -26.515 -38.270  1.00  0.00    -0.080 C 
ATOM     14  C   UNL     1     -11.154 -27.057 -38.660  1.00  0.00     0.039 C 
ATOM     15  C   UNL     1      -9.448 -26.371 -36.812  1.00  0.00     0.039 C 
ENDBRANCH  11  12
ENDBRANCH   1  11
TORSDOF 4
ENDMDL
MODEL 8
REMARK VINA RESULT:    -5.301      5.589      6.381
REMARK INTER + INTRA:          -6.985
REMARK INTER:                  -6.472
REMARK INTRA:                  -0.513
REMARK UNBOUND:                -0.444
REMARK SMILES CC(C)=CCC[C@@H](C)c1ccc(C)cc1
REMARK SMILES IDX 6 1 7 2 8 3 9 4 13 5 12 6 11 7 14 8 10 9 15 10 5 11 4 12
REMARK SMILES IDX 2 13 1 14 3 15
REMARK H PARENT
REMARK Flexibility Score: inf
ROOT
ATOM      1  C   UNL     1     -10.727 -25.803 -40.830  1.00  0.00     0.012 C 
ENDROOT
BRANCH   1   2
ATOM      2  C   UNL     1      -9.561 -26.586 -40.185  1.00  0.00     0.016 C 
ATOM      3  C   UNL     1      -8.191 -26.140 -40.721  1.00  0.00     0.013 C 
BRANCH   2   4
ATOM      4  C   UNL     1      -9.606 -26.453 -38.674  1.00  0.00    -0.045 A 
ATOM      5  C   UNL     1      -9.758 -26.096 -34.372  1.00  0.00     0.044 C 
ATOM      6  C   UNL     1      -9.717 -26.192 -35.867  1.00  0.00    -0.051 A 
ATOM      7  C   UNL     1      -8.576 -25.782 -36.571  1.00  0.00     0.004 A 
ATOM      8  C   UNL     1     -10.793 -26.754 -36.570  1.00  0.00     0.004 A 
ATOM      9  C   UNL     1      -8.521 -25.905 -37.963  1.00  0.00     0.004 A 
ATOM     10  C   UNL     1     -10.742 -26.877 -37.961  1.00  0.00     0.004 A 
ENDBRANCH   2   4
ENDBRANCH   1   2
BRANCH   1  11
ATOM     11  C   UNL     1     -10.288 -24.994 -42.059  1.00  0.00     0.028 C 
BRANCH  11  12
ATOM     12  C   UNL     1     -10.781 -25.642 -43.329  1.00  0.00    -0.028 C 
ATOM     13  C   UNL     1     -11.428 -24.988 -44.319  1.00  0.00    -0.080 C 
ATOM     14  C   UNL     1     -11.774 -23.520 -44.215  1.00  0.00     0.039 C 
ATOM     15  C   UNL     1     -11.826 -25.759 -45.550  1.00  0.00     0.039 C 
ENDBRANCH  11  12
ENDBRANCH   1  11
TORSDOF 4
ENDMDL
MODEL 9
REMARK VINA RESULT:    -5.207      4.831      6.428
REMARK INTER + INTRA:          -6.869
REMARK INTER:                  -6.165
REMARK INTRA:                  -0.704
REMARK UNBOUND:                -0.444
REMARK SMILES CC(C)=CCC[C@@H](C)c1ccc(C)cc1
REMARK SMILES IDX 6 1 7 2 8 3 9 4 13 5 12 6 11 7 14 8 10 9 15 10 5 11 4 12
REMARK SMILES IDX 2 13 1 14 3 15
REMARK H PARENT
REMARK Flexibility Score: inf
ROOT
ATOM      1  C   UNL     1      -8.945 -26.614 -40.288  1.00  0.00     0.012 C 
ENDROOT
BRANCH   1   2
ATOM      2  C   UNL     1     -10.028 -27.322 -39.444  1.00  0.00     0.016 C 
ATOM      3  C   UNL     1      -9.859 -28.850 -39.441  1.00  0.00     0.013 C 
BRANCH   2   4
ATOM      4  C   UNL     1     -10.026 -26.788 -38.022  1.00  0.00    -0.045 A 
ATOM      5  C   UNL     1     -10.046 -25.293 -33.970  1.00  0.00     0.044 C 
ATOM      6  C   UNL     1     -10.051 -25.786 -35.386  1.00  0.00    -0.051 A 
ATOM      7  C   UNL     1      -8.920 -25.615 -36.198  1.00  0.00     0.004 A 
ATOM      8  C   UNL     1     -11.159 -26.481 -35.890  1.00  0.00     0.004 A 
ATOM      9  C   UNL     1      -8.908 -26.106 -37.507  1.00  0.00     0.004 A 
ATOM     10  C   UNL     1     -11.151 -26.972 -37.199  1.00  0.00     0.004 A 
ENDBRANCH   2   4
ENDBRANCH   1   2
BRANCH   1  11
ATOM     11  C   UNL     1      -9.529 -25.869 -41.496  1.00  0.00     0.028 C 
BRANCH  11  12
ATOM     12  C   UNL     1     -10.882 -25.289 -41.163  1.00  0.00    -0.028 C 
ATOM     13  C   UNL     1     -11.647 -24.588 -42.029  1.00  0.00    -0.080 C 
ATOM     14  C   UNL     1     -11.180 -24.267 -43.430  1.00  0.00     0.039 C 
ATOM     15  C   UNL     1     -12.997 -24.105 -41.568  1.00  0.00     0.039 C 
ENDBRANCH  11  12
ENDBRANCH   1  11
TORSDOF 4
ENDMDL
