MODEL 1
REMARK VINA RESULT:    -3.472      0.000      0.000
REMARK INTER + INTRA:          -3.911
REMARK INTER:                  -3.878
REMARK INTRA:                  -0.034
REMARK UNBOUND:                -0.034
REMARK SMILES CCCC(=O)[O-]
REMARK SMILES IDX 3 1 4 2 5 3 6 4 2 5 1 6
REMARK H PARENT
REMARK Flexibility Score: inf
ROOT
ATOM      1  C   UNL     1      46.695  -7.494  22.573  1.00  0.00     0.052 C 
ENDROOT
BRANCH   1   2
ATOM      2  C   UNL     1      46.363  -7.474  24.032  1.00  0.00     0.041 C 
ATOM      3  O   UNL     1      47.256  -7.220  24.882  1.00  0.00    -0.550 OA
ATOM      4  O   UNL     1      45.055  -7.688  24.450  1.00  0.00    -0.550 OA
ENDBRANCH   1   2
BRANCH   1   5
ATOM      5  C   UNL     1      48.106  -6.950  22.339  1.00  0.00     0.003 C 
ATOM      6  C   UNL     1      48.962  -7.952  21.569  1.00  0.00     0.004 C 
ENDBRANCH   1   5
TORSDOF 2
ENDMDL
MODEL 2
REMARK VINA RESULT:    -3.465      1.371      1.706
REMARK INTER + INTRA:          -3.903
REMARK INTER:                  -3.869
REMARK INTRA:                  -0.034
REMARK UNBOUND:                -0.034
REMARK SMILES CCCC(=O)[O-]
REMARK SMILES IDX 3 1 4 2 5 3 6 4 2 5 1 6
REMARK H PARENT
REMARK Flexibility Score: inf
ROOT
ATOM      1  C   UNL     1      48.130  -6.670  23.433  1.00  0.00     0.052 C 
ENDROOT
BRANCH   1   2
ATOM      2  C   UNL     1      48.187  -7.356  24.762  1.00  0.00     0.041 C 
ATOM      3  O   UNL     1      49.295  -7.704  25.248  1.00  0.00    -0.550 OA
ATOM      4  O   UNL     1      47.020  -7.568  25.486  1.00  0.00    -0.550 OA
ENDBRANCH   1   2
BRANCH   1   5
ATOM      5  C   UNL     1      47.785  -7.671  22.328  1.00  0.00     0.003 C 
ATOM      6  C   UNL     1      49.004  -7.975  21.461  1.00  0.00     0.004 C 
ENDBRANCH   1   5
TORSDOF 2
ENDMDL
MODEL 3
REMARK VINA RESULT:    -3.458      1.486      1.956
REMARK INTER + INTRA:          -3.896
REMARK INTER:                  -3.825
REMARK INTRA:                  -0.071
REMARK UNBOUND:                -0.034
REMARK SMILES CCCC(=O)[O-]
REMARK SMILES IDX 3 1 4 2 5 3 6 4 2 5 1 6
REMARK H PARENT
REMARK Flexibility Score: inf
ROOT
ATOM      1  C   UNL     1      48.601  -7.574  24.303  1.00  0.00     0.052 C 
ENDROOT
BRANCH   1   2
ATOM      2  C   UNL     1      47.622  -6.919  25.225  1.00  0.00     0.041 C 
ATOM      3  O   UNL     1      47.548  -5.663  25.282  1.00  0.00    -0.550 OA
ATOM      4  O   UNL     1      46.756  -7.694  25.987  1.00  0.00    -0.550 OA
ENDBRANCH   1   2
BRANCH   1   5
ATOM      5  C   UNL     1      48.329  -7.164  22.854  1.00  0.00     0.003 C 
ATOM      6  C   UNL     1      46.968  -7.669  22.384  1.00  0.00     0.004 C 
ENDBRANCH   1   5
TORSDOF 2
ENDMDL
MODEL 4
REMARK VINA RESULT:    -3.350      2.320      3.150
REMARK INTER + INTRA:          -3.776
REMARK INTER:                  -3.740
REMARK INTRA:                  -0.036
REMARK UNBOUND:                -0.034
REMARK SMILES CCCC(=O)[O-]
REMARK SMILES IDX 3 1 4 2 5 3 6 4 2 5 1 6
REMARK H PARENT
REMARK Flexibility Score: inf
ROOT
ATOM      1  C   UNL     1      48.531  -7.445  24.684  1.00  0.00     0.052 C 
ENDROOT
BRANCH   1   2
ATOM      2  C   UNL     1      48.926  -6.088  25.176  1.00  0.00     0.041 C 
ATOM      3  O   UNL     1      48.065  -5.175  25.275  1.00  0.00    -0.550 OA
ATOM      4  O   UNL     1      50.236  -5.845  25.572  1.00  0.00    -0.550 OA
ENDBRANCH   1   2
BRANCH   1   5
ATOM      5  C   UNL     1      48.587  -7.496  23.156  1.00  0.00     0.003 C 
ATOM      6  C   UNL     1      47.187  -7.608  22.557  1.00  0.00     0.004 C 
ENDBRANCH   1   5
TORSDOF 2
ENDMDL
MODEL 5
REMARK VINA RESULT:    -3.348      2.488      3.516
REMARK INTER + INTRA:          -3.773
REMARK INTER:                  -3.711
REMARK INTRA:                  -0.061
REMARK UNBOUND:                -0.034
REMARK SMILES CCCC(=O)[O-]
REMARK SMILES IDX 3 1 4 2 5 3 6 4 2 5 1 6
REMARK H PARENT
REMARK Flexibility Score: inf
ROOT
ATOM      1  C   UNL     1      46.612  -7.362  24.194  1.00  0.00     0.052 C 
ENDROOT
BRANCH   1   2
ATOM      2  C   UNL     1      47.823  -6.790  24.861  1.00  0.00     0.041 C 
ATOM      3  O   UNL     1      47.855  -5.572  25.178  1.00  0.00    -0.550 OA
ATOM      4  O   UNL     1      48.897  -7.613  25.178  1.00  0.00    -0.550 OA
ENDBRANCH   1   2
BRANCH   1   5
ATOM      5  C   UNL     1      45.395  -7.263  25.116  1.00  0.00     0.003 C 
ATOM      6  C   UNL     1      45.629  -8.020  26.420  1.00  0.00     0.004 C 
ENDBRANCH   1   5
TORSDOF 2
ENDMDL
MODEL 6
REMARK VINA RESULT:    -3.329      2.440      2.716
REMARK INTER + INTRA:          -3.752
REMARK INTER:                  -3.724
REMARK INTRA:                  -0.028
REMARK UNBOUND:                -0.034
REMARK SMILES CCCC(=O)[O-]
REMARK SMILES IDX 3 1 4 2 5 3 6 4 2 5 1 6
REMARK H PARENT
REMARK Flexibility Score: inf
ROOT
ATOM      1  C   UNL     1      48.841  -7.368  23.700  1.00  0.00     0.052 C 
ENDROOT
BRANCH   1   2
ATOM      2  C   UNL     1      47.351  -7.313  23.574  1.00  0.00     0.041 C 
ATOM      3  O   UNL     1      46.631  -7.210  24.601  1.00  0.00    -0.550 OA
ATOM      4  O   UNL     1      46.759  -7.326  22.317  1.00  0.00    -0.550 OA
ENDBRANCH   1   2
BRANCH   1   5
ATOM      5  C   UNL     1      49.252  -7.394  25.174  1.00  0.00     0.003 C 
ATOM      6  C   UNL     1      50.337  -6.360  25.461  1.00  0.00     0.004 C 
ENDBRANCH   1   5
TORSDOF 2
ENDMDL
MODEL 7
REMARK VINA RESULT:    -3.318      1.699      2.289
REMARK INTER + INTRA:          -3.739
REMARK INTER:                  -3.699
REMARK INTRA:                  -0.041
REMARK UNBOUND:                -0.034
REMARK SMILES CCCC(=O)[O-]
REMARK SMILES IDX 3 1 4 2 5 3 6 4 2 5 1 6
REMARK H PARENT
REMARK Flexibility Score: inf
ROOT
ATOM      1  C   UNL     1      46.973  -6.657  25.248  1.00  0.00     0.052 C 
ENDROOT
BRANCH   1   2
ATOM      2  C   UNL     1      45.807  -7.587  25.364  1.00  0.00     0.041 C 
ATOM      3  O   UNL     1      45.073  -7.810  24.366  1.00  0.00    -0.550 OA
ATOM      4  O   UNL     1      45.558  -8.245  26.562  1.00  0.00    -0.550 OA
ENDBRANCH   1   2
BRANCH   1   5
ATOM      5  C   UNL     1      48.253  -7.438  24.947  1.00  0.00     0.003 C 
ATOM      6  C   UNL     1      48.546  -7.459  23.449  1.00  0.00     0.004 C 
ENDBRANCH   1   5
TORSDOF 2
ENDMDL
MODEL 8
REMARK VINA RESULT:    -3.303      1.863      2.281
REMARK INTER + INTRA:          -3.723
REMARK INTER:                  -3.658
REMARK INTRA:                  -0.065
REMARK UNBOUND:                -0.034
REMARK SMILES CCCC(=O)[O-]
REMARK SMILES IDX 3 1 4 2 5 3 6 4 2 5 1 6
REMARK H PARENT
REMARK Flexibility Score: inf
ROOT
ATOM      1  C   UNL     1      47.626  -7.395  25.189  1.00  0.00     0.052 C 
ENDROOT
BRANCH   1   2
ATOM      2  C   UNL     1      47.121  -6.022  25.503  1.00  0.00     0.041 C 
ATOM      3  O   UNL     1      47.883  -5.026  25.397  1.00  0.00    -0.550 OA
ATOM      4  O   UNL     1      45.792  -5.836  25.866  1.00  0.00    -0.550 OA
ENDBRANCH   1   2
BRANCH   1   5
ATOM      5  C   UNL     1      48.222  -7.436  23.780  1.00  0.00     0.003 C 
ATOM      6  C   UNL     1      47.126  -7.516  22.721  1.00  0.00     0.004 C 
ENDBRANCH   1   5
TORSDOF 2
ENDMDL
MODEL 9
REMARK VINA RESULT:    -3.153      4.114      4.707
REMARK INTER + INTRA:          -3.555
REMARK INTER:                  -3.517
REMARK INTRA:                  -0.038
REMARK UNBOUND:                -0.034
REMARK SMILES CCCC(=O)[O-]
REMARK SMILES IDX 3 1 4 2 5 3 6 4 2 5 1 6
REMARK H PARENT
REMARK Flexibility Score: inf
ROOT
ATOM      1  C   UNL     1      45.901  -5.368  27.132  1.00  0.00     0.052 C 
ENDROOT
BRANCH   1   2
ATOM      2  C   UNL     1      46.876  -4.502  26.400  1.00  0.00     0.041 C 
ATOM      3  O   UNL     1      46.947  -3.271  26.655  1.00  0.00    -0.550 OA
ATOM      4  O   UNL     1      47.742  -5.062  25.468  1.00  0.00    -0.550 OA
ENDBRANCH   1   2
BRANCH   1   5
ATOM      5  C   UNL     1      45.223  -6.344  26.169  1.00  0.00     0.003 C 
ATOM      6  C   UNL     1      45.638  -7.784  26.460  1.00  0.00     0.004 C 
ENDBRANCH   1   5
TORSDOF 2
ENDMDL
