MODEL 1
REMARK VINA RESULT:    -6.532      0.000      0.000
REMARK INTER + INTRA:          -8.000
REMARK INTER:                  -7.678
REMARK INTRA:                  -0.323
REMARK UNBOUND:                -0.323
REMARK SMILES O=c1c(O)c(-c2ccc(O)c(O)c2)oc2cc(O)ccc12
REMARK SMILES IDX 5 1 3 2 2 3 1 4 21 5 15 6 14 7 16 8 17 9 19 10 20 11 6 12
REMARK SMILES IDX 7 13 8 14 9 15 13 16 11 17 10 18 12 20 4 22 18 24
REMARK H PARENT 10 19 12 21 4 23 18 25
REMARK Flexibility Score: inf
ROOT
ATOM      1  C   UNL     1      12.936  17.212  20.431  1.00  0.00     0.180 A 
ATOM      2  C   UNL     1      11.947  18.061  19.892  1.00  0.00     0.208 A 
ATOM      3  C   UNL     1      10.826  18.376  20.675  1.00  0.00     0.235 A 
ATOM      4  O   UNL     1       9.922  19.125  20.211  1.00  0.00    -0.285 OA
ATOM      5  C   UNL     1      10.725  17.858  21.976  1.00  0.00     0.069 A 
ATOM      6  C   UNL     1      11.769  17.036  22.451  1.00  0.00     0.142 A 
ATOM      7  O   UNL     1      12.810  16.754  21.675  1.00  0.00    -0.452 OA
ATOM      8  C   UNL     1      11.710  16.508  23.747  1.00  0.00     0.094 A 
ATOM      9  C   UNL     1      10.619  16.791  24.575  1.00  0.00     0.119 A 
ATOM     10  C   UNL     1       9.580  17.607  24.106  1.00  0.00     0.047 A 
ATOM     11  C   UNL     1       9.631  18.140  22.813  1.00  0.00     0.020 A 
ENDROOT
BRANCH   1  12
ATOM     12  C   UNL     1      14.139  16.819  19.661  1.00  0.00     0.025 A 
ATOM     13  C   UNL     1      15.329  17.547  19.821  1.00  0.00     0.016 A 
ATOM     14  C   UNL     1      16.480  17.181  19.121  1.00  0.00     0.051 A 
ATOM     15  C   UNL     1      16.467  16.076  18.265  1.00  0.00     0.157 A 
ATOM     16  C   UNL     1      14.133  15.694  18.817  1.00  0.00     0.062 A 
ATOM     17  C   UNL     1      15.289  15.325  18.115  1.00  0.00     0.158 A 
BRANCH  15  18
ATOM     18  O   UNL     1      17.633  15.735  17.578  1.00  0.00    -0.504 OA
ATOM     19  H   UNL     1      17.927  14.774  17.463  1.00  0.00     0.293 HD
ENDBRANCH  15  18
BRANCH  17  20
ATOM     20  O   UNL     1      15.273  14.213  17.275  1.00  0.00    -0.504 OA
ATOM     21  H   UNL     1      14.764  13.372  17.517  1.00  0.00     0.293 HD
ENDBRANCH  17  20
ENDBRANCH   1  12
BRANCH   2  22
ATOM     22  O   UNL     1      12.099  18.600  18.612  1.00  0.00    -0.502 OA
ATOM     23  H   UNL     1      12.924  18.433  18.049  1.00  0.00     0.293 HD
ENDBRANCH   2  22
BRANCH   9  24
ATOM     24  O   UNL     1      10.577  16.258  25.861  1.00  0.00    -0.508 OA
ATOM     25  H   UNL     1      10.275  15.306  26.029  1.00  0.00     0.293 HD
ENDBRANCH   9  24
TORSDOF 5
ENDMDL
MODEL 2
REMARK VINA RESULT:    -5.853      1.725      7.050
REMARK INTER + INTRA:          -7.202
REMARK INTER:                  -6.946
REMARK INTRA:                  -0.256
REMARK UNBOUND:                -0.323
REMARK SMILES O=c1c(O)c(-c2ccc(O)c(O)c2)oc2cc(O)ccc12
REMARK SMILES IDX 5 1 3 2 2 3 1 4 21 5 15 6 14 7 16 8 17 9 19 10 20 11 6 12
REMARK SMILES IDX 7 13 8 14 9 15 13 16 11 17 10 18 12 20 4 22 18 24
REMARK H PARENT 10 19 12 21 4 23 18 25
REMARK Flexibility Score: inf
ROOT
ATOM      1  C   UNL     1      14.172  17.073  20.314  1.00  0.00     0.180 A 
ATOM      2  C   UNL     1      15.268  17.956  20.403  1.00  0.00     0.208 A 
ATOM      3  C   UNL     1      16.286  17.870  19.443  1.00  0.00     0.235 A 
ATOM      4  O   UNL     1      17.282  18.642  19.506  1.00  0.00    -0.285 OA
ATOM      5  C   UNL     1      16.182  16.924  18.410  1.00  0.00     0.069 A 
ATOM      6  C   UNL     1      15.042  16.093  18.377  1.00  0.00     0.142 A 
ATOM      7  O   UNL     1      14.104  16.201  19.311  1.00  0.00    -0.452 OA
ATOM      8  C   UNL     1      14.897  15.144  17.357  1.00  0.00     0.094 A 
ATOM      9  C   UNL     1      15.878  15.015  16.369  1.00  0.00     0.119 A 
ATOM     10  C   UNL     1      17.012  15.838  16.400  1.00  0.00     0.047 A 
ATOM     11  C   UNL     1      17.166  16.789  17.413  1.00  0.00     0.020 A 
ENDROOT
BRANCH   1  12
ATOM     12  C   UNL     1      13.066  17.090  21.300  1.00  0.00     0.025 A 
ATOM     13  C   UNL     1      13.023  16.111  22.306  1.00  0.00     0.016 A 
ATOM     14  C   UNL     1      12.002  16.120  23.258  1.00  0.00     0.051 A 
ATOM     15  C   UNL     1      11.019  17.114  23.232  1.00  0.00     0.157 A 
ATOM     16  C   UNL     1      12.090  18.101  21.288  1.00  0.00     0.062 A 
ATOM     17  C   UNL     1      11.065  18.113  22.245  1.00  0.00     0.158 A 
BRANCH  15  18
ATOM     18  O   UNL     1      10.011  17.097  24.196  1.00  0.00    -0.504 OA
ATOM     19  H   UNL     1       9.878  16.311  24.820  1.00  0.00     0.293 HD
ENDBRANCH  15  18
BRANCH  17  20
ATOM     20  O   UNL     1      10.096  19.116  22.222  1.00  0.00    -0.504 OA
ATOM     21  H   UNL     1       9.981  19.761  22.995  1.00  0.00     0.293 HD
ENDBRANCH  17  20
ENDBRANCH   1  12
BRANCH   2  22
ATOM     22  O   UNL     1      15.319  18.920  21.414  1.00  0.00    -0.502 OA
ATOM     23  H   UNL     1      14.508  19.462  21.686  1.00  0.00     0.293 HD
ENDBRANCH   2  22
BRANCH   9  24
ATOM     24  O   UNL     1      15.717  14.066  15.362  1.00  0.00    -0.508 OA
ATOM     25  H   UNL     1      15.075  14.215  14.592  1.00  0.00     0.293 HD
ENDBRANCH   9  24
TORSDOF 5
ENDMDL
MODEL 3
REMARK VINA RESULT:    -5.773      1.373      6.538
REMARK INTER + INTRA:          -7.108
REMARK INTER:                  -7.045
REMARK INTRA:                  -0.063
REMARK UNBOUND:                -0.323
REMARK SMILES O=c1c(O)c(-c2ccc(O)c(O)c2)oc2cc(O)ccc12
REMARK SMILES IDX 5 1 3 2 2 3 1 4 21 5 15 6 14 7 16 8 17 9 19 10 20 11 6 12
REMARK SMILES IDX 7 13 8 14 9 15 13 16 11 17 10 18 12 20 4 22 18 24
REMARK H PARENT 10 19 12 21 4 23 18 25
REMARK Flexibility Score: inf
ROOT
ATOM      1  C   UNL     1      12.001  17.851  21.680  1.00  0.00     0.180 A 
ATOM      2  C   UNL     1      11.266  18.451  20.636  1.00  0.00     0.208 A 
ATOM      3  C   UNL     1      11.865  18.582  19.374  1.00  0.00     0.235 A 
ATOM      4  O   UNL     1      11.233  19.125  18.427  1.00  0.00    -0.285 OA
ATOM      5  C   UNL     1      13.168  18.096  19.176  1.00  0.00     0.069 A 
ATOM      6  C   UNL     1      13.827  17.486  20.265  1.00  0.00     0.142 A 
ATOM      7  O   UNL     1      13.227  17.390  21.446  1.00  0.00    -0.452 OA
ATOM      8  C   UNL     1      15.123  16.981  20.104  1.00  0.00     0.094 A 
ATOM      9  C   UNL     1      15.770  17.079  18.868  1.00  0.00     0.119 A 
ATOM     10  C   UNL     1      15.119  17.685  17.785  1.00  0.00     0.047 A 
ATOM     11  C   UNL     1      13.824  18.192  17.935  1.00  0.00     0.020 A 
ENDROOT
BRANCH   1  12
ATOM     12  C   UNL     1      11.444  17.693  23.043  1.00  0.00     0.025 A 
ATOM     13  C   UNL     1      10.983  18.825  23.735  1.00  0.00     0.016 A 
ATOM     14  C   UNL     1      10.435  18.698  25.013  1.00  0.00     0.051 A 
ATOM     15  C   UNL     1      10.324  17.439  25.613  1.00  0.00     0.157 A 
ATOM     16  C   UNL     1      11.311  16.427  23.638  1.00  0.00     0.062 A 
ATOM     17  C   UNL     1      10.759  16.297  24.921  1.00  0.00     0.158 A 
BRANCH  15  18
ATOM     18  O   UNL     1       9.773  17.344  26.891  1.00  0.00    -0.504 OA
ATOM     19  H   UNL     1      10.224  16.821  27.632  1.00  0.00     0.293 HD
ENDBRANCH  15  18
BRANCH  17  20
ATOM     20  O   UNL     1      10.637  15.038  25.507  1.00  0.00    -0.504 OA
ATOM     21  H   UNL     1      11.056  14.215  25.090  1.00  0.00     0.293 HD
ENDBRANCH  17  20
ENDBRANCH   1  12
BRANCH   2  22
ATOM     22  O   UNL     1       9.953  18.880  20.851  1.00  0.00    -0.502 OA
ATOM     23  H   UNL     1       9.508  19.574  20.263  1.00  0.00     0.293 HD
ENDBRANCH   2  22
BRANCH   9  24
ATOM     24  O   UNL     1      17.059  16.571  18.726  1.00  0.00    -0.508 OA
ATOM     25  H   UNL     1      17.793  16.797  19.387  1.00  0.00     0.293 HD
ENDBRANCH   9  24
TORSDOF 5
ENDMDL
MODEL 4
REMARK VINA RESULT:    -5.336      3.640      6.473
REMARK INTER + INTRA:          -6.595
REMARK INTER:                  -6.273
REMARK INTRA:                  -0.322
REMARK UNBOUND:                -0.323
REMARK SMILES O=c1c(O)c(-c2ccc(O)c(O)c2)oc2cc(O)ccc12
REMARK SMILES IDX 5 1 3 2 2 3 1 4 21 5 15 6 14 7 16 8 17 9 19 10 20 11 6 12
REMARK SMILES IDX 7 13 8 14 9 15 13 16 11 17 10 18 12 20 4 22 18 24
REMARK H PARENT 10 19 12 21 4 23 18 25
REMARK Flexibility Score: inf
ROOT
ATOM      1  C   UNL     1      17.627  16.104  16.407  1.00  0.00     0.180 A 
ATOM      2  C   UNL     1      16.506  15.565  15.742  1.00  0.00     0.208 A 
ATOM      3  C   UNL     1      15.276  15.523  16.415  1.00  0.00     0.235 A 
ATOM      4  O   UNL     1      14.260  15.036  15.846  1.00  0.00    -0.285 OA
ATOM      5  C   UNL     1      15.185  16.035  17.720  1.00  0.00     0.069 A 
ATOM      6  C   UNL     1      16.347  16.580  18.307  1.00  0.00     0.142 A 
ATOM      7  O   UNL     1      17.495  16.592  17.638  1.00  0.00    -0.452 OA
ATOM      8  C   UNL     1      16.295  17.109  19.602  1.00  0.00     0.094 A 
ATOM      9  C   UNL     1      15.095  17.099  20.320  1.00  0.00     0.119 A 
ATOM     10  C   UNL     1      13.940  16.557  19.741  1.00  0.00     0.047 A 
ATOM     11  C   UNL     1      13.981  16.028  18.447  1.00  0.00     0.020 A 
ENDROOT
BRANCH   1  12
ATOM     12  C   UNL     1      18.963  16.166  15.771  1.00  0.00     0.025 A 
ATOM     13  C   UNL     1      19.326  17.308  15.038  1.00  0.00     0.016 A 
ATOM     14  C   UNL     1      20.588  17.397  14.448  1.00  0.00     0.051 A 
ATOM     15  C   UNL     1      21.512  16.357  14.591  1.00  0.00     0.157 A 
ATOM     16  C   UNL     1      19.901  15.131  15.933  1.00  0.00     0.062 A 
ATOM     17  C   UNL     1      21.169  15.220  15.342  1.00  0.00     0.158 A 
BRANCH  15  18
ATOM     18  O   UNL     1      22.764  16.474  13.988  1.00  0.00    -0.504 OA
ATOM     19  H   UNL     1      22.927  16.195  13.029  1.00  0.00     0.293 HD
ENDBRANCH  15  18
BRANCH  17  20
ATOM     20  O   UNL     1      22.090  14.186  15.502  1.00  0.00    -0.504 OA
ATOM     21  H   UNL     1      23.066  14.301  15.254  1.00  0.00     0.293 HD
ENDBRANCH  17  20
ENDBRANCH   1  12
BRANCH   2  22
ATOM     22  O   UNL     1      16.616  15.108  14.426  1.00  0.00    -0.502 OA
ATOM     23  H   UNL     1      15.810  14.817  13.886  1.00  0.00     0.293 HD
ENDBRANCH   2  22
BRANCH   9  24
ATOM     24  O   UNL     1      15.062  17.630  21.608  1.00  0.00    -0.508 OA
ATOM     25  H   UNL     1      14.363  18.310  21.882  1.00  0.00     0.293 HD
ENDBRANCH   9  24
TORSDOF 5
ENDMDL
MODEL 5
REMARK VINA RESULT:    -4.948      1.384      2.970
REMARK INTER + INTRA:          -6.138
REMARK INTER:                  -5.939
REMARK INTRA:                  -0.199
REMARK UNBOUND:                -0.323
REMARK SMILES O=c1c(O)c(-c2ccc(O)c(O)c2)oc2cc(O)ccc12
REMARK SMILES IDX 5 1 3 2 2 3 1 4 21 5 15 6 14 7 16 8 17 9 19 10 20 11 6 12
REMARK SMILES IDX 7 13 8 14 9 15 13 16 11 17 10 18 12 20 4 22 18 24
REMARK H PARENT 10 19 12 21 4 23 18 25
REMARK Flexibility Score: inf
ROOT
ATOM      1  C   UNL     1      13.467  17.038  20.125  1.00  0.00     0.180 A 
ATOM      2  C   UNL     1      13.509  16.860  21.524  1.00  0.00     0.208 A 
ATOM      3  C   UNL     1      12.381  17.204  22.283  1.00  0.00     0.235 A 
ATOM      4  O   UNL     1      12.397  17.064  23.537  1.00  0.00    -0.285 OA
ATOM      5  C   UNL     1      11.236  17.695  21.635  1.00  0.00     0.069 A 
ATOM      6  C   UNL     1      11.266  17.821  20.230  1.00  0.00     0.142 A 
ATOM      7  O   UNL     1      12.357  17.492  19.548  1.00  0.00    -0.452 OA
ATOM      8  C   UNL     1      10.140  18.298  19.547  1.00  0.00     0.094 A 
ATOM      9  C   UNL     1       8.985  18.653  20.251  1.00  0.00     0.119 A 
ATOM     10  C   UNL     1       8.953  18.530  21.646  1.00  0.00     0.047 A 
ATOM     11  C   UNL     1      10.071  18.053  22.338  1.00  0.00     0.020 A 
ENDROOT
BRANCH   1  12
ATOM     12  C   UNL     1      14.623  16.716  19.257  1.00  0.00     0.025 A 
ATOM     13  C   UNL     1      15.788  17.496  19.341  1.00  0.00     0.016 A 
ATOM     14  C   UNL     1      16.897  17.198  18.548  1.00  0.00     0.051 A 
ATOM     15  C   UNL     1      16.868  16.108  17.671  1.00  0.00     0.157 A 
ATOM     16  C   UNL     1      14.603  15.608  18.392  1.00  0.00     0.062 A 
ATOM     17  C   UNL     1      15.718  15.306  17.596  1.00  0.00     0.158 A 
BRANCH  15  18
ATOM     18  O   UNL     1      17.992  15.836  16.890  1.00  0.00    -0.504 OA
ATOM     19  H   UNL     1      17.992  15.110  16.185  1.00  0.00     0.293 HD
ENDBRANCH  15  18
BRANCH  17  20
ATOM     20  O   UNL     1      15.687  14.209  16.735  1.00  0.00    -0.504 OA
ATOM     21  H   UNL     1      15.463  14.312  15.753  1.00  0.00     0.293 HD
ENDBRANCH  17  20
ENDBRANCH   1  12
BRANCH   2  22
ATOM     22  O   UNL     1      14.645  16.323  22.135  1.00  0.00    -0.502 OA
ATOM     23  H   UNL     1      14.804  16.388  23.133  1.00  0.00     0.293 HD
ENDBRANCH   2  22
BRANCH   9  24
ATOM     24  O   UNL     1       7.875  19.125  19.554  1.00  0.00    -0.508 OA
ATOM     25  H   UNL     1       7.032  18.570  19.462  1.00  0.00     0.293 HD
ENDBRANCH   9  24
TORSDOF 5
ENDMDL
MODEL 6
REMARK VINA RESULT:    -4.864      3.501      8.925
REMARK INTER + INTRA:          -6.039
REMARK INTER:                  -5.718
REMARK INTRA:                  -0.322
REMARK UNBOUND:                -0.323
REMARK SMILES O=c1c(O)c(-c2ccc(O)c(O)c2)oc2cc(O)ccc12
REMARK SMILES IDX 5 1 3 2 2 3 1 4 21 5 15 6 14 7 16 8 17 9 19 10 20 11 6 12
REMARK SMILES IDX 7 13 8 14 9 15 13 16 11 17 10 18 12 20 4 22 18 24
REMARK H PARENT 10 19 12 21 4 23 18 25
REMARK Flexibility Score: inf
ROOT
ATOM      1  C   UNL     1      17.256  16.801  17.129  1.00  0.00     0.180 A 
ATOM      2  C   UNL     1      17.296  17.898  16.243  1.00  0.00     0.208 A 
ATOM      3  C   UNL     1      18.287  17.931  15.251  1.00  0.00     0.235 A 
ATOM      4  O   UNL     1      18.350  18.906  14.453  1.00  0.00    -0.285 OA
ATOM      5  C   UNL     1      19.200  16.867  15.152  1.00  0.00     0.069 A 
ATOM      6  C   UNL     1      19.078  15.795  16.061  1.00  0.00     0.142 A 
ATOM      7  O   UNL     1      18.130  15.807  16.991  1.00  0.00    -0.452 OA
ATOM      8  C   UNL     1      19.962  14.712  15.988  1.00  0.00     0.094 A 
ATOM      9  C   UNL     1      20.968  14.687  15.017  1.00  0.00     0.119 A 
ATOM     10  C   UNL     1      21.093  15.751  14.113  1.00  0.00     0.047 A 
ATOM     11  C   UNL     1      20.213  16.837  14.177  1.00  0.00     0.020 A 
ENDROOT
BRANCH   1  12
ATOM     12  C   UNL     1      16.251  16.703  18.213  1.00  0.00     0.025 A 
ATOM     13  C   UNL     1      15.092  15.937  18.012  1.00  0.00     0.016 A 
ATOM     14  C   UNL     1      14.142  15.813  19.027  1.00  0.00     0.051 A 
ATOM     15  C   UNL     1      14.340  16.437  20.263  1.00  0.00     0.157 A 
ATOM     16  C   UNL     1      16.460  17.312  19.463  1.00  0.00     0.062 A 
ATOM     17  C   UNL     1      15.507  17.187  20.484  1.00  0.00     0.158 A 
BRANCH  15  18
ATOM     18  O   UNL     1      13.372  16.297  21.257  1.00  0.00    -0.504 OA
ATOM     19  H   UNL     1      12.513  15.784  21.103  1.00  0.00     0.293 HD
ENDBRANCH  15  18
BRANCH  17  20
ATOM     20  O   UNL     1      15.719  17.800  21.718  1.00  0.00    -0.504 OA
ATOM     21  H   UNL     1      15.371  17.395  22.579  1.00  0.00     0.293 HD
ENDBRANCH  17  20
ENDBRANCH   1  12
BRANCH   2  22
ATOM     22  O   UNL     1      16.344  18.917  16.335  1.00  0.00    -0.502 OA
ATOM     23  H   UNL     1      16.211  19.601  15.600  1.00  0.00     0.293 HD
ENDBRANCH   2  22
BRANCH   9  24
ATOM     24  O   UNL     1      21.839  13.601  14.958  1.00  0.00    -0.508 OA
ATOM     25  H   UNL     1      21.630  12.785  14.395  1.00  0.00     0.293 HD
ENDBRANCH   9  24
TORSDOF 5
ENDMDL
MODEL 7
REMARK VINA RESULT:    -4.787      1.722      6.741
REMARK INTER + INTRA:          -5.949
REMARK INTER:                  -6.229
REMARK INTRA:                   0.280
REMARK UNBOUND:                -0.323
REMARK SMILES O=c1c(O)c(-c2ccc(O)c(O)c2)oc2cc(O)ccc12
REMARK SMILES IDX 5 1 3 2 2 3 1 4 21 5 15 6 14 7 16 8 17 9 19 10 20 11 6 12
REMARK SMILES IDX 7 13 8 14 9 15 13 16 11 17 10 18 12 20 4 22 18 24
REMARK H PARENT 10 19 12 21 4 23 18 25
REMARK Flexibility Score: inf
ROOT
ATOM      1  C   UNL     1      13.394  17.355  19.787  1.00  0.00     0.180 A 
ATOM      2  C   UNL     1      12.869  18.116  18.721  1.00  0.00     0.208 A 
ATOM      3  C   UNL     1      13.598  18.199  17.526  1.00  0.00     0.235 A 
ATOM      4  O   UNL     1      13.155  18.882  16.561  1.00  0.00    -0.285 OA
ATOM      5  C   UNL     1      14.818  17.511  17.412  1.00  0.00     0.069 A 
ATOM      6  C   UNL     1      15.262  16.751  18.515  1.00  0.00     0.142 A 
ATOM      7  O   UNL     1      14.546  16.706  19.632  1.00  0.00    -0.452 OA
ATOM      8  C   UNL     1      16.467  16.043  18.437  1.00  0.00     0.094 A 
ATOM      9  C   UNL     1      17.236  16.085  17.269  1.00  0.00     0.119 A 
ATOM     10  C   UNL     1      16.798  16.839  16.172  1.00  0.00     0.047 A 
ATOM     11  C   UNL     1      15.594  17.549  16.239  1.00  0.00     0.020 A 
ENDROOT
BRANCH   1  12
ATOM     12  C   UNL     1      12.693  17.234  21.086  1.00  0.00     0.025 A 
ATOM     13  C   UNL     1      12.936  16.115  21.899  1.00  0.00     0.016 A 
ATOM     14  C   UNL     1      12.302  15.991  23.137  1.00  0.00     0.051 A 
ATOM     15  C   UNL     1      11.430  16.986  23.589  1.00  0.00     0.157 A 
ATOM     16  C   UNL     1      11.833  18.244  21.551  1.00  0.00     0.062 A 
ATOM     17  C   UNL     1      11.197  18.121  22.795  1.00  0.00     0.158 A 
BRANCH  15  18
ATOM     18  O   UNL     1      10.810  16.833  24.829  1.00  0.00    -0.504 OA
ATOM     19  H   UNL     1      10.682  15.924  25.258  1.00  0.00     0.293 HD
ENDBRANCH  15  18
BRANCH  17  20
ATOM     20  O   UNL     1      10.340  19.124  23.246  1.00  0.00    -0.504 OA
ATOM     21  H   UNL     1      10.276  19.366  24.228  1.00  0.00     0.293 HD
ENDBRANCH  17  20
ENDBRANCH   1  12
BRANCH   2  22
ATOM     22  O   UNL     1      11.630  18.749  18.847  1.00  0.00    -0.502 OA
ATOM     23  H   UNL     1      11.433  19.409  19.589  1.00  0.00     0.293 HD
ENDBRANCH   2  22
BRANCH   9  24
ATOM     24  O   UNL     1      18.432  15.374  17.208  1.00  0.00    -0.508 OA
ATOM     25  H   UNL     1      18.478  14.450  16.795  1.00  0.00     0.293 HD
ENDBRANCH   9  24
TORSDOF 5
ENDMDL
MODEL 8
REMARK VINA RESULT:    -4.664      3.214      8.416
REMARK INTER + INTRA:          -5.805
REMARK INTER:                  -5.572
REMARK INTRA:                  -0.233
REMARK UNBOUND:                -0.323
REMARK SMILES O=c1c(O)c(-c2ccc(O)c(O)c2)oc2cc(O)ccc12
REMARK SMILES IDX 5 1 3 2 2 3 1 4 21 5 15 6 14 7 16 8 17 9 19 10 20 11 6 12
REMARK SMILES IDX 7 13 8 14 9 15 13 16 11 17 10 18 12 20 4 22 18 24
REMARK H PARENT 10 19 12 21 4 23 18 25
REMARK Flexibility Score: inf
ROOT
ATOM      1  C   UNL     1      16.721  17.192  17.389  1.00  0.00     0.180 A 
ATOM      2  C   UNL     1      16.545  18.159  16.376  1.00  0.00     0.208 A 
ATOM      3  C   UNL     1      17.375  18.114  15.246  1.00  0.00     0.235 A 
ATOM      4  O   UNL     1      17.245  18.974  14.332  1.00  0.00    -0.285 OA
ATOM      5  C   UNL     1      18.344  17.102  15.141  1.00  0.00     0.069 A 
ATOM      6  C   UNL     1      18.440  16.158  16.186  1.00  0.00     0.142 A 
ATOM      7  O   UNL     1      17.640  16.241  17.243  1.00  0.00    -0.452 OA
ATOM      8  C   UNL     1      19.386  15.128  16.113  1.00  0.00     0.094 A 
ATOM      9  C   UNL     1      20.239  15.030  15.008  1.00  0.00     0.119 A 
ATOM     10  C   UNL     1      20.146  15.966  13.970  1.00  0.00     0.047 A 
ATOM     11  C   UNL     1      19.204  16.998  14.033  1.00  0.00     0.020 A 
ENDROOT
BRANCH   1  12
ATOM     12  C   UNL     1      15.897  17.184  18.619  1.00  0.00     0.025 A 
ATOM     13  C   UNL     1      16.458  17.624  19.829  1.00  0.00     0.016 A 
ATOM     14  C   UNL     1      15.693  17.645  20.997  1.00  0.00     0.051 A 
ATOM     15  C   UNL     1      14.354  17.243  20.973  1.00  0.00     0.157 A 
ATOM     16  C   UNL     1      14.544  16.802  18.592  1.00  0.00     0.062 A 
ATOM     17  C   UNL     1      13.774  16.824  19.764  1.00  0.00     0.158 A 
BRANCH  15  18
ATOM     18  O   UNL     1      13.616  17.274  22.156  1.00  0.00    -0.504 OA
ATOM     19  H   UNL     1      13.625  18.075  22.775  1.00  0.00     0.293 HD
ENDBRANCH  15  18
BRANCH  17  20
ATOM     20  O   UNL     1      12.436  16.436  19.730  1.00  0.00    -0.504 OA
ATOM     21  H   UNL     1      11.720  16.954  20.227  1.00  0.00     0.293 HD
ENDBRANCH  17  20
ENDBRANCH   1  12
BRANCH   2  22
ATOM     22  O   UNL     1      15.541  19.124  16.486  1.00  0.00    -0.502 OA
ATOM     23  H   UNL     1      15.717  20.047  16.863  1.00  0.00     0.293 HD
ENDBRANCH   2  22
BRANCH   9  24
ATOM     24  O   UNL     1      21.173  13.999  14.953  1.00  0.00    -0.508 OA
ATOM     25  H   UNL     1      21.009  13.110  15.410  1.00  0.00     0.293 HD
ENDBRANCH   9  24
TORSDOF 5
ENDMDL
MODEL 9
REMARK VINA RESULT:    -4.570      2.345      7.183
REMARK INTER + INTRA:          -5.694
REMARK INTER:                  -5.711
REMARK INTRA:                   0.016
REMARK UNBOUND:                -0.323
REMARK SMILES O=c1c(O)c(-c2ccc(O)c(O)c2)oc2cc(O)ccc12
REMARK SMILES IDX 5 1 3 2 2 3 1 4 21 5 15 6 14 7 16 8 17 9 19 10 20 11 6 12
REMARK SMILES IDX 7 13 8 14 9 15 13 16 11 17 10 18 12 20 4 22 18 24
REMARK H PARENT 10 19 12 21 4 23 18 25
REMARK Flexibility Score: inf
ROOT
ATOM      1  C   UNL     1      14.483  17.433  18.382  1.00  0.00     0.180 A 
ATOM      2  C   UNL     1      13.938  17.963  17.194  1.00  0.00     0.208 A 
ATOM      3  C   UNL     1      14.658  17.821  15.998  1.00  0.00     0.235 A 
ATOM      4  O   UNL     1      14.197  18.296  14.923  1.00  0.00    -0.285 OA
ATOM      5  C   UNL     1      15.887  17.142  16.008  1.00  0.00     0.069 A 
ATOM      6  C   UNL     1      16.352  16.619  17.234  1.00  0.00     0.142 A 
ATOM      7  O   UNL     1      15.644  16.782  18.346  1.00  0.00    -0.452 OA
ATOM      8  C   UNL     1      17.568  15.927  17.283  1.00  0.00     0.094 A 
ATOM      9  C   UNL     1      18.327  15.751  16.121  1.00  0.00     0.119 A 
ATOM     10  C   UNL     1      17.869  16.269  14.903  1.00  0.00     0.047 A 
ATOM     11  C   UNL     1      16.654  16.961  14.843  1.00  0.00     0.020 A 
ENDROOT
BRANCH   1  12
ATOM     12  C   UNL     1      13.793  17.557  19.687  1.00  0.00     0.025 A 
ATOM     13  C   UNL     1      13.338  18.817  20.109  1.00  0.00     0.016 A 
ATOM     14  C   UNL     1      12.667  18.955  21.325  1.00  0.00     0.051 A 
ATOM     15  C   UNL     1      12.425  17.838  22.131  1.00  0.00     0.157 A 
ATOM     16  C   UNL     1      13.530  16.432  20.487  1.00  0.00     0.062 A 
ATOM     17  C   UNL     1      12.854  16.568  21.708  1.00  0.00     0.158 A 
BRANCH  15  18
ATOM     18  O   UNL     1      11.753  18.007  23.342  1.00  0.00    -0.504 OA
ATOM     19  H   UNL     1      11.959  18.775  23.968  1.00  0.00     0.293 HD
ENDBRANCH  15  18
BRANCH  17  20
ATOM     20  O   UNL     1      12.604  15.448  22.499  1.00  0.00    -0.504 OA
ATOM     21  H   UNL     1      11.794  15.396  23.105  1.00  0.00     0.293 HD
ENDBRANCH  17  20
ENDBRANCH   1  12
BRANCH   2  22
ATOM     22  O   UNL     1      12.690  18.590  17.206  1.00  0.00    -0.502 OA
ATOM     23  H   UNL     1      12.307  19.050  16.389  1.00  0.00     0.293 HD
ENDBRANCH   2  22
BRANCH   9  24
ATOM     24  O   UNL     1      19.534  15.059  16.189  1.00  0.00    -0.508 OA
ATOM     25  H   UNL     1      19.873  14.508  15.409  1.00  0.00     0.293 HD
ENDBRANCH   9  24
TORSDOF 5
ENDMDL
