MODEL 1
REMARK VINA RESULT:    -4.881      0.000      0.000
REMARK INTER + INTRA:          -4.881
REMARK INTER:                  -4.881
REMARK INTRA:                   0.000
REMARK UNBOUND:                 0.000
REMARK SMILES CC1=CC=CC(C)(C)[C@H]1C
REMARK SMILES IDX 10 1 9 2 2 3 3 4 4 5 5 6 6 7 7 8 8 9 1 10
REMARK H PARENT
REMARK Flexibility Score: inf
ROOT
ATOM      1  C   UNL     1     -46.972 -49.449  30.851  1.00  0.00     0.013 C 
ATOM      2  C   UNL     1     -45.734 -49.743  31.720  1.00  0.00     0.021 C 
ATOM      3  C   UNL     1     -46.205 -50.071  33.129  1.00  0.00    -0.070 C 
ATOM      4  C   UNL     1     -46.484 -51.342  33.462  1.00  0.00    -0.001 C 
ATOM      5  C   UNL     1     -46.220 -52.446  32.521  1.00  0.00    -0.004 C 
ATOM      6  C   UNL     1     -45.491 -52.244  31.418  1.00  0.00    -0.020 C 
ATOM      7  C   UNL     1     -44.832 -50.901  31.156  1.00  0.00    -0.011 C 
ATOM      8  C   UNL     1     -43.466 -50.884  31.875  1.00  0.00     0.016 C 
ATOM      9  C   UNL     1     -44.575 -50.745  29.641  1.00  0.00     0.016 C 
ATOM     10  C   UNL     1     -46.446 -48.973  34.125  1.00  0.00     0.040 C 
ENDROOT
TORSDOF 0
ENDMDL
MODEL 2
REMARK VINA RESULT:    -4.789     12.692     14.899
REMARK INTER + INTRA:          -4.789
REMARK INTER:                  -4.789
REMARK INTRA:                   0.000
REMARK UNBOUND:                 0.000
REMARK SMILES CC1=CC=CC(C)(C)[C@H]1C
REMARK SMILES IDX 10 1 9 2 2 3 3 4 4 5 5 6 6 7 7 8 8 9 1 10
REMARK H PARENT
REMARK Flexibility Score: inf
ROOT
ATOM      1  C   UNL     1     -47.107 -48.694  18.777  1.00  0.00     0.013 C 
ATOM      2  C   UNL     1     -48.385 -49.033  17.988  1.00  0.00     0.021 C 
ATOM      3  C   UNL     1     -47.988 -49.387  16.563  1.00  0.00    -0.070 C 
ATOM      4  C   UNL     1     -47.703 -50.660  16.245  1.00  0.00    -0.001 C 
ATOM      5  C   UNL     1     -47.890 -51.745  17.226  1.00  0.00    -0.004 C 
ATOM      6  C   UNL     1     -48.558 -51.530  18.363  1.00  0.00    -0.020 C 
ATOM      7  C   UNL     1     -49.229 -50.193  18.631  1.00  0.00    -0.011 C 
ATOM      8  C   UNL     1     -50.635 -50.221  17.991  1.00  0.00     0.016 C 
ATOM      9  C   UNL     1     -49.403 -50.005  20.154  1.00  0.00     0.016 C 
ATOM     10  C   UNL     1     -47.827 -48.309  15.529  1.00  0.00     0.040 C 
ENDROOT
TORSDOF 0
ENDMDL
MODEL 3
REMARK VINA RESULT:    -4.533      1.076      3.374
REMARK INTER + INTRA:          -4.533
REMARK INTER:                  -4.533
REMARK INTRA:                   0.000
REMARK UNBOUND:                 0.000
REMARK SMILES CC1=CC=CC(C)(C)[C@H]1C
REMARK SMILES IDX 10 1 9 2 2 3 3 4 4 5 5 6 6 7 7 8 8 9 1 10
REMARK H PARENT
REMARK Flexibility Score: inf
ROOT
ATOM      1  C   UNL     1     -45.650 -48.783  31.589  1.00  0.00     0.013 C 
ATOM      2  C   UNL     1     -45.656 -50.247  31.110  1.00  0.00     0.021 C 
ATOM      3  C   UNL     1     -44.495 -50.440  30.146  1.00  0.00    -0.070 C 
ATOM      4  C   UNL     1     -43.293 -50.816  30.613  1.00  0.00    -0.001 C 
ATOM      5  C   UNL     1     -43.111 -51.168  32.033  1.00  0.00    -0.004 C 
ATOM      6  C   UNL     1     -44.167 -51.347  32.834  1.00  0.00    -0.020 C 
ATOM      7  C   UNL     1     -45.581 -51.292  32.282  1.00  0.00    -0.011 C 
ATOM      8  C   UNL     1     -45.945 -52.693  31.746  1.00  0.00     0.016 C 
ATOM      9  C   UNL     1     -46.562 -50.949  33.424  1.00  0.00     0.016 C 
ATOM     10  C   UNL     1     -44.659 -50.128  28.686  1.00  0.00     0.040 C 
ENDROOT
TORSDOF 0
ENDMDL
MODEL 4
REMARK VINA RESULT:    -4.398     10.762     12.442
REMARK INTER + INTRA:          -4.398
REMARK INTER:                  -4.398
REMARK INTRA:                   0.000
REMARK UNBOUND:                 0.000
REMARK SMILES CC1=CC=CC(C)(C)[C@H]1C
REMARK SMILES IDX 10 1 9 2 2 3 3 4 4 5 5 6 6 7 7 8 8 9 1 10
REMARK H PARENT
REMARK Flexibility Score: inf
ROOT
ATOM      1  C   UNL     1     -54.161 -49.390  21.756  1.00  0.00     0.013 C 
ATOM      2  C   UNL     1     -53.225 -48.184  21.550  1.00  0.00     0.021 C 
ATOM      3  C   UNL     1     -53.777 -47.009  22.343  1.00  0.00    -0.070 C 
ATOM      4  C   UNL     1     -53.394 -46.824  23.617  1.00  0.00    -0.001 C 
ATOM      5  C   UNL     1     -52.349 -47.669  24.224  1.00  0.00    -0.004 C 
ATOM      6  C   UNL     1     -51.599 -48.476  23.466  1.00  0.00    -0.020 C 
ATOM      7  C   UNL     1     -51.733 -48.471  21.953  1.00  0.00    -0.011 C 
ATOM      8  C   UNL     1     -50.826 -47.355  21.391  1.00  0.00     0.016 C 
ATOM      9  C   UNL     1     -51.233 -49.820  21.391  1.00  0.00     0.016 C 
ATOM     10  C   UNL     1     -54.815 -46.105  21.741  1.00  0.00     0.040 C 
ENDROOT
TORSDOF 0
ENDMDL
MODEL 5
REMARK VINA RESULT:    -4.367     13.267     14.931
REMARK INTER + INTRA:          -4.367
REMARK INTER:                  -4.367
REMARK INTRA:                   0.000
REMARK UNBOUND:                 0.000
REMARK SMILES CC1=CC=CC(C)(C)[C@H]1C
REMARK SMILES IDX 10 1 9 2 2 3 3 4 4 5 5 6 6 7 7 8 8 9 1 10
REMARK H PARENT
REMARK Flexibility Score: inf
ROOT
ATOM      1  C   UNL     1     -48.029 -48.556  15.975  1.00  0.00     0.013 C 
ATOM      2  C   UNL     1     -47.724 -49.631  17.036  1.00  0.00     0.021 C 
ATOM      3  C   UNL     1     -48.086 -49.070  18.403  1.00  0.00    -0.070 C 
ATOM      4  C   UNL     1     -49.327 -49.241  18.888  1.00  0.00    -0.001 C 
ATOM      5  C   UNL     1     -50.312 -50.072  18.171  1.00  0.00    -0.004 C 
ATOM      6  C   UNL     1     -49.934 -50.858  17.158  1.00  0.00    -0.020 C 
ATOM      7  C   UNL     1     -48.468 -50.992  16.781  1.00  0.00    -0.011 C 
ATOM      8  C   UNL     1     -47.841 -52.093  17.666  1.00  0.00     0.016 C 
ATOM      9  C   UNL     1     -48.358 -51.444  15.309  1.00  0.00     0.016 C 
ATOM     10  C   UNL     1     -47.093 -48.252  19.176  1.00  0.00     0.040 C 
ENDROOT
TORSDOF 0
ENDMDL
MODEL 6
REMARK VINA RESULT:    -4.325     10.758     12.754
REMARK INTER + INTRA:          -4.325
REMARK INTER:                  -4.325
REMARK INTRA:                   0.000
REMARK UNBOUND:                 0.000
REMARK SMILES CC1=CC=CC(C)(C)[C@H]1C
REMARK SMILES IDX 10 1 9 2 2 3 3 4 4 5 5 6 6 7 7 8 8 9 1 10
REMARK H PARENT
REMARK Flexibility Score: inf
ROOT
ATOM      1  C   UNL     1     -51.167 -48.182  21.163  1.00  0.00     0.013 C 
ATOM      2  C   UNL     1     -52.292 -48.855  21.971  1.00  0.00     0.021 C 
ATOM      3  C   UNL     1     -52.214 -48.357  23.406  1.00  0.00    -0.070 C 
ATOM      4  C   UNL     1     -52.893 -47.257  23.771  1.00  0.00    -0.001 C 
ATOM      5  C   UNL     1     -53.816 -46.592  22.832  1.00  0.00    -0.004 C 
ATOM      6  C   UNL     1     -54.176 -47.188  21.691  1.00  0.00    -0.020 C 
ATOM      7  C   UNL     1     -53.726 -48.605  21.376  1.00  0.00    -0.011 C 
ATOM      8  C   UNL     1     -54.729 -49.585  22.025  1.00  0.00     0.016 C 
ATOM      9  C   UNL     1     -53.764 -48.826  19.848  1.00  0.00     0.016 C 
ATOM     10  C   UNL     1     -51.313 -49.036  24.398  1.00  0.00     0.040 C 
ENDROOT
TORSDOF 0
ENDMDL
MODEL 7
REMARK VINA RESULT:    -4.280      5.089      7.306
REMARK INTER + INTRA:          -4.280
REMARK INTER:                  -4.280
REMARK INTRA:                   0.000
REMARK UNBOUND:                 0.000
REMARK SMILES CC1=CC=CC(C)(C)[C@H]1C
REMARK SMILES IDX 10 1 9 2 2 3 3 4 4 5 5 6 6 7 7 8 8 9 1 10
REMARK H PARENT
REMARK Flexibility Score: inf
ROOT
ATOM      1  C   UNL     1     -43.384 -48.513  28.425  1.00  0.00     0.013 C 
ATOM      2  C   UNL     1     -42.147 -49.030  27.667  1.00  0.00     0.021 C 
ATOM      3  C   UNL     1     -42.106 -48.358  26.303  1.00  0.00    -0.070 C 
ATOM      4  C   UNL     1     -41.454 -47.193  26.151  1.00  0.00    -0.001 C 
ATOM      5  C   UNL     1     -40.669 -46.616  27.258  1.00  0.00    -0.004 C 
ATOM      6  C   UNL     1     -40.395 -47.337  28.350  1.00  0.00    -0.020 C 
ATOM      7  C   UNL     1     -40.796 -48.800  28.438  1.00  0.00    -0.011 C 
ATOM      8  C   UNL     1     -39.682 -49.647  27.786  1.00  0.00     0.016 C 
ATOM      9  C   UNL     1     -40.902 -49.213  29.923  1.00  0.00     0.016 C 
ATOM     10  C   UNL     1     -42.863 -48.941  25.144  1.00  0.00     0.040 C 
ENDROOT
TORSDOF 0
ENDMDL
MODEL 8
REMARK VINA RESULT:    -4.271      3.109      5.454
REMARK INTER + INTRA:          -4.271
REMARK INTER:                  -4.271
REMARK INTRA:                   0.000
REMARK UNBOUND:                 0.000
REMARK SMILES CC1=CC=CC(C)(C)[C@H]1C
REMARK SMILES IDX 10 1 9 2 2 3 3 4 4 5 5 6 6 7 7 8 8 9 1 10
REMARK H PARENT
REMARK Flexibility Score: inf
ROOT
ATOM      1  C   UNL     1     -43.818 -48.303  29.328  1.00  0.00     0.013 C 
ATOM      2  C   UNL     1     -42.981 -49.504  28.847  1.00  0.00     0.021 C 
ATOM      3  C   UNL     1     -41.698 -48.975  28.225  1.00  0.00    -0.070 C 
ATOM      4  C   UNL     1     -40.610 -48.790  28.991  1.00  0.00    -0.001 C 
ATOM      5  C   UNL     1     -40.600 -49.210  30.404  1.00  0.00    -0.004 C 
ATOM      6  C   UNL     1     -41.573 -49.987  30.893  1.00  0.00    -0.020 C 
ATOM      7  C   UNL     1     -42.658 -50.539  29.985  1.00  0.00    -0.011 C 
ATOM      8  C   UNL     1     -42.139 -51.850  29.354  1.00  0.00     0.016 C 
ATOM      9  C   UNL     1     -43.907 -50.878  30.828  1.00  0.00     0.016 C 
ATOM     10  C   UNL     1     -41.663 -48.574  26.778  1.00  0.00     0.040 C 
ENDROOT
TORSDOF 0
ENDMDL
MODEL 9
REMARK VINA RESULT:    -4.255      1.403      3.171
REMARK INTER + INTRA:          -4.255
REMARK INTER:                  -4.255
REMARK INTRA:                   0.000
REMARK UNBOUND:                 0.000
REMARK SMILES CC1=CC=CC(C)(C)[C@H]1C
REMARK SMILES IDX 10 1 9 2 2 3 3 4 4 5 5 6 6 7 7 8 8 9 1 10
REMARK H PARENT
REMARK Flexibility Score: inf
ROOT
ATOM      1  C   UNL     1     -43.237 -51.088  32.292  1.00  0.00     0.013 C 
ATOM      2  C   UNL     1     -44.121 -51.142  31.031  1.00  0.00     0.021 C 
ATOM      3  C   UNL     1     -45.564 -51.346  31.467  1.00  0.00    -0.070 C 
ATOM      4  C   UNL     1     -46.344 -50.281  31.715  1.00  0.00    -0.001 C 
ATOM      5  C   UNL     1     -45.863 -48.912  31.450  1.00  0.00    -0.004 C 
ATOM      6  C   UNL     1     -44.743 -48.706  30.748  1.00  0.00    -0.020 C 
ATOM      7  C   UNL     1     -43.993 -49.868  30.120  1.00  0.00    -0.011 C 
ATOM      8  C   UNL     1     -44.622 -50.159  28.740  1.00  0.00     0.016 C 
ATOM      9  C   UNL     1     -42.519 -49.464  29.897  1.00  0.00     0.016 C 
ATOM     10  C   UNL     1     -46.098 -52.729  31.708  1.00  0.00     0.040 C 
ENDROOT
TORSDOF 0
ENDMDL
