MODEL 1
REMARK VINA RESULT:    -4.257      0.000      0.000
REMARK INTER + INTRA:          -5.173
REMARK INTER:                  -4.879
REMARK INTRA:                  -0.295
REMARK UNBOUND:                -0.295
REMARK SMILES COc1ccc(C(C)=O)c(O)c1
REMARK SMILES IDX 6 1 10 2 12 3 3 4 4 5 5 6 7 7 8 8 9 9 11 10 2 12 1 13
REMARK H PARENT 11 11
REMARK Flexibility Score: inf
ROOT
ATOM      1  C   UNL     1     -29.661 -20.041 -32.201  1.00  0.00     0.059 A 
ATOM      2  C   UNL     1     -29.626 -19.953 -33.612  1.00  0.00     0.130 A 
ATOM      3  C   UNL     1     -30.506 -20.725 -34.386  1.00  0.00     0.093 A 
ATOM      4  C   UNL     1     -31.429 -21.583 -33.784  1.00  0.00     0.122 A 
ATOM      5  C   UNL     1     -31.469 -21.671 -32.383  1.00  0.00     0.047 A 
ATOM      6  C   UNL     1     -30.596 -20.908 -31.602  1.00  0.00     0.019 A 
ENDROOT
BRANCH   1   7
ATOM      7  C   UNL     1     -28.730 -19.240 -31.353  1.00  0.00     0.163 C 
ATOM      8  C   UNL     1     -29.069 -18.875 -29.939  1.00  0.00     0.093 C 
ATOM      9  O   UNL     1     -27.614 -18.875 -31.810  1.00  0.00    -0.294 OA
ENDBRANCH   1   7
BRANCH   2  10
ATOM     10  O   UNL     1     -28.729 -19.097 -34.251  1.00  0.00    -0.507 OA
ATOM     11  H   UNL     1     -28.372 -19.294 -35.179  1.00  0.00     0.293 HD
ENDBRANCH   2  10
BRANCH   4  12
ATOM     12  O   UNL     1     -32.284 -22.330 -34.609  1.00  0.00    -0.497 OA
ATOM     13  C   UNL     1     -32.091 -22.517 -36.008  1.00  0.00     0.278 C 
ENDBRANCH   4  12
TORSDOF 3
ENDMDL
MODEL 2
REMARK VINA RESULT:    -3.804      3.055      4.314
REMARK INTER + INTRA:          -4.655
REMARK INTER:                  -4.813
REMARK INTRA:                   0.158
REMARK UNBOUND:                -0.295
REMARK SMILES COc1ccc(C(C)=O)c(O)c1
REMARK SMILES IDX 6 1 10 2 12 3 3 4 4 5 5 6 7 7 8 8 9 9 11 10 2 12 1 13
REMARK H PARENT 11 11
REMARK Flexibility Score: inf
ROOT
ATOM      1  C   UNL     1     -30.297 -19.488 -31.704  1.00  0.00     0.059 A 
ATOM      2  C   UNL     1     -30.411 -19.632 -30.302  1.00  0.00     0.130 A 
ATOM      3  C   UNL     1     -31.649 -19.430 -29.672  1.00  0.00     0.093 A 
ATOM      4  C   UNL     1     -32.783 -19.091 -30.412  1.00  0.00     0.122 A 
ATOM      5  C   UNL     1     -32.676 -18.950 -31.805  1.00  0.00     0.047 A 
ATOM      6  C   UNL     1     -31.448 -19.147 -32.442  1.00  0.00     0.019 A 
ENDROOT
BRANCH   1   7
ATOM      7  C   UNL     1     -28.992 -19.686 -32.399  1.00  0.00     0.163 C 
ATOM      8  C   UNL     1     -27.734 -19.029 -31.916  1.00  0.00     0.093 C 
ATOM      9  O   UNL     1     -28.918 -20.445 -33.402  1.00  0.00    -0.294 OA
ENDBRANCH   1   7
BRANCH   2  10
ATOM     10  O   UNL     1     -29.303 -19.984 -29.529  1.00  0.00    -0.507 OA
ATOM     11  H   UNL     1     -28.787 -19.297 -28.992  1.00  0.00     0.293 HD
ENDBRANCH   2  10
BRANCH   4  12
ATOM     12  O   UNL     1     -33.994 -18.902 -29.727  1.00  0.00    -0.497 OA
ATOM     13  C   UNL     1     -34.121 -18.875 -28.309  1.00  0.00     0.278 C 
ENDBRANCH   4  12
TORSDOF 3
ENDMDL
MODEL 3
REMARK VINA RESULT:    -3.716      2.683      4.633
REMARK INTER + INTRA:          -4.554
REMARK INTER:                  -4.408
REMARK INTRA:                  -0.146
REMARK UNBOUND:                -0.295
REMARK SMILES COc1ccc(C(C)=O)c(O)c1
REMARK SMILES IDX 6 1 10 2 12 3 3 4 4 5 5 6 7 7 8 8 9 9 11 10 2 12 1 13
REMARK H PARENT 11 11
REMARK Flexibility Score: inf
ROOT
ATOM      1  C   UNL     1     -31.353 -20.688 -32.984  1.00  0.00     0.059 A 
ATOM      2  C   UNL     1     -32.132 -19.513 -32.864  1.00  0.00     0.130 A 
ATOM      3  C   UNL     1     -32.349 -18.939 -31.602  1.00  0.00     0.093 A 
ATOM      4  C   UNL     1     -31.800 -19.508 -30.451  1.00  0.00     0.122 A 
ATOM      5  C   UNL     1     -31.024 -20.672 -30.566  1.00  0.00     0.047 A 
ATOM      6  C   UNL     1     -30.804 -21.253 -31.817  1.00  0.00     0.019 A 
ENDROOT
BRANCH   1   7
ATOM      7  C   UNL     1     -31.115 -21.326 -34.311  1.00  0.00     0.163 C 
ATOM      8  C   UNL     1     -32.151 -22.187 -34.970  1.00  0.00     0.093 C 
ATOM      9  O   UNL     1     -30.033 -21.126 -34.925  1.00  0.00    -0.294 OA
ENDBRANCH   1   7
BRANCH   2  10
ATOM     10  O   UNL     1     -32.685 -18.907 -33.993  1.00  0.00    -0.507 OA
ATOM     11  H   UNL     1     -33.225 -19.432 -34.671  1.00  0.00     0.293 HD
ENDBRANCH   2  10
BRANCH   4  12
ATOM     12  O   UNL     1     -32.051 -18.888 -29.217  1.00  0.00    -0.497 OA
ATOM     13  C   UNL     1     -33.317 -18.875 -28.566  1.00  0.00     0.278 C 
ENDBRANCH   4  12
TORSDOF 3
ENDMDL
MODEL 4
REMARK VINA RESULT:    -3.503      1.501      2.252
REMARK INTER + INTRA:          -4.310
REMARK INTER:                  -3.979
REMARK INTRA:                  -0.330
REMARK UNBOUND:                -0.295
REMARK SMILES COc1ccc(C(C)=O)c(O)c1
REMARK SMILES IDX 6 1 10 2 12 3 3 4 4 5 5 6 7 7 8 8 9 9 11 10 2 12 1 13
REMARK H PARENT 11 11
REMARK Flexibility Score: inf
ROOT
ATOM      1  C   UNL     1     -29.869 -20.153 -32.109  1.00  0.00     0.059 A 
ATOM      2  C   UNL     1     -30.707 -21.155 -31.568  1.00  0.00     0.130 A 
ATOM      3  C   UNL     1     -31.500 -21.943 -32.417  1.00  0.00     0.093 A 
ATOM      4  C   UNL     1     -31.472 -21.757 -33.801  1.00  0.00     0.122 A 
ATOM      5  C   UNL     1     -30.639 -20.765 -34.343  1.00  0.00     0.047 A 
ATOM      6  C   UNL     1     -29.848 -19.974 -33.506  1.00  0.00     0.019 A 
ENDROOT
BRANCH   1   7
ATOM      7  C   UNL     1     -29.023 -19.294 -31.230  1.00  0.00     0.163 C 
ATOM      8  C   UNL     1     -27.641 -18.876 -31.631  1.00  0.00     0.093 C 
ATOM      9  O   UNL     1     -29.475 -18.875 -30.130  1.00  0.00    -0.294 OA
ENDBRANCH   1   7
BRANCH   2  10
ATOM     10  O   UNL     1     -30.751 -21.381 -30.192  1.00  0.00    -0.507 OA
ATOM     11  H   UNL     1     -31.473 -20.977 -29.607  1.00  0.00     0.293 HD
ENDBRANCH   2  10
BRANCH   4  12
ATOM     12  O   UNL     1     -32.287 -22.575 -34.600  1.00  0.00    -0.497 OA
ATOM     13  C   UNL     1     -32.407 -22.455 -36.014  1.00  0.00     0.278 C 
ENDBRANCH   4  12
TORSDOF 3
ENDMDL
MODEL 5
REMARK VINA RESULT:    -3.359      2.268      2.632
REMARK INTER + INTRA:          -4.144
REMARK INTER:                  -3.831
REMARK INTRA:                  -0.313
REMARK UNBOUND:                -0.295
REMARK SMILES COc1ccc(C(C)=O)c(O)c1
REMARK SMILES IDX 6 1 10 2 12 3 3 4 4 5 5 6 7 7 8 8 9 9 11 10 2 12 1 13
REMARK H PARENT 11 11
REMARK Flexibility Score: inf
ROOT
ATOM      1  C   UNL     1     -31.477 -19.820 -31.519  1.00  0.00     0.059 A 
ATOM      2  C   UNL     1     -30.995 -21.130 -31.750  1.00  0.00     0.130 A 
ATOM      3  C   UNL     1     -31.140 -21.721 -33.015  1.00  0.00     0.093 A 
ATOM      4  C   UNL     1     -31.753 -21.031 -34.062  1.00  0.00     0.122 A 
ATOM      5  C   UNL     1     -32.231 -19.730 -33.839  1.00  0.00     0.047 A 
ATOM      6  C   UNL     1     -32.094 -19.133 -32.584  1.00  0.00     0.019 A 
ENDROOT
BRANCH   1   7
ATOM      7  C   UNL     1     -31.346 -19.172 -30.183  1.00  0.00     0.163 C 
ATOM      8  C   UNL     1     -32.542 -18.881 -29.327  1.00  0.00     0.093 C 
ATOM      9  O   UNL     1     -30.206 -18.879 -29.730  1.00  0.00    -0.294 OA
ENDBRANCH   1   7
BRANCH   2  10
ATOM     10  O   UNL     1     -30.363 -21.846 -30.732  1.00  0.00    -0.507 OA
ATOM     11  H   UNL     1     -30.181 -22.840 -30.813  1.00  0.00     0.293 HD
ENDBRANCH   2  10
BRANCH   4  12
ATOM     12  O   UNL     1     -31.870 -21.673 -35.305  1.00  0.00    -0.497 OA
ATOM     13  C   UNL     1     -32.655 -22.838 -35.539  1.00  0.00     0.278 C 
ENDBRANCH   4  12
TORSDOF 3
ENDMDL
MODEL 6
REMARK VINA RESULT:    -2.763      2.441      6.075
REMARK INTER + INTRA:          -3.462
REMARK INTER:                  -3.277
REMARK INTRA:                  -0.185
REMARK UNBOUND:                -0.295
REMARK SMILES COc1ccc(C(C)=O)c(O)c1
REMARK SMILES IDX 6 1 10 2 12 3 3 4 4 5 5 6 7 7 8 8 9 9 11 10 2 12 1 13
REMARK H PARENT 11 11
REMARK Flexibility Score: inf
ROOT
ATOM      1  C   UNL     1     -32.697 -21.976 -37.021  1.00  0.00     0.059 A 
ATOM      2  C   UNL     1     -31.566 -22.631 -36.480  1.00  0.00     0.130 A 
ATOM      3  C   UNL     1     -31.190 -22.399 -35.148  1.00  0.00     0.093 A 
ATOM      4  C   UNL     1     -31.920 -21.529 -34.336  1.00  0.00     0.122 A 
ATOM      5  C   UNL     1     -33.046 -20.879 -34.868  1.00  0.00     0.047 A 
ATOM      6  C   UNL     1     -33.428 -21.101 -36.193  1.00  0.00     0.019 A 
ENDROOT
BRANCH   1   7
ATOM      7  C   UNL     1     -33.114 -22.195 -38.436  1.00  0.00     0.163 C 
ATOM      8  C   UNL     1     -34.079 -21.277 -39.125  1.00  0.00     0.093 C 
ATOM      9  O   UNL     1     -32.633 -23.155 -39.096  1.00  0.00    -0.294 OA
ENDBRANCH   1   7
BRANCH   2  10
ATOM     10  O   UNL     1     -30.818 -23.519 -37.254  1.00  0.00    -0.507 OA
ATOM     11  H   UNL     1     -31.084 -23.754 -38.203  1.00  0.00     0.293 HD
ENDBRANCH   2  10
BRANCH   4  12
ATOM     12  O   UNL     1     -31.496 -21.337 -33.012  1.00  0.00    -0.497 OA
ATOM     13  C   UNL     1     -30.213 -20.843 -32.642  1.00  0.00     0.278 C 
ENDBRANCH   4  12
TORSDOF 3
ENDMDL
MODEL 7
REMARK VINA RESULT:    -2.744      2.346      3.377
REMARK INTER + INTRA:          -3.440
REMARK INTER:                  -3.104
REMARK INTRA:                  -0.336
REMARK UNBOUND:                -0.295
REMARK SMILES COc1ccc(C(C)=O)c(O)c1
REMARK SMILES IDX 6 1 10 2 12 3 3 4 4 5 5 6 7 7 8 8 9 9 11 10 2 12 1 13
REMARK H PARENT 11 11
REMARK Flexibility Score: inf
ROOT
ATOM      1  C   UNL     1     -31.765 -20.911 -33.838  1.00  0.00     0.059 A 
ATOM      2  C   UNL     1     -32.807 -20.063 -34.277  1.00  0.00     0.130 A 
ATOM      3  C   UNL     1     -33.573 -20.412 -35.400  1.00  0.00     0.093 A 
ATOM      4  C   UNL     1     -33.326 -21.597 -36.096  1.00  0.00     0.122 A 
ATOM      5  C   UNL     1     -32.294 -22.445 -35.662  1.00  0.00     0.047 A 
ATOM      6  C   UNL     1     -31.524 -22.105 -34.547  1.00  0.00     0.019 A 
ENDROOT
BRANCH   1   7
ATOM      7  C   UNL     1     -30.928 -20.560 -32.654  1.00  0.00     0.163 C 
ATOM      8  C   UNL     1     -29.430 -20.585 -32.712  1.00  0.00     0.093 C 
ATOM      9  O   UNL     1     -31.475 -20.202 -31.576  1.00  0.00    -0.294 OA
ENDBRANCH   1   7
BRANCH   2  10
ATOM     10  O   UNL     1     -33.095 -18.877 -33.600  1.00  0.00    -0.507 OA
ATOM     11  H   UNL     1     -33.918 -18.782 -33.016  1.00  0.00     0.293 HD
ENDBRANCH   2  10
BRANCH   4  12
ATOM     12  O   UNL     1     -34.125 -21.895 -37.212  1.00  0.00    -0.497 OA
ATOM     13  C   UNL     1     -33.798 -21.543 -38.552  1.00  0.00     0.278 C 
ENDBRANCH   4  12
TORSDOF 3
ENDMDL
MODEL 8
REMARK VINA RESULT:    -1.830      2.857      4.331
REMARK INTER + INTRA:          -2.392
REMARK INTER:                  -2.055
REMARK INTRA:                  -0.338
REMARK UNBOUND:                -0.295
REMARK SMILES COc1ccc(C(C)=O)c(O)c1
REMARK SMILES IDX 6 1 10 2 12 3 3 4 4 5 5 6 7 7 8 8 9 9 11 10 2 12 1 13
REMARK H PARENT 11 11
REMARK Flexibility Score: inf
ROOT
ATOM      1  C   UNL     1     -30.269 -19.423 -32.166  1.00  0.00     0.059 A 
ATOM      2  C   UNL     1     -31.678 -19.358 -32.270  1.00  0.00     0.130 A 
ATOM      3  C   UNL     1     -32.460 -19.177 -31.118  1.00  0.00     0.093 A 
ATOM      4  C   UNL     1     -31.868 -19.054 -29.860  1.00  0.00     0.122 A 
ATOM      5  C   UNL     1     -30.469 -19.115 -29.753  1.00  0.00     0.047 A 
ATOM      6  C   UNL     1     -29.681 -19.296 -30.892  1.00  0.00     0.019 A 
ENDROOT
BRANCH   1   7
ATOM      7  C   UNL     1     -29.413 -19.625 -33.371  1.00  0.00     0.163 C 
ATOM      8  C   UNL     1     -28.127 -18.877 -33.559  1.00  0.00     0.093 C 
ATOM      9  O   UNL     1     -29.748 -20.461 -34.252  1.00  0.00    -0.294 OA
ENDBRANCH   1   7
BRANCH   2  10
ATOM     10  O   UNL     1     -32.307 -19.462 -33.511  1.00  0.00    -0.507 OA
ATOM     11  H   UNL     1     -32.124 -20.237 -34.138  1.00  0.00     0.293 HD
ENDBRANCH   2  10
BRANCH   4  12
ATOM     12  O   UNL     1     -32.701 -18.875 -28.745  1.00  0.00    -0.497 OA
ATOM     13  C   UNL     1     -34.122 -18.958 -28.781  1.00  0.00     0.278 C 
ENDBRANCH   4  12
TORSDOF 3
ENDMDL
