MODEL 1
REMARK VINA RESULT:    -2.832      0.000      0.000
REMARK INTER + INTRA:          -3.080
REMARK INTER:                  -3.080
REMARK INTRA:                   0.000
REMARK UNBOUND:                 0.000
REMARK SMILES Cc1cc(O)c2c(c1)C(=O)c1cc(O)cc(O)c1C2=O
REMARK SMILES IDX 1 1 2 2 8 3 7 4 6 5 4 6 3 7 19 8 20 9 18 10 11 11 9 12 10 13
REMARK SMILES IDX 12 14 13 15 15 16 16 17 5 18 17 20 14 22
REMARK H PARENT 5 19 17 21 14 23
REMARK Flexibility Score: inf
ROOT
ATOM      1  C   UNL     1     -12.015 -15.754  15.677  1.00  0.00     0.044 C 
ATOM      2  C   UNL     1     -11.261 -16.900  15.068  1.00  0.00    -0.047 A 
ATOM      3  C   UNL     1     -10.806 -16.822  13.748  1.00  0.00     0.016 A 
ATOM      4  C   UNL     1     -10.061 -17.872  13.183  1.00  0.00     0.038 A 
ATOM      5  C   UNL     1      -9.743 -19.007  13.962  1.00  0.00     0.076 A 
ATOM      6  C   UNL     1     -10.246 -19.101  15.286  1.00  0.00     0.127 A 
ATOM      7  C   UNL     1     -10.967 -18.035  15.832  1.00  0.00     0.050 A 
ATOM      8  C   UNL     1      -8.831 -20.026  13.379  1.00  0.00     0.201 C 
ATOM      9  O   UNL     1      -8.080 -20.699  14.133  1.00  0.00    -0.288 OA
ATOM     10  C   UNL     1      -8.670 -20.114  11.905  1.00  0.00     0.076 A 
ATOM     11  C   UNL     1      -8.989 -18.976  11.130  1.00  0.00     0.041 A 
ATOM     12  C   UNL     1      -9.611 -17.794  11.774  1.00  0.00     0.194 C 
ATOM     13  O   UNL     1      -9.779 -16.731  11.114  1.00  0.00    -0.289 OA
ATOM     14  C   UNL     1      -8.720 -18.972   9.750  1.00  0.00     0.059 A 
ATOM     15  C   UNL     1      -8.154 -20.091   9.135  1.00  0.00     0.120 A 
ATOM     16  C   UNL     1      -7.875 -21.230   9.889  1.00  0.00     0.093 A 
ATOM     17  C   UNL     1      -8.152 -21.267  11.260  1.00  0.00     0.131 A 
ENDROOT
BRANCH   6  18
ATOM     18  O   UNL     1     -10.080 -20.240  16.078  1.00  0.00    -0.507 OA
ATOM     19  H   UNL     1      -9.351 -20.338  16.770  1.00  0.00     0.293 HD
ENDBRANCH   6  18
BRANCH  17  20
ATOM     20  O   UNL     1      -7.931 -22.472  11.930  1.00  0.00    -0.507 OA
ATOM     21  H   UNL     1      -7.726 -23.344  11.460  1.00  0.00     0.293 HD
ENDBRANCH  17  20
BRANCH  15  22
ATOM     22  O   UNL     1      -7.875 -20.087   7.770  1.00  0.00    -0.508 OA
ATOM     23  H   UNL     1      -6.994 -20.436   7.409  1.00  0.00     0.293 HD
ENDBRANCH  15  22
TORSDOF 3
ENDMDL
MODEL 2
REMARK VINA RESULT:    -2.822      1.298      5.496
REMARK INTER + INTRA:          -3.070
REMARK INTER:                  -3.070
REMARK INTRA:                   0.000
REMARK UNBOUND:                 0.000
REMARK SMILES Cc1cc(O)c2c(c1)C(=O)c1cc(O)cc(O)c1C2=O
REMARK SMILES IDX 1 1 2 2 8 3 7 4 6 5 4 6 3 7 19 8 20 9 18 10 11 11 9 12 10 13
REMARK SMILES IDX 12 14 13 15 15 16 16 17 5 18 17 20 14 22
REMARK H PARENT 5 19 17 21 14 23
REMARK Flexibility Score: inf
ROOT
ATOM      1  C   UNL     1      -7.875 -20.126   7.644  1.00  0.00     0.044 C 
ATOM      2  C   UNL     1      -8.258 -20.149   9.096  1.00  0.00    -0.047 A 
ATOM      3  C   UNL     1      -8.973 -19.083   9.651  1.00  0.00     0.016 A 
ATOM      4  C   UNL     1      -9.374 -19.114  10.998  1.00  0.00     0.038 A 
ATOM      5  C   UNL     1      -9.078 -20.244  11.794  1.00  0.00     0.076 A 
ATOM      6  C   UNL     1      -8.314 -21.301  11.238  1.00  0.00     0.127 A 
ATOM      7  C   UNL     1      -7.943 -21.256   9.890  1.00  0.00     0.050 A 
ATOM      8  C   UNL     1      -9.646 -20.303  13.167  1.00  0.00     0.201 C 
ATOM      9  O   UNL     1      -9.919 -21.419  13.684  1.00  0.00    -0.288 OA
ATOM     10  C   UNL     1     -10.065 -19.051  13.847  1.00  0.00     0.076 A 
ATOM     11  C   UNL     1     -10.361 -17.924  13.046  1.00  0.00     0.041 A 
ATOM     12  C   UNL     1     -10.104 -17.967  11.587  1.00  0.00     0.194 C 
ATOM     13  O   UNL     1     -10.484 -17.014  10.851  1.00  0.00    -0.289 OA
ATOM     14  C   UNL     1     -10.892 -16.766  13.639  1.00  0.00     0.059 A 
ATOM     15  C   UNL     1     -11.116 -16.713  15.017  1.00  0.00     0.120 A 
ATOM     16  C   UNL     1     -10.789 -17.809  15.815  1.00  0.00     0.093 A 
ATOM     17  C   UNL     1     -10.240 -18.966  15.253  1.00  0.00     0.131 A 
ENDROOT
BRANCH   6  18
ATOM     18  O   UNL     1      -7.875 -22.394  11.990  1.00  0.00    -0.507 OA
ATOM     19  H   UNL     1      -8.066 -23.354  11.743  1.00  0.00     0.293 HD
ENDBRANCH   6  18
BRANCH  17  20
ATOM     20  O   UNL     1      -9.853 -19.986  16.125  1.00  0.00    -0.507 OA
ATOM     21  H   UNL     1      -9.241 -20.746  15.860  1.00  0.00     0.293 HD
ENDBRANCH  17  20
BRANCH  15  22
ATOM     22  O   UNL     1     -11.654 -15.572  15.607  1.00  0.00    -0.508 OA
ATOM     23  H   UNL     1     -11.268 -14.651  15.430  1.00  0.00     0.293 HD
ENDBRANCH  15  22
TORSDOF 3
ENDMDL
