MODEL 1
REMARK VINA RESULT:     0.435      0.000      0.000
REMARK INTER + INTRA:           0.195
REMARK INTER:                   0.499
REMARK INTRA:                  -0.304
REMARK UNBOUND:                -0.304
REMARK SMILES O=C1C[C@H](c2ccc(O)cc2)Oc2cc(O)cc(O)c21
REMARK SMILES IDX 3 1 4 2 12 3 13 4 14 5 15 6 17 7 18 8 20 9 2 10 1 11 5 12
REMARK SMILES IDX 6 13 11 14 7 15 10 16 8 17 9 18 19 20 16 22
REMARK H PARENT 9 19 19 21 16 23
REMARK Flexibility Score: inf
ROOT
ATOM      1  C   UNL     1      13.021  38.023 -11.683  1.00  0.00     0.131 C 
ATOM      2  C   UNL     1      13.122  38.876 -10.411  1.00  0.00     0.211 C 
ATOM      3  O   UNL     1      13.848  40.081 -10.669  1.00  0.00    -0.484 OA
ATOM      4  C   UNL     1      14.978  40.120 -11.496  1.00  0.00     0.138 A 
ATOM      5  C   UNL     1      15.790  41.256 -11.482  1.00  0.00     0.093 A 
ATOM      6  C   UNL     1      16.930  41.319 -12.283  1.00  0.00     0.123 A 
ATOM      7  C   UNL     1      17.246  40.250 -13.128  1.00  0.00     0.093 A 
ATOM      8  C   UNL     1      16.424  39.117 -13.189  1.00  0.00     0.133 A 
ATOM      9  C   UNL     1      15.290  39.030 -12.340  1.00  0.00     0.102 A 
ATOM     10  C   UNL     1      14.391  37.852 -12.269  1.00  0.00     0.174 C 
ATOM     11  O   UNL     1      14.767  36.708 -12.637  1.00  0.00    -0.294 OA
ENDROOT
BRANCH   2  12
ATOM     12  C   UNL     1      11.749  39.204  -9.877  1.00  0.00    -0.007 A 
ATOM     13  C   UNL     1      10.606  38.630 -10.461  1.00  0.00     0.011 A 
ATOM     14  C   UNL     1      11.590  40.131  -8.831  1.00  0.00     0.011 A 
ATOM     15  C   UNL     1       9.331  38.956  -9.988  1.00  0.00     0.046 A 
ATOM     16  C   UNL     1      10.315  40.455  -8.361  1.00  0.00     0.046 A 
ATOM     17  C   UNL     1       9.181  39.867  -8.939  1.00  0.00     0.115 A 
BRANCH  17  18
ATOM     18  O   UNL     1       7.905  40.182  -8.479  1.00  0.00    -0.508 OA
ATOM     19  H   UNL     1       7.172  39.483  -8.431  1.00  0.00     0.293 HD
ENDBRANCH  17  18
ENDBRANCH   2  12
BRANCH   8  20
ATOM     20  O   UNL     1      16.755  38.134 -14.125  1.00  0.00    -0.507 OA
ATOM     21  H   UNL     1      17.287  38.311 -14.964  1.00  0.00     0.293 HD
ENDBRANCH   8  20
BRANCH   6  22
ATOM     22  O   UNL     1      17.740  42.451 -12.237  1.00  0.00    -0.508 OA
ATOM     23  H   UNL     1      17.478  43.310 -12.709  1.00  0.00     0.293 HD
ENDBRANCH   6  22
TORSDOF 4
ENDMDL
MODEL 2
REMARK VINA RESULT:     0.529      2.034      6.785
REMARK INTER + INTRA:           0.302
REMARK INTER:                   0.617
REMARK INTRA:                  -0.315
REMARK UNBOUND:                -0.304
REMARK SMILES O=C1C[C@H](c2ccc(O)cc2)Oc2cc(O)cc(O)c21
REMARK SMILES IDX 3 1 4 2 12 3 13 4 14 5 15 6 17 7 18 8 20 9 2 10 1 11 5 12
REMARK SMILES IDX 6 13 11 14 7 15 10 16 8 17 9 18 19 20 16 22
REMARK H PARENT 9 19 19 21 16 23
REMARK Flexibility Score: inf
ROOT
ATOM      1  C   UNL     1      15.148  38.722 -12.588  1.00  0.00     0.131 C 
ATOM      2  C   UNL     1      15.309  40.246 -12.683  1.00  0.00     0.211 C 
ATOM      3  O   UNL     1      14.979  40.866 -11.437  1.00  0.00    -0.484 OA
ATOM      4  C   UNL     1      13.913  40.433 -10.637  1.00  0.00     0.138 A 
ATOM      5  C   UNL     1      13.480  41.247  -9.587  1.00  0.00     0.093 A 
ATOM      6  C   UNL     1      12.412  40.851  -8.783  1.00  0.00     0.123 A 
ATOM      7  C   UNL     1      11.789  39.619  -9.009  1.00  0.00     0.093 A 
ATOM      8  C   UNL     1      12.232  38.769 -10.030  1.00  0.00     0.133 A 
ATOM      9  C   UNL     1      13.288  39.190 -10.882  1.00  0.00     0.102 A 
ATOM     10  C   UNL     1      13.790  38.405 -12.035  1.00  0.00     0.174 C 
ATOM     11  O   UNL     1      13.089  37.522 -12.593  1.00  0.00    -0.294 OA
ENDROOT
BRANCH   2  12
ATOM     12  C   UNL     1      16.717  40.611 -13.085  1.00  0.00    -0.007 A 
ATOM     13  C   UNL     1      17.518  39.687 -13.778  1.00  0.00     0.011 A 
ATOM     14  C   UNL     1      17.266  41.853 -12.721  1.00  0.00     0.011 A 
ATOM     15  C   UNL     1      18.833  40.011 -14.125  1.00  0.00     0.046 A 
ATOM     16  C   UNL     1      18.581  42.175 -13.069  1.00  0.00     0.046 A 
ATOM     17  C   UNL     1      19.368  41.254 -13.773  1.00  0.00     0.115 A 
BRANCH  17  18
ATOM     18  O   UNL     1      20.680  41.562 -14.125  1.00  0.00    -0.508 OA
ATOM     19  H   UNL     1      20.890  42.289 -14.799  1.00  0.00     0.293 HD
ENDBRANCH  17  18
ENDBRANCH   2  12
BRANCH   8  20
ATOM     20  O   UNL     1      11.622  37.517 -10.133  1.00  0.00    -0.507 OA
ATOM     21  H   UNL     1      11.215  37.157 -10.984  1.00  0.00     0.293 HD
ENDBRANCH   8  20
BRANCH   6  22
ATOM     22  O   UNL     1      11.981  41.687  -7.755  1.00  0.00    -0.508 OA
ATOM     23  H   UNL     1      11.010  41.970  -7.674  1.00  0.00     0.293 HD
ENDBRANCH   6  22
TORSDOF 4
ENDMDL
MODEL 3
REMARK VINA RESULT:     1.617      2.832      4.494
REMARK INTER + INTRA:           1.549
REMARK INTER:                   1.860
REMARK INTRA:                  -0.312
REMARK UNBOUND:                -0.304
REMARK SMILES O=C1C[C@H](c2ccc(O)cc2)Oc2cc(O)cc(O)c21
REMARK SMILES IDX 3 1 4 2 12 3 13 4 14 5 15 6 17 7 18 8 20 9 2 10 1 11 5 12
REMARK SMILES IDX 6 13 11 14 7 15 10 16 8 17 9 18 19 20 16 22
REMARK H PARENT 9 19 19 21 16 23
REMARK Flexibility Score: inf
ROOT
ATOM      1  C   UNL     1      16.488  41.133 -11.770  1.00  0.00     0.131 C 
ATOM      2  C   UNL     1      14.967  41.320 -11.871  1.00  0.00     0.211 C 
ATOM      3  O   UNL     1      14.303  40.054 -11.876  1.00  0.00    -0.484 OA
ATOM      4  C   UNL     1      14.807  38.939 -12.560  1.00  0.00     0.138 A 
ATOM      5  C   UNL     1      13.979  37.831 -12.751  1.00  0.00     0.093 A 
ATOM      6  C   UNL     1      14.446  36.712 -13.440  1.00  0.00     0.123 A 
ATOM      7  C   UNL     1      15.761  36.687 -13.917  1.00  0.00     0.093 A 
ATOM      8  C   UNL     1      16.622  37.771 -13.701  1.00  0.00     0.133 A 
ATOM      9  C   UNL     1      16.134  38.931 -13.042  1.00  0.00     0.102 A 
ATOM     10  C   UNL     1      16.933  40.161 -12.822  1.00  0.00     0.174 C 
ATOM     11  O   UNL     1      17.939  40.434 -13.528  1.00  0.00    -0.294 OA
ENDROOT
BRANCH   2  12
ATOM     12  C   UNL     1      14.456  42.167 -10.731  1.00  0.00    -0.007 A 
ATOM     13  C   UNL     1      13.411  41.701  -9.916  1.00  0.00     0.011 A 
ATOM     14  C   UNL     1      14.978  43.454 -10.505  1.00  0.00     0.011 A 
ATOM     15  C   UNL     1      12.915  42.497  -8.878  1.00  0.00     0.046 A 
ATOM     16  C   UNL     1      14.481  44.247  -9.468  1.00  0.00     0.046 A 
ATOM     17  C   UNL     1      13.448  43.769  -8.650  1.00  0.00     0.115 A 
BRANCH  17  18
ATOM     18  O   UNL     1      12.943  44.550  -7.613  1.00  0.00    -0.508 OA
ATOM     19  H   UNL     1      12.053  45.027  -7.695  1.00  0.00     0.293 HD
ENDBRANCH  17  18
ENDBRANCH   2  12
BRANCH   8  20
ATOM     20  O   UNL     1      17.946  37.633 -14.124  1.00  0.00    -0.507 OA
ATOM     21  H   UNL     1      18.214  37.355 -15.057  1.00  0.00     0.293 HD
ENDBRANCH   8  20
BRANCH   6  22
ATOM     22  O   UNL     1      13.598  35.625 -13.641  1.00  0.00    -0.508 OA
ATOM     23  H   UNL     1      12.609  35.677 -13.421  1.00  0.00     0.293 HD
ENDBRANCH   6  22
TORSDOF 4
ENDMDL
MODEL 4
REMARK VINA RESULT:     2.017      1.847      6.622
REMARK INTER + INTRA:           2.007
REMARK INTER:                   2.296
REMARK INTRA:                  -0.289
REMARK UNBOUND:                -0.304
REMARK SMILES O=C1C[C@H](c2ccc(O)cc2)Oc2cc(O)cc(O)c21
REMARK SMILES IDX 3 1 4 2 12 3 13 4 14 5 15 6 17 7 18 8 20 9 2 10 1 11 5 12
REMARK SMILES IDX 6 13 11 14 7 15 10 16 8 17 9 18 19 20 16 22
REMARK H PARENT 9 19 19 21 16 23
REMARK Flexibility Score: inf
ROOT
ATOM      1  C   UNL     1      13.058  38.228 -12.510  1.00  0.00     0.131 C 
ATOM      2  C   UNL     1      13.860  39.530 -12.372  1.00  0.00     0.211 C 
ATOM      3  O   UNL     1      13.868  39.975 -11.013  1.00  0.00    -0.484 OA
ATOM      4  C   UNL     1      12.743  39.885 -10.182  1.00  0.00     0.138 A 
ATOM      5  C   UNL     1      12.737  40.583  -8.973  1.00  0.00     0.093 A 
ATOM      6  C   UNL     1      11.627  40.525  -8.130  1.00  0.00     0.123 A 
ATOM      7  C   UNL     1      10.525  39.740  -8.484  1.00  0.00     0.093 A 
ATOM      8  C   UNL     1      10.526  38.999  -9.673  1.00  0.00     0.133 A 
ATOM      9  C   UNL     1      11.635  39.093 -10.555  1.00  0.00     0.102 A 
ATOM     10  C   UNL     1      11.713  38.411 -11.870  1.00  0.00     0.174 C 
ATOM     11  O   UNL     1      10.682  38.031 -12.483  1.00  0.00    -0.294 OA
ENDROOT
BRANCH   2  12
ATOM     12  C   UNL     1      15.275  39.339 -12.862  1.00  0.00    -0.007 A 
ATOM     13  C   UNL     1      15.784  38.046 -13.071  1.00  0.00     0.011 A 
ATOM     14  C   UNL     1      16.119  40.446 -13.059  1.00  0.00     0.011 A 
ATOM     15  C   UNL     1      17.104  37.866 -13.495  1.00  0.00     0.046 A 
ATOM     16  C   UNL     1      17.438  40.264 -13.483  1.00  0.00     0.046 A 
ATOM     17  C   UNL     1      17.934  38.971 -13.703  1.00  0.00     0.115 A 
BRANCH  17  18
ATOM     18  O   UNL     1      19.247  38.776 -14.125  1.00  0.00    -0.508 OA
ATOM     19  H   UNL     1      19.457  38.335 -15.013  1.00  0.00     0.293 HD
ENDBRANCH  17  18
ENDBRANCH   2  12
BRANCH   8  20
ATOM     20  O   UNL     1       9.430  38.166  -9.911  1.00  0.00    -0.507 OA
ATOM     21  H   UNL     1       8.977  37.612  -9.199  1.00  0.00     0.293 HD
ENDBRANCH   8  20
BRANCH   6  22
ATOM     22  O   UNL     1      11.630  41.247  -6.939  1.00  0.00    -0.508 OA
ATOM     23  H   UNL     1      11.415  40.807  -6.051  1.00  0.00     0.293 HD
ENDBRANCH   6  22
TORSDOF 4
ENDMDL
