MODEL 1
REMARK VINA RESULT:    -3.185      0.000      0.000
REMARK INTER + INTRA:          -4.351
REMARK INTER:                  -4.116
REMARK INTRA:                  -0.235
REMARK UNBOUND:                -0.235
REMARK SMILES CCCCCCC(=O)[O-]
REMARK SMILES IDX 5 1 6 2 7 3 8 4 9 5 4 6 3 7 2 8 1 9
REMARK H PARENT
REMARK Flexibility Score: inf
ROOT
ATOM      1  C   UNL     1       8.239 -29.529  15.993  1.00  0.00     0.006 C 
ENDROOT
BRANCH   1   2
ATOM      2  C   UNL     1       8.407 -29.984  17.449  1.00  0.00     0.053 C 
BRANCH   2   3
ATOM      3  C   UNL     1       9.293 -29.034  18.193  1.00  0.00     0.041 C 
ATOM      4  O   UNL     1       9.256 -28.989  19.451  1.00  0.00    -0.550 OA
ATOM      5  O   UNL     1      10.122 -28.167  17.496  1.00  0.00    -0.550 OA
ENDBRANCH   2   3
ENDBRANCH   1   2
BRANCH   1   6
ATOM      6  C   UNL     1       8.979 -30.439  15.000  1.00  0.00     0.000 C 
BRANCH   6   7
ATOM      7  C   UNL     1       9.366 -29.709  13.705  1.00  0.00    -0.000 C 
BRANCH   7   8
ATOM      8  C   UNL     1      10.887 -29.719  13.504  1.00  0.00    -0.003 C 
ATOM      9  C   UNL     1      11.549 -28.561  14.242  1.00  0.00     0.004 C 
ENDBRANCH   7   8
ENDBRANCH   6   7
ENDBRANCH   1   6
TORSDOF 5
ENDMDL
MODEL 2
REMARK VINA RESULT:    -3.164      1.073      1.280
REMARK INTER + INTRA:          -4.324
REMARK INTER:                  -4.079
REMARK INTRA:                  -0.245
REMARK UNBOUND:                -0.235
REMARK SMILES CCCCCCC(=O)[O-]
REMARK SMILES IDX 5 1 6 2 7 3 8 4 9 5 4 6 3 7 2 8 1 9
REMARK H PARENT
REMARK Flexibility Score: inf
ROOT
ATOM      1  C   UNL     1       7.710 -29.867  15.898  1.00  0.00     0.006 C 
ENDROOT
BRANCH   1   2
ATOM      2  C   UNL     1       8.871 -29.470  16.819  1.00  0.00     0.053 C 
BRANCH   2   3
ATOM      3  C   UNL     1       8.435 -29.501  18.251  1.00  0.00     0.041 C 
ATOM      4  O   UNL     1       7.334 -30.026  18.566  1.00  0.00    -0.550 OA
ATOM      5  O   UNL     1       9.221 -28.907  19.229  1.00  0.00    -0.550 OA
ENDBRANCH   2   3
ENDBRANCH   1   2
BRANCH   1   6
ATOM      6  C   UNL     1       8.113 -29.895  14.415  1.00  0.00     0.000 C 
BRANCH   6   7
ATOM      7  C   UNL     1       9.567 -30.347  14.207  1.00  0.00    -0.000 C 
BRANCH   7   8
ATOM      8  C   UNL     1      10.338 -29.335  13.350  1.00  0.00    -0.003 C 
ATOM      9  C   UNL     1      11.479 -28.702  14.139  1.00  0.00     0.004 C 
ENDBRANCH   7   8
ENDBRANCH   6   7
ENDBRANCH   1   6
TORSDOF 5
ENDMDL
MODEL 3
REMARK VINA RESULT:    -3.142      2.438      4.726
REMARK INTER + INTRA:          -4.296
REMARK INTER:                  -4.118
REMARK INTRA:                  -0.178
REMARK UNBOUND:                -0.235
REMARK SMILES CCCCCCC(=O)[O-]
REMARK SMILES IDX 5 1 6 2 7 3 8 4 9 5 4 6 3 7 2 8 1 9
REMARK H PARENT
REMARK Flexibility Score: inf
ROOT
ATOM      1  C   UNL     1       9.325 -29.219  15.927  1.00  0.00     0.006 C 
ENDROOT
BRANCH   1   2
ATOM      2  C   UNL     1       9.196 -29.536  14.432  1.00  0.00     0.053 C 
BRANCH   2   3
ATOM      3  C   UNL     1      10.523 -29.400  13.753  1.00  0.00     0.041 C 
ATOM      4  O   UNL     1      10.763 -30.043  12.697  1.00  0.00    -0.550 OA
ATOM      5  O   UNL     1      11.511 -28.602  14.313  1.00  0.00    -0.550 OA
ENDBRANCH   2   3
ENDBRANCH   1   2
BRANCH   1   6
ATOM      6  C   UNL     1       8.498 -30.170  16.807  1.00  0.00     0.000 C 
BRANCH   6   7
ATOM      7  C   UNL     1       8.074 -29.527  18.136  1.00  0.00    -0.000 C 
BRANCH   7   8
ATOM      8  C   UNL     1       6.546 -29.464  18.251  1.00  0.00    -0.003 C 
ATOM      9  C   UNL     1       5.878 -29.801  16.922  1.00  0.00     0.004 C 
ENDBRANCH   7   8
ENDBRANCH   6   7
ENDBRANCH   1   6
TORSDOF 5
ENDMDL
MODEL 4
REMARK VINA RESULT:    -3.122      2.732      3.817
REMARK INTER + INTRA:          -4.269
REMARK INTER:                  -3.987
REMARK INTRA:                  -0.282
REMARK UNBOUND:                -0.235
REMARK SMILES CCCCCCC(=O)[O-]
REMARK SMILES IDX 5 1 6 2 7 3 8 4 9 5 4 6 3 7 2 8 1 9
REMARK H PARENT
REMARK Flexibility Score: inf
ROOT
ATOM      1  C   UNL     1       7.817 -30.052  18.438  1.00  0.00     0.006 C 
ENDROOT
BRANCH   1   2
ATOM      2  C   UNL     1       8.986 -29.078  18.638  1.00  0.00     0.053 C 
BRANCH   2   3
ATOM      3  C   UNL     1       9.580 -28.699  17.317  1.00  0.00     0.041 C 
ATOM      4  O   UNL     1      10.360 -27.713  17.233  1.00  0.00    -0.550 OA
ATOM      5  O   UNL     1       9.234 -29.403  16.172  1.00  0.00    -0.550 OA
ENDBRANCH   2   3
ENDBRANCH   1   2
BRANCH   1   6
ATOM      6  C   UNL     1       6.470 -29.331  18.264  1.00  0.00     0.000 C 
BRANCH   6   7
ATOM      7  C   UNL     1       5.875 -29.524  16.860  1.00  0.00    -0.000 C 
BRANCH   7   8
ATOM      8  C   UNL     1       6.100 -30.957  16.362  1.00  0.00    -0.003 C 
ATOM      9  C   UNL     1       6.076 -31.021  14.838  1.00  0.00     0.004 C 
ENDBRANCH   7   8
ENDBRANCH   6   7
ENDBRANCH   1   6
TORSDOF 5
ENDMDL
MODEL 5
REMARK VINA RESULT:    -3.061      1.951      3.431
REMARK INTER + INTRA:          -4.190
REMARK INTER:                  -3.931
REMARK INTRA:                  -0.259
REMARK UNBOUND:                -0.235
REMARK SMILES CCCCCCC(=O)[O-]
REMARK SMILES IDX 5 1 6 2 7 3 8 4 9 5 4 6 3 7 2 8 1 9
REMARK H PARENT
REMARK Flexibility Score: inf
ROOT
ATOM      1  C   UNL     1       8.440 -29.528  15.976  1.00  0.00     0.006 C 
ENDROOT
BRANCH   1   2
ATOM      2  C   UNL     1       8.564 -29.836  17.474  1.00  0.00     0.053 C 
BRANCH   2   3
ATOM      3  C   UNL     1       9.381 -28.784  18.156  1.00  0.00     0.041 C 
ATOM      4  O   UNL     1       9.246 -28.579  19.392  1.00  0.00    -0.550 OA
ATOM      5  O   UNL     1      10.256 -27.996  17.419  1.00  0.00    -0.550 OA
ENDBRANCH   2   3
ENDBRANCH   1   2
BRANCH   1   6
ATOM      6  C   UNL     1       7.135 -30.066  15.368  1.00  0.00     0.000 C 
BRANCH   6   7
ATOM      7  C   UNL     1       6.308 -30.885  16.372  1.00  0.00    -0.000 C 
BRANCH   7   8
ATOM      8  C   UNL     1       6.277 -32.366  15.976  1.00  0.00    -0.003 C 
ATOM      9  C   UNL     1       7.030 -33.224  16.988  1.00  0.00     0.004 C 
ENDBRANCH   7   8
ENDBRANCH   6   7
ENDBRANCH   1   6
TORSDOF 5
ENDMDL
MODEL 6
REMARK VINA RESULT:    -3.047      2.414      4.286
REMARK INTER + INTRA:          -4.173
REMARK INTER:                  -3.923
REMARK INTRA:                  -0.250
REMARK UNBOUND:                -0.235
REMARK SMILES CCCCCCC(=O)[O-]
REMARK SMILES IDX 5 1 6 2 7 3 8 4 9 5 4 6 3 7 2 8 1 9
REMARK H PARENT
REMARK Flexibility Score: inf
ROOT
ATOM      1  C   UNL     1       9.012 -30.906  14.937  1.00  0.00     0.006 C 
ENDROOT
BRANCH   1   2
ATOM      2  C   UNL     1       9.447 -29.443  14.772  1.00  0.00     0.053 C 
BRANCH   2   3
ATOM      3  C   UNL     1      10.637 -29.351  13.869  1.00  0.00     0.041 C 
ATOM      4  O   UNL     1      11.631 -28.652  14.201  1.00  0.00    -0.550 OA
ATOM      5  O   UNL     1      10.628 -29.996  12.640  1.00  0.00    -0.550 OA
ENDBRANCH   2   3
ENDBRANCH   1   2
BRANCH   1   6
ATOM      6  C   UNL     1       8.293 -31.163  16.270  1.00  0.00     0.000 C 
BRANCH   6   7
ATOM      7  C   UNL     1       7.620 -29.900  16.832  1.00  0.00    -0.000 C 
BRANCH   7   8
ATOM      8  C   UNL     1       7.907 -29.747  18.331  1.00  0.00    -0.003 C 
ATOM      9  C   UNL     1       9.183 -28.947  18.569  1.00  0.00     0.004 C 
ENDBRANCH   7   8
ENDBRANCH   6   7
ENDBRANCH   1   6
TORSDOF 5
ENDMDL
MODEL 7
REMARK VINA RESULT:    -3.046      1.376      1.760
REMARK INTER + INTRA:          -4.171
REMARK INTER:                  -3.967
REMARK INTRA:                  -0.204
REMARK UNBOUND:                -0.235
REMARK SMILES CCCCCCC(=O)[O-]
REMARK SMILES IDX 5 1 6 2 7 3 8 4 9 5 4 6 3 7 2 8 1 9
REMARK H PARENT
REMARK Flexibility Score: inf
ROOT
ATOM      1  C   UNL     1       7.281 -30.005  15.727  1.00  0.00     0.006 C 
ENDROOT
BRANCH   1   2
ATOM      2  C   UNL     1       8.071 -30.480  16.954  1.00  0.00     0.053 C 
BRANCH   2   3
ATOM      3  C   UNL     1       7.744 -29.633  18.144  1.00  0.00     0.041 C 
ATOM      4  O   UNL     1       6.547 -29.485  18.507  1.00  0.00    -0.550 OA
ATOM      5  O   UNL     1       8.756 -28.969  18.823  1.00  0.00    -0.550 OA
ENDBRANCH   2   3
ENDBRANCH   1   2
BRANCH   1   6
ATOM      6  C   UNL     1       8.170 -29.814  14.489  1.00  0.00     0.000 C 
BRANCH   6   7
ATOM      7  C   UNL     1       9.630 -29.500  14.852  1.00  0.00    -0.000 C 
BRANCH   7   8
ATOM      8  C   UNL     1      10.507 -29.445  13.595  1.00  0.00    -0.003 C 
ATOM      9  C   UNL     1       9.665 -29.218  12.343  1.00  0.00     0.004 C 
ENDBRANCH   7   8
ENDBRANCH   6   7
ENDBRANCH   1   6
TORSDOF 5
ENDMDL
MODEL 8
REMARK VINA RESULT:    -2.955      2.401      4.390
REMARK INTER + INTRA:          -4.054
REMARK INTER:                  -3.730
REMARK INTRA:                  -0.324
REMARK UNBOUND:                -0.235
REMARK SMILES CCCCCCC(=O)[O-]
REMARK SMILES IDX 5 1 6 2 7 3 8 4 9 5 4 6 3 7 2 8 1 9
REMARK H PARENT
REMARK Flexibility Score: inf
ROOT
ATOM      1  C   UNL     1       6.611 -30.641  15.977  1.00  0.00     0.006 C 
ENDROOT
BRANCH   1   2
ATOM      2  C   UNL     1       7.026 -30.140  14.587  1.00  0.00     0.053 C 
BRANCH   2   3
ATOM      3  C   UNL     1       8.518 -30.109  14.468  1.00  0.00     0.041 C 
ATOM      4  O   UNL     1       9.187 -29.267  15.123  1.00  0.00    -0.550 OA
ATOM      5  O   UNL     1       9.164 -30.975  13.597  1.00  0.00    -0.550 OA
ENDBRANCH   2   3
ENDBRANCH   1   2
BRANCH   1   6
ATOM      6  C   UNL     1       5.951 -29.545  16.828  1.00  0.00     0.000 C 
BRANCH   6   7
ATOM      7  C   UNL     1       6.507 -29.493  18.259  1.00  0.00    -0.000 C 
BRANCH   7   8
ATOM      8  C   UNL     1       7.981 -29.916  18.290  1.00  0.00    -0.003 C 
ATOM      9  C   UNL     1       8.877 -28.764  18.733  1.00  0.00     0.004 C 
ENDBRANCH   7   8
ENDBRANCH   6   7
ENDBRANCH   1   6
TORSDOF 5
ENDMDL
