MODEL 1
REMARK VINA RESULT:    -6.729      0.000      0.000
REMARK INTER + INTRA:          -8.676
REMARK INTER:                  -8.303
REMARK INTRA:                  -0.373
REMARK UNBOUND:                -0.373
REMARK SMILES Oc1cc(O)c2cc(O)c(-c3cc(O)c(O)c(O)c3)[o+]c2c1
REMARK SMILES IDX 10 1 20 2 21 3 22 4 2 5 3 6 4 7 6 8 7 9 8 10 11 11 12 12
REMARK SMILES IDX 13 13 19 14 15 15 17 16 14 17 16 19 18 21 9 23 1 25 5 27
REMARK H PARENT 14 18 16 20 18 22 9 24 1 26 5 28
REMARK Flexibility Score: inf
ROOT
ATOM      1  C   UNL     1      57.411 -39.108 -20.596  1.00  0.00     0.402 A 
ATOM      2  O   UNL     1      58.340 -38.474 -21.307  1.00  0.00    -0.202 OA
ATOM      3  C   UNL     1      58.106 -37.349 -21.975  1.00  0.00     0.368 A 
ATOM      4  C   UNL     1      59.148 -36.754 -22.691  1.00  0.00     0.162 A 
ATOM      5  C   UNL     1      58.930 -35.569 -23.399  1.00  0.00     0.128 A 
ATOM      6  C   UNL     1      57.666 -34.976 -23.390  1.00  0.00     0.093 A 
ATOM      7  C   UNL     1      56.606 -35.551 -22.679  1.00  0.00     0.136 A 
ATOM      8  C   UNL     1      56.821 -36.756 -21.960  1.00  0.00     0.125 A 
ATOM      9  C   UNL     1      55.815 -37.411 -21.232  1.00  0.00     0.078 A 
ATOM     10  C   UNL     1      56.101 -38.599 -20.552  1.00  0.00     0.223 A 
ENDROOT
BRANCH   1  11
ATOM     11  C   UNL     1      57.799 -40.350 -19.888  1.00  0.00     0.091 A 
ATOM     12  C   UNL     1      58.394 -40.311 -18.616  1.00  0.00     0.068 A 
ATOM     13  C   UNL     1      58.775 -41.492 -17.970  1.00  0.00     0.162 A 
ATOM     14  C   UNL     1      57.621 -41.590 -20.520  1.00  0.00     0.068 A 
ATOM     15  C   UNL     1      58.573 -42.732 -18.599  1.00  0.00     0.200 A 
ATOM     16  C   UNL     1      57.998 -42.779 -19.881  1.00  0.00     0.162 A 
BRANCH  13  17
ATOM     17  O   UNL     1      59.358 -41.412 -16.706  1.00  0.00    -0.504 OA
ATOM     18  H   UNL     1      60.341 -41.203 -16.578  1.00  0.00     0.293 HD
ENDBRANCH  13  17
BRANCH  15  19
ATOM     19  O   UNL     1      58.952 -43.906 -17.946  1.00  0.00    -0.502 OA
ATOM     20  H   UNL     1      58.305 -44.672 -17.794  1.00  0.00     0.293 HD
ENDBRANCH  15  19
BRANCH  16  21
ATOM     21  O   UNL     1      57.802 -44.005 -20.514  1.00  0.00    -0.504 OA
ATOM     22  H   UNL     1      57.158 -44.696 -20.146  1.00  0.00     0.293 HD
ENDBRANCH  16  21
ENDBRANCH   1  11
BRANCH  10  23
ATOM     23  O   UNL     1      55.090 -39.275 -19.870  1.00  0.00    -0.500 OA
ATOM     24  H   UNL     1      54.990 -39.207 -18.864  1.00  0.00     0.294 HD
ENDBRANCH  10  23
BRANCH   5  25
ATOM     25  O   UNL     1      59.965 -34.971 -24.117  1.00  0.00    -0.507 OA
ATOM     26  H   UNL     1      59.833 -34.652 -25.069  1.00  0.00     0.293 HD
ENDBRANCH   5  25
BRANCH   7  27
ATOM     27  O   UNL     1      55.372 -34.893 -22.717  1.00  0.00    -0.507 OA
ATOM     28  H   UNL     1      54.500 -35.300 -22.414  1.00  0.00     0.293 HD
ENDBRANCH   7  27
TORSDOF 7
ENDMDL
MODEL 2
REMARK VINA RESULT:    -6.494     12.720     15.053
REMARK INTER + INTRA:          -8.386
REMARK INTER:                  -8.006
REMARK INTRA:                  -0.380
REMARK UNBOUND:                -0.373
REMARK SMILES Oc1cc(O)c2cc(O)c(-c3cc(O)c(O)c(O)c3)[o+]c2c1
REMARK SMILES IDX 10 1 20 2 21 3 22 4 2 5 3 6 4 7 6 8 7 9 8 10 11 11 12 12
REMARK SMILES IDX 13 13 19 14 15 15 17 16 14 17 16 19 18 21 9 23 1 25 5 27
REMARK H PARENT 14 18 16 20 18 22 9 24 1 26 5 28
REMARK Flexibility Score: inf
ROOT
ATOM      1  C   UNL     1      69.699 -47.012 -23.170  1.00  0.00     0.402 A 
ATOM      2  O   UNL     1      68.572 -46.420 -23.559  1.00  0.00    -0.202 OA
ATOM      3  C   UNL     1      67.835 -46.850 -24.578  1.00  0.00     0.368 A 
ATOM      4  C   UNL     1      66.665 -46.163 -24.909  1.00  0.00     0.162 A 
ATOM      5  C   UNL     1      65.870 -46.597 -25.974  1.00  0.00     0.128 A 
ATOM      6  C   UNL     1      66.246 -47.722 -26.709  1.00  0.00     0.093 A 
ATOM      7  C   UNL     1      67.414 -48.429 -26.396  1.00  0.00     0.136 A 
ATOM      8  C   UNL     1      68.227 -47.992 -25.318  1.00  0.00     0.125 A 
ATOM      9  C   UNL     1      69.420 -48.629 -24.942  1.00  0.00     0.078 A 
ATOM     10  C   UNL     1      70.171 -48.137 -23.871  1.00  0.00     0.223 A 
ENDROOT
BRANCH   1  11
ATOM     11  C   UNL     1      70.426 -46.441 -22.013  1.00  0.00     0.091 A 
ATOM     12  C   UNL     1      71.415 -45.458 -22.184  1.00  0.00     0.068 A 
ATOM     13  C   UNL     1      72.110 -44.945 -21.082  1.00  0.00     0.162 A 
ATOM     14  C   UNL     1      70.165 -46.929 -20.724  1.00  0.00     0.068 A 
ATOM     15  C   UNL     1      71.827 -45.422 -19.791  1.00  0.00     0.200 A 
ATOM     16  C   UNL     1      70.854 -46.420 -19.614  1.00  0.00     0.162 A 
BRANCH  13  17
ATOM     17  O   UNL     1      73.080 -43.967 -21.292  1.00  0.00    -0.504 OA
ATOM     18  H   UNL     1      73.300 -43.266 -20.594  1.00  0.00     0.293 HD
ENDBRANCH  13  17
BRANCH  15  19
ATOM     19  O   UNL     1      72.520 -44.902 -18.697  1.00  0.00    -0.502 OA
ATOM     20  H   UNL     1      72.629 -45.418 -17.832  1.00  0.00     0.293 HD
ENDBRANCH  15  19
BRANCH  16  21
ATOM     21  O   UNL     1      70.574 -46.904 -18.337  1.00  0.00    -0.504 OA
ATOM     22  H   UNL     1      69.682 -46.730 -17.887  1.00  0.00     0.293 HD
ENDBRANCH  16  21
ENDBRANCH   1  11
BRANCH  10  23
ATOM     23  O   UNL     1      71.381 -48.739 -23.529  1.00  0.00    -0.500 OA
ATOM     24  H   UNL     1      71.436 -49.451 -22.810  1.00  0.00     0.294 HD
ENDBRANCH  10  23
BRANCH   5  25
ATOM     25  O   UNL     1      64.702 -45.915 -26.310  1.00  0.00    -0.507 OA
ATOM     26  H   UNL     1      63.889 -45.926 -25.705  1.00  0.00     0.293 HD
ENDBRANCH   5  25
BRANCH   7  27
ATOM     27  O   UNL     1      67.719 -49.547 -27.179  1.00  0.00    -0.507 OA
ATOM     28  H   UNL     1      67.748 -50.495 -26.832  1.00  0.00     0.293 HD
ENDBRANCH   7  27
TORSDOF 7
ENDMDL
MODEL 3
REMARK VINA RESULT:    -6.445     12.417     14.320
REMARK INTER + INTRA:          -8.325
REMARK INTER:                  -7.948
REMARK INTRA:                  -0.377
REMARK UNBOUND:                -0.373
REMARK SMILES Oc1cc(O)c2cc(O)c(-c3cc(O)c(O)c(O)c3)[o+]c2c1
REMARK SMILES IDX 10 1 20 2 21 3 22 4 2 5 3 6 4 7 6 8 7 9 8 10 11 11 12 12
REMARK SMILES IDX 13 13 19 14 15 15 17 16 14 17 16 19 18 21 9 23 1 25 5 27
REMARK H PARENT 14 18 16 20 18 22 9 24 1 26 5 28
REMARK Flexibility Score: inf
ROOT
ATOM      1  C   UNL     1      67.593 -46.874 -25.317  1.00  0.00     0.402 A 
ATOM      2  O   UNL     1      67.701 -47.619 -26.415  1.00  0.00    -0.202 OA
ATOM      3  C   UNL     1      66.767 -47.664 -27.361  1.00  0.00     0.368 A 
ATOM      4  C   UNL     1      66.972 -48.474 -28.480  1.00  0.00     0.162 A 
ATOM      5  C   UNL     1      66.008 -48.536 -29.491  1.00  0.00     0.128 A 
ATOM      6  C   UNL     1      64.837 -47.785 -29.382  1.00  0.00     0.093 A 
ATOM      7  C   UNL     1      64.608 -46.964 -28.270  1.00  0.00     0.136 A 
ATOM      8  C   UNL     1      65.582 -46.899 -27.240  1.00  0.00     0.125 A 
ATOM      9  C   UNL     1      65.432 -46.116 -26.084  1.00  0.00     0.078 A 
ATOM     10  C   UNL     1      66.433 -46.106 -25.108  1.00  0.00     0.223 A 
ENDROOT
BRANCH   1  11
ATOM     11  C   UNL     1      68.706 -46.903 -24.341  1.00  0.00     0.091 A 
ATOM     12  C   UNL     1      69.822 -46.060 -24.479  1.00  0.00     0.068 A 
ATOM     13  C   UNL     1      70.876 -46.115 -23.561  1.00  0.00     0.162 A 
ATOM     14  C   UNL     1      68.678 -47.829 -23.287  1.00  0.00     0.068 A 
ATOM     15  C   UNL     1      70.830 -47.028 -22.494  1.00  0.00     0.200 A 
ATOM     16  C   UNL     1      69.728 -47.890 -22.361  1.00  0.00     0.162 A 
BRANCH  13  17
ATOM     17  O   UNL     1      71.963 -45.258 -23.729  1.00  0.00    -0.504 OA
ATOM     18  H   UNL     1      72.260 -44.936 -24.643  1.00  0.00     0.293 HD
ENDBRANCH  13  17
BRANCH  15  19
ATOM     19  O   UNL     1      71.883 -47.074 -21.579  1.00  0.00    -0.502 OA
ATOM     20  H   UNL     1      71.779 -47.476 -20.655  1.00  0.00     0.293 HD
ENDBRANCH  15  19
BRANCH  16  21
ATOM     21  O   UNL     1      69.680 -48.805 -21.310  1.00  0.00    -0.504 OA
ATOM     22  H   UNL     1      69.485 -48.511 -20.359  1.00  0.00     0.293 HD
ENDBRANCH  16  21
ENDBRANCH   1  11
BRANCH  10  23
ATOM     23  O   UNL     1      66.263 -45.367 -23.938  1.00  0.00    -0.500 OA
ATOM     24  H   UNL     1      66.169 -45.815 -23.035  1.00  0.00     0.294 HD
ENDBRANCH  10  23
BRANCH   5  25
ATOM     25  O   UNL     1      66.206 -49.343 -30.610  1.00  0.00    -0.507 OA
ATOM     26  H   UNL     1      66.737 -49.019 -31.409  1.00  0.00     0.293 HD
ENDBRANCH   5  25
BRANCH   7  27
ATOM     27  O   UNL     1      63.411 -46.242 -28.238  1.00  0.00    -0.507 OA
ATOM     28  H   UNL     1      63.122 -45.652 -27.472  1.00  0.00     0.293 HD
ENDBRANCH   7  27
TORSDOF 7
ENDMDL
MODEL 4
REMARK VINA RESULT:    -6.417     12.757     14.581
REMARK INTER + INTRA:          -8.291
REMARK INTER:                  -7.913
REMARK INTRA:                  -0.378
REMARK UNBOUND:                -0.373
REMARK SMILES Oc1cc(O)c2cc(O)c(-c3cc(O)c(O)c(O)c3)[o+]c2c1
REMARK SMILES IDX 10 1 20 2 21 3 22 4 2 5 3 6 4 7 6 8 7 9 8 10 11 11 12 12
REMARK SMILES IDX 13 13 19 14 15 15 17 16 14 17 16 19 18 21 9 23 1 25 5 27
REMARK H PARENT 14 18 16 20 18 22 9 24 1 26 5 28
REMARK Flexibility Score: inf
ROOT
ATOM      1  C   UNL     1      70.609 -43.526 -18.178  1.00  0.00     0.402 A 
ATOM      2  O   UNL     1      69.752 -44.102 -19.017  1.00  0.00    -0.202 OA
ATOM      3  C   UNL     1      70.112 -44.618 -20.188  1.00  0.00     0.368 A 
ATOM      4  C   UNL     1      69.139 -45.205 -21.000  1.00  0.00     0.162 A 
ATOM      5  C   UNL     1      69.491 -45.759 -22.235  1.00  0.00     0.128 A 
ATOM      6  C   UNL     1      70.821 -45.724 -22.658  1.00  0.00     0.093 A 
ATOM      7  C   UNL     1      71.815 -45.142 -21.862  1.00  0.00     0.136 A 
ATOM      8  C   UNL     1      71.463 -44.577 -20.609  1.00  0.00     0.125 A 
ATOM      9  C   UNL     1      72.389 -43.961 -19.752  1.00  0.00     0.078 A 
ATOM     10  C   UNL     1      71.966 -43.421 -18.533  1.00  0.00     0.223 A 
ENDROOT
BRANCH   1  11
ATOM     11  C   UNL     1      70.086 -42.997 -16.898  1.00  0.00     0.091 A 
ATOM     12  C   UNL     1      70.175 -43.740 -15.708  1.00  0.00     0.068 A 
ATOM     13  C   UNL     1      69.655 -43.236 -14.511  1.00  0.00     0.162 A 
ATOM     14  C   UNL     1      69.438 -41.753 -16.877  1.00  0.00     0.068 A 
ATOM     15  C   UNL     1      69.028 -41.979 -14.493  1.00  0.00     0.200 A 
ATOM     16  C   UNL     1      68.916 -41.238 -15.683  1.00  0.00     0.162 A 
BRANCH  13  17
ATOM     17  O   UNL     1      69.768 -44.001 -13.351  1.00  0.00    -0.504 OA
ATOM     18  H   UNL     1      69.005 -44.095 -12.691  1.00  0.00     0.293 HD
ENDBRANCH  13  17
BRANCH  15  19
ATOM     19  O   UNL     1      68.517 -41.480 -13.294  1.00  0.00    -0.502 OA
ATOM     20  H   UNL     1      68.291 -42.083 -12.511  1.00  0.00     0.293 HD
ENDBRANCH  15  19
BRANCH  16  21
ATOM     21  O   UNL     1      68.287 -39.994 -15.674  1.00  0.00    -0.504 OA
ATOM     22  H   UNL     1      68.787 -39.145 -15.913  1.00  0.00     0.293 HD
ENDBRANCH  16  21
ENDBRANCH   1  11
BRANCH  10  23
ATOM     23  O   UNL     1      72.877 -42.766 -17.705  1.00  0.00    -0.500 OA
ATOM     24  H   UNL     1      73.207 -43.183 -16.843  1.00  0.00     0.294 HD
ENDBRANCH  10  23
BRANCH   5  25
ATOM     25  O   UNL     1      68.525 -46.345 -23.050  1.00  0.00    -0.507 OA
ATOM     26  H   UNL     1      68.242 -45.921 -23.925  1.00  0.00     0.293 HD
ENDBRANCH   5  25
BRANCH   7  27
ATOM     27  O   UNL     1      73.123 -45.152 -22.357  1.00  0.00    -0.507 OA
ATOM     28  H   UNL     1      73.517 -45.897 -22.912  1.00  0.00     0.293 HD
ENDBRANCH   7  27
TORSDOF 7
ENDMDL
MODEL 5
REMARK VINA RESULT:    -6.405     12.535     14.464
REMARK INTER + INTRA:          -8.276
REMARK INTER:                  -7.902
REMARK INTRA:                  -0.374
REMARK UNBOUND:                -0.373
REMARK SMILES Oc1cc(O)c2cc(O)c(-c3cc(O)c(O)c(O)c3)[o+]c2c1
REMARK SMILES IDX 10 1 20 2 21 3 22 4 2 5 3 6 4 7 6 8 7 9 8 10 11 11 12 12
REMARK SMILES IDX 13 13 19 14 15 15 17 16 14 17 16 19 18 21 9 23 1 25 5 27
REMARK H PARENT 14 18 16 20 18 22 9 24 1 26 5 28
REMARK Flexibility Score: inf
ROOT
ATOM      1  C   UNL     1      67.703 -46.985 -25.363  1.00  0.00     0.402 A 
ATOM      2  O   UNL     1      67.819 -47.736 -26.455  1.00  0.00    -0.202 OA
ATOM      3  C   UNL     1      66.901 -47.775 -27.415  1.00  0.00     0.368 A 
ATOM      4  C   UNL     1      67.113 -48.594 -28.526  1.00  0.00     0.162 A 
ATOM      5  C   UNL     1      66.165 -48.651 -29.552  1.00  0.00     0.128 A 
ATOM      6  C   UNL     1      65.001 -47.886 -29.466  1.00  0.00     0.093 A 
ATOM      7  C   UNL     1      64.765 -47.056 -28.362  1.00  0.00     0.136 A 
ATOM      8  C   UNL     1      65.722 -46.997 -27.317  1.00  0.00     0.125 A 
ATOM      9  C   UNL     1      65.564 -46.205 -26.168  1.00  0.00     0.078 A 
ATOM     10  C   UNL     1      66.549 -46.202 -25.177  1.00  0.00     0.223 A 
ENDROOT
BRANCH   1  11
ATOM     11  C   UNL     1      68.800 -47.021 -24.369  1.00  0.00     0.091 A 
ATOM     12  C   UNL     1      68.760 -47.892 -23.267  1.00  0.00     0.068 A 
ATOM     13  C   UNL     1      69.794 -47.897 -22.324  1.00  0.00     0.162 A 
ATOM     14  C   UNL     1      69.877 -46.129 -24.495  1.00  0.00     0.068 A 
ATOM     15  C   UNL     1      70.881 -47.018 -22.469  1.00  0.00     0.200 A 
ATOM     16  C   UNL     1      70.918 -46.129 -23.557  1.00  0.00     0.162 A 
BRANCH  13  17
ATOM     17  O   UNL     1      69.721 -48.781 -21.247  1.00  0.00    -0.504 OA
ATOM     18  H   UNL     1      69.007 -49.497 -21.185  1.00  0.00     0.293 HD
ENDBRANCH  13  17
BRANCH  15  19
ATOM     19  O   UNL     1      71.910 -47.034 -21.527  1.00  0.00    -0.502 OA
ATOM     20  H   UNL     1      71.988 -47.760 -20.824  1.00  0.00     0.293 HD
ENDBRANCH  15  19
BRANCH  16  21
ATOM     21  O   UNL     1      71.989 -45.248 -23.702  1.00  0.00    -0.504 OA
ATOM     22  H   UNL     1      72.948 -45.552 -23.574  1.00  0.00     0.293 HD
ENDBRANCH  16  21
ENDBRANCH   1  11
BRANCH  10  23
ATOM     23  O   UNL     1      66.369 -45.454 -24.013  1.00  0.00    -0.500 OA
ATOM     24  H   UNL     1      66.954 -45.590 -23.198  1.00  0.00     0.294 HD
ENDBRANCH  10  23
BRANCH   5  25
ATOM     25  O   UNL     1      66.371 -49.466 -30.664  1.00  0.00    -0.507 OA
ATOM     26  H   UNL     1      65.631 -50.046 -31.040  1.00  0.00     0.293 HD
ENDBRANCH   5  25
BRANCH   7  27
ATOM     27  O   UNL     1      63.576 -46.320 -28.354  1.00  0.00    -0.507 OA
ATOM     28  H   UNL     1      62.938 -46.277 -27.572  1.00  0.00     0.293 HD
ENDBRANCH   7  27
TORSDOF 7
ENDMDL
MODEL 6
REMARK VINA RESULT:    -6.386     12.836     14.617
REMARK INTER + INTRA:          -8.253
REMARK INTER:                  -7.882
REMARK INTRA:                  -0.371
REMARK UNBOUND:                -0.373
REMARK SMILES Oc1cc(O)c2cc(O)c(-c3cc(O)c(O)c(O)c3)[o+]c2c1
REMARK SMILES IDX 10 1 20 2 21 3 22 4 2 5 3 6 4 7 6 8 7 9 8 10 11 11 12 12
REMARK SMILES IDX 13 13 19 14 15 15 17 16 14 17 16 19 18 21 9 23 1 25 5 27
REMARK H PARENT 14 18 16 20 18 22 9 24 1 26 5 28
REMARK Flexibility Score: inf
ROOT
ATOM      1  C   UNL     1      70.596 -43.525 -18.220  1.00  0.00     0.402 A 
ATOM      2  O   UNL     1      69.751 -44.146 -19.040  1.00  0.00    -0.202 OA
ATOM      3  C   UNL     1      70.118 -44.669 -20.206  1.00  0.00     0.368 A 
ATOM      4  C   UNL     1      69.159 -45.305 -20.997  1.00  0.00     0.162 A 
ATOM      5  C   UNL     1      69.518 -45.867 -22.226  1.00  0.00     0.128 A 
ATOM      6  C   UNL     1      70.841 -45.793 -22.663  1.00  0.00     0.093 A 
ATOM      7  C   UNL     1      71.822 -45.163 -21.888  1.00  0.00     0.136 A 
ATOM      8  C   UNL     1      71.463 -44.588 -20.641  1.00  0.00     0.125 A 
ATOM      9  C   UNL     1      72.374 -43.924 -19.805  1.00  0.00     0.078 A 
ATOM     10  C   UNL     1      71.945 -43.378 -18.592  1.00  0.00     0.223 A 
ENDROOT
BRANCH   1  11
ATOM     11  C   UNL     1      70.067 -42.992 -16.944  1.00  0.00     0.091 A 
ATOM     12  C   UNL     1      69.471 -41.721 -16.873  1.00  0.00     0.068 A 
ATOM     13  C   UNL     1      68.997 -41.222 -15.655  1.00  0.00     0.162 A 
ATOM     14  C   UNL     1      70.212 -43.743 -15.768  1.00  0.00     0.068 A 
ATOM     15  C   UNL     1      69.125 -41.990 -14.485  1.00  0.00     0.200 A 
ATOM     16  C   UNL     1      69.739 -43.253 -14.544  1.00  0.00     0.162 A 
BRANCH  13  17
ATOM     17  O   UNL     1      68.407 -39.959 -15.627  1.00  0.00    -0.504 OA
ATOM     18  H   UNL     1      67.432 -39.814 -15.861  1.00  0.00     0.293 HD
ENDBRANCH  13  17
BRANCH  15  19
ATOM     19  O   UNL     1      68.645 -41.487 -13.275  1.00  0.00    -0.502 OA
ATOM     20  H   UNL     1      68.270 -40.549 -13.190  1.00  0.00     0.293 HD
ENDBRANCH  15  19
BRANCH  16  21
ATOM     21  O   UNL     1      69.876 -44.017 -13.385  1.00  0.00    -0.504 OA
ATOM     22  H   UNL     1      69.765 -43.608 -12.464  1.00  0.00     0.293 HD
ENDBRANCH  16  21
ENDBRANCH   1  11
BRANCH  10  23
ATOM     23  O   UNL     1      72.839 -42.676 -17.784  1.00  0.00    -0.500 OA
ATOM     24  H   UNL     1      73.088 -43.002 -16.858  1.00  0.00     0.294 HD
ENDBRANCH  10  23
BRANCH   5  25
ATOM     25  O   UNL     1      68.565 -46.502 -23.021  1.00  0.00    -0.507 OA
ATOM     26  H   UNL     1      67.606 -46.609 -22.714  1.00  0.00     0.293 HD
ENDBRANCH   5  25
BRANCH   7  27
ATOM     27  O   UNL     1      73.125 -45.134 -22.396  1.00  0.00    -0.507 OA
ATOM     28  H   UNL     1      73.593 -45.929 -22.806  1.00  0.00     0.293 HD
ENDBRANCH   7  27
TORSDOF 7
ENDMDL
MODEL 7
REMARK VINA RESULT:    -6.341     14.306     15.590
REMARK INTER + INTRA:          -8.196
REMARK INTER:                  -7.953
REMARK INTRA:                  -0.244
REMARK UNBOUND:                -0.373
REMARK SMILES Oc1cc(O)c2cc(O)c(-c3cc(O)c(O)c(O)c3)[o+]c2c1
REMARK SMILES IDX 10 1 20 2 21 3 22 4 2 5 3 6 4 7 6 8 7 9 8 10 11 11 12 12
REMARK SMILES IDX 13 13 19 14 15 15 17 16 14 17 16 19 18 21 9 23 1 25 5 27
REMARK H PARENT 14 18 16 20 18 22 9 24 1 26 5 28
REMARK Flexibility Score: inf
ROOT
ATOM      1  C   UNL     1      71.031 -45.649 -20.504  1.00  0.00     0.402 A 
ATOM      2  O   UNL     1      70.454 -45.631 -19.305  1.00  0.00    -0.202 OA
ATOM      3  C   UNL     1      70.681 -44.685 -18.399  1.00  0.00     0.368 A 
ATOM      4  C   UNL     1      70.024 -44.750 -17.168  1.00  0.00     0.162 A 
ATOM      5  C   UNL     1      70.241 -43.766 -16.199  1.00  0.00     0.128 A 
ATOM      6  C   UNL     1      71.118 -42.713 -16.464  1.00  0.00     0.093 A 
ATOM      7  C   UNL     1      71.788 -42.623 -17.691  1.00  0.00     0.136 A 
ATOM      8  C   UNL     1      71.573 -43.621 -18.677  1.00  0.00     0.125 A 
ATOM      9  C   UNL     1      72.210 -43.621 -19.927  1.00  0.00     0.078 A 
ATOM     10  C   UNL     1      71.952 -44.641 -20.847  1.00  0.00     0.223 A 
ENDROOT
BRANCH   1  11
ATOM     11  C   UNL     1      70.690 -46.753 -21.429  1.00  0.00     0.091 A 
ATOM     12  C   UNL     1      69.397 -46.885 -21.964  1.00  0.00     0.068 A 
ATOM     13  C   UNL     1      69.084 -47.948 -22.818  1.00  0.00     0.162 A 
ATOM     14  C   UNL     1      71.657 -47.722 -21.736  1.00  0.00     0.068 A 
ATOM     15  C   UNL     1      70.064 -48.902 -23.141  1.00  0.00     0.200 A 
ATOM     16  C   UNL     1      71.354 -48.788 -22.593  1.00  0.00     0.162 A 
BRANCH  13  17
ATOM     17  O   UNL     1      67.791 -48.042 -23.333  1.00  0.00    -0.504 OA
ATOM     18  H   UNL     1      67.000 -48.307 -22.759  1.00  0.00     0.293 HD
ENDBRANCH  13  17
BRANCH  15  19
ATOM     19  O   UNL     1      69.745 -49.956 -23.998  1.00  0.00    -0.502 OA
ATOM     20  H   UNL     1      70.449 -50.442 -24.542  1.00  0.00     0.293 HD
ENDBRANCH  15  19
BRANCH  16  21
ATOM     21  O   UNL     1      72.329 -49.736 -22.902  1.00  0.00    -0.504 OA
ATOM     22  H   UNL     1      72.085 -50.689 -23.144  1.00  0.00     0.293 HD
ENDBRANCH  16  21
ENDBRANCH   1  11
BRANCH  10  23
ATOM     23  O   UNL     1      72.622 -44.668 -22.070  1.00  0.00    -0.500 OA
ATOM     24  H   UNL     1      72.122 -44.650 -22.951  1.00  0.00     0.294 HD
ENDBRANCH  10  23
BRANCH   5  25
ATOM     25  O   UNL     1      69.590 -43.827 -14.969  1.00  0.00    -0.507 OA
ATOM     26  H   UNL     1      69.324 -44.711 -14.553  1.00  0.00     0.293 HD
ENDBRANCH   5  25
BRANCH   7  27
ATOM     27  O   UNL     1      72.646 -41.535 -17.877  1.00  0.00    -0.507 OA
ATOM     28  H   UNL     1      72.338 -40.591 -18.058  1.00  0.00     0.293 HD
ENDBRANCH   7  27
TORSDOF 7
ENDMDL
MODEL 8
REMARK VINA RESULT:    -6.279     12.446     14.973
REMARK INTER + INTRA:          -8.120
REMARK INTER:                  -7.861
REMARK INTRA:                  -0.260
REMARK UNBOUND:                -0.373
REMARK SMILES Oc1cc(O)c2cc(O)c(-c3cc(O)c(O)c(O)c3)[o+]c2c1
REMARK SMILES IDX 10 1 20 2 21 3 22 4 2 5 3 6 4 7 6 8 7 9 8 10 11 11 12 12
REMARK SMILES IDX 13 13 19 14 15 15 17 16 14 17 16 19 18 21 9 23 1 25 5 27
REMARK H PARENT 14 18 16 20 18 22 9 24 1 26 5 28
REMARK Flexibility Score: inf
ROOT
ATOM      1  C   UNL     1      68.937 -46.814 -23.274  1.00  0.00     0.402 A 
ATOM      2  O   UNL     1      69.038 -45.712 -22.537  1.00  0.00    -0.202 OA
ATOM      3  C   UNL     1      69.636 -45.680 -21.350  1.00  0.00     0.368 A 
ATOM      4  C   UNL     1      69.695 -44.472 -20.650  1.00  0.00     0.162 A 
ATOM      5  C   UNL     1      70.321 -44.410 -19.402  1.00  0.00     0.128 A 
ATOM      6  C   UNL     1      70.891 -45.559 -18.852  1.00  0.00     0.093 A 
ATOM      7  C   UNL     1      70.847 -46.782 -19.534  1.00  0.00     0.136 A 
ATOM      8  C   UNL     1      70.210 -46.852 -20.800  1.00  0.00     0.125 A 
ATOM      9  C   UNL     1      70.105 -48.035 -21.549  1.00  0.00     0.078 A 
ATOM     10  C   UNL     1      69.458 -48.027 -22.788  1.00  0.00     0.223 A 
ENDROOT
BRANCH   1  11
ATOM     11  C   UNL     1      68.255 -46.719 -24.585  1.00  0.00     0.091 A 
ATOM     12  C   UNL     1      68.947 -46.939 -25.788  1.00  0.00     0.068 A 
ATOM     13  C   UNL     1      68.293 -46.822 -27.019  1.00  0.00     0.162 A 
ATOM     14  C   UNL     1      66.903 -46.346 -24.635  1.00  0.00     0.068 A 
ATOM     15  C   UNL     1      66.933 -46.472 -27.061  1.00  0.00     0.200 A 
ATOM     16  C   UNL     1      66.239 -46.229 -25.864  1.00  0.00     0.162 A 
BRANCH  13  17
ATOM     17  O   UNL     1      69.014 -47.054 -28.191  1.00  0.00    -0.504 OA
ATOM     18  H   UNL     1      69.588 -47.879 -28.316  1.00  0.00     0.293 HD
ENDBRANCH  13  17
BRANCH  15  19
ATOM     19  O   UNL     1      66.287 -46.363 -28.293  1.00  0.00    -0.502 OA
ATOM     20  H   UNL     1      66.106 -45.467 -28.731  1.00  0.00     0.293 HD
ENDBRANCH  15  19
BRANCH  16  21
ATOM     21  O   UNL     1      64.891 -45.873 -25.898  1.00  0.00    -0.504 OA
ATOM     22  H   UNL     1      64.208 -46.321 -25.298  1.00  0.00     0.293 HD
ENDBRANCH  16  21
ENDBRANCH   1  11
BRANCH  10  23
ATOM     23  O   UNL     1      69.311 -49.212 -23.508  1.00  0.00    -0.500 OA
ATOM     24  H   UNL     1      69.482 -49.253 -24.506  1.00  0.00     0.294 HD
ENDBRANCH  10  23
BRANCH   5  25
ATOM     25  O   UNL     1      70.382 -43.208 -18.698  1.00  0.00    -0.507 OA
ATOM     26  H   UNL     1      70.454 -43.189 -17.688  1.00  0.00     0.293 HD
ENDBRANCH   5  25
BRANCH   7  27
ATOM     27  O   UNL     1      71.444 -47.886 -18.916  1.00  0.00    -0.507 OA
ATOM     28  H   UNL     1      72.375 -47.885 -18.526  1.00  0.00     0.293 HD
ENDBRANCH   7  27
TORSDOF 7
ENDMDL
MODEL 9
REMARK VINA RESULT:    -6.156     13.838     15.540
REMARK INTER + INTRA:          -7.969
REMARK INTER:                  -7.585
REMARK INTRA:                  -0.384
REMARK UNBOUND:                -0.373
REMARK SMILES Oc1cc(O)c2cc(O)c(-c3cc(O)c(O)c(O)c3)[o+]c2c1
REMARK SMILES IDX 10 1 20 2 21 3 22 4 2 5 3 6 4 7 6 8 7 9 8 10 11 11 12 12
REMARK SMILES IDX 13 13 19 14 15 15 17 16 14 17 16 19 18 21 9 23 1 25 5 27
REMARK H PARENT 14 18 16 20 18 22 9 24 1 26 5 28
REMARK Flexibility Score: inf
ROOT
ATOM      1  C   UNL     1      71.283 -39.512 -13.588  1.00  0.00     0.402 A 
ATOM      2  O   UNL     1      70.758 -38.383 -14.058  1.00  0.00    -0.202 OA
ATOM      3  C   UNL     1      71.032 -37.184 -13.553  1.00  0.00     0.368 A 
ATOM      4  C   UNL     1      70.432 -36.056 -14.117  1.00  0.00     0.162 A 
ATOM      5  C   UNL     1      70.706 -34.783 -13.608  1.00  0.00     0.128 A 
ATOM      6  C   UNL     1      71.583 -34.639 -12.531  1.00  0.00     0.093 A 
ATOM      7  C   UNL     1      72.198 -35.755 -11.949  1.00  0.00     0.136 A 
ATOM      8  C   UNL     1      71.922 -37.049 -12.460  1.00  0.00     0.125 A 
ATOM      9  C   UNL     1      72.480 -38.224 -11.932  1.00  0.00     0.078 A 
ATOM     10  C   UNL     1      72.157 -39.466 -12.486  1.00  0.00     0.223 A 
ENDROOT
BRANCH   1  11
ATOM     11  C   UNL     1      70.906 -40.785 -14.243  1.00  0.00     0.091 A 
ATOM     12  C   UNL     1      71.655 -41.308 -15.311  1.00  0.00     0.068 A 
ATOM     13  C   UNL     1      71.272 -42.501 -15.934  1.00  0.00     0.162 A 
ATOM     14  C   UNL     1      69.747 -41.458 -13.829  1.00  0.00     0.068 A 
ATOM     15  C   UNL     1      70.123 -43.182 -15.499  1.00  0.00     0.200 A 
ATOM     16  C   UNL     1      69.357 -42.655 -14.445  1.00  0.00     0.162 A 
BRANCH  13  17
ATOM     17  O   UNL     1      72.044 -42.990 -16.987  1.00  0.00    -0.504 OA
ATOM     18  H   UNL     1      71.716 -42.980 -17.946  1.00  0.00     0.293 HD
ENDBRANCH  13  17
BRANCH  15  19
ATOM     19  O   UNL     1      69.750 -44.374 -16.122  1.00  0.00    -0.502 OA
ATOM     20  H   UNL     1      69.847 -45.274 -15.667  1.00  0.00     0.293 HD
ENDBRANCH  15  19
BRANCH  16  21
ATOM     21  O   UNL     1      68.210 -43.321 -14.014  1.00  0.00    -0.504 OA
ATOM     22  H   UNL     1      67.686 -43.007 -13.204  1.00  0.00     0.293 HD
ENDBRANCH  16  21
ENDBRANCH   1  11
BRANCH  10  23
ATOM     23  O   UNL     1      72.673 -40.636 -11.930  1.00  0.00    -0.500 OA
ATOM     24  H   UNL     1      72.288 -41.546 -12.154  1.00  0.00     0.294 HD
ENDBRANCH  10  23
BRANCH   5  25
ATOM     25  O   UNL     1      70.110 -33.653 -14.165  1.00  0.00    -0.507 OA
ATOM     26  H   UNL     1      69.447 -33.093 -13.644  1.00  0.00     0.293 HD
ENDBRANCH   5  25
BRANCH   7  27
ATOM     27  O   UNL     1      73.066 -35.524 -10.877  1.00  0.00    -0.507 OA
ATOM     28  H   UNL     1      73.064 -34.687 -10.312  1.00  0.00     0.293 HD
ENDBRANCH   7  27
TORSDOF 7
ENDMDL
