MODEL 1
REMARK VINA RESULT:    -6.186      0.000      0.000
REMARK INTER + INTRA:          -7.114
REMARK INTER:                  -6.910
REMARK INTRA:                  -0.205
REMARK UNBOUND:                -0.205
REMARK SMILES CC(C)c1ccc(C(=O)[O-])cc1
REMARK SMILES IDX 7 1 6 2 11 3 5 4 12 5 4 6 8 7 9 8 10 9 2 10 1 11 3 12
REMARK H PARENT
REMARK Flexibility Score: inf
ROOT
ATOM      1  C   UNL     1     -22.234 -31.348  24.020  1.00  0.00    -0.003 A 
ATOM      2  C   UNL     1     -21.776 -30.248  24.767  1.00  0.00     0.010 A 
ATOM      3  C   UNL     1     -21.317 -32.066  23.236  1.00  0.00     0.010 A 
ATOM      4  C   UNL     1     -20.430 -29.875  24.730  1.00  0.00     0.004 A 
ATOM      5  C   UNL     1     -19.970 -31.693  23.199  1.00  0.00     0.004 A 
ATOM      6  C   UNL     1     -19.512 -30.593  23.946  1.00  0.00    -0.045 A 
ENDROOT
BRANCH   1   7
ATOM      7  C   UNL     1     -23.659 -31.746  24.058  1.00  0.00     0.071 C 
ATOM      8  O   UNL     1     -24.196 -32.104  25.140  1.00  0.00    -0.545 OA
ATOM      9  O   UNL     1     -24.425 -31.729  22.898  1.00  0.00    -0.545 OA
ENDBRANCH   1   7
BRANCH   6  10
ATOM     10  C   UNL     1     -18.052 -30.177  23.914  1.00  0.00     0.013 C 
ATOM     11  C   UNL     1     -17.148 -31.364  23.563  1.00  0.00     0.012 C 
ATOM     12  C   UNL     1     -17.832 -29.009  22.946  1.00  0.00     0.012 C 
ENDBRANCH   6  10
TORSDOF 2
ENDMDL
MODEL 2
REMARK VINA RESULT:    -6.186      0.056      1.399
REMARK INTER + INTRA:          -7.114
REMARK INTER:                  -6.908
REMARK INTRA:                  -0.206
REMARK UNBOUND:                -0.205
REMARK SMILES CC(C)c1ccc(C(=O)[O-])cc1
REMARK SMILES IDX 7 1 6 2 11 3 5 4 12 5 4 6 8 7 9 8 10 9 2 10 1 11 3 12
REMARK H PARENT
REMARK Flexibility Score: inf
ROOT
ATOM      1  C   UNL     1     -22.195 -31.353  24.013  1.00  0.00    -0.003 A 
ATOM      2  C   UNL     1     -21.278 -32.081  23.237  1.00  0.00     0.010 A 
ATOM      3  C   UNL     1     -21.737 -30.247  24.747  1.00  0.00     0.010 A 
ATOM      4  C   UNL     1     -19.931 -31.711  23.195  1.00  0.00     0.004 A 
ATOM      5  C   UNL     1     -20.391 -29.876  24.707  1.00  0.00     0.004 A 
ATOM      6  C   UNL     1     -19.472 -30.605  23.929  1.00  0.00    -0.045 A 
ENDROOT
BRANCH   1   7
ATOM      7  C   UNL     1     -23.623 -31.742  24.058  1.00  0.00     0.071 C 
ATOM      8  O   UNL     1     -24.155 -32.102  25.141  1.00  0.00    -0.545 OA
ATOM      9  O   UNL     1     -24.397 -31.712  22.903  1.00  0.00    -0.545 OA
ENDBRANCH   1   7
BRANCH   6  10
ATOM     10  C   UNL     1     -18.006 -30.213  23.876  1.00  0.00     0.013 C 
ATOM     11  C   UNL     1     -17.123 -31.423  23.552  1.00  0.00     0.012 C 
ATOM     12  C   UNL     1     -17.773 -29.075  22.877  1.00  0.00     0.012 C 
ENDBRANCH   6  10
TORSDOF 2
ENDMDL
MODEL 3
REMARK VINA RESULT:    -5.879      1.218      1.923
REMARK INTER + INTRA:          -6.771
REMARK INTER:                  -6.559
REMARK INTRA:                  -0.212
REMARK UNBOUND:                -0.205
REMARK SMILES CC(C)c1ccc(C(=O)[O-])cc1
REMARK SMILES IDX 7 1 6 2 11 3 5 4 12 5 4 6 8 7 9 8 10 9 2 10 1 11 3 12
REMARK H PARENT
REMARK Flexibility Score: inf
ROOT
ATOM      1  C   UNL     1     -23.519 -31.242  23.739  1.00  0.00    -0.003 A 
ATOM      2  C   UNL     1     -23.430 -30.084  24.532  1.00  0.00     0.010 A 
ATOM      3  C   UNL     1     -22.336 -31.841  23.277  1.00  0.00     0.010 A 
ATOM      4  C   UNL     1     -22.185 -29.539  24.856  1.00  0.00     0.004 A 
ATOM      5  C   UNL     1     -21.091 -31.296  23.601  1.00  0.00     0.004 A 
ATOM      6  C   UNL     1     -21.002 -30.138  24.395  1.00  0.00    -0.045 A 
ENDROOT
BRANCH   1   7
ATOM      7  C   UNL     1     -24.836 -31.822  23.395  1.00  0.00     0.071 C 
ATOM      8  O   UNL     1     -25.575 -32.310  24.290  1.00  0.00    -0.545 OA
ATOM      9  O   UNL     1     -25.276 -31.835  22.076  1.00  0.00    -0.545 OA
ENDBRANCH   1   7
BRANCH   6  10
ATOM     10  C   UNL     1     -19.655 -29.535  24.754  1.00  0.00     0.013 C 
ATOM     11  C   UNL     1     -19.555 -29.264  26.259  1.00  0.00     0.012 C 
ATOM     12  C   UNL     1     -18.505 -30.428  24.275  1.00  0.00     0.012 C 
ENDBRANCH   6  10
TORSDOF 2
ENDMDL
MODEL 4
REMARK VINA RESULT:    -5.874      2.835      5.305
REMARK INTER + INTRA:          -6.765
REMARK INTER:                  -6.556
REMARK INTRA:                  -0.209
REMARK UNBOUND:                -0.205
REMARK SMILES CC(C)c1ccc(C(=O)[O-])cc1
REMARK SMILES IDX 7 1 6 2 11 3 5 4 12 5 4 6 8 7 9 8 10 9 2 10 1 11 3 12
REMARK H PARENT
REMARK Flexibility Score: inf
ROOT
ATOM      1  C   UNL     1     -20.276 -30.939  23.829  1.00  0.00    -0.003 A 
ATOM      2  C   UNL     1     -20.981 -31.945  23.147  1.00  0.00     0.010 A 
ATOM      3  C   UNL     1     -20.969 -30.113  24.729  1.00  0.00     0.010 A 
ATOM      4  C   UNL     1     -22.351 -32.122  23.361  1.00  0.00     0.004 A 
ATOM      5  C   UNL     1     -22.338 -30.290  24.944  1.00  0.00     0.004 A 
ATOM      6  C   UNL     1     -23.045 -31.297  24.262  1.00  0.00    -0.045 A 
ENDROOT
BRANCH   1   7
ATOM      7  C   UNL     1     -18.825 -30.749  23.605  1.00  0.00     0.071 C 
ATOM      8  O   UNL     1     -18.090 -31.725  23.299  1.00  0.00    -0.545 OA
ATOM      9  O   UNL     1     -18.253 -29.487  23.728  1.00  0.00    -0.545 OA
ENDBRANCH   1   7
BRANCH   6  10
ATOM     10  C   UNL     1     -24.532 -31.500  24.485  1.00  0.00     0.013 C 
ATOM     11  C   UNL     1     -25.247 -31.839  23.172  1.00  0.00     0.012 C 
ATOM     12  C   UNL     1     -24.791 -32.573  25.548  1.00  0.00     0.012 C 
ENDBRANCH   6  10
TORSDOF 2
ENDMDL
MODEL 5
REMARK VINA RESULT:    -5.760      3.265      5.034
REMARK INTER + INTRA:          -6.637
REMARK INTER:                  -6.432
REMARK INTRA:                  -0.205
REMARK UNBOUND:                -0.205
REMARK SMILES CC(C)c1ccc(C(=O)[O-])cc1
REMARK SMILES IDX 7 1 6 2 11 3 5 4 12 5 4 6 8 7 9 8 10 9 2 10 1 11 3 12
REMARK H PARENT
REMARK Flexibility Score: inf
ROOT
ATOM      1  C   UNL     1     -18.899 -30.986  23.479  1.00  0.00    -0.003 A 
ATOM      2  C   UNL     1     -19.788 -30.149  24.175  1.00  0.00     0.010 A 
ATOM      3  C   UNL     1     -19.399 -32.140  22.855  1.00  0.00     0.010 A 
ATOM      4  C   UNL     1     -21.148 -30.460  24.245  1.00  0.00     0.004 A 
ATOM      5  C   UNL     1     -20.759 -32.451  22.924  1.00  0.00     0.004 A 
ATOM      6  C   UNL     1     -21.650 -31.613  23.620  1.00  0.00    -0.045 A 
ENDROOT
BRANCH   1   7
ATOM      7  C   UNL     1     -17.457 -30.659  23.403  1.00  0.00     0.071 C 
ATOM      8  O   UNL     1     -16.597 -31.433  23.901  1.00  0.00    -0.545 OA
ATOM      9  O   UNL     1     -17.032 -29.492  22.779  1.00  0.00    -0.545 OA
ENDBRANCH   1   7
BRANCH   6  10
ATOM     10  C   UNL     1     -23.130 -31.940  23.704  1.00  0.00     0.013 C 
ATOM     11  C   UNL     1     -23.728 -31.458  25.030  1.00  0.00     0.012 C 
ATOM     12  C   UNL     1     -23.893 -31.357  22.509  1.00  0.00     0.012 C 
ENDBRANCH   6  10
TORSDOF 2
ENDMDL
MODEL 6
REMARK VINA RESULT:    -5.656      2.631      4.235
REMARK INTER + INTRA:          -6.521
REMARK INTER:                  -6.312
REMARK INTRA:                  -0.209
REMARK UNBOUND:                -0.205
REMARK SMILES CC(C)c1ccc(C(=O)[O-])cc1
REMARK SMILES IDX 7 1 6 2 11 3 5 4 12 5 4 6 8 7 9 8 10 9 2 10 1 11 3 12
REMARK H PARENT
REMARK Flexibility Score: inf
ROOT
ATOM      1  C   UNL     1     -26.066 -32.048  24.143  1.00  0.00    -0.003 A 
ATOM      2  C   UNL     1     -25.669 -31.820  22.814  1.00  0.00     0.010 A 
ATOM      3  C   UNL     1     -25.092 -32.043  25.154  1.00  0.00     0.010 A 
ATOM      4  C   UNL     1     -24.325 -31.593  22.503  1.00  0.00     0.004 A 
ATOM      5  C   UNL     1     -23.749 -31.815  24.844  1.00  0.00     0.004 A 
ATOM      6  C   UNL     1     -23.350 -31.587  23.514  1.00  0.00    -0.045 A 
ENDROOT
BRANCH   1   7
ATOM      7  C   UNL     1     -27.488 -32.288  24.475  1.00  0.00     0.071 C 
ATOM      8  O   UNL     1     -27.804 -32.958  25.494  1.00  0.00    -0.545 OA
ATOM      9  O   UNL     1     -28.496 -31.776  23.665  1.00  0.00    -0.545 OA
ENDBRANCH   1   7
BRANCH   6  10
ATOM     10  C   UNL     1     -21.894 -31.339  23.164  1.00  0.00     0.013 C 
ATOM     11  C   UNL     1     -21.174 -30.592  24.292  1.00  0.00     0.012 C 
ATOM     12  C   UNL     1     -21.177 -32.650  22.822  1.00  0.00     0.012 C 
ENDBRANCH   6  10
TORSDOF 2
ENDMDL
MODEL 7
REMARK VINA RESULT:    -5.593      2.939      6.412
REMARK INTER + INTRA:          -6.451
REMARK INTER:                  -6.241
REMARK INTRA:                  -0.210
REMARK UNBOUND:                -0.205
REMARK SMILES CC(C)c1ccc(C(=O)[O-])cc1
REMARK SMILES IDX 7 1 6 2 11 3 5 4 12 5 4 6 8 7 9 8 10 9 2 10 1 11 3 12
REMARK H PARENT
REMARK Flexibility Score: inf
ROOT
ATOM      1  C   UNL     1     -23.223 -31.498  23.557  1.00  0.00    -0.003 A 
ATOM      2  C   UNL     1     -24.084 -31.531  22.446  1.00  0.00     0.010 A 
ATOM      3  C   UNL     1     -23.743 -31.786  24.829  1.00  0.00     0.010 A 
ATOM      4  C   UNL     1     -25.436 -31.846  22.605  1.00  0.00     0.004 A 
ATOM      5  C   UNL     1     -25.095 -32.100  24.989  1.00  0.00     0.004 A 
ATOM      6  C   UNL     1     -25.957 -32.134  23.877  1.00  0.00    -0.045 A 
ENDROOT
BRANCH   1   7
ATOM      7  C   UNL     1     -21.790 -31.166  23.392  1.00  0.00     0.071 C 
ATOM      8  O   UNL     1     -20.930 -32.078  23.272  1.00  0.00    -0.545 OA
ATOM      9  O   UNL     1     -21.374 -29.839  23.366  1.00  0.00    -0.545 OA
ENDBRANCH   1   7
BRANCH   6  10
ATOM     10  C   UNL     1     -27.428 -32.474  24.036  1.00  0.00     0.013 C 
ATOM     11  C   UNL     1     -27.856 -33.555  23.037  1.00  0.00     0.012 C 
ATOM     12  C   UNL     1     -27.746 -32.895  25.476  1.00  0.00     0.012 C 
ENDBRANCH   6  10
TORSDOF 2
ENDMDL
MODEL 8
REMARK VINA RESULT:    -5.578      2.982      6.375
REMARK INTER + INTRA:          -6.435
REMARK INTER:                  -6.225
REMARK INTRA:                  -0.210
REMARK UNBOUND:                -0.205
REMARK SMILES CC(C)c1ccc(C(=O)[O-])cc1
REMARK SMILES IDX 7 1 6 2 11 3 5 4 12 5 4 6 8 7 9 8 10 9 2 10 1 11 3 12
REMARK H PARENT
REMARK Flexibility Score: inf
ROOT
ATOM      1  C   UNL     1     -23.296 -31.454  23.486  1.00  0.00    -0.003 A 
ATOM      2  C   UNL     1     -23.793 -31.782  24.759  1.00  0.00     0.010 A 
ATOM      3  C   UNL     1     -24.170 -31.482  22.388  1.00  0.00     0.010 A 
ATOM      4  C   UNL     1     -25.135 -32.131  24.930  1.00  0.00     0.004 A 
ATOM      5  C   UNL     1     -25.513 -31.831  22.557  1.00  0.00     0.004 A 
ATOM      6  C   UNL     1     -26.011 -32.159  23.832  1.00  0.00    -0.045 A 
ENDROOT
BRANCH   1   7
ATOM      7  C   UNL     1     -21.875 -31.083  23.303  1.00  0.00     0.071 C 
ATOM      8  O   UNL     1     -21.534 -29.874  23.216  1.00  0.00    -0.545 OA
ATOM      9  O   UNL     1     -20.896 -32.068  23.224  1.00  0.00    -0.545 OA
ENDBRANCH   1   7
BRANCH   6  10
ATOM     10  C   UNL     1     -27.466 -32.540  24.030  1.00  0.00     0.013 C 
ATOM     11  C   UNL     1     -27.875 -33.672  23.081  1.00  0.00     0.012 C 
ATOM     12  C   UNL     1     -27.746 -32.914  25.490  1.00  0.00     0.012 C 
ENDBRANCH   6  10
TORSDOF 2
ENDMDL
MODEL 9
REMARK VINA RESULT:    -5.554      2.965      4.648
REMARK INTER + INTRA:          -6.408
REMARK INTER:                  -6.202
REMARK INTRA:                  -0.206
REMARK UNBOUND:                -0.205
REMARK SMILES CC(C)c1ccc(C(=O)[O-])cc1
REMARK SMILES IDX 7 1 6 2 11 3 5 4 12 5 4 6 8 7 9 8 10 9 2 10 1 11 3 12
REMARK H PARENT
REMARK Flexibility Score: inf
ROOT
ATOM      1  C   UNL     1     -26.423 -32.371  23.160  1.00  0.00    -0.003 A 
ATOM      2  C   UNL     1     -26.047 -32.522  24.506  1.00  0.00     0.010 A 
ATOM      3  C   UNL     1     -25.532 -31.750  22.271  1.00  0.00     0.010 A 
ATOM      4  C   UNL     1     -24.806 -32.061  24.953  1.00  0.00     0.004 A 
ATOM      5  C   UNL     1     -24.290 -31.290  22.716  1.00  0.00     0.004 A 
ATOM      6  C   UNL     1     -23.913 -31.441  24.063  1.00  0.00    -0.045 A 
ENDROOT
BRANCH   1   7
ATOM      7  C   UNL     1     -27.737 -32.858  22.684  1.00  0.00     0.071 C 
ATOM      8  O   UNL     1     -28.385 -32.213  21.818  1.00  0.00    -0.545 OA
ATOM      9  O   UNL     1     -28.274 -34.038  23.187  1.00  0.00    -0.545 OA
ENDBRANCH   1   7
BRANCH   6  10
ATOM     10  C   UNL     1     -22.567 -30.944  24.561  1.00  0.00     0.013 C 
ATOM     11  C   UNL     1     -21.439 -31.361  23.610  1.00  0.00     0.012 C 
ATOM     12  C   UNL     1     -22.581 -29.426  24.771  1.00  0.00     0.012 C 
ENDBRANCH   6  10
TORSDOF 2
ENDMDL
