MODEL 1
REMARK VINA RESULT:    -6.144      0.000      0.000
REMARK INTER + INTRA:         -11.828
REMARK INTER:                 -10.812
REMARK INTRA:                  -1.015
REMARK UNBOUND:                -1.015
REMARK SMILES CCCCCCC=CCCCCCCCC(=O)[O-]
REMARK SMILES IDX 10 1 11 2 12 3 13 4 14 5 15 6 16 7 17 8 18 9 9 10 8 11 7 12
REMARK SMILES IDX 6 13 5 14 4 15 3 16 2 17 1 18
REMARK H PARENT
REMARK Flexibility Score: inf
ROOT
ATOM      1  C   UNL     1      -0.142  44.874  -0.419  1.00  0.00     0.004 C 
ENDROOT
BRANCH   1   2
ATOM      2  C   UNL     1      -1.621  45.033  -0.012  1.00  0.00     0.000 C 
BRANCH   2   3
ATOM      3  C   UNL     1      -1.959  46.338   0.736  1.00  0.00     0.000 C 
BRANCH   3   4
ATOM      4  C   UNL     1      -1.513  46.382   2.207  1.00  0.00     0.000 C 
BRANCH   4   5
ATOM      5  C   UNL     1      -1.799  45.070   2.958  1.00  0.00     0.006 C 
BRANCH   5   6
ATOM      6  C   UNL     1      -2.155  45.311   4.430  1.00  0.00     0.053 C 
BRANCH   6   7
ATOM      7  C   UNL     1      -3.330  44.487   4.860  1.00  0.00     0.041 C 
ATOM      8  O   UNL     1      -4.502  44.911   4.681  1.00  0.00    -0.550 OA
ATOM      9  O   UNL     1      -3.131  43.237   5.433  1.00  0.00    -0.550 OA
ENDBRANCH   6   7
ENDBRANCH   5   6
ENDBRANCH   4   5
ENDBRANCH   3   4
ENDBRANCH   2   3
ENDBRANCH   1   2
BRANCH   1  10
ATOM     10  C   UNL     1       0.719  44.118   0.608  1.00  0.00     0.027 C 
BRANCH  10  11
ATOM     11  C   UNL     1       2.177  44.495   0.523  1.00  0.00    -0.031 C 
ATOM     12  C   UNL     1       2.866  45.134   1.487  1.00  0.00    -0.031 C 
BRANCH  12  13
ATOM     13  C   UNL     1       2.283  45.638   2.786  1.00  0.00     0.027 C 
BRANCH  13  14
ATOM     14  C   UNL     1       3.378  46.156   3.727  1.00  0.00     0.004 C 
BRANCH  14  15
ATOM     15  C   UNL     1       4.243  45.016   4.291  1.00  0.00     0.000 C 
BRANCH  15  16
ATOM     16  C   UNL     1       3.991  44.765   5.786  1.00  0.00    -0.000 C 
BRANCH  16  17
ATOM     17  C   UNL     1       5.011  43.797   6.404  1.00  0.00    -0.003 C 
ATOM     18  C   UNL     1       4.313  42.705   7.209  1.00  0.00     0.004 C 
ENDBRANCH  16  17
ENDBRANCH  15  16
ENDBRANCH  14  15
ENDBRANCH  13  14
ENDBRANCH  12  13
ENDBRANCH  10  11
ENDBRANCH   1  10
TORSDOF 13
ENDMDL
MODEL 2
REMARK VINA RESULT:    -6.084      2.271      3.787
REMARK INTER + INTRA:         -11.724
REMARK INTER:                 -10.757
REMARK INTRA:                  -0.967
REMARK UNBOUND:                -1.015
REMARK SMILES CCCCCCC=CCCCCCCCC(=O)[O-]
REMARK SMILES IDX 10 1 11 2 12 3 13 4 14 5 15 6 16 7 17 8 18 9 9 10 8 11 7 12
REMARK SMILES IDX 6 13 5 14 4 15 3 16 2 17 1 18
REMARK H PARENT
REMARK Flexibility Score: inf
ROOT
ATOM      1  C   UNL     1      -2.969  44.510   1.797  1.00  0.00     0.004 C 
ENDROOT
BRANCH   1   2
ATOM      2  C   UNL     1      -2.216  43.754   2.911  1.00  0.00     0.000 C 
BRANCH   2   3
ATOM      3  C   UNL     1      -2.953  43.672   4.262  1.00  0.00     0.000 C 
BRANCH   3   4
ATOM      4  C   UNL     1      -3.093  45.008   5.012  1.00  0.00     0.000 C 
BRANCH   4   5
ATOM      5  C   UNL     1      -1.735  45.645   5.355  1.00  0.00     0.006 C 
BRANCH   5   6
ATOM      6  C   UNL     1      -1.783  46.436   6.668  1.00  0.00     0.053 C 
BRANCH   6   7
ATOM      7  C   UNL     1      -0.457  47.052   6.995  1.00  0.00     0.041 C 
ATOM      8  O   UNL     1       0.611  46.463   6.680  1.00  0.00    -0.550 OA
ATOM      9  O   UNL     1      -0.400  48.290   7.623  1.00  0.00    -0.550 OA
ENDBRANCH   6   7
ENDBRANCH   5   6
ENDBRANCH   4   5
ENDBRANCH   3   4
ENDBRANCH   2   3
ENDBRANCH   1   2
BRANCH   1  10
ATOM     10  C   UNL     1      -2.163  45.650   1.149  1.00  0.00     0.027 C 
BRANCH  10  11
ATOM     11  C   UNL     1      -1.467  45.214  -0.117  1.00  0.00    -0.031 C 
ATOM     12  C   UNL     1      -0.239  44.666  -0.173  1.00  0.00    -0.031 C 
BRANCH  12  13
ATOM     13  C   UNL     1       0.673  44.452   1.012  1.00  0.00     0.027 C 
BRANCH  13  14
ATOM     14  C   UNL     1       2.128  44.796   0.666  1.00  0.00     0.004 C 
BRANCH  14  15
ATOM     15  C   UNL     1       3.068  44.610   1.869  1.00  0.00     0.000 C 
BRANCH  15  16
ATOM     16  C   UNL     1       3.306  45.917   2.643  1.00  0.00    -0.000 C 
BRANCH  16  17
ATOM     17  C   UNL     1       3.333  45.707   4.164  1.00  0.00    -0.003 C 
ATOM     18  C   UNL     1       4.473  44.776   4.570  1.00  0.00     0.004 C 
ENDBRANCH  16  17
ENDBRANCH  15  16
ENDBRANCH  14  15
ENDBRANCH  13  14
ENDBRANCH  12  13
ENDBRANCH  10  11
ENDBRANCH   1  10
TORSDOF 13
ENDMDL
MODEL 3
REMARK VINA RESULT:    -5.945      3.183      4.529
REMARK INTER + INTRA:         -11.478
REMARK INTER:                 -10.292
REMARK INTRA:                  -1.186
REMARK UNBOUND:                -1.015
REMARK SMILES CCCCCCC=CCCCCCCCC(=O)[O-]
REMARK SMILES IDX 10 1 11 2 12 3 13 4 14 5 15 6 16 7 17 8 18 9 9 10 8 11 7 12
REMARK SMILES IDX 6 13 5 14 4 15 3 16 2 17 1 18
REMARK H PARENT
REMARK Flexibility Score: inf
ROOT
ATOM      1  C   UNL     1      -1.676  45.231   3.425  1.00  0.00     0.004 C 
ENDROOT
BRANCH   1   2
ATOM      2  C   UNL     1      -2.408  44.586   2.230  1.00  0.00     0.000 C 
BRANCH   2   3
ATOM      3  C   UNL     1      -1.680  43.392   1.582  1.00  0.00     0.000 C 
BRANCH   3   4
ATOM      4  C   UNL     1      -0.408  43.753   0.794  1.00  0.00     0.000 C 
BRANCH   4   5
ATOM      5  C   UNL     1      -0.628  44.906  -0.200  1.00  0.00     0.006 C 
BRANCH   5   6
ATOM      6  C   UNL     1       0.187  44.724  -1.487  1.00  0.00     0.053 C 
BRANCH   6   7
ATOM      7  C   UNL     1      -0.546  45.238  -2.687  1.00  0.00     0.041 C 
ATOM      8  O   UNL     1      -0.100  46.225  -3.329  1.00  0.00    -0.550 OA
ATOM      9  O   UNL     1      -1.710  44.610  -3.114  1.00  0.00    -0.550 OA
ENDBRANCH   6   7
ENDBRANCH   5   6
ENDBRANCH   4   5
ENDBRANCH   3   4
ENDBRANCH   2   3
ENDBRANCH   1   2
BRANCH   1  10
ATOM     10  C   UNL     1      -0.719  46.373   3.041  1.00  0.00     0.027 C 
BRANCH  10  11
ATOM     11  C   UNL     1       0.382  46.566   4.054  1.00  0.00    -0.031 C 
ATOM     12  C   UNL     1       1.674  46.243   3.862  1.00  0.00    -0.031 C 
BRANCH  12  13
ATOM     13  C   UNL     1       2.229  45.574   2.626  1.00  0.00     0.027 C 
BRANCH  13  14
ATOM     14  C   UNL     1       3.565  44.878   2.919  1.00  0.00     0.004 C 
BRANCH  14  15
ATOM     15  C   UNL     1       4.307  45.524   4.101  1.00  0.00     0.000 C 
BRANCH  15  16
ATOM     16  C   UNL     1       4.895  44.486   5.070  1.00  0.00    -0.000 C 
BRANCH  16  17
ATOM     17  C   UNL     1       4.135  44.423   6.403  1.00  0.00    -0.003 C 
ATOM     18  C   UNL     1       4.122  43.003   6.962  1.00  0.00     0.004 C 
ENDBRANCH  16  17
ENDBRANCH  15  16
ENDBRANCH  14  15
ENDBRANCH  13  14
ENDBRANCH  12  13
ENDBRANCH  10  11
ENDBRANCH   1  10
TORSDOF 13
ENDMDL
MODEL 4
REMARK VINA RESULT:    -5.930      1.697      2.138
REMARK INTER + INTRA:         -11.452
REMARK INTER:                 -10.530
REMARK INTRA:                  -0.922
REMARK UNBOUND:                -1.015
REMARK SMILES CCCCCCC=CCCCCCCCC(=O)[O-]
REMARK SMILES IDX 10 1 11 2 12 3 13 4 14 5 15 6 16 7 17 8 18 9 9 10 8 11 7 12
REMARK SMILES IDX 6 13 5 14 4 15 3 16 2 17 1 18
REMARK H PARENT
REMARK Flexibility Score: inf
ROOT
ATOM      1  C   UNL     1      -0.257  43.727   0.841  1.00  0.00     0.004 C 
ENDROOT
BRANCH   1   2
ATOM      2  C   UNL     1      -1.601  43.421   1.533  1.00  0.00     0.000 C 
BRANCH   2   3
ATOM      3  C   UNL     1      -1.973  44.368   2.692  1.00  0.00     0.000 C 
BRANCH   3   4
ATOM      4  C   UNL     1      -2.703  43.701   3.870  1.00  0.00     0.000 C 
BRANCH   4   5
ATOM      5  C   UNL     1      -3.166  44.710   4.935  1.00  0.00     0.006 C 
BRANCH   5   6
ATOM      6  C   UNL     1      -2.053  45.689   5.327  1.00  0.00     0.053 C 
BRANCH   6   7
ATOM      7  C   UNL     1      -2.255  46.238   6.706  1.00  0.00     0.041 C 
ATOM      8  O   UNL     1      -1.304  46.800   7.311  1.00  0.00    -0.550 OA
ATOM      9  O   UNL     1      -3.502  46.155   7.312  1.00  0.00    -0.550 OA
ENDBRANCH   6   7
ENDBRANCH   5   6
ENDBRANCH   4   5
ENDBRANCH   3   4
ENDBRANCH   2   3
ENDBRANCH   1   2
BRANCH   1  10
ATOM     10  C   UNL     1       0.489  44.944   1.416  1.00  0.00     0.027 C 
BRANCH  10  11
ATOM     11  C   UNL     1       1.987  44.777   1.364  1.00  0.00    -0.031 C 
ATOM     12  C   UNL     1       2.851  45.274   2.268  1.00  0.00    -0.031 C 
BRANCH  12  13
ATOM     13  C   UNL     1       2.474  46.134   3.451  1.00  0.00     0.027 C 
BRANCH  13  14
ATOM     14  C   UNL     1       3.294  45.767   4.694  1.00  0.00     0.004 C 
BRANCH  14  15
ATOM     15  C   UNL     1       4.549  44.952   4.340  1.00  0.00     0.000 C 
BRANCH  15  16
ATOM     16  C   UNL     1       5.192  44.289   5.568  1.00  0.00    -0.000 C 
BRANCH  16  17
ATOM     17  C   UNL     1       4.152  43.774   6.574  1.00  0.00    -0.003 C 
ATOM     18  C   UNL     1       4.826  43.075   7.752  1.00  0.00     0.004 C 
ENDBRANCH  16  17
ENDBRANCH  15  16
ENDBRANCH  14  15
ENDBRANCH  13  14
ENDBRANCH  12  13
ENDBRANCH  10  11
ENDBRANCH   1  10
TORSDOF 13
ENDMDL
MODEL 5
REMARK VINA RESULT:    -5.912      3.308      5.468
REMARK INTER + INTRA:         -11.420
REMARK INTER:                 -10.111
REMARK INTRA:                  -1.309
REMARK UNBOUND:                -1.015
REMARK SMILES CCCCCCC=CCCCCCCCC(=O)[O-]
REMARK SMILES IDX 10 1 11 2 12 3 13 4 14 5 15 6 16 7 17 8 18 9 9 10 8 11 7 12
REMARK SMILES IDX 6 13 5 14 4 15 3 16 2 17 1 18
REMARK H PARENT
REMARK Flexibility Score: inf
ROOT
ATOM      1  C   UNL     1      -3.638  44.784   4.821  1.00  0.00     0.004 C 
ENDROOT
BRANCH   1   2
ATOM      2  C   UNL     1      -3.118  44.708   6.271  1.00  0.00     0.000 C 
BRANCH   2   3
ATOM      3  C   UNL     1      -2.986  46.063   6.994  1.00  0.00     0.000 C 
BRANCH   3   4
ATOM      4  C   UNL     1      -1.656  46.279   7.737  1.00  0.00     0.000 C 
BRANCH   4   5
ATOM      5  C   UNL     1      -0.784  47.373   7.097  1.00  0.00     0.006 C 
BRANCH   5   6
ATOM      6  C   UNL     1       0.706  47.177   7.402  1.00  0.00     0.053 C 
BRANCH   6   7
ATOM      7  C   UNL     1       1.008  47.377   8.856  1.00  0.00     0.041 C 
ATOM      8  O   UNL     1       1.013  46.394   9.644  1.00  0.00    -0.550 OA
ATOM      9  O   UNL     1       1.312  48.645   9.335  1.00  0.00    -0.550 OA
ENDBRANCH   6   7
ENDBRANCH   5   6
ENDBRANCH   4   5
ENDBRANCH   3   4
ENDBRANCH   2   3
ENDBRANCH   1   2
BRANCH   1  10
ATOM     10  C   UNL     1      -2.563  44.531   3.749  1.00  0.00     0.027 C 
BRANCH  10  11
ATOM     11  C   UNL     1      -1.475  45.576   3.768  1.00  0.00    -0.031 C 
ATOM     12  C   UNL     1      -0.722  45.925   2.709  1.00  0.00    -0.031 C 
BRANCH  12  13
ATOM     13  C   UNL     1      -0.795  45.288   1.341  1.00  0.00     0.027 C 
BRANCH  13  14
ATOM     14  C   UNL     1       0.299  44.228   1.159  1.00  0.00     0.004 C 
BRANCH  14  15
ATOM     15  C   UNL     1       1.664  44.855   0.830  1.00  0.00     0.000 C 
BRANCH  15  16
ATOM     16  C   UNL     1       2.674  44.713   1.980  1.00  0.00    -0.000 C 
BRANCH  16  17
ATOM     17  C   UNL     1       3.202  46.068   2.475  1.00  0.00    -0.003 C 
ATOM     18  C   UNL     1       2.792  46.321   3.924  1.00  0.00     0.004 C 
ENDBRANCH  16  17
ENDBRANCH  15  16
ENDBRANCH  14  15
ENDBRANCH  13  14
ENDBRANCH  12  13
ENDBRANCH  10  11
ENDBRANCH   1  10
TORSDOF 13
ENDMDL
MODEL 6
REMARK VINA RESULT:    -5.901      3.794      5.308
REMARK INTER + INTRA:         -11.402
REMARK INTER:                 -10.276
REMARK INTRA:                  -1.125
REMARK UNBOUND:                -1.015
REMARK SMILES CCCCCCC=CCCCCCCCC(=O)[O-]
REMARK SMILES IDX 10 1 11 2 12 3 13 4 14 5 15 6 16 7 17 8 18 9 9 10 8 11 7 12
REMARK SMILES IDX 6 13 5 14 4 15 3 16 2 17 1 18
REMARK H PARENT
REMARK Flexibility Score: inf
ROOT
ATOM      1  C   UNL     1      -1.835  45.538   4.346  1.00  0.00     0.004 C 
ENDROOT
BRANCH   1   2
ATOM      2  C   UNL     1      -1.683  45.969   5.819  1.00  0.00     0.000 C 
BRANCH   2   3
ATOM      3  C   UNL     1      -0.364  46.690   6.159  1.00  0.00     0.000 C 
BRANCH   3   4
ATOM      4  C   UNL     1      -0.401  47.554   7.432  1.00  0.00     0.000 C 
BRANCH   4   5
ATOM      5  C   UNL     1       0.659  47.139   8.467  1.00  0.00     0.006 C 
BRANCH   5   6
ATOM      6  C   UNL     1       0.268  47.549   9.892  1.00  0.00     0.053 C 
BRANCH   6   7
ATOM      7  C   UNL     1       0.685  46.523  10.901  1.00  0.00     0.041 C 
ATOM      8  O   UNL     1       1.317  45.497  10.537  1.00  0.00    -0.550 OA
ATOM      9  O   UNL     1       0.400  46.715  12.247  1.00  0.00    -0.550 OA
ENDBRANCH   6   7
ENDBRANCH   5   6
ENDBRANCH   4   5
ENDBRANCH   3   4
ENDBRANCH   2   3
ENDBRANCH   1   2
BRANCH   1  10
ATOM     10  C   UNL     1      -0.704  46.027   3.423  1.00  0.00     0.027 C 
BRANCH  10  11
ATOM     11  C   UNL     1      -1.113  46.040   1.971  1.00  0.00    -0.031 C 
ATOM     12  C   UNL     1      -0.615  45.227   1.021  1.00  0.00    -0.031 C 
BRANCH  12  13
ATOM     13  C   UNL     1       0.480  44.208   1.235  1.00  0.00     0.027 C 
BRANCH  13  14
ATOM     14  C   UNL     1       1.832  44.725   0.725  1.00  0.00     0.004 C 
BRANCH  14  15
ATOM     15  C   UNL     1       2.904  44.724   1.828  1.00  0.00     0.000 C 
BRANCH  15  16
ATOM     16  C   UNL     1       2.845  45.979   2.713  1.00  0.00    -0.000 C 
BRANCH  16  17
ATOM     17  C   UNL     1       3.203  45.687   4.178  1.00  0.00    -0.003 C 
ATOM     18  C   UNL     1       4.291  44.620   4.274  1.00  0.00     0.004 C 
ENDBRANCH  16  17
ENDBRANCH  15  16
ENDBRANCH  14  15
ENDBRANCH  13  14
ENDBRANCH  12  13
ENDBRANCH  10  11
ENDBRANCH   1  10
TORSDOF 13
ENDMDL
MODEL 7
REMARK VINA RESULT:    -5.858      5.192      7.581
REMARK INTER + INTRA:         -11.326
REMARK INTER:                  -9.953
REMARK INTRA:                  -1.373
REMARK UNBOUND:                -1.015
REMARK SMILES CCCCCCC=CCCCCCCCC(=O)[O-]
REMARK SMILES IDX 10 1 11 2 12 3 13 4 14 5 15 6 16 7 17 8 18 9 9 10 8 11 7 12
REMARK SMILES IDX 6 13 5 14 4 15 3 16 2 17 1 18
REMARK H PARENT
REMARK Flexibility Score: inf
ROOT
ATOM      1  C   UNL     1      -0.577  45.497  -3.073  1.00  0.00     0.004 C 
ENDROOT
BRANCH   1   2
ATOM      2  C   UNL     1       0.627  44.588  -3.393  1.00  0.00     0.000 C 
BRANCH   2   3
ATOM      3  C   UNL     1       1.724  44.546  -2.311  1.00  0.00     0.000 C 
BRANCH   3   4
ATOM      4  C   UNL     1       2.840  43.514  -2.553  1.00  0.00     0.000 C 
BRANCH   4   5
ATOM      5  C   UNL     1       4.225  44.017  -2.114  1.00  0.00     0.006 C 
BRANCH   5   6
ATOM      6  C   UNL     1       5.350  43.462  -2.996  1.00  0.00     0.053 C 
BRANCH   6   7
ATOM      7  C   UNL     1       5.868  44.492  -3.951  1.00  0.00     0.041 C 
ATOM      8  O   UNL     1       7.103  44.576  -4.186  1.00  0.00    -0.550 OA
ATOM      9  O   UNL     1       4.985  45.343  -4.604  1.00  0.00    -0.550 OA
ENDBRANCH   6   7
ENDBRANCH   5   6
ENDBRANCH   4   5
ENDBRANCH   3   4
ENDBRANCH   2   3
ENDBRANCH   1   2
BRANCH   1  10
ATOM     10  C   UNL     1      -0.728  45.845  -1.581  1.00  0.00     0.027 C 
BRANCH  10  11
ATOM     11  C   UNL     1      -1.898  45.139  -0.942  1.00  0.00    -0.031 C 
ATOM     12  C   UNL     1      -2.344  45.360   0.308  1.00  0.00    -0.031 C 
BRANCH  12  13
ATOM     13  C   UNL     1      -1.711  46.304   1.304  1.00  0.00     0.027 C 
BRANCH  13  14
ATOM     14  C   UNL     1      -1.067  45.539   2.467  1.00  0.00     0.004 C 
BRANCH  14  15
ATOM     15  C   UNL     1       0.470  45.573   2.402  1.00  0.00     0.000 C 
BRANCH  15  16
ATOM     16  C   UNL     1       1.039  44.599   1.358  1.00  0.00    -0.000 C 
BRANCH  16  17
ATOM     17  C   UNL     1       2.565  44.709   1.219  1.00  0.00    -0.003 C 
ATOM     18  C   UNL     1       3.177  45.415   2.425  1.00  0.00     0.004 C 
ENDBRANCH  16  17
ENDBRANCH  15  16
ENDBRANCH  14  15
ENDBRANCH  13  14
ENDBRANCH  12  13
ENDBRANCH  10  11
ENDBRANCH   1  10
TORSDOF 13
ENDMDL
MODEL 8
REMARK VINA RESULT:    -5.827      3.647      6.217
REMARK INTER + INTRA:         -11.270
REMARK INTER:                 -10.313
REMARK INTRA:                  -0.957
REMARK UNBOUND:                -1.015
REMARK SMILES CCCCCCC=CCCCCCCCC(=O)[O-]
REMARK SMILES IDX 10 1 11 2 12 3 13 4 14 5 15 6 16 7 17 8 18 9 9 10 8 11 7 12
REMARK SMILES IDX 6 13 5 14 4 15 3 16 2 17 1 18
REMARK H PARENT
REMARK Flexibility Score: inf
ROOT
ATOM      1  C   UNL     1      -2.970  45.197   5.806  1.00  0.00     0.004 C 
ENDROOT
BRANCH   1   2
ATOM      2  C   UNL     1      -2.378  46.054   6.944  1.00  0.00     0.000 C 
BRANCH   2   3
ATOM      3  C   UNL     1      -0.945  46.567   6.701  1.00  0.00     0.000 C 
BRANCH   3   4
ATOM      4  C   UNL     1      -0.580  47.859   7.452  1.00  0.00     0.000 C 
BRANCH   4   5
ATOM      5  C   UNL     1       0.810  47.796   8.109  1.00  0.00     0.006 C 
BRANCH   5   6
ATOM      6  C   UNL     1       0.745  48.019   9.625  1.00  0.00     0.053 C 
BRANCH   6   7
ATOM      7  C   UNL     1       0.264  46.798  10.346  1.00  0.00     0.041 C 
ATOM      8  O   UNL     1      -0.858  46.798  10.917  1.00  0.00    -0.550 OA
ATOM      9  O   UNL     1       1.044  45.648  10.365  1.00  0.00    -0.550 OA
ENDBRANCH   6   7
ENDBRANCH   5   6
ENDBRANCH   4   5
ENDBRANCH   3   4
ENDBRANCH   2   3
ENDBRANCH   1   2
BRANCH   1  10
ATOM     10  C   UNL     1      -2.183  45.267   4.486  1.00  0.00     0.027 C 
BRANCH  10  11
ATOM     11  C   UNL     1      -2.417  44.059   3.612  1.00  0.00    -0.031 C 
ATOM     12  C   UNL     1      -2.645  44.097   2.286  1.00  0.00    -0.031 C 
BRANCH  12  13
ATOM     13  C   UNL     1      -2.768  45.356   1.460  1.00  0.00     0.027 C 
BRANCH  13  14
ATOM     14  C   UNL     1      -1.392  45.867   1.012  1.00  0.00     0.004 C 
BRANCH  14  15
ATOM     15  C   UNL     1      -0.638  44.830   0.164  1.00  0.00     0.000 C 
BRANCH  15  16
ATOM     16  C   UNL     1       0.497  44.143   0.939  1.00  0.00    -0.000 C 
BRANCH  16  17
ATOM     17  C   UNL     1       1.334  45.133   1.764  1.00  0.00    -0.003 C 
ATOM     18  C   UNL     1       2.822  44.809   1.666  1.00  0.00     0.004 C 
ENDBRANCH  16  17
ENDBRANCH  15  16
ENDBRANCH  14  15
ENDBRANCH  13  14
ENDBRANCH  12  13
ENDBRANCH  10  11
ENDBRANCH   1  10
TORSDOF 13
ENDMDL
MODEL 9
REMARK VINA RESULT:    -5.793      4.207      6.671
REMARK INTER + INTRA:         -11.212
REMARK INTER:                 -10.504
REMARK INTRA:                  -0.708
REMARK UNBOUND:                -1.015
REMARK SMILES CCCCCCC=CCCCCCCCC(=O)[O-]
REMARK SMILES IDX 10 1 11 2 12 3 13 4 14 5 15 6 16 7 17 8 18 9 9 10 8 11 7 12
REMARK SMILES IDX 6 13 5 14 4 15 3 16 2 17 1 18
REMARK H PARENT
REMARK Flexibility Score: inf
ROOT
ATOM      1  C   UNL     1      -2.839  43.907   4.366  1.00  0.00     0.004 C 
ENDROOT
BRANCH   1   2
ATOM      2  C   UNL     1      -2.596  45.257   5.071  1.00  0.00     0.000 C 
BRANCH   2   3
ATOM      3  C   UNL     1      -3.052  45.320   6.542  1.00  0.00     0.000 C 
BRANCH   3   4
ATOM      4  C   UNL     1      -2.099  46.070   7.489  1.00  0.00     0.000 C 
BRANCH   4   5
ATOM      5  C   UNL     1      -0.927  46.740   6.751  1.00  0.00     0.006 C 
BRANCH   5   6
ATOM      6  C   UNL     1      -0.398  47.969   7.500  1.00  0.00     0.053 C 
BRANCH   6   7
ATOM      7  C   UNL     1       0.448  47.583   8.674  1.00  0.00     0.041 C 
ATOM      8  O   UNL     1       0.330  48.195   9.769  1.00  0.00    -0.550 OA
ATOM      9  O   UNL     1       1.347  46.529   8.568  1.00  0.00    -0.550 OA
ENDBRANCH   6   7
ENDBRANCH   5   6
ENDBRANCH   4   5
ENDBRANCH   3   4
ENDBRANCH   2   3
ENDBRANCH   1   2
BRANCH   1  10
ATOM     10  C   UNL     1      -2.362  43.862   2.903  1.00  0.00     0.027 C 
BRANCH  10  11
ATOM     11  C   UNL     1      -1.456  45.018   2.558  1.00  0.00    -0.031 C 
ATOM     12  C   UNL     1      -1.200  45.453   1.311  1.00  0.00    -0.031 C 
BRANCH  12  13
ATOM     13  C   UNL     1      -1.724  44.819   0.044  1.00  0.00     0.027 C 
BRANCH  13  14
ATOM     14  C   UNL     1      -1.216  45.557  -1.202  1.00  0.00     0.004 C 
BRANCH  14  15
ATOM     15  C   UNL     1       0.027  44.884  -1.807  1.00  0.00     0.000 C 
BRANCH  15  16
ATOM     16  C   UNL     1       0.004  44.869  -3.344  1.00  0.00    -0.000 C 
BRANCH  16  17
ATOM     17  C   UNL     1       1.260  44.223  -3.948  1.00  0.00    -0.003 C 
ATOM     18  C   UNL     1       2.317  43.972  -2.876  1.00  0.00     0.004 C 
ENDBRANCH  16  17
ENDBRANCH  15  16
ENDBRANCH  14  15
ENDBRANCH  13  14
ENDBRANCH  12  13
ENDBRANCH  10  11
ENDBRANCH   1  10
TORSDOF 13
ENDMDL
