MODEL 1
REMARK VINA RESULT:    -4.698      0.000      0.000
REMARK INTER + INTRA:         -12.653
REMARK INTER:                 -10.740
REMARK INTRA:                  -1.914
REMARK UNBOUND:                -1.914
REMARK SMILES CCCCCCCCCCCCCCCCCCCCCCCC(=O)[O-]
REMARK SMILES IDX 13 1 14 2 15 3 16 4 17 5 18 6 19 7 20 8 21 9 22 10 23 11
REMARK SMILES IDX 24 12 25 13 26 14 12 15 11 16 10 17 9 18 8 19 7 20 6 21 5 22
REMARK SMILES IDX 4 23 3 24 2 25 1 26
REMARK H PARENT
REMARK Flexibility Score: inf
ROOT
ATOM      1  C   UNL     1      -1.209  13.302 -36.249  1.00  0.00     0.000 C 
ENDROOT
BRANCH   1   2
ATOM      2  C   UNL     1      -2.458  12.591 -35.679  1.00  0.00     0.000 C 
BRANCH   2   3
ATOM      3  C   UNL     1      -2.454  11.065 -35.884  1.00  0.00     0.000 C 
BRANCH   3   4
ATOM      4  C   UNL     1      -3.399  10.561 -36.990  1.00  0.00     0.000 C 
BRANCH   4   5
ATOM      5  C   UNL     1      -3.938   9.134 -36.742  1.00  0.00     0.000 C 
BRANCH   5   6
ATOM      6  C   UNL     1      -5.251   8.859 -37.495  1.00  0.00     0.000 C 
BRANCH   6   7
ATOM      7  C   UNL     1      -5.120   9.081 -39.011  1.00  0.00     0.000 C 
BRANCH   7   8
ATOM      8  C   UNL     1      -6.474   9.329 -39.694  1.00  0.00     0.000 C 
BRANCH   8   9
ATOM      9  C   UNL     1      -7.443   8.169 -39.424  1.00  0.00     0.000 C 
BRANCH   9  10
ATOM     10  C   UNL     1      -7.171   6.938 -40.311  1.00  0.00     0.006 C 
BRANCH  10  11
ATOM     11  C   UNL     1      -8.135   5.766 -40.061  1.00  0.00     0.053 C 
BRANCH  11  12
ATOM     12  C   UNL     1      -8.294   4.886 -41.262  1.00  0.00     0.041 C 
ATOM     13  O   UNL     1      -7.811   5.235 -42.370  1.00  0.00    -0.550 OA
ATOM     14  O   UNL     1      -8.958   3.671 -41.153  1.00  0.00    -0.550 OA
ENDBRANCH  11  12
ENDBRANCH  10  11
ENDBRANCH   9  10
ENDBRANCH   8   9
ENDBRANCH   7   8
ENDBRANCH   6   7
ENDBRANCH   5   6
ENDBRANCH   4   5
ENDBRANCH   3   4
ENDBRANCH   2   3
ENDBRANCH   1   2
BRANCH   1  15
ATOM     15  C   UNL     1      -0.868  12.856 -37.681  1.00  0.00     0.000 C 
BRANCH  15  16
ATOM     16  C   UNL     1       0.595  12.412 -37.835  1.00  0.00     0.000 C 
BRANCH  16  17
ATOM     17  C   UNL     1       0.740  10.892 -38.002  1.00  0.00     0.000 C 
BRANCH  17  18
ATOM     18  C   UNL     1      -0.481  10.301 -38.723  1.00  0.00    -0.000 C 
BRANCH  18  19
ATOM     19  C   UNL     1      -0.720   8.820 -38.379  1.00  0.00    -0.000 C 
BRANCH  19  20
ATOM     20  C   UNL     1      -1.555   8.033 -39.411  1.00  0.00    -0.000 C 
BRANCH  20  21
ATOM     21  C   UNL     1      -0.752   7.046 -40.278  1.00  0.00    -0.000 C 
BRANCH  21  22
ATOM     22  C   UNL     1      -0.017   7.737 -41.439  1.00  0.00    -0.000 C 
BRANCH  22  23
ATOM     23  C   UNL     1       0.717   6.741 -42.351  1.00  0.00    -0.000 C 
BRANCH  23  24
ATOM     24  C   UNL     1       1.560   5.728 -41.557  1.00  0.00    -0.000 C 
BRANCH  24  25
ATOM     25  C   UNL     1       3.023   5.683 -42.025  1.00  0.00    -0.003 C 
ATOM     26  C   UNL     1       3.918   4.858 -41.100  1.00  0.00     0.004 C 
ENDBRANCH  24  25
ENDBRANCH  23  24
ENDBRANCH  22  23
ENDBRANCH  21  22
ENDBRANCH  20  21
ENDBRANCH  19  20
ENDBRANCH  18  19
ENDBRANCH  17  18
ENDBRANCH  16  17
ENDBRANCH  15  16
ENDBRANCH   1  15
TORSDOF 22
ENDMDL
MODEL 2
REMARK VINA RESULT:    -4.336      1.710      2.608
REMARK INTER + INTRA:         -11.825
REMARK INTER:                 -10.163
REMARK INTRA:                  -1.662
REMARK UNBOUND:                -1.914
REMARK SMILES CCCCCCCCCCCCCCCCCCCCCCCC(=O)[O-]
REMARK SMILES IDX 13 1 14 2 15 3 16 4 17 5 18 6 19 7 20 8 21 9 22 10 23 11
REMARK SMILES IDX 24 12 25 13 26 14 12 15 11 16 10 17 9 18 8 19 7 20 6 21 5 22
REMARK SMILES IDX 4 23 3 24 2 25 1 26
REMARK H PARENT
REMARK Flexibility Score: inf
ROOT
ATOM      1  C   UNL     1      -0.429  11.721 -37.504  1.00  0.00     0.000 C 
ENDROOT
BRANCH   1   2
ATOM      2  C   UNL     1      -0.945  10.755 -38.596  1.00  0.00     0.000 C 
BRANCH   2   3
ATOM      3  C   UNL     1      -0.596   9.278 -38.337  1.00  0.00     0.000 C 
BRANCH   3   4
ATOM      4  C   UNL     1      -1.562   8.265 -38.976  1.00  0.00     0.000 C 
BRANCH   4   5
ATOM      5  C   UNL     1      -3.054   8.609 -38.761  1.00  0.00     0.000 C 
BRANCH   5   6
ATOM      6  C   UNL     1      -3.672   9.338 -39.966  1.00  0.00     0.000 C 
BRANCH   6   7
ATOM      7  C   UNL     1      -5.180   9.585 -39.798  1.00  0.00     0.000 C 
BRANCH   7   8
ATOM      8  C   UNL     1      -5.858   8.532 -38.907  1.00  0.00     0.000 C 
BRANCH   8   9
ATOM      9  C   UNL     1      -7.301   8.277 -39.365  1.00  0.00     0.000 C 
BRANCH   9  10
ATOM     10  C   UNL     1      -7.395   7.278 -40.534  1.00  0.00     0.006 C 
BRANCH  10  11
ATOM     11  C   UNL     1      -7.692   5.833 -40.095  1.00  0.00     0.053 C 
BRANCH  11  12
ATOM     12  C   UNL     1      -8.092   4.955 -41.239  1.00  0.00     0.041 C 
ATOM     13  O   UNL     1      -7.727   5.236 -42.410  1.00  0.00    -0.550 OA
ATOM     14  O   UNL     1      -8.851   3.815 -41.011  1.00  0.00    -0.550 OA
ENDBRANCH  11  12
ENDBRANCH  10  11
ENDBRANCH   9  10
ENDBRANCH   8   9
ENDBRANCH   7   8
ENDBRANCH   6   7
ENDBRANCH   5   6
ENDBRANCH   4   5
ENDBRANCH   3   4
ENDBRANCH   2   3
ENDBRANCH   1   2
BRANCH   1  15
ATOM     15  C   UNL     1       0.837  12.484 -37.930  1.00  0.00     0.000 C 
BRANCH  15  16
ATOM     16  C   UNL     1       1.411  11.987 -39.267  1.00  0.00     0.000 C 
BRANCH  16  17
ATOM     17  C   UNL     1       1.821  13.137 -40.200  1.00  0.00     0.000 C 
BRANCH  17  18
ATOM     18  C   UNL     1       2.823  12.653 -41.259  1.00  0.00    -0.000 C 
BRANCH  18  19
ATOM     19  C   UNL     1       2.867  11.119 -41.383  1.00  0.00    -0.000 C 
BRANCH  19  20
ATOM     20  C   UNL     1       1.990  10.525 -42.504  1.00  0.00    -0.000 C 
BRANCH  20  21
ATOM     21  C   UNL     1       1.787   9.000 -42.432  1.00  0.00    -0.000 C 
BRANCH  21  22
ATOM     22  C   UNL     1       0.412   8.611 -41.864  1.00  0.00    -0.000 C 
BRANCH  22  23
ATOM     23  C   UNL     1       0.255   7.093 -41.682  1.00  0.00    -0.000 C 
BRANCH  23  24
ATOM     24  C   UNL     1       1.281   6.293 -42.505  1.00  0.00    -0.000 C 
BRANCH  24  25
ATOM     25  C   UNL     1       2.046   5.266 -41.655  1.00  0.00    -0.003 C 
ATOM     26  C   UNL     1       3.555   5.514 -41.641  1.00  0.00     0.004 C 
ENDBRANCH  24  25
ENDBRANCH  23  24
ENDBRANCH  22  23
ENDBRANCH  21  22
ENDBRANCH  20  21
ENDBRANCH  19  20
ENDBRANCH  18  19
ENDBRANCH  17  18
ENDBRANCH  16  17
ENDBRANCH  15  16
ENDBRANCH   1  15
TORSDOF 22
ENDMDL
MODEL 3
REMARK VINA RESULT:    -4.067      1.777      2.930
REMARK INTER + INTRA:         -11.212
REMARK INTER:                  -9.569
REMARK INTRA:                  -1.644
REMARK UNBOUND:                -1.914
REMARK SMILES CCCCCCCCCCCCCCCCCCCCCCCC(=O)[O-]
REMARK SMILES IDX 13 1 14 2 15 3 16 4 17 5 18 6 19 7 20 8 21 9 22 10 23 11
REMARK SMILES IDX 24 12 25 13 26 14 12 15 11 16 10 17 9 18 8 19 7 20 6 21 5 22
REMARK SMILES IDX 4 23 3 24 2 25 1 26
REMARK H PARENT
REMARK Flexibility Score: inf
ROOT
ATOM      1  C   UNL     1      -1.250  10.888 -38.474  1.00  0.00     0.000 C 
ENDROOT
BRANCH   1   2
ATOM      2  C   UNL     1      -0.851   9.410 -38.262  1.00  0.00     0.000 C 
BRANCH   2   3
ATOM      3  C   UNL     1      -1.724   8.410 -39.043  1.00  0.00     0.000 C 
BRANCH   3   4
ATOM      4  C   UNL     1      -2.969   9.025 -39.708  1.00  0.00     0.000 C 
BRANCH   4   5
ATOM      5  C   UNL     1      -4.290   8.699 -38.974  1.00  0.00     0.000 C 
BRANCH   5   6
ATOM      6  C   UNL     1      -5.529   9.195 -39.739  1.00  0.00     0.000 C 
BRANCH   6   7
ATOM      7  C   UNL     1      -6.835   8.966 -38.961  1.00  0.00     0.000 C 
BRANCH   7   8
ATOM      8  C   UNL     1      -7.582   7.702 -39.414  1.00  0.00     0.000 C 
BRANCH   8   9
ATOM      9  C   UNL     1      -7.295   7.399 -40.892  1.00  0.00     0.000 C 
BRANCH   9  10
ATOM     10  C   UNL     1      -7.720   5.978 -41.310  1.00  0.00     0.006 C 
BRANCH  10  11
ATOM     11  C   UNL     1      -7.861   5.000 -40.131  1.00  0.00     0.053 C 
BRANCH  11  12
ATOM     12  C   UNL     1      -9.081   4.139 -40.241  1.00  0.00     0.041 C 
ATOM     13  O   UNL     1     -10.021   4.265 -39.414  1.00  0.00    -0.550 OA
ATOM     14  O   UNL     1      -9.189   3.209 -41.267  1.00  0.00    -0.550 OA
ENDBRANCH  11  12
ENDBRANCH  10  11
ENDBRANCH   9  10
ENDBRANCH   8   9
ENDBRANCH   7   8
ENDBRANCH   6   7
ENDBRANCH   5   6
ENDBRANCH   4   5
ENDBRANCH   3   4
ENDBRANCH   2   3
ENDBRANCH   1   2
BRANCH   1  15
ATOM     15  C   UNL     1      -0.539  11.846 -37.504  1.00  0.00     0.000 C 
BRANCH  15  16
ATOM     16  C   UNL     1       0.947  12.043 -37.844  1.00  0.00     0.000 C 
BRANCH  16  17
ATOM     17  C   UNL     1       1.275  11.689 -39.302  1.00  0.00     0.000 C 
BRANCH  17  18
ATOM     18  C   UNL     1       1.898  12.888 -40.032  1.00  0.00    -0.000 C 
BRANCH  18  19
ATOM     19  C   UNL     1       2.756  12.473 -41.241  1.00  0.00    -0.000 C 
BRANCH  19  20
ATOM     20  C   UNL     1       2.770  10.961 -41.547  1.00  0.00    -0.000 C 
BRANCH  20  21
ATOM     21  C   UNL     1       1.767  10.507 -42.623  1.00  0.00    -0.000 C 
BRANCH  21  22
ATOM     22  C   UNL     1       1.646   8.976 -42.712  1.00  0.00    -0.000 C 
BRANCH  22  23
ATOM     23  C   UNL     1       0.862   8.375 -41.534  1.00  0.00    -0.000 C 
BRANCH  23  24
ATOM     24  C   UNL     1       0.387   6.938 -41.816  1.00  0.00    -0.000 C 
BRANCH  24  25
ATOM     25  C   UNL     1       1.427   6.116 -42.593  1.00  0.00    -0.003 C 
ATOM     26  C   UNL     1       2.472   5.468 -41.684  1.00  0.00     0.004 C 
ENDBRANCH  24  25
ENDBRANCH  23  24
ENDBRANCH  22  23
ENDBRANCH  21  22
ENDBRANCH  20  21
ENDBRANCH  19  20
ENDBRANCH  18  19
ENDBRANCH  17  18
ENDBRANCH  16  17
ENDBRANCH  15  16
ENDBRANCH   1  15
TORSDOF 22
ENDMDL
MODEL 4
REMARK VINA RESULT:    -3.994      3.788      8.075
REMARK INTER + INTRA:         -11.044
REMARK INTER:                  -9.256
REMARK INTRA:                  -1.788
REMARK UNBOUND:                -1.914
REMARK SMILES CCCCCCCCCCCCCCCCCCCCCCCC(=O)[O-]
REMARK SMILES IDX 13 1 14 2 15 3 16 4 17 5 18 6 19 7 20 8 21 9 22 10 23 11
REMARK SMILES IDX 24 12 25 13 26 14 12 15 11 16 10 17 9 18 8 19 7 20 6 21 5 22
REMARK SMILES IDX 4 23 3 24 2 25 1 26
REMARK H PARENT
REMARK Flexibility Score: inf
ROOT
ATOM      1  C   UNL     1       0.893  11.894 -38.227  1.00  0.00     0.000 C 
ENDROOT
BRANCH   1   2
ATOM      2  C   UNL     1       1.247  13.185 -38.999  1.00  0.00     0.000 C 
BRANCH   2   3
ATOM      3  C   UNL     1       1.986  12.935 -40.327  1.00  0.00     0.000 C 
BRANCH   3   4
ATOM      4  C   UNL     1       2.366  11.466 -40.585  1.00  0.00     0.000 C 
BRANCH   4   5
ATOM      5  C   UNL     1       2.652  11.151 -42.071  1.00  0.00     0.000 C 
BRANCH   5   6
ATOM      6  C   UNL     1       1.664  10.130 -42.660  1.00  0.00     0.000 C 
BRANCH   6   7
ATOM      7  C   UNL     1       1.292   9.023 -41.659  1.00  0.00     0.000 C 
BRANCH   7   8
ATOM      8  C   UNL     1       0.684   7.787 -42.341  1.00  0.00     0.000 C 
BRANCH   8   9
ATOM      9  C   UNL     1       0.459   6.658 -41.324  1.00  0.00     0.000 C 
BRANCH   9  10
ATOM     10  C   UNL     1       1.318   5.411 -41.610  1.00  0.00     0.006 C 
BRANCH  10  11
ATOM     11  C   UNL     1       2.617   5.712 -42.377  1.00  0.00     0.053 C 
BRANCH  11  12
ATOM     12  C   UNL     1       3.840   5.292 -41.624  1.00  0.00     0.041 C 
ATOM     13  O   UNL     1       3.732   4.637 -40.555  1.00  0.00    -0.550 OA
ATOM     14  O   UNL     1       5.102   5.608 -42.111  1.00  0.00    -0.550 OA
ENDBRANCH  11  12
ENDBRANCH  10  11
ENDBRANCH   9  10
ENDBRANCH   8   9
ENDBRANCH   7   8
ENDBRANCH   6   7
ENDBRANCH   5   6
ENDBRANCH   4   5
ENDBRANCH   3   4
ENDBRANCH   2   3
ENDBRANCH   1   2
BRANCH   1  15
ATOM     15  C   UNL     1      -0.486  11.960 -37.550  1.00  0.00     0.000 C 
BRANCH  15  16
ATOM     16  C   UNL     1      -1.368  10.743 -37.873  1.00  0.00     0.000 C 
BRANCH  16  17
ATOM     17  C   UNL     1      -0.574   9.583 -38.494  1.00  0.00     0.000 C 
BRANCH  17  18
ATOM     18  C   UNL     1      -1.516   8.473 -38.983  1.00  0.00    -0.000 C 
BRANCH  18  19
ATOM     19  C   UNL     1      -2.783   9.021 -39.665  1.00  0.00    -0.000 C 
BRANCH  19  20
ATOM     20  C   UNL     1      -4.083   8.879 -38.847  1.00  0.00    -0.000 C 
BRANCH  20  21
ATOM     21  C   UNL     1      -5.355   9.379 -39.558  1.00  0.00    -0.000 C 
BRANCH  21  22
ATOM     22  C   UNL     1      -6.618   8.623 -39.112  1.00  0.00    -0.000 C 
BRANCH  22  23
ATOM     23  C   UNL     1      -7.185   7.716 -40.217  1.00  0.00    -0.000 C 
BRANCH  23  24
ATOM     24  C   UNL     1      -8.020   6.553 -39.652  1.00  0.00    -0.000 C 
BRANCH  24  25
ATOM     25  C   UNL     1      -7.833   5.252 -40.448  1.00  0.00    -0.003 C 
ATOM     26  C   UNL     1      -8.935   4.227 -40.178  1.00  0.00     0.004 C 
ENDBRANCH  24  25
ENDBRANCH  23  24
ENDBRANCH  22  23
ENDBRANCH  21  22
ENDBRANCH  20  21
ENDBRANCH  19  20
ENDBRANCH  18  19
ENDBRANCH  17  18
ENDBRANCH  16  17
ENDBRANCH  15  16
ENDBRANCH   1  15
TORSDOF 22
ENDMDL
MODEL 5
REMARK VINA RESULT:    -3.936      3.702      8.635
REMARK INTER + INTRA:         -10.912
REMARK INTER:                  -8.995
REMARK INTRA:                  -1.917
REMARK UNBOUND:                -1.914
REMARK SMILES CCCCCCCCCCCCCCCCCCCCCCCC(=O)[O-]
REMARK SMILES IDX 13 1 14 2 15 3 16 4 17 5 18 6 19 7 20 8 21 9 22 10 23 11
REMARK SMILES IDX 24 12 25 13 26 14 12 15 11 16 10 17 9 18 8 19 7 20 6 21 5 22
REMARK SMILES IDX 4 23 3 24 2 25 1 26
REMARK H PARENT
REMARK Flexibility Score: inf
ROOT
ATOM      1  C   UNL     1       0.461   5.948 -41.302  1.00  0.00     0.000 C 
ENDROOT
BRANCH   1   2
ATOM      2  C   UNL     1       0.406   7.044 -42.391  1.00  0.00     0.000 C 
BRANCH   2   3
ATOM      3  C   UNL     1       1.596   8.020 -42.354  1.00  0.00     0.000 C 
BRANCH   3   4
ATOM      4  C   UNL     1       1.225   9.478 -42.029  1.00  0.00     0.000 C 
BRANCH   4   5
ATOM      5  C   UNL     1       1.908  10.513 -42.950  1.00  0.00     0.000 C 
BRANCH   5   6
ATOM      6  C   UNL     1       2.675  11.590 -42.163  1.00  0.00     0.000 C 
BRANCH   6   7
ATOM      7  C   UNL     1       2.726  11.295 -40.655  1.00  0.00     0.000 C 
BRANCH   7   8
ATOM      8  C   UNL     1       1.710  12.123 -39.854  1.00  0.00     0.000 C 
BRANCH   8   9
ATOM      9  C   UNL     1       1.058  11.273 -38.754  1.00  0.00     0.000 C 
BRANCH   9  10
ATOM     10  C   UNL     1       0.636  12.100 -37.524  1.00  0.00     0.006 C 
BRANCH  10  11
ATOM     11  C   UNL     1      -0.788  12.675 -37.619  1.00  0.00     0.053 C 
BRANCH  11  12
ATOM     12  C   UNL     1      -1.433  12.838 -36.279  1.00  0.00     0.041 C 
ATOM     13  O   UNL     1      -1.197  13.860 -35.583  1.00  0.00    -0.550 OA
ATOM     14  O   UNL     1      -2.310  11.871 -35.804  1.00  0.00    -0.550 OA
ENDBRANCH  11  12
ENDBRANCH  10  11
ENDBRANCH   9  10
ENDBRANCH   8   9
ENDBRANCH   7   8
ENDBRANCH   6   7
ENDBRANCH   5   6
ENDBRANCH   4   5
ENDBRANCH   3   4
ENDBRANCH   2   3
ENDBRANCH   1   2
BRANCH   1  15
ATOM     15  C   UNL     1      -0.592   6.148 -40.199  1.00  0.00     0.000 C 
BRANCH  15  16
ATOM     16  C   UNL     1      -1.148   7.581 -40.158  1.00  0.00     0.000 C 
BRANCH  16  17
ATOM     17  C   UNL     1      -1.026   8.225 -38.768  1.00  0.00     0.000 C 
BRANCH  17  18
ATOM     18  C   UNL     1      -2.004   9.401 -38.622  1.00  0.00    -0.000 C 
BRANCH  18  19
ATOM     19  C   UNL     1      -3.167   9.340 -39.628  1.00  0.00    -0.000 C 
BRANCH  19  20
ATOM     20  C   UNL     1      -4.520   8.887 -39.040  1.00  0.00    -0.000 C 
BRANCH  20  21
ATOM     21  C   UNL     1      -5.761   9.432 -39.770  1.00  0.00    -0.000 C 
BRANCH  21  22
ATOM     22  C   UNL     1      -7.073   8.828 -39.243  1.00  0.00    -0.000 C 
BRANCH  22  23
ATOM     23  C   UNL     1      -7.216   7.336 -39.584  1.00  0.00    -0.000 C 
BRANCH  23  24
ATOM     24  C   UNL     1      -7.421   7.093 -41.090  1.00  0.00    -0.000 C 
BRANCH  24  25
ATOM     25  C   UNL     1      -7.821   5.643 -41.404  1.00  0.00    -0.003 C 
ATOM     26  C   UNL     1      -8.220   4.854 -40.157  1.00  0.00     0.004 C 
ENDBRANCH  24  25
ENDBRANCH  23  24
ENDBRANCH  22  23
ENDBRANCH  21  22
ENDBRANCH  20  21
ENDBRANCH  19  20
ENDBRANCH  18  19
ENDBRANCH  17  18
ENDBRANCH  16  17
ENDBRANCH  15  16
ENDBRANCH   1  15
TORSDOF 22
ENDMDL
MODEL 6
REMARK VINA RESULT:    -3.846      3.062      7.497
REMARK INTER + INTRA:         -10.705
REMARK INTER:                  -9.156
REMARK INTRA:                  -1.549
REMARK UNBOUND:                -1.914
REMARK SMILES CCCCCCCCCCCCCCCCCCCCCCCC(=O)[O-]
REMARK SMILES IDX 13 1 14 2 15 3 16 4 17 5 18 6 19 7 20 8 21 9 22 10 23 11
REMARK SMILES IDX 24 12 25 13 26 14 12 15 11 16 10 17 9 18 8 19 7 20 6 21 5 22
REMARK SMILES IDX 4 23 3 24 2 25 1 26
REMARK H PARENT
REMARK Flexibility Score: inf
ROOT
ATOM      1  C   UNL     1      -1.469  11.143 -37.499  1.00  0.00     0.000 C 
ENDROOT
BRANCH   1   2
ATOM      2  C   UNL     1      -0.717  12.455 -37.173  1.00  0.00     0.000 C 
BRANCH   2   3
ATOM      3  C   UNL     1       0.799  12.385 -37.435  1.00  0.00     0.000 C 
BRANCH   3   4
ATOM      4  C   UNL     1       1.240  12.906 -38.815  1.00  0.00     0.000 C 
BRANCH   4   5
ATOM      5  C   UNL     1       1.732  11.794 -39.769  1.00  0.00     0.000 C 
BRANCH   5   6
ATOM      6  C   UNL     1       2.542  12.349 -40.953  1.00  0.00     0.000 C 
BRANCH   6   7
ATOM      7  C   UNL     1       2.909  11.263 -41.978  1.00  0.00     0.000 C 
BRANCH   7   8
ATOM      8  C   UNL     1       1.690  10.456 -42.450  1.00  0.00     0.000 C 
BRANCH   8   9
ATOM      9  C   UNL     1       1.882   8.959 -42.167  1.00  0.00     0.000 C 
BRANCH   9  10
ATOM     10  C   UNL     1       0.550   8.196 -42.029  1.00  0.00     0.006 C 
BRANCH  10  11
ATOM     11  C   UNL     1       0.579   6.781 -42.632  1.00  0.00     0.053 C 
BRANCH  11  12
ATOM     12  C   UNL     1       1.013   5.744 -41.643  1.00  0.00     0.041 C 
ATOM     13  O   UNL     1       0.166   5.184 -40.900  1.00  0.00    -0.550 OA
ATOM     14  O   UNL     1       2.351   5.381 -41.556  1.00  0.00    -0.550 OA
ENDBRANCH  11  12
ENDBRANCH  10  11
ENDBRANCH   9  10
ENDBRANCH   8   9
ENDBRANCH   7   8
ENDBRANCH   6   7
ENDBRANCH   5   6
ENDBRANCH   4   5
ENDBRANCH   3   4
ENDBRANCH   2   3
ENDBRANCH   1   2
BRANCH   1  15
ATOM     15  C   UNL     1      -0.797  10.331 -38.619  1.00  0.00     0.000 C 
BRANCH  15  16
ATOM     16  C   UNL     1      -0.950   8.814 -38.428  1.00  0.00     0.000 C 
BRANCH  16  17
ATOM     17  C   UNL     1      -2.078   8.218 -39.285  1.00  0.00     0.000 C 
BRANCH  17  18
ATOM     18  C   UNL     1      -2.786   9.313 -40.097  1.00  0.00    -0.000 C 
BRANCH  18  19
ATOM     19  C   UNL     1      -4.300   9.374 -39.825  1.00  0.00    -0.000 C 
BRANCH  19  20
ATOM     20  C   UNL     1      -4.766   8.654 -38.542  1.00  0.00    -0.000 C 
BRANCH  20  21
ATOM     21  C   UNL     1      -6.287   8.679 -38.299  1.00  0.00    -0.000 C 
BRANCH  21  22
ATOM     22  C   UNL     1      -7.087   8.971 -39.579  1.00  0.00    -0.000 C 
BRANCH  22  23
ATOM     23  C   UNL     1      -7.327   7.711 -40.427  1.00  0.00    -0.000 C 
BRANCH  23  24
ATOM     24  C   UNL     1      -7.697   6.487 -39.569  1.00  0.00    -0.000 C 
BRANCH  24  25
ATOM     25  C   UNL     1      -8.103   5.273 -40.420  1.00  0.00    -0.003 C 
ATOM     26  C   UNL     1      -7.782   5.454 -41.904  1.00  0.00     0.004 C 
ENDBRANCH  24  25
ENDBRANCH  23  24
ENDBRANCH  22  23
ENDBRANCH  21  22
ENDBRANCH  20  21
ENDBRANCH  19  20
ENDBRANCH  18  19
ENDBRANCH  17  18
ENDBRANCH  16  17
ENDBRANCH  15  16
ENDBRANCH   1  15
TORSDOF 22
ENDMDL
MODEL 7
REMARK VINA RESULT:    -3.717      3.582      8.768
REMARK INTER + INTRA:         -10.410
REMARK INTER:                  -8.992
REMARK INTRA:                  -1.418
REMARK UNBOUND:                -1.914
REMARK SMILES CCCCCCCCCCCCCCCCCCCCCCCC(=O)[O-]
REMARK SMILES IDX 13 1 14 2 15 3 16 4 17 5 18 6 19 7 20 8 21 9 22 10 23 11
REMARK SMILES IDX 24 12 25 13 26 14 12 15 11 16 10 17 9 18 8 19 7 20 6 21 5 22
REMARK SMILES IDX 4 23 3 24 2 25 1 26
REMARK H PARENT
REMARK Flexibility Score: inf
ROOT
ATOM      1  C   UNL     1      -0.593   5.998 -39.995  1.00  0.00     0.000 C 
ENDROOT
BRANCH   1   2
ATOM      2  C   UNL     1       0.142   5.495 -41.259  1.00  0.00     0.000 C 
BRANCH   2   3
ATOM      3  C   UNL     1       1.234   6.454 -41.768  1.00  0.00     0.000 C 
BRANCH   3   4
ATOM      4  C   UNL     1       0.706   7.738 -42.433  1.00  0.00     0.000 C 
BRANCH   4   5
ATOM      5  C   UNL     1       1.785   8.827 -42.623  1.00  0.00     0.000 C 
BRANCH   5   6
ATOM      6  C   UNL     1       1.398  10.163 -41.965  1.00  0.00     0.000 C 
BRANCH   6   7
ATOM      7  C   UNL     1       2.561  11.168 -41.940  1.00  0.00     0.000 C 
BRANCH   7   8
ATOM      8  C   UNL     1       2.565  12.040 -40.675  1.00  0.00     0.000 C 
BRANCH   8   9
ATOM      9  C   UNL     1       1.493  11.567 -39.682  1.00  0.00     0.000 C 
BRANCH   9  10
ATOM     10  C   UNL     1       1.180  12.610 -38.592  1.00  0.00     0.006 C 
BRANCH  10  11
ATOM     11  C   UNL     1       0.424  12.036 -37.381  1.00  0.00     0.053 C 
BRANCH  11  12
ATOM     12  C   UNL     1      -0.870  12.742 -37.123  1.00  0.00     0.041 C 
ATOM     13  O   UNL     1      -1.658  12.317 -36.238  1.00  0.00    -0.550 OA
ATOM     14  O   UNL     1      -1.199  13.882 -37.846  1.00  0.00    -0.550 OA
ENDBRANCH  11  12
ENDBRANCH  10  11
ENDBRANCH   9  10
ENDBRANCH   8   9
ENDBRANCH   7   8
ENDBRANCH   6   7
ENDBRANCH   5   6
ENDBRANCH   4   5
ENDBRANCH   3   4
ENDBRANCH   2   3
ENDBRANCH   1   2
BRANCH   1  15
ATOM     15  C   UNL     1      -1.108   7.441 -40.137  1.00  0.00     0.000 C 
BRANCH  15  16
ATOM     16  C   UNL     1      -0.989   8.247 -38.833  1.00  0.00     0.000 C 
BRANCH  16  17
ATOM     17  C   UNL     1      -1.878   9.499 -38.827  1.00  0.00     0.000 C 
BRANCH  17  18
ATOM     18  C   UNL     1      -3.120   9.295 -39.707  1.00  0.00    -0.000 C 
BRANCH  18  19
ATOM     19  C   UNL     1      -4.387   8.980 -38.890  1.00  0.00    -0.000 C 
BRANCH  19  20
ATOM     20  C   UNL     1      -5.718   9.148 -39.652  1.00  0.00    -0.000 C 
BRANCH  20  21
ATOM     21  C   UNL     1      -6.970   8.692 -38.880  1.00  0.00    -0.000 C 
BRANCH  21  22
ATOM     22  C   UNL     1      -7.509   7.338 -39.371  1.00  0.00    -0.000 C 
BRANCH  22  23
ATOM     23  C   UNL     1      -7.345   7.151 -40.888  1.00  0.00    -0.000 C 
BRANCH  23  24
ATOM     24  C   UNL     1      -7.735   5.736 -41.352  1.00  0.00    -0.000 C 
BRANCH  24  25
ATOM     25  C   UNL     1      -8.412   4.918 -40.241  1.00  0.00    -0.003 C 
ATOM     26  C   UNL     1      -9.189   3.716 -40.778  1.00  0.00     0.004 C 
ENDBRANCH  24  25
ENDBRANCH  23  24
ENDBRANCH  22  23
ENDBRANCH  21  22
ENDBRANCH  20  21
ENDBRANCH  19  20
ENDBRANCH  18  19
ENDBRANCH  17  18
ENDBRANCH  16  17
ENDBRANCH  15  16
ENDBRANCH   1  15
TORSDOF 22
ENDMDL
MODEL 8
REMARK VINA RESULT:    -3.521      4.086      8.026
REMARK INTER + INTRA:          -9.964
REMARK INTER:                  -8.363
REMARK INTRA:                  -1.601
REMARK UNBOUND:                -1.914
REMARK SMILES CCCCCCCCCCCCCCCCCCCCCCCC(=O)[O-]
REMARK SMILES IDX 13 1 14 2 15 3 16 4 17 5 18 6 19 7 20 8 21 9 22 10 23 11
REMARK SMILES IDX 24 12 25 13 26 14 12 15 11 16 10 17 9 18 8 19 7 20 6 21 5 22
REMARK SMILES IDX 4 23 3 24 2 25 1 26
REMARK H PARENT
REMARK Flexibility Score: inf
ROOT
ATOM      1  C   UNL     1       0.935  11.174 -38.232  1.00  0.00     0.000 C 
ENDROOT
BRANCH   1   2
ATOM      2  C   UNL     1      -0.262  10.327 -38.723  1.00  0.00     0.000 C 
BRANCH   2   3
ATOM      3  C   UNL     1      -0.273   8.888 -38.174  1.00  0.00     0.000 C 
BRANCH   3   4
ATOM      4  C   UNL     1      -1.318   7.960 -38.820  1.00  0.00     0.000 C 
BRANCH   4   5
ATOM      5  C   UNL     1      -1.030   7.639 -40.304  1.00  0.00     0.000 C 
BRANCH   5   6
ATOM      6  C   UNL     1      -0.238   6.332 -40.483  1.00  0.00     0.000 C 
BRANCH   6   7
ATOM      7  C   UNL     1       0.606   6.324 -41.768  1.00  0.00     0.000 C 
BRANCH   7   8
ATOM      8  C   UNL     1       0.496   7.637 -42.558  1.00  0.00     0.000 C 
BRANCH   8   9
ATOM      9  C   UNL     1       1.780   8.468 -42.419  1.00  0.00     0.000 C 
BRANCH   9  10
ATOM     10  C   UNL     1       1.539   9.844 -41.769  1.00  0.00     0.006 C 
BRANCH  10  11
ATOM     11  C   UNL     1       2.300  10.995 -42.450  1.00  0.00     0.053 C 
BRANCH  11  12
ATOM     12  C   UNL     1       3.080  11.824 -41.477  1.00  0.00     0.041 C 
ATOM     13  O   UNL     1       4.056  11.324 -40.861  1.00  0.00    -0.550 OA
ATOM     14  O   UNL     1       2.741  13.154 -41.264  1.00  0.00    -0.550 OA
ENDBRANCH  11  12
ENDBRANCH  10  11
ENDBRANCH   9  10
ENDBRANCH   8   9
ENDBRANCH   7   8
ENDBRANCH   6   7
ENDBRANCH   5   6
ENDBRANCH   4   5
ENDBRANCH   3   4
ENDBRANCH   2   3
ENDBRANCH   1   2
BRANCH   1  15
ATOM     15  C   UNL     1       0.501  12.427 -37.452  1.00  0.00     0.000 C 
BRANCH  15  16
ATOM     16  C   UNL     1      -1.006  12.706 -37.563  1.00  0.00     0.000 C 
BRANCH  16  17
ATOM     17  C   UNL     1      -1.657  13.000 -36.203  1.00  0.00     0.000 C 
BRANCH  17  18
ATOM     18  C   UNL     1      -2.500  11.806 -35.729  1.00  0.00    -0.000 C 
BRANCH  18  19
ATOM     19  C   UNL     1      -2.546  10.661 -36.756  1.00  0.00    -0.000 C 
BRANCH  19  20
ATOM     20  C   UNL     1      -3.824   9.797 -36.719  1.00  0.00    -0.000 C 
BRANCH  20  21
ATOM     21  C   UNL     1      -4.286   9.263 -38.088  1.00  0.00    -0.000 C 
BRANCH  21  22
ATOM     22  C   UNL     1      -5.763   8.833 -38.088  1.00  0.00    -0.000 C 
BRANCH  22  23
ATOM     23  C   UNL     1      -6.302   8.573 -39.504  1.00  0.00    -0.000 C 
BRANCH  23  24
ATOM     24  C   UNL     1      -7.503   7.611 -39.509  1.00  0.00    -0.000 C 
BRANCH  24  25
ATOM     25  C   UNL     1      -7.435   6.589 -40.655  1.00  0.00    -0.003 C 
ATOM     26  C   UNL     1      -8.140   5.274 -40.321  1.00  0.00     0.004 C 
ENDBRANCH  24  25
ENDBRANCH  23  24
ENDBRANCH  22  23
ENDBRANCH  21  22
ENDBRANCH  20  21
ENDBRANCH  19  20
ENDBRANCH  18  19
ENDBRANCH  17  18
ENDBRANCH  16  17
ENDBRANCH  15  16
ENDBRANCH   1  15
TORSDOF 22
ENDMDL
