MODEL 1
REMARK VINA RESULT:    -4.086      0.000      0.000
REMARK INTER + INTRA:          -7.853
REMARK INTER:                  -6.356
REMARK INTRA:                  -1.498
REMARK UNBOUND:                -1.498
REMARK SMILES C[C@]12C[C@]3(O)O[C@H](O1)[C@@]1(COC(=O)c4ccccc4)[C@@H]3C[C@]12O[C@@H]1O[C@@H](CO)[C@H](O)[C@@H](O)[C@@H]1O
REMARK SMILES IDX 1 1 2 2 3 3 4 4 20 5 21 6 22 7 9 8 7 9 8 10 6 11 23 12 24 13
REMARK SMILES IDX 33 14 25 15 31 16 26 17 29 18 34 19 32 21 27 23 28 24 30 26
REMARK SMILES IDX 5 28 10 30 11 31 12 32 13 33 14 34 15 35 19 36 16 37 18 38
REMARK SMILES IDX 17 39
REMARK H PARENT 34 20 32 22 28 25 30 27 5 29
REMARK Flexibility Score: inf
ROOT
ATOM      1  C   UNL     1       0.108  36.414   4.509  1.00  0.00     0.046 C 
ATOM      2  C   UNL     1      -0.025  37.652   5.393  1.00  0.00     0.104 C 
ATOM      3  C   UNL     1       0.218  38.972   4.574  1.00  0.00     0.104 C 
ATOM      4  C   UNL     1      -0.032  40.109   5.631  1.00  0.00     0.175 C 
ATOM      5  C   UNL     1      -1.378  39.872   6.390  1.00  0.00     0.070 C 
ATOM      6  C   UNL     1      -2.313  38.902   5.659  1.00  0.00     0.050 C 
ATOM      7  C   UNL     1      -1.391  37.768   6.169  1.00  0.00     0.115 C 
ATOM      8  C   UNL     1      -0.924  38.718   7.273  1.00  0.00     0.096 C 
ATOM      9  C   UNL     1       0.592  38.722   7.244  1.00  0.00     0.267 C 
ATOM     10  O   UNL     1       0.962  37.638   6.407  1.00  0.00    -0.342 OA
ATOM     11  O   UNL     1       0.963  39.940   6.618  1.00  0.00    -0.320 OA
ENDROOT
BRANCH   7  12
ATOM     12  O   UNL     1      -1.959  36.556   6.659  1.00  0.00    -0.339 OA
BRANCH  12  13
ATOM     13  C   UNL     1      -3.280  36.345   6.169  1.00  0.00     0.282 C 
ATOM     14  C   UNL     1      -3.504  34.873   5.752  1.00  0.00     0.202 C 
ATOM     15  O   UNL     1      -4.246  36.722   7.140  1.00  0.00    -0.341 OA
ATOM     16  C   UNL     1      -3.442  33.950   6.979  1.00  0.00     0.179 C 
ATOM     17  C   UNL     1      -4.135  35.956   8.333  1.00  0.00     0.178 C 
ATOM     18  C   UNL     1      -4.405  34.458   8.062  1.00  0.00     0.177 C 
BRANCH  14  19
ATOM     19  O   UNL     1      -2.542  34.484   4.807  1.00  0.00    -0.385 OA
ATOM     20  H   UNL     1      -3.032  34.261   3.972  1.00  0.00     0.211 HD
ENDBRANCH  14  19
BRANCH  16  21
ATOM     21  O   UNL     1      -3.788  32.640   6.598  1.00  0.00    -0.387 OA
ATOM     22  H   UNL     1      -4.684  32.688   6.174  1.00  0.00     0.211 HD
ENDBRANCH  16  21
BRANCH  17  23
ATOM     23  C   UNL     1      -5.134  36.517   9.358  1.00  0.00     0.191 C 
BRANCH  23  24
ATOM     24  O   UNL     1      -4.747  36.164  10.661  1.00  0.00    -0.394 OA
ATOM     25  H   UNL     1      -5.119  36.860  11.264  1.00  0.00     0.210 HD
ENDBRANCH  23  24
ENDBRANCH  17  23
BRANCH  18  26
ATOM     26  O   UNL     1      -4.196  33.707   9.233  1.00  0.00    -0.387 OA
ATOM     27  H   UNL     1      -3.222  33.519   9.295  1.00  0.00     0.211 HD
ENDBRANCH  18  26
ENDBRANCH  12  13
ENDBRANCH   7  12
BRANCH   4  28
ATOM     28  O   UNL     1       0.047  41.392   5.069  1.00  0.00    -0.365 OA
ATOM     29  H   UNL     1       0.823  41.388   4.448  1.00  0.00     0.214 HD
ENDBRANCH   4  28
BRANCH   8  30
ATOM     30  C   UNL     1      -1.595  38.595   8.656  1.00  0.00     0.249 C 
BRANCH  30  31
ATOM     31  O   UNL     1      -0.787  37.823   9.543  1.00  0.00    -0.461 OA
BRANCH  31  32
ATOM     32  C   UNL     1      -1.298  37.107  10.636  1.00  0.00     0.338 C 
ATOM     33  O   UNL     1      -2.262  37.573  11.305  1.00  0.00    -0.246 OA
BRANCH  32  34
ATOM     34  C   UNL     1      -0.719  35.795  10.995  1.00  0.00     0.060 A 
ATOM     35  C   UNL     1      -1.235  34.607  10.440  1.00  0.00     0.015 A 
ATOM     36  C   UNL     1       0.379  35.716  11.871  1.00  0.00     0.015 A 
ATOM     37  C   UNL     1      -0.673  33.370  10.765  1.00  0.00     0.001 A 
ATOM     38  C   UNL     1       0.938  34.476  12.193  1.00  0.00     0.001 A 
ATOM     39  C   UNL     1       0.414  33.304  11.641  1.00  0.00     0.000 A 
ENDBRANCH  32  34
ENDBRANCH  31  32
ENDBRANCH  30  31
ENDBRANCH   8  30
TORSDOF 12
ENDMDL
MODEL 2
REMARK VINA RESULT:    -4.065      2.663      6.689
REMARK INTER + INTRA:          -7.821
REMARK INTER:                  -6.963
REMARK INTRA:                  -0.858
REMARK UNBOUND:                -1.498
REMARK SMILES C[C@]12C[C@]3(O)O[C@H](O1)[C@@]1(COC(=O)c4ccccc4)[C@@H]3C[C@]12O[C@@H]1O[C@@H](CO)[C@H](O)[C@@H](O)[C@@H]1O
REMARK SMILES IDX 1 1 2 2 3 3 4 4 20 5 21 6 22 7 9 8 7 9 8 10 6 11 23 12 24 13
REMARK SMILES IDX 33 14 25 15 31 16 26 17 29 18 34 19 32 21 27 23 28 24 30 26
REMARK SMILES IDX 5 28 10 30 11 31 12 32 13 33 14 34 15 35 19 36 16 37 18 38
REMARK SMILES IDX 17 39
REMARK H PARENT 34 20 32 22 28 25 30 27 5 29
REMARK Flexibility Score: inf
ROOT
ATOM      1  C   UNL     1      -1.140  32.902  14.739  1.00  0.00     0.046 C 
ATOM      2  C   UNL     1      -0.595  34.064  13.913  1.00  0.00     0.104 C 
ATOM      3  C   UNL     1       0.840  34.490  14.396  1.00  0.00     0.104 C 
ATOM      4  C   UNL     1       1.242  35.629  13.388  1.00  0.00     0.175 C 
ATOM      5  C   UNL     1       0.995  35.175  11.913  1.00  0.00     0.070 C 
ATOM      6  C   UNL     1       0.860  33.654  11.771  1.00  0.00     0.050 C 
ATOM      7  C   UNL     1      -0.564  33.814  12.358  1.00  0.00     0.115 C 
ATOM      8  C   UNL     1      -0.525  35.276  11.911  1.00  0.00     0.096 C 
ATOM      9  C   UNL     1      -0.904  36.118  13.114  1.00  0.00     0.267 C 
ATOM     10  O   UNL     1      -1.414  35.207  14.074  1.00  0.00    -0.342 OA
ATOM     11  O   UNL     1       0.312  36.670  13.597  1.00  0.00    -0.320 OA
ENDROOT
BRANCH   7  12
ATOM     12  O   UNL     1      -1.648  33.075  11.801  1.00  0.00    -0.339 OA
BRANCH  12  13
ATOM     13  C   UNL     1      -1.201  32.017  10.958  1.00  0.00     0.282 C 
ATOM     14  C   UNL     1      -1.787  30.655  11.395  1.00  0.00     0.202 C 
ATOM     15  O   UNL     1      -1.541  32.273   9.602  1.00  0.00    -0.341 OA
ATOM     16  C   UNL     1      -3.310  30.633  11.195  1.00  0.00     0.179 C 
ATOM     17  C   UNL     1      -2.946  32.372   9.410  1.00  0.00     0.178 C 
ATOM     18  C   UNL     1      -3.651  31.039   9.754  1.00  0.00     0.177 C 
BRANCH  14  19
ATOM     19  O   UNL     1      -1.475  30.400  12.740  1.00  0.00    -0.385 OA
ATOM     20  H   UNL     1      -0.843  31.112  13.028  1.00  0.00     0.211 HD
ENDBRANCH  14  19
BRANCH  16  21
ATOM     21  O   UNL     1      -3.800  29.342  11.464  1.00  0.00    -0.387 OA
ATOM     22  H   UNL     1      -4.675  29.451  11.920  1.00  0.00     0.211 HD
ENDBRANCH  16  21
BRANCH  17  23
ATOM     23  C   UNL     1      -3.204  32.768   7.948  1.00  0.00     0.191 C 
BRANCH  23  24
ATOM     24  O   UNL     1      -3.482  31.629   7.174  1.00  0.00    -0.394 OA
ATOM     25  H   UNL     1      -2.701  31.497   6.574  1.00  0.00     0.210 HD
ENDBRANCH  23  24
ENDBRANCH  17  23
BRANCH  18  26
ATOM     26  O   UNL     1      -5.047  31.186   9.649  1.00  0.00    -0.387 OA
ATOM     27  H   UNL     1      -5.406  31.266  10.572  1.00  0.00     0.211 HD
ENDBRANCH  18  26
ENDBRANCH  12  13
ENDBRANCH   7  12
BRANCH   4  28
ATOM     28  O   UNL     1       2.550  36.092  13.594  1.00  0.00    -0.365 OA
ATOM     29  H   UNL     1       2.546  36.596  14.451  1.00  0.00     0.214 HD
ENDBRANCH   4  28
BRANCH   8  30
ATOM     30  C   UNL     1      -1.196  35.635  10.570  1.00  0.00     0.249 C 
BRANCH  30  31
ATOM     31  O   UNL     1      -1.375  37.047  10.455  1.00  0.00    -0.461 OA
BRANCH  31  32
ATOM     32  C   UNL     1      -1.825  37.681   9.288  1.00  0.00     0.338 C 
ATOM     33  O   UNL     1      -2.942  38.271   9.278  1.00  0.00    -0.246 OA
BRANCH  32  34
ATOM     34  C   UNL     1      -0.985  37.674   8.072  1.00  0.00     0.060 A 
ATOM     35  C   UNL     1      -1.387  36.958   6.927  1.00  0.00     0.015 A 
ATOM     36  C   UNL     1       0.214  38.409   8.030  1.00  0.00     0.015 A 
ATOM     37  C   UNL     1      -0.600  36.969   5.772  1.00  0.00     0.001 A 
ATOM     38  C   UNL     1       0.997  38.418   6.872  1.00  0.00     0.001 A 
ATOM     39  C   UNL     1       0.591  37.699   5.744  1.00  0.00     0.000 A 
ENDBRANCH  32  34
ENDBRANCH  31  32
ENDBRANCH  30  31
ENDBRANCH   8  30
TORSDOF 12
ENDMDL
MODEL 3
REMARK VINA RESULT:    -4.060      9.510     14.160
REMARK INTER + INTRA:          -7.813
REMARK INTER:                  -6.968
REMARK INTRA:                  -0.845
REMARK UNBOUND:                -1.498
REMARK SMILES C[C@]12C[C@]3(O)O[C@H](O1)[C@@]1(COC(=O)c4ccccc4)[C@@H]3C[C@]12O[C@@H]1O[C@@H](CO)[C@H](O)[C@@H](O)[C@@H]1O
REMARK SMILES IDX 1 1 2 2 3 3 4 4 20 5 21 6 22 7 9 8 7 9 8 10 6 11 23 12 24 13
REMARK SMILES IDX 33 14 25 15 31 16 26 17 29 18 34 19 32 21 27 23 28 24 30 26
REMARK SMILES IDX 5 28 10 30 11 31 12 32 13 33 14 34 15 35 19 36 16 37 18 38
REMARK SMILES IDX 17 39
REMARK H PARENT 34 20 32 22 28 25 30 27 5 29
REMARK Flexibility Score: inf
ROOT
ATOM      1  C   UNL     1       3.081  22.398  14.339  1.00  0.00     0.046 C 
ATOM      2  C   UNL     1       1.850  22.981  13.650  1.00  0.00     0.104 C 
ATOM      3  C   UNL     1       0.737  21.890  13.441  1.00  0.00     0.104 C 
ATOM      4  C   UNL     1      -0.450  22.695  12.796  1.00  0.00     0.175 C 
ATOM      5  C   UNL     1      -0.744  23.995  13.614  1.00  0.00     0.070 C 
ATOM      6  C   UNL     1      -0.155  23.957  15.029  1.00  0.00     0.050 C 
ATOM      7  C   UNL     1       1.219  24.232  14.369  1.00  0.00     0.115 C 
ATOM      8  C   UNL     1       0.465  24.806  13.168  1.00  0.00     0.096 C 
ATOM      9  C   UNL     1       1.013  24.120  11.931  1.00  0.00     0.267 C 
ATOM     10  O   UNL     1       2.186  23.445  12.356  1.00  0.00    -0.342 OA
ATOM     11  O   UNL     1       0.035  23.163  11.555  1.00  0.00    -0.320 OA
ENDROOT
BRANCH   7  12
ATOM     12  O   UNL     1       2.123  25.155  14.970  1.00  0.00    -0.339 OA
BRANCH  12  13
ATOM     13  C   UNL     1       1.748  25.484  16.305  1.00  0.00     0.282 C 
ATOM     14  C   UNL     1       2.930  25.314  17.286  1.00  0.00     0.202 C 
ATOM     15  O   UNL     1       1.250  26.813  16.377  1.00  0.00    -0.341 OA
ATOM     16  C   UNL     1       4.037  26.334  16.980  1.00  0.00     0.179 C 
ATOM     17  C   UNL     1       2.224  27.773  15.988  1.00  0.00     0.178 C 
ATOM     18  C   UNL     1       3.443  27.750  16.940  1.00  0.00     0.177 C 
BRANCH  14  19
ATOM     19  O   UNL     1       3.443  24.009  17.208  1.00  0.00    -0.385 OA
ATOM     20  H   UNL     1       4.174  23.946  17.879  1.00  0.00     0.211 HD
ENDBRANCH  14  19
BRANCH  16  21
ATOM     21  O   UNL     1       5.034  26.256  17.970  1.00  0.00    -0.387 OA
ATOM     22  H   UNL     1       4.739  26.827  18.726  1.00  0.00     0.211 HD
ENDBRANCH  16  21
BRANCH  17  23
ATOM     23  C   UNL     1       1.557  29.157  15.983  1.00  0.00     0.191 C 
BRANCH  23  24
ATOM     24  O   UNL     1       2.279  30.045  15.167  1.00  0.00    -0.394 OA
ATOM     25  H   UNL     1       2.041  30.961  15.467  1.00  0.00     0.210 HD
ENDBRANCH  23  24
ENDBRANCH  17  23
BRANCH  18  26
ATOM     26  O   UNL     1       4.433  28.638  16.482  1.00  0.00    -0.387 OA
ATOM     27  H   UNL     1       4.086  29.070  15.657  1.00  0.00     0.211 HD
ENDBRANCH  18  26
ENDBRANCH  12  13
ENDBRANCH   7  12
BRANCH   4  28
ATOM     28  O   UNL     1      -1.596  21.908  12.610  1.00  0.00    -0.365 OA
ATOM     29  H   UNL     1      -1.432  21.346  11.807  1.00  0.00     0.214 HD
ENDBRANCH   4  28
BRANCH   8  30
ATOM     30  C   UNL     1       0.287  26.336  13.096  1.00  0.00     0.249 C 
BRANCH  30  31
ATOM     31  O   UNL     1       0.080  26.759  11.749  1.00  0.00    -0.461 OA
BRANCH  31  32
ATOM     32  C   UNL     1      -1.159  27.187  11.250  1.00  0.00     0.338 C 
ATOM     33  O   UNL     1      -2.168  26.432  11.328  1.00  0.00    -0.246 OA
BRANCH  32  34
ATOM     34  C   UNL     1      -1.288  28.530  10.647  1.00  0.00     0.060 A 
ATOM     35  C   UNL     1      -1.550  29.656  11.454  1.00  0.00     0.015 A 
ATOM     36  C   UNL     1      -1.118  28.710   9.262  1.00  0.00     0.015 A 
ATOM     37  C   UNL     1      -1.652  30.928  10.884  1.00  0.00     0.001 A 
ATOM     38  C   UNL     1      -1.219  29.985   8.697  1.00  0.00     0.001 A 
ATOM     39  C   UNL     1      -1.486  31.092   9.506  1.00  0.00     0.000 A 
ENDBRANCH  32  34
ENDBRANCH  31  32
ENDBRANCH  30  31
ENDBRANCH   8  30
TORSDOF 12
ENDMDL
MODEL 4
REMARK VINA RESULT:    -4.023      9.016     13.146
REMARK INTER + INTRA:          -7.755
REMARK INTER:                  -6.943
REMARK INTRA:                  -0.812
REMARK UNBOUND:                -1.498
REMARK SMILES C[C@]12C[C@]3(O)O[C@H](O1)[C@@]1(COC(=O)c4ccccc4)[C@@H]3C[C@]12O[C@@H]1O[C@@H](CO)[C@H](O)[C@@H](O)[C@@H]1O
REMARK SMILES IDX 1 1 2 2 3 3 4 4 20 5 21 6 22 7 9 8 7 9 8 10 6 11 23 12 24 13
REMARK SMILES IDX 33 14 25 15 31 16 26 17 29 18 34 19 32 21 27 23 28 24 30 26
REMARK SMILES IDX 5 28 10 30 11 31 12 32 13 33 14 34 15 35 19 36 16 37 18 38
REMARK SMILES IDX 17 39
REMARK H PARENT 34 20 32 22 28 25 30 27 5 29
REMARK Flexibility Score: inf
ROOT
ATOM      1  C   UNL     1       3.472  24.352  14.533  1.00  0.00     0.046 C 
ATOM      2  C   UNL     1       2.188  24.441  13.712  1.00  0.00     0.104 C 
ATOM      3  C   UNL     1       1.396  23.083  13.732  1.00  0.00     0.104 C 
ATOM      4  C   UNL     1       0.097  23.404  12.905  1.00  0.00     0.175 C 
ATOM      5  C   UNL     1      -0.566  24.726  13.409  1.00  0.00     0.070 C 
ATOM      6  C   UNL     1      -0.089  25.139  14.806  1.00  0.00     0.050 C 
ATOM      7  C   UNL     1       1.218  25.612  14.124  1.00  0.00     0.115 C 
ATOM      8  C   UNL     1       0.435  25.707  12.814  1.00  0.00     0.096 C 
ATOM      9  C   UNL     1       1.223  24.940  11.769  1.00  0.00     0.267 C 
ATOM     10  O   UNL     1       2.492  24.692  12.352  1.00  0.00    -0.342 OA
ATOM     11  O   UNL     1       0.540  23.708  11.599  1.00  0.00    -0.320 OA
ENDROOT
BRANCH   7  12
ATOM     12  O   UNL     1       1.822  26.841  14.521  1.00  0.00    -0.339 OA
BRANCH  12  13
ATOM     13  C   UNL     1       1.397  27.255  15.816  1.00  0.00     0.282 C 
ATOM     14  C   UNL     1       2.515  28.017  16.564  1.00  0.00     0.202 C 
ATOM     15  O   UNL     1       0.235  28.068  15.731  1.00  0.00    -0.341 OA
ATOM     16  C   UNL     1       2.823  29.349  15.862  1.00  0.00     0.179 C 
ATOM     17  C   UNL     1       0.464  29.257  14.986  1.00  0.00     0.178 C 
ATOM     18  C   UNL     1       1.526  30.149  15.671  1.00  0.00     0.177 C 
BRANCH  14  19
ATOM     19  O   UNL     1       3.676  27.231  16.636  1.00  0.00    -0.385 OA
ATOM     20  H   UNL     1       4.142  27.482  17.477  1.00  0.00     0.211 HD
ENDBRANCH  14  19
BRANCH  16  21
ATOM     21  O   UNL     1       3.737  30.087  16.636  1.00  0.00    -0.387 OA
ATOM     22  H   UNL     1       3.974  30.897  16.113  1.00  0.00     0.211 HD
ENDBRANCH  16  21
BRANCH  17  23
ATOM     23  C   UNL     1      -0.873  30.003  14.849  1.00  0.00     0.191 C 
BRANCH  23  24
ATOM     24  O   UNL     1      -0.999  30.548  13.560  1.00  0.00    -0.394 OA
ATOM     25  H   UNL     1      -1.238  31.504  13.680  1.00  0.00     0.210 HD
ENDBRANCH  23  24
ENDBRANCH  17  23
BRANCH  18  26
ATOM     26  O   UNL     1       1.807  31.271  14.870  1.00  0.00    -0.387 OA
ATOM     27  H   UNL     1       2.521  31.008  14.231  1.00  0.00     0.211 HD
ENDBRANCH  18  26
ENDBRANCH  12  13
ENDBRANCH   7  12
BRANCH   4  28
ATOM     28  O   UNL     1      -0.803  22.329  12.880  1.00  0.00    -0.365 OA
ATOM     29  H   UNL     1      -0.631  21.789  13.696  1.00  0.00     0.214 HD
ENDBRANCH   4  28
BRANCH   8  30
ATOM     30  C   UNL     1      -0.108  27.091  12.401  1.00  0.00     0.249 C 
BRANCH  30  31
ATOM     31  O   UNL     1      -0.402  27.123  11.005  1.00  0.00    -0.461 OA
BRANCH  31  32
ATOM     32  C   UNL     1      -1.288  28.039  10.418  1.00  0.00     0.338 C 
ATOM     33  O   UNL     1      -1.216  29.265  10.710  1.00  0.00    -0.246 OA
BRANCH  32  34
ATOM     34  C   UNL     1      -2.295  27.571   9.443  1.00  0.00     0.060 A 
ATOM     35  C   UNL     1      -2.149  27.853   8.070  1.00  0.00     0.015 A 
ATOM     36  C   UNL     1      -3.398  26.807   9.868  1.00  0.00     0.015 A 
ATOM     37  C   UNL     1      -3.092  27.392   7.147  1.00  0.00     0.001 A 
ATOM     38  C   UNL     1      -4.338  26.347   8.941  1.00  0.00     0.001 A 
ATOM     39  C   UNL     1      -4.185  26.639   7.582  1.00  0.00     0.000 A 
ENDBRANCH  32  34
ENDBRANCH  31  32
ENDBRANCH  30  31
ENDBRANCH   8  30
TORSDOF 12
ENDMDL
MODEL 5
REMARK VINA RESULT:    -4.001     13.268     16.157
REMARK INTER + INTRA:          -7.721
REMARK INTER:                  -7.178
REMARK INTRA:                  -0.543
REMARK UNBOUND:                -1.498
REMARK SMILES C[C@]12C[C@]3(O)O[C@H](O1)[C@@]1(COC(=O)c4ccccc4)[C@@H]3C[C@]12O[C@@H]1O[C@@H](CO)[C@H](O)[C@@H](O)[C@@H]1O
REMARK SMILES IDX 1 1 2 2 3 3 4 4 20 5 21 6 22 7 9 8 7 9 8 10 6 11 23 12 24 13
REMARK SMILES IDX 33 14 25 15 31 16 26 17 29 18 34 19 32 21 27 23 28 24 30 26
REMARK SMILES IDX 5 28 10 30 11 31 12 32 13 33 14 34 15 35 19 36 16 37 18 38
REMARK SMILES IDX 17 39
REMARK H PARENT 34 20 32 22 28 25 30 27 5 29
REMARK Flexibility Score: inf
ROOT
ATOM      1  C   UNL     1       7.403  32.509   1.126  1.00  0.00     0.046 C 
ATOM      2  C   UNL     1       7.219  30.996   1.041  1.00  0.00     0.104 C 
ATOM      3  C   UNL     1       6.000  30.615   0.124  1.00  0.00     0.104 C 
ATOM      4  C   UNL     1       6.029  29.042   0.111  1.00  0.00     0.175 C 
ATOM      5  C   UNL     1       7.466  28.518  -0.209  1.00  0.00     0.070 C 
ATOM      6  C   UNL     1       8.362  29.585  -0.851  1.00  0.00     0.050 C 
ATOM      7  C   UNL     1       8.493  30.200   0.564  1.00  0.00     0.115 C 
ATOM      8  C   UNL     1       8.112  28.833   1.134  1.00  0.00     0.096 C 
ATOM      9  C   UNL     1       6.978  29.062   2.115  1.00  0.00     0.267 C 
ATOM     10  O   UNL     1       6.925  30.464   2.319  1.00  0.00    -0.342 OA
ATOM     11  O   UNL     1       5.798  28.644   1.446  1.00  0.00    -0.320 OA
ENDROOT
BRANCH   7  12
ATOM     12  O   UNL     1       9.758  30.676   1.017  1.00  0.00    -0.339 OA
BRANCH  12  13
ATOM     13  C   UNL     1      10.509  31.285  -0.029  1.00  0.00     0.282 C 
ATOM     14  C   UNL     1      11.329  32.490   0.486  1.00  0.00     0.202 C 
ATOM     15  O   UNL     1      11.377  30.341  -0.644  1.00  0.00    -0.341 OA
ATOM     16  C   UNL     1      12.418  32.024   1.464  1.00  0.00     0.179 C 
ATOM     17  C   UNL     1      12.325  29.808   0.272  1.00  0.00     0.178 C 
ATOM     18  C   UNL     1      13.259  30.914   0.816  1.00  0.00     0.177 C 
BRANCH  14  19
ATOM     19  O   UNL     1      10.484  33.419   1.113  1.00  0.00    -0.385 OA
ATOM     20  H   UNL     1      10.505  33.217   2.086  1.00  0.00     0.211 HD
ENDBRANCH  14  19
BRANCH  16  21
ATOM     21  O   UNL     1      13.238  33.115   1.807  1.00  0.00    -0.387 OA
ATOM     22  H   UNL     1      13.298  33.133   2.798  1.00  0.00     0.211 HD
ENDBRANCH  16  21
BRANCH  17  23
ATOM     23  C   UNL     1      13.130  28.717  -0.452  1.00  0.00     0.191 C 
BRANCH  23  24
ATOM     24  O   UNL     1      13.816  27.917   0.477  1.00  0.00    -0.394 OA
ATOM     25  H   UNL     1      14.744  27.822   0.136  1.00  0.00     0.210 HD
ENDBRANCH  23  24
ENDBRANCH  17  23
BRANCH  18  26
ATOM     26  O   UNL     1      14.124  30.383   1.790  1.00  0.00    -0.387 OA
ATOM     27  H   UNL     1      13.613  30.322   2.639  1.00  0.00     0.211 HD
ENDBRANCH  18  26
ENDBRANCH  12  13
ENDBRANCH   7  12
BRANCH   4  28
ATOM     28  O   UNL     1       5.058  28.493  -0.739  1.00  0.00    -0.365 OA
ATOM     29  H   UNL     1       4.340  28.126  -0.158  1.00  0.00     0.214 HD
ENDBRANCH   4  28
BRANCH   8  30
ATOM     30  C   UNL     1       9.253  27.903   1.592  1.00  0.00     0.249 C 
BRANCH  30  31
ATOM     31  O   UNL     1       8.745  26.619   1.956  1.00  0.00    -0.461 OA
BRANCH  31  32
ATOM     32  C   UNL     1       8.785  26.109   3.262  1.00  0.00     0.338 C 
ATOM     33  O   UNL     1       7.873  26.401   4.084  1.00  0.00    -0.246 OA
BRANCH  32  34
ATOM     34  C   UNL     1       9.888  25.213   3.671  1.00  0.00     0.060 A 
ATOM     35  C   UNL     1       9.755  24.383   4.801  1.00  0.00     0.015 A 
ATOM     36  C   UNL     1      11.074  25.154   2.917  1.00  0.00     0.015 A 
ATOM     37  C   UNL     1      10.791  23.522   5.174  1.00  0.00     0.001 A 
ATOM     38  C   UNL     1      12.108  24.290   3.294  1.00  0.00     0.001 A 
ATOM     39  C   UNL     1      11.967  23.476   4.421  1.00  0.00     0.000 A 
ENDBRANCH  32  34
ENDBRANCH  31  32
ENDBRANCH  30  31
ENDBRANCH   8  30
TORSDOF 12
ENDMDL
MODEL 6
REMARK VINA RESULT:    -3.909      8.858     13.260
REMARK INTER + INTRA:          -7.578
REMARK INTER:                  -6.914
REMARK INTRA:                  -0.664
REMARK UNBOUND:                -1.498
REMARK SMILES C[C@]12C[C@]3(O)O[C@H](O1)[C@@]1(COC(=O)c4ccccc4)[C@@H]3C[C@]12O[C@@H]1O[C@@H](CO)[C@H](O)[C@@H](O)[C@@H]1O
REMARK SMILES IDX 1 1 2 2 3 3 4 4 20 5 21 6 22 7 9 8 7 9 8 10 6 11 23 12 24 13
REMARK SMILES IDX 33 14 25 15 31 16 26 17 29 18 34 19 32 21 27 23 28 24 30 26
REMARK SMILES IDX 5 28 10 30 11 31 12 32 13 33 14 34 15 35 19 36 16 37 18 38
REMARK SMILES IDX 17 39
REMARK H PARENT 34 20 32 22 28 25 30 27 5 29
REMARK Flexibility Score: inf
ROOT
ATOM      1  C   UNL     1       3.251  24.341  14.545  1.00  0.00     0.046 C 
ATOM      2  C   UNL     1       2.067  24.476  13.591  1.00  0.00     0.104 C 
ATOM      3  C   UNL     1       1.325  23.103  13.398  1.00  0.00     0.104 C 
ATOM      4  C   UNL     1       0.118  23.468  12.457  1.00  0.00     0.175 C 
ATOM      5  C   UNL     1      -0.643  24.723  12.996  1.00  0.00     0.070 C 
ATOM      6  C   UNL     1      -0.343  25.016  14.471  1.00  0.00     0.050 C 
ATOM      7  C   UNL     1       1.017  25.580  13.990  1.00  0.00     0.115 C 
ATOM      8  C   UNL     1       0.386  25.778  12.611  1.00  0.00     0.096 C 
ATOM      9  C   UNL     1       1.313  25.129  11.602  1.00  0.00     0.267 C 
ATOM     10  O   UNL     1       2.515  24.858  12.304  1.00  0.00    -0.342 OA
ATOM     11  O   UNL     1       0.696  23.902  11.245  1.00  0.00    -0.320 OA
ENDROOT
BRANCH   7  12
ATOM     12  O   UNL     1       1.529  26.781  14.562  1.00  0.00    -0.339 OA
BRANCH  12  13
ATOM     13  C   UNL     1       0.749  27.227  15.668  1.00  0.00     0.282 C 
ATOM     14  C   UNL     1       1.558  27.199  16.984  1.00  0.00     0.202 C 
ATOM     15  O   UNL     1       0.249  28.537  15.438  1.00  0.00    -0.341 OA
ATOM     16  C   UNL     1       2.702  28.224  16.936  1.00  0.00     0.179 C 
ATOM     17  C   UNL     1       1.293  29.489  15.275  1.00  0.00     0.178 C 
ATOM     18  C   UNL     1       2.146  29.606  16.560  1.00  0.00     0.177 C 
BRANCH  14  19
ATOM     19  O   UNL     1       2.074  25.913  17.211  1.00  0.00    -0.385 OA
ATOM     20  H   UNL     1       1.741  25.335  16.474  1.00  0.00     0.211 HD
ENDBRANCH  14  19
BRANCH  16  21
ATOM     21  O   UNL     1       3.333  28.282  18.192  1.00  0.00    -0.387 OA
ATOM     22  H   UNL     1       4.024  28.992  18.138  1.00  0.00     0.211 HD
ENDBRANCH  16  21
BRANCH  17  23
ATOM     23  C   UNL     1       0.657  30.841  14.914  1.00  0.00     0.191 C 
BRANCH  23  24
ATOM     24  O   UNL     1       1.644  31.750  14.500  1.00  0.00    -0.394 OA
ATOM     25  H   UNL     1       2.153  31.304  13.773  1.00  0.00     0.210 HD
ENDBRANCH  23  24
ENDBRANCH  17  23
BRANCH  18  26
ATOM     26  O   UNL     1       3.227  30.480  16.347  1.00  0.00    -0.387 OA
ATOM     27  H   UNL     1       3.774  30.100  15.609  1.00  0.00     0.211 HD
ENDBRANCH  18  26
ENDBRANCH  12  13
ENDBRANCH   7  12
BRANCH   4  28
ATOM     28  O   UNL     1      -0.737  22.379  12.232  1.00  0.00    -0.365 OA
ATOM     29  H   UNL     1      -0.262  21.568  12.556  1.00  0.00     0.214 HD
ENDBRANCH   4  28
BRANCH   8  30
ATOM     30  C   UNL     1      -0.153  27.180  12.263  1.00  0.00     0.249 C 
BRANCH  30  31
ATOM     31  O   UNL     1      -0.279  27.337  10.850  1.00  0.00    -0.461 OA
BRANCH  31  32
ATOM     32  C   UNL     1      -1.221  28.180  10.242  1.00  0.00     0.338 C 
ATOM     33  O   UNL     1      -1.156  29.430  10.411  1.00  0.00    -0.246 OA
BRANCH  32  34
ATOM     34  C   UNL     1      -2.283  27.606   9.388  1.00  0.00     0.060 A 
ATOM     35  C   UNL     1      -3.309  26.821   9.951  1.00  0.00     0.015 A 
ATOM     36  C   UNL     1      -2.301  27.862   8.005  1.00  0.00     0.015 A 
ATOM     37  C   UNL     1      -4.323  26.296   9.144  1.00  0.00     0.001 A 
ATOM     38  C   UNL     1      -3.318  27.335   7.203  1.00  0.00     0.001 A 
ATOM     39  C   UNL     1      -4.327  26.554   7.771  1.00  0.00     0.000 A 
ENDBRANCH  32  34
ENDBRANCH  31  32
ENDBRANCH  30  31
ENDBRANCH   8  30
TORSDOF 12
ENDMDL
MODEL 7
REMARK VINA RESULT:    -3.900      9.456     13.640
REMARK INTER + INTRA:          -7.564
REMARK INTER:                  -6.308
REMARK INTRA:                  -1.256
REMARK UNBOUND:                -1.498
REMARK SMILES C[C@]12C[C@]3(O)O[C@H](O1)[C@@]1(COC(=O)c4ccccc4)[C@@H]3C[C@]12O[C@@H]1O[C@@H](CO)[C@H](O)[C@@H](O)[C@@H]1O
REMARK SMILES IDX 1 1 2 2 3 3 4 4 20 5 21 6 22 7 9 8 7 9 8 10 6 11 23 12 24 13
REMARK SMILES IDX 33 14 25 15 31 16 26 17 29 18 34 19 32 21 27 23 28 24 30 26
REMARK SMILES IDX 5 28 10 30 11 31 12 32 13 33 14 34 15 35 19 36 16 37 18 38
REMARK SMILES IDX 17 39
REMARK H PARENT 34 20 32 22 28 25 30 27 5 29
REMARK Flexibility Score: inf
ROOT
ATOM      1  C   UNL     1      -0.118  23.541  16.474  1.00  0.00     0.046 C 
ATOM      2  C   UNL     1       0.766  24.037  15.332  1.00  0.00     0.104 C 
ATOM      3  C   UNL     1       2.188  23.369  15.375  1.00  0.00     0.104 C 
ATOM      4  C   UNL     1       2.903  23.948  14.099  1.00  0.00     0.175 C 
ATOM      5  C   UNL     1       1.987  23.806  12.840  1.00  0.00     0.070 C 
ATOM      6  C   UNL     1       0.861  22.783  13.033  1.00  0.00     0.050 C 
ATOM      7  C   UNL     1       0.152  23.857  13.893  1.00  0.00     0.115 C 
ATOM      8  C   UNL     1       0.995  24.911  13.172  1.00  0.00     0.096 C 
ATOM      9  C   UNL     1       1.644  25.768  14.242  1.00  0.00     0.267 C 
ATOM     10  O   UNL     1       0.988  25.430  15.454  1.00  0.00    -0.342 OA
ATOM     11  O   UNL     1       2.996  25.341  14.311  1.00  0.00    -0.320 OA
ENDROOT
BRANCH   7  12
ATOM     12  O   UNL     1      -1.253  24.059  13.760  1.00  0.00    -0.339 OA
BRANCH  12  13
ATOM     13  C   UNL     1      -1.877  23.020  13.011  1.00  0.00     0.282 C 
ATOM     14  C   UNL     1      -3.020  22.352  13.809  1.00  0.00     0.202 C 
ATOM     15  O   UNL     1      -2.378  23.518  11.778  1.00  0.00    -0.341 OA
ATOM     16  C   UNL     1      -4.169  23.346  14.041  1.00  0.00     0.179 C 
ATOM     17  C   UNL     1      -3.365  24.524  11.966  1.00  0.00     0.178 C 
ATOM     18  C   UNL     1      -4.603  23.961  12.703  1.00  0.00     0.177 C 
BRANCH  14  19
ATOM     19  O   UNL     1      -2.540  21.875  15.039  1.00  0.00    -0.385 OA
ATOM     20  H   UNL     1      -3.179  21.178  15.346  1.00  0.00     0.211 HD
ENDBRANCH  14  19
BRANCH  16  21
ATOM     21  O   UNL     1      -5.252  22.678  14.641  1.00  0.00    -0.387 OA
ATOM     22  H   UNL     1      -5.029  21.710  14.649  1.00  0.00     0.211 HD
ENDBRANCH  16  21
BRANCH  17  23
ATOM     23  C   UNL     1      -3.753  25.079  10.587  1.00  0.00     0.191 C 
BRANCH  23  24
ATOM     24  O   UNL     1      -4.131  26.428  10.691  1.00  0.00    -0.394 OA
ATOM     25  H   UNL     1      -4.925  26.454  11.287  1.00  0.00     0.210 HD
ENDBRANCH  23  24
ENDBRANCH  17  23
BRANCH  18  26
ATOM     26  O   UNL     1      -5.524  24.993  12.963  1.00  0.00    -0.387 OA
ATOM     27  H   UNL     1      -5.215  25.797  12.468  1.00  0.00     0.211 HD
ENDBRANCH  18  26
ENDBRANCH  12  13
ENDBRANCH   7  12
BRANCH   4  28
ATOM     28  O   UNL     1       4.177  23.396  13.899  1.00  0.00    -0.365 OA
ATOM     29  H   UNL     1       4.247  23.173  12.933  1.00  0.00     0.214 HD
ENDBRANCH   4  28
BRANCH   8  30
ATOM     30  C   UNL     1       0.353  25.651  11.981  1.00  0.00     0.249 C 
BRANCH  30  31
ATOM     31  O   UNL     1       0.102  27.017  12.310  1.00  0.00    -0.461 OA
BRANCH  31  32
ATOM     32  C   UNL     1      -1.128  27.655  12.093  1.00  0.00     0.338 C 
ATOM     33  O   UNL     1      -2.102  27.435  12.867  1.00  0.00    -0.246 OA
BRANCH  32  34
ATOM     34  C   UNL     1      -1.281  28.601  10.967  1.00  0.00     0.060 A 
ATOM     35  C   UNL     1      -1.556  29.962  11.206  1.00  0.00     0.015 A 
ATOM     36  C   UNL     1      -1.121  28.161   9.640  1.00  0.00     0.015 A 
ATOM     37  C   UNL     1      -1.680  30.858  10.140  1.00  0.00     0.001 A 
ATOM     38  C   UNL     1      -1.245  29.061   8.577  1.00  0.00     0.001 A 
ATOM     39  C   UNL     1      -1.524  30.408   8.827  1.00  0.00     0.000 A 
ENDBRANCH  32  34
ENDBRANCH  31  32
ENDBRANCH  30  31
ENDBRANCH   8  30
TORSDOF 12
ENDMDL
MODEL 8
REMARK VINA RESULT:    -3.897      5.063      8.865
REMARK INTER + INTRA:          -7.559
REMARK INTER:                  -6.332
REMARK INTRA:                  -1.228
REMARK UNBOUND:                -1.498
REMARK SMILES C[C@]12C[C@]3(O)O[C@H](O1)[C@@]1(COC(=O)c4ccccc4)[C@@H]3C[C@]12O[C@@H]1O[C@@H](CO)[C@H](O)[C@@H](O)[C@@H]1O
REMARK SMILES IDX 1 1 2 2 3 3 4 4 20 5 21 6 22 7 9 8 7 9 8 10 6 11 23 12 24 13
REMARK SMILES IDX 33 14 25 15 31 16 26 17 29 18 34 19 32 21 27 23 28 24 30 26
REMARK SMILES IDX 5 28 10 30 11 31 12 32 13 33 14 34 15 35 19 36 16 37 18 38
REMARK SMILES IDX 17 39
REMARK H PARENT 34 20 32 22 28 25 30 27 5 29
REMARK Flexibility Score: inf
ROOT
ATOM      1  C   UNL     1      -3.156  34.921  11.445  1.00  0.00     0.046 C 
ATOM      2  C   UNL     1      -2.852  33.492  11.006  1.00  0.00     0.104 C 
ATOM      3  C   UNL     1      -2.891  33.350   9.440  1.00  0.00     0.104 C 
ATOM      4  C   UNL     1      -2.487  31.850   9.197  1.00  0.00     0.175 C 
ATOM      5  C   UNL     1      -1.197  31.488  10.003  1.00  0.00     0.070 C 
ATOM      6  C   UNL     1      -0.407  32.723  10.453  1.00  0.00     0.050 C 
ATOM      7  C   UNL     1      -1.490  32.909  11.543  1.00  0.00     0.115 C 
ATOM      8  C   UNL     1      -1.822  31.424  11.390  1.00  0.00     0.096 C 
ATOM      9  C   UNL     1      -3.321  31.323  11.184  1.00  0.00     0.267 C 
ATOM     10  O   UNL     1      -3.838  32.606  11.500  1.00  0.00    -0.342 OA
ATOM     11  O   UNL     1      -3.504  31.077   9.798  1.00  0.00    -0.320 OA
ENDROOT
BRANCH   7  12
ATOM     12  O   UNL     1      -1.109  33.276  12.867  1.00  0.00    -0.339 OA
BRANCH  12  13
ATOM     13  C   UNL     1       0.255  33.681  12.941  1.00  0.00     0.282 C 
ATOM     14  C   UNL     1       0.401  35.070  13.605  1.00  0.00     0.202 C 
ATOM     15  O   UNL     1       1.028  32.725  13.653  1.00  0.00    -0.341 OA
ATOM     16  C   UNL     1      -0.020  35.010  15.081  1.00  0.00     0.179 C 
ATOM     17  C   UNL     1       0.584  32.567  14.995  1.00  0.00     0.178 C 
ATOM     18  C   UNL     1       0.741  33.882  15.793  1.00  0.00     0.177 C 
BRANCH  14  19
ATOM     19  O   UNL     1      -0.375  36.019  12.921  1.00  0.00    -0.385 OA
ATOM     20  H   UNL     1      -1.092  36.309  13.546  1.00  0.00     0.211 HD
ENDBRANCH  14  19
BRANCH  16  21
ATOM     21  O   UNL     1       0.255  36.244  15.697  1.00  0.00    -0.387 OA
ATOM     22  H   UNL     1      -0.553  36.496  16.217  1.00  0.00     0.211 HD
ENDBRANCH  16  21
BRANCH  17  23
ATOM     23  C   UNL     1       1.397  31.433  15.639  1.00  0.00     0.191 C 
BRANCH  23  24
ATOM     24  O   UNL     1       2.580  31.940  16.204  1.00  0.00    -0.394 OA
ATOM     25  H   UNL     1       2.657  32.882  15.900  1.00  0.00     0.210 HD
ENDBRANCH  23  24
ENDBRANCH  17  23
BRANCH  18  26
ATOM     26  O   UNL     1       0.208  33.731  17.087  1.00  0.00    -0.387 OA
ATOM     27  H   UNL     1       0.923  33.977  17.732  1.00  0.00     0.211 HD
ENDBRANCH  18  26
ENDBRANCH  12  13
ENDBRANCH   7  12
BRANCH   4  28
ATOM     28  O   UNL     1      -2.373  31.538   7.835  1.00  0.00    -0.365 OA
ATOM     29  H   UNL     1      -1.413  31.342   7.663  1.00  0.00     0.214 HD
ENDBRANCH   4  28
BRANCH   8  30
ATOM     30  C   UNL     1      -1.188  30.440  12.394  1.00  0.00     0.249 C 
BRANCH  30  31
ATOM     31  O   UNL     1      -1.809  29.157  12.305  1.00  0.00    -0.461 OA
BRANCH  31  32
ATOM     32  C   UNL     1      -1.347  28.126  11.473  1.00  0.00     0.338 C 
ATOM     33  O   UNL     1      -0.325  27.460  11.798  1.00  0.00    -0.246 OA
BRANCH  32  34
ATOM     34  C   UNL     1      -2.068  27.807  10.223  1.00  0.00     0.060 A 
ATOM     35  C   UNL     1      -1.539  28.185   8.973  1.00  0.00     0.015 A 
ATOM     36  C   UNL     1      -3.279  27.091  10.262  1.00  0.00     0.015 A 
ATOM     37  C   UNL     1      -2.213  27.864   7.792  1.00  0.00     0.001 A 
ATOM     38  C   UNL     1      -3.949  26.772   9.077  1.00  0.00     0.001 A 
ATOM     39  C   UNL     1      -3.417  27.158   7.843  1.00  0.00     0.000 A 
ENDBRANCH  32  34
ENDBRANCH  31  32
ENDBRANCH  30  31
ENDBRANCH   8  30
TORSDOF 12
ENDMDL
MODEL 9
REMARK VINA RESULT:    -3.867      8.779     13.178
REMARK INTER + INTRA:          -7.513
REMARK INTER:                  -6.532
REMARK INTRA:                  -0.981
REMARK UNBOUND:                -1.498
REMARK SMILES C[C@]12C[C@]3(O)O[C@H](O1)[C@@]1(COC(=O)c4ccccc4)[C@@H]3C[C@]12O[C@@H]1O[C@@H](CO)[C@H](O)[C@@H](O)[C@@H]1O
REMARK SMILES IDX 1 1 2 2 3 3 4 4 20 5 21 6 22 7 9 8 7 9 8 10 6 11 23 12 24 13
REMARK SMILES IDX 33 14 25 15 31 16 26 17 29 18 34 19 32 21 27 23 28 24 30 26
REMARK SMILES IDX 5 28 10 30 11 31 12 32 13 33 14 34 15 35 19 36 16 37 18 38
REMARK SMILES IDX 17 39
REMARK H PARENT 34 20 32 22 28 25 30 27 5 29
REMARK Flexibility Score: inf
ROOT
ATOM      1  C   UNL     1       2.079  26.943  18.239  1.00  0.00     0.046 C 
ATOM      2  C   UNL     1       1.601  27.909  17.158  1.00  0.00     0.104 C 
ATOM      3  C   UNL     1       2.195  29.349  17.370  1.00  0.00     0.104 C 
ATOM      4  C   UNL     1       1.649  30.155  16.134  1.00  0.00     0.175 C 
ATOM      5  C   UNL     1       1.903  29.371  14.806  1.00  0.00     0.070 C 
ATOM      6  C   UNL     1       2.969  28.278  14.952  1.00  0.00     0.050 C 
ATOM      7  C   UNL     1       1.887  27.443  15.680  1.00  0.00     0.115 C 
ATOM      8  C   UNL     1       0.832  28.303  14.982  1.00  0.00     0.096 C 
ATOM      9  C   UNL     1      -0.111  28.809  16.057  1.00  0.00     0.267 C 
ATOM     10  O   UNL     1       0.195  28.056  17.220  1.00  0.00    -0.342 OA
ATOM     11  O   UNL     1       0.245  30.166  16.274  1.00  0.00    -0.320 OA
ENDROOT
BRANCH   7  12
ATOM     12  O   UNL     1       1.761  26.050  15.407  1.00  0.00    -0.339 OA
BRANCH  12  13
ATOM     13  C   UNL     1       2.922  25.520  14.772  1.00  0.00     0.282 C 
ATOM     14  C   UNL     1       3.382  24.202  15.437  1.00  0.00     0.202 C 
ATOM     15  O   UNL     1       2.685  25.303  13.387  1.00  0.00    -0.341 OA
ATOM     16  C   UNL     1       2.338  23.096  15.222  1.00  0.00     0.179 C 
ATOM     17  C   UNL     1       1.641  24.364  13.162  1.00  0.00     0.178 C 
ATOM     18  C   UNL     1       2.010  22.973  13.727  1.00  0.00     0.177 C 
BRANCH  14  19
ATOM     19  O   UNL     1       3.599  24.401  16.809  1.00  0.00    -0.385 OA
ATOM     20  H   UNL     1       2.857  24.975  17.138  1.00  0.00     0.211 HD
ENDBRANCH  14  19
BRANCH  16  21
ATOM     21  O   UNL     1       2.841  21.876  15.710  1.00  0.00    -0.387 OA
ATOM     22  H   UNL     1       3.826  21.977  15.786  1.00  0.00     0.211 HD
ENDBRANCH  16  21
BRANCH  17  23
ATOM     23  C   UNL     1       1.382  24.291  11.649  1.00  0.00     0.191 C 
BRANCH  23  24
ATOM     24  O   UNL     1       1.903  23.098  11.121  1.00  0.00    -0.394 OA
ATOM     25  H   UNL     1       1.589  22.365  11.714  1.00  0.00     0.210 HD
ENDBRANCH  23  24
ENDBRANCH  17  23
BRANCH  18  26
ATOM     26  O   UNL     1       0.927  22.086  13.579  1.00  0.00    -0.387 OA
ATOM     27  H   UNL     1       0.422  22.090  14.434  1.00  0.00     0.211 HD
ENDBRANCH  18  26
ENDBRANCH  12  13
ENDBRANCH   7  12
BRANCH   4  28
ATOM     28  O   UNL     1       2.147  31.466  16.085  1.00  0.00    -0.365 OA
ATOM     29  H   UNL     1       3.031  31.422  15.632  1.00  0.00     0.214 HD
ENDBRANCH   4  28
BRANCH   8  30
ATOM     30  C   UNL     1       0.188  27.745  13.696  1.00  0.00     0.249 C 
BRANCH  30  31
ATOM     31  O   UNL     1      -1.216  28.002  13.680  1.00  0.00    -0.461 OA
BRANCH  31  32
ATOM     32  C   UNL     1      -2.023  27.840  12.545  1.00  0.00     0.338 C 
ATOM     33  O   UNL     1      -2.999  27.038  12.570  1.00  0.00    -0.246 OA
BRANCH  32  34
ATOM     34  C   UNL     1      -1.743  28.621  11.322  1.00  0.00     0.060 A 
ATOM     35  C   UNL     1      -1.737  30.030  11.357  1.00  0.00     0.015 A 
ATOM     36  C   UNL     1      -1.445  27.968  10.112  1.00  0.00     0.015 A 
ATOM     37  C   UNL     1      -1.452  30.766  10.204  1.00  0.00     0.001 A 
ATOM     38  C   UNL     1      -1.160  28.710   8.961  1.00  0.00     0.001 A 
ATOM     39  C   UNL     1      -1.163  30.107   9.006  1.00  0.00     0.000 A 
ENDBRANCH  32  34
ENDBRANCH  31  32
ENDBRANCH  30  31
ENDBRANCH   8  30
TORSDOF 12
ENDMDL
