MODEL 1
REMARK VINA RESULT:    -2.963      0.000      0.000
REMARK INTER + INTRA:          -6.597
REMARK INTER:                  -5.214
REMARK INTRA:                  -1.383
REMARK UNBOUND:                -1.383
REMARK SMILES CCCCCCCCCCCCCCC(=O)[O-]
REMARK SMILES IDX 9 1 10 2 11 3 12 4 13 5 14 6 15 7 16 8 17 9 8 10 7 11 6 12
REMARK SMILES IDX 5 13 4 14 3 15 2 16 1 17
REMARK H PARENT
REMARK Flexibility Score: inf
ROOT
ATOM      1  C   UNL     1       7.664 -34.933  13.569  1.00  0.00     0.000 C 
ENDROOT
BRANCH   1   2
ATOM      2  C   UNL     1       7.092 -33.652  12.932  1.00  0.00     0.000 C 
BRANCH   2   3
ATOM      3  C   UNL     1       6.651 -32.612  13.971  1.00  0.00     0.000 C 
BRANCH   3   4
ATOM      4  C   UNL     1       7.051 -33.045  15.388  1.00  0.00     0.000 C 
BRANCH   4   5
ATOM      5  C   UNL     1       8.254 -32.236  15.892  1.00  0.00     0.006 C 
BRANCH   5   6
ATOM      6  C   UNL     1       8.636 -32.600  17.333  1.00  0.00     0.053 C 
BRANCH   6   7
ATOM      7  C   UNL     1       9.302 -31.457  18.035  1.00  0.00     0.041 C 
ATOM      8  O   UNL     1       8.931 -31.120  19.191  1.00  0.00    -0.550 OA
ATOM      9  O   UNL     1      10.311 -30.745  17.401  1.00  0.00    -0.550 OA
ENDBRANCH   6   7
ENDBRANCH   5   6
ENDBRANCH   4   5
ENDBRANCH   3   4
ENDBRANCH   2   3
ENDBRANCH   1   2
BRANCH   1  10
ATOM     10  C   UNL     1       9.109 -35.278  13.164  1.00  0.00     0.000 C 
BRANCH  10  11
ATOM     11  C   UNL     1      10.151 -34.774  14.176  1.00  0.00    -0.000 C 
BRANCH  11  12
ATOM     12  C   UNL     1      11.462 -34.335  13.502  1.00  0.00    -0.000 C 
BRANCH  12  13
ATOM     13  C   UNL     1      11.367 -32.933  12.875  1.00  0.00    -0.000 C 
BRANCH  13  14
ATOM     14  C   UNL     1      10.944 -31.861  13.891  1.00  0.00    -0.000 C 
BRANCH  14  15
ATOM     15  C   UNL     1      12.149 -31.191  14.578  1.00  0.00    -0.000 C 
BRANCH  15  16
ATOM     16  C   UNL     1      13.479 -31.523  13.885  1.00  0.00    -0.003 C 
ATOM     17  C   UNL     1      14.338 -30.283  13.632  1.00  0.00     0.004 C 
ENDBRANCH  15  16
ENDBRANCH  14  15
ENDBRANCH  13  14
ENDBRANCH  12  13
ENDBRANCH  11  12
ENDBRANCH  10  11
ENDBRANCH   1  10
TORSDOF 13
ENDMDL
MODEL 2
REMARK VINA RESULT:    -2.919      1.643      4.601
REMARK INTER + INTRA:          -6.520
REMARK INTER:                  -5.125
REMARK INTRA:                  -1.395
REMARK UNBOUND:                -1.383
REMARK SMILES CCCCCCCCCCCCCCC(=O)[O-]
REMARK SMILES IDX 9 1 10 2 11 3 12 4 13 5 14 6 15 7 16 8 17 9 8 10 7 11 6 12
REMARK SMILES IDX 5 13 4 14 3 15 2 16 1 17
REMARK H PARENT
REMARK Flexibility Score: inf
ROOT
ATOM      1  C   UNL     1       7.718 -35.996  13.802  1.00  0.00     0.000 C 
ENDROOT
BRANCH   1   2
ATOM      2  C   UNL     1       9.083 -36.043  13.090  1.00  0.00     0.000 C 
BRANCH   2   3
ATOM      3  C   UNL     1       9.725 -34.657  12.934  1.00  0.00     0.000 C 
BRANCH   3   4
ATOM      4  C   UNL     1      11.202 -34.686  13.348  1.00  0.00     0.000 C 
BRANCH   4   5
ATOM      5  C   UNL     1      11.892 -33.353  13.022  1.00  0.00     0.006 C 
BRANCH   5   6
ATOM      6  C   UNL     1      11.212 -32.163  13.712  1.00  0.00     0.053 C 
BRANCH   6   7
ATOM      7  C   UNL     1      12.194 -31.332  14.478  1.00  0.00     0.041 C 
ATOM      8  O   UNL     1      11.868 -30.825  15.585  1.00  0.00    -0.550 OA
ATOM      9  O   UNL     1      13.457 -31.091  13.956  1.00  0.00    -0.550 OA
ENDBRANCH   6   7
ENDBRANCH   5   6
ENDBRANCH   4   5
ENDBRANCH   3   4
ENDBRANCH   2   3
ENDBRANCH   1   2
BRANCH   1  10
ATOM     10  C   UNL     1       6.608 -35.246  13.043  1.00  0.00     0.000 C 
BRANCH  10  11
ATOM     11  C   UNL     1       6.091 -34.012  13.803  1.00  0.00    -0.000 C 
BRANCH  11  12
ATOM     12  C   UNL     1       6.929 -33.696  15.052  1.00  0.00    -0.000 C 
BRANCH  12  13
ATOM     13  C   UNL     1       7.666 -32.349  14.948  1.00  0.00    -0.000 C 
BRANCH  13  14
ATOM     14  C   UNL     1       8.592 -32.090  16.146  1.00  0.00    -0.000 C 
BRANCH  14  15
ATOM     15  C   UNL     1       8.402 -33.122  17.272  1.00  0.00    -0.000 C 
BRANCH  15  16
ATOM     16  C   UNL     1       8.433 -32.483  18.668  1.00  0.00    -0.003 C 
ATOM     17  C   UNL     1       9.210 -31.166  18.697  1.00  0.00     0.004 C 
ENDBRANCH  15  16
ENDBRANCH  14  15
ENDBRANCH  13  14
ENDBRANCH  12  13
ENDBRANCH  11  12
ENDBRANCH  10  11
ENDBRANCH   1  10
TORSDOF 13
ENDMDL
MODEL 3
REMARK VINA RESULT:    -2.661      2.517      5.105
REMARK INTER + INTRA:          -6.066
REMARK INTER:                  -4.591
REMARK INTRA:                  -1.475
REMARK UNBOUND:                -1.383
REMARK SMILES CCCCCCCCCCCCCCC(=O)[O-]
REMARK SMILES IDX 9 1 10 2 11 3 12 4 13 5 14 6 15 7 16 8 17 9 8 10 7 11 6 12
REMARK SMILES IDX 5 13 4 14 3 15 2 16 1 17
REMARK H PARENT
REMARK Flexibility Score: inf
ROOT
ATOM      1  C   UNL     1       8.467 -31.950  17.292  1.00  0.00     0.000 C 
ENDROOT
BRANCH   1   2
ATOM      2  C   UNL     1       9.766 -31.261  17.747  1.00  0.00     0.000 C 
BRANCH   2   3
ATOM      3  C   UNL     1      10.640 -30.795  16.574  1.00  0.00     0.000 C 
BRANCH   3   4
ATOM      4  C   UNL     1      10.253 -31.519  15.278  1.00  0.00     0.000 C 
BRANCH   4   5
ATOM      5  C   UNL     1      11.421 -31.530  14.282  1.00  0.00     0.006 C 
BRANCH   5   6
ATOM      6  C   UNL     1      12.620 -30.716  14.785  1.00  0.00     0.053 C 
BRANCH   6   7
ATOM      7  C   UNL     1      13.836 -30.942  13.941  1.00  0.00     0.041 C 
ATOM      8  O   UNL     1      14.563 -29.970  13.602  1.00  0.00    -0.550 OA
ATOM      9  O   UNL     1      14.150 -32.221  13.502  1.00  0.00    -0.550 OA
ENDBRANCH   6   7
ENDBRANCH   5   6
ENDBRANCH   4   5
ENDBRANCH   3   4
ENDBRANCH   2   3
ENDBRANCH   1   2
BRANCH   1  10
ATOM     10  C   UNL     1       8.500 -33.490  17.310  1.00  0.00     0.000 C 
BRANCH  10  11
ATOM     11  C   UNL     1       7.618 -34.121  16.220  1.00  0.00    -0.000 C 
BRANCH  11  12
ATOM     12  C   UNL     1       6.790 -33.077  15.454  1.00  0.00    -0.000 C 
BRANCH  12  13
ATOM     13  C   UNL     1       7.118 -33.045  13.950  1.00  0.00    -0.000 C 
BRANCH  13  14
ATOM     14  C   UNL     1       7.797 -34.337  13.469  1.00  0.00    -0.000 C 
BRANCH  14  15
ATOM     15  C   UNL     1       9.194 -34.083  12.875  1.00  0.00    -0.000 C 
BRANCH  15  16
ATOM     16  C   UNL     1      10.077 -35.340  12.890  1.00  0.00    -0.003 C 
ATOM     17  C   UNL     1      11.548 -35.024  13.163  1.00  0.00     0.004 C 
ENDBRANCH  15  16
ENDBRANCH  14  15
ENDBRANCH  13  14
ENDBRANCH  12  13
ENDBRANCH  11  12
ENDBRANCH  10  11
ENDBRANCH   1  10
TORSDOF 13
ENDMDL
MODEL 4
REMARK VINA RESULT:    -2.617      1.425      2.718
REMARK INTER + INTRA:          -5.989
REMARK INTER:                  -4.178
REMARK INTRA:                  -1.811
REMARK UNBOUND:                -1.383
REMARK SMILES CCCCCCCCCCCCCCC(=O)[O-]
REMARK SMILES IDX 9 1 10 2 11 3 12 4 13 5 14 6 15 7 16 8 17 9 8 10 7 11 6 12
REMARK SMILES IDX 5 13 4 14 3 15 2 16 1 17
REMARK H PARENT
REMARK Flexibility Score: inf
ROOT
ATOM      1  C   UNL     1       6.028 -35.750  15.191  1.00  0.00     0.000 C 
ENDROOT
BRANCH   1   2
ATOM      2  C   UNL     1       7.105 -35.857  16.286  1.00  0.00     0.000 C 
BRANCH   2   3
ATOM      3  C   UNL     1       8.130 -34.715  16.232  1.00  0.00     0.000 C 
BRANCH   3   4
ATOM      4  C   UNL     1       7.490 -33.427  15.697  1.00  0.00     0.000 C 
BRANCH   4   5
ATOM      5  C   UNL     1       8.191 -32.186  16.268  1.00  0.00     0.006 C 
BRANCH   5   6
ATOM      6  C   UNL     1       8.494 -32.327  17.765  1.00  0.00     0.053 C 
BRANCH   6   7
ATOM      7  C   UNL     1       9.305 -31.176  18.277  1.00  0.00     0.041 C 
ATOM      8  O   UNL     1       9.157 -30.774  19.462  1.00  0.00    -0.550 OA
ATOM      9  O   UNL     1      10.200 -30.529  17.437  1.00  0.00    -0.550 OA
ENDBRANCH   6   7
ENDBRANCH   5   6
ENDBRANCH   4   5
ENDBRANCH   3   4
ENDBRANCH   2   3
ENDBRANCH   1   2
BRANCH   1  10
ATOM     10  C   UNL     1       6.234 -36.674  13.976  1.00  0.00     0.000 C 
BRANCH  10  11
ATOM     11  C   UNL     1       7.216 -36.096  12.944  1.00  0.00    -0.000 C 
BRANCH  11  12
ATOM     12  C   UNL     1       8.536 -36.882  12.882  1.00  0.00    -0.000 C 
BRANCH  12  13
ATOM     13  C   UNL     1       9.753 -36.033  13.289  1.00  0.00    -0.000 C 
BRANCH  13  14
ATOM     14  C   UNL     1       9.608 -34.560  12.875  1.00  0.00    -0.000 C 
BRANCH  14  15
ATOM     15  C   UNL     1      10.860 -33.729  13.207  1.00  0.00    -0.000 C 
BRANCH  15  16
ATOM     16  C   UNL     1      10.563 -32.224  13.286  1.00  0.00    -0.003 C 
ATOM     17  C   UNL     1      11.430 -31.505  14.321  1.00  0.00     0.004 C 
ENDBRANCH  15  16
ENDBRANCH  14  15
ENDBRANCH  13  14
ENDBRANCH  12  13
ENDBRANCH  11  12
ENDBRANCH  10  11
ENDBRANCH   1  10
TORSDOF 13
ENDMDL
MODEL 5
REMARK VINA RESULT:    -2.579      1.319      2.047
REMARK INTER + INTRA:          -5.923
REMARK INTER:                  -4.673
REMARK INTRA:                  -1.250
REMARK UNBOUND:                -1.383
REMARK SMILES CCCCCCCCCCCCCCC(=O)[O-]
REMARK SMILES IDX 9 1 10 2 11 3 12 4 13 5 14 6 15 7 16 8 17 9 8 10 7 11 6 12
REMARK SMILES IDX 5 13 4 14 3 15 2 16 1 17
REMARK H PARENT
REMARK Flexibility Score: inf
ROOT
ATOM      1  C   UNL     1       6.993 -34.335  13.600  1.00  0.00     0.000 C 
ENDROOT
BRANCH   1   2
ATOM      2  C   UNL     1       6.059 -35.099  14.557  1.00  0.00     0.000 C 
BRANCH   2   3
ATOM      3  C   UNL     1       6.692 -35.359  15.931  1.00  0.00     0.000 C 
BRANCH   3   4
ATOM      4  C   UNL     1       8.146 -34.870  15.969  1.00  0.00     0.000 C 
BRANCH   4   5
ATOM      5  C   UNL     1       8.379 -33.928  17.159  1.00  0.00     0.006 C 
BRANCH   5   6
ATOM      6  C   UNL     1       8.309 -32.451  16.752  1.00  0.00     0.053 C 
BRANCH   6   7
ATOM      7  C   UNL     1       8.993 -31.568  17.750  1.00  0.00     0.041 C 
ATOM      8  O   UNL     1       8.538 -31.460  18.919  1.00  0.00    -0.550 OA
ATOM      9  O   UNL     1      10.116 -30.840  17.378  1.00  0.00    -0.550 OA
ENDBRANCH   6   7
ENDBRANCH   5   6
ENDBRANCH   4   5
ENDBRANCH   3   4
ENDBRANCH   2   3
ENDBRANCH   1   2
BRANCH   1  10
ATOM     10  C   UNL     1       6.626 -32.858  13.365  1.00  0.00     0.000 C 
BRANCH  10  11
ATOM     11  C   UNL     1       7.819 -32.012  12.888  1.00  0.00    -0.000 C 
BRANCH  11  12
ATOM     12  C   UNL     1       9.136 -32.805  12.875  1.00  0.00    -0.000 C 
BRANCH  12  13
ATOM     13  C   UNL     1      10.048 -32.460  14.066  1.00  0.00    -0.000 C 
BRANCH  13  14
ATOM     14  C   UNL     1      11.505 -32.220  13.641  1.00  0.00    -0.000 C 
BRANCH  14  15
ATOM     15  C   UNL     1      12.140 -31.019  14.364  1.00  0.00    -0.000 C 
BRANCH  15  16
ATOM     16  C   UNL     1      13.675 -31.064  14.343  1.00  0.00    -0.003 C 
ATOM     17  C   UNL     1      14.221 -32.141  13.406  1.00  0.00     0.004 C 
ENDBRANCH  15  16
ENDBRANCH  14  15
ENDBRANCH  13  14
ENDBRANCH  12  13
ENDBRANCH  11  12
ENDBRANCH  10  11
ENDBRANCH   1  10
TORSDOF 13
ENDMDL
MODEL 6
REMARK VINA RESULT:    -2.395      1.318      2.241
REMARK INTER + INTRA:          -5.598
REMARK INTER:                  -4.554
REMARK INTRA:                  -1.044
REMARK UNBOUND:                -1.383
REMARK SMILES CCCCCCCCCCCCCCC(=O)[O-]
REMARK SMILES IDX 9 1 10 2 11 3 12 4 13 5 14 6 15 7 16 8 17 9 8 10 7 11 6 12
REMARK SMILES IDX 5 13 4 14 3 15 2 16 1 17
REMARK H PARENT
REMARK Flexibility Score: inf
ROOT
ATOM      1  C   UNL     1       8.402 -33.069  12.951  1.00  0.00     0.000 C 
ENDROOT
BRANCH   1   2
ATOM      2  C   UNL     1       6.994 -32.594  13.355  1.00  0.00     0.000 C 
BRANCH   2   3
ATOM      3  C   UNL     1       6.721 -32.741  14.859  1.00  0.00     0.000 C 
BRANCH   3   4
ATOM      4  C   UNL     1       7.529 -33.901  15.454  1.00  0.00     0.000 C 
BRANCH   4   5
ATOM      5  C   UNL     1       8.585 -33.387  16.443  1.00  0.00     0.006 C 
BRANCH   5   6
ATOM      6  C   UNL     1       8.124 -32.124  17.181  1.00  0.00     0.053 C 
BRANCH   6   7
ATOM      7  C   UNL     1       9.221 -31.536  18.013  1.00  0.00     0.041 C 
ATOM      8  O   UNL     1       9.191 -31.640  19.268  1.00  0.00    -0.550 OA
ATOM      9  O   UNL     1      10.261 -30.846  17.404  1.00  0.00    -0.550 OA
ENDBRANCH   6   7
ENDBRANCH   5   6
ENDBRANCH   4   5
ENDBRANCH   3   4
ENDBRANCH   2   3
ENDBRANCH   1   2
BRANCH   1  10
ATOM     10  C   UNL     1       9.475 -31.966  12.893  1.00  0.00     0.000 C 
BRANCH  10  11
ATOM     11  C   UNL     1      10.742 -32.320  13.689  1.00  0.00    -0.000 C 
BRANCH  11  12
ATOM     12  C   UNL     1      11.589 -31.083  14.029  1.00  0.00    -0.000 C 
BRANCH  12  13
ATOM     13  C   UNL     1      12.986 -31.448  14.564  1.00  0.00    -0.000 C 
BRANCH  13  14
ATOM     14  C   UNL     1      14.110 -31.044  13.597  1.00  0.00    -0.000 C 
BRANCH  14  15
ATOM     15  C   UNL     1      14.480 -29.554  13.713  1.00  0.00    -0.000 C 
BRANCH  15  16
ATOM     16  C   UNL     1      14.905 -29.163  15.136  1.00  0.00    -0.003 C 
ATOM     17  C   UNL     1      15.640 -27.823  15.184  1.00  0.00     0.004 C 
ENDBRANCH  15  16
ENDBRANCH  14  15
ENDBRANCH  13  14
ENDBRANCH  12  13
ENDBRANCH  11  12
ENDBRANCH  10  11
ENDBRANCH   1  10
TORSDOF 13
ENDMDL
MODEL 7
REMARK VINA RESULT:    -2.246      2.159      5.870
REMARK INTER + INTRA:          -5.336
REMARK INTER:                  -4.118
REMARK INTRA:                  -1.218
REMARK UNBOUND:                -1.383
REMARK SMILES CCCCCCCCCCCCCCC(=O)[O-]
REMARK SMILES IDX 9 1 10 2 11 3 12 4 13 5 14 6 15 7 16 8 17 9 8 10 7 11 6 12
REMARK SMILES IDX 5 13 4 14 3 15 2 16 1 17
REMARK H PARENT
REMARK Flexibility Score: inf
ROOT
ATOM      1  C   UNL     1       8.946 -31.915  16.648  1.00  0.00     0.000 C 
ENDROOT
BRANCH   1   2
ATOM      2  C   UNL     1      10.111 -31.528  15.718  1.00  0.00     0.000 C 
BRANCH   2   3
ATOM      3  C   UNL     1      10.158 -32.370  14.435  1.00  0.00     0.000 C 
BRANCH   3   4
ATOM      4  C   UNL     1      11.305 -31.917  13.522  1.00  0.00     0.000 C 
BRANCH   4   5
ATOM      5  C   UNL     1      12.492 -32.887  13.606  1.00  0.00     0.006 C 
BRANCH   5   6
ATOM      6  C   UNL     1      13.825 -32.203  13.279  1.00  0.00     0.053 C 
BRANCH   6   7
ATOM      7  C   UNL     1      13.993 -30.924  14.040  1.00  0.00     0.041 C 
ATOM      8  O   UNL     1      13.712 -30.874  15.267  1.00  0.00    -0.550 OA
ATOM      9  O   UNL     1      14.431 -29.780  13.387  1.00  0.00    -0.550 OA
ENDBRANCH   6   7
ENDBRANCH   5   6
ENDBRANCH   4   5
ENDBRANCH   3   4
ENDBRANCH   2   3
ENDBRANCH   1   2
BRANCH   1  10
ATOM     10  C   UNL     1       8.056 -33.064  16.141  1.00  0.00     0.000 C 
BRANCH  10  11
ATOM     11  C   UNL     1       6.733 -32.573  15.529  1.00  0.00    -0.000 C 
BRANCH  11  12
ATOM     12  C   UNL     1       6.737 -32.633  13.993  1.00  0.00    -0.000 C 
BRANCH  12  13
ATOM     13  C   UNL     1       6.277 -33.997  13.450  1.00  0.00    -0.000 C 
BRANCH  13  14
ATOM     14  C   UNL     1       7.447 -34.852  12.938  1.00  0.00    -0.000 C 
BRANCH  14  15
ATOM     15  C   UNL     1       7.701 -36.090  13.816  1.00  0.00    -0.000 C 
BRANCH  15  16
ATOM     16  C   UNL     1       6.462 -36.501  14.626  1.00  0.00    -0.003 C 
ATOM     17  C   UNL     1       6.746 -36.609  16.125  1.00  0.00     0.004 C 
ENDBRANCH  15  16
ENDBRANCH  14  15
ENDBRANCH  13  14
ENDBRANCH  12  13
ENDBRANCH  11  12
ENDBRANCH  10  11
ENDBRANCH   1  10
TORSDOF 13
ENDMDL
MODEL 8
REMARK VINA RESULT:    -2.194      1.420      4.216
REMARK INTER + INTRA:          -5.245
REMARK INTER:                  -4.186
REMARK INTRA:                  -1.059
REMARK UNBOUND:                -1.383
REMARK SMILES CCCCCCCCCCCCCCC(=O)[O-]
REMARK SMILES IDX 9 1 10 2 11 3 12 4 13 5 14 6 15 7 16 8 17 9 8 10 7 11 6 12
REMARK SMILES IDX 5 13 4 14 3 15 2 16 1 17
REMARK H PARENT
REMARK Flexibility Score: inf
ROOT
ATOM      1  C   UNL     1      10.056 -31.663  13.623  1.00  0.00     0.000 C 
ENDROOT
BRANCH   1   2
ATOM      2  C   UNL     1       8.936 -32.411  12.876  1.00  0.00     0.000 C 
BRANCH   2   3
ATOM      3  C   UNL     1       7.537 -32.106  13.432  1.00  0.00     0.000 C 
BRANCH   3   4
ATOM      4  C   UNL     1       7.279 -32.885  14.728  1.00  0.00     0.000 C 
BRANCH   4   5
ATOM      5  C   UNL     1       7.615 -32.032  15.960  1.00  0.00     0.006 C 
BRANCH   5   6
ATOM      6  C   UNL     1       8.702 -32.673  16.832  1.00  0.00     0.053 C 
BRANCH   6   7
ATOM      7  C   UNL     1       9.191 -31.733  17.890  1.00  0.00     0.041 C 
ATOM      8  O   UNL     1       8.733 -31.803  19.062  1.00  0.00    -0.550 OA
ATOM      9  O   UNL     1      10.129 -30.759  17.575  1.00  0.00    -0.550 OA
ENDBRANCH   6   7
ENDBRANCH   5   6
ENDBRANCH   4   5
ENDBRANCH   3   4
ENDBRANCH   2   3
ENDBRANCH   1   2
BRANCH   1  10
ATOM     10  C   UNL     1      11.293 -32.511  13.968  1.00  0.00     0.000 C 
BRANCH  10  11
ATOM     11  C   UNL     1      11.581 -33.604  12.925  1.00  0.00    -0.000 C 
BRANCH  11  12
ATOM     12  C   UNL     1      11.100 -34.992  13.378  1.00  0.00    -0.000 C 
BRANCH  12  13
ATOM     13  C   UNL     1       9.683 -35.323  12.875  1.00  0.00    -0.000 C 
BRANCH  13  14
ATOM     14  C   UNL     1       8.824 -36.011  13.947  1.00  0.00    -0.000 C 
BRANCH  14  15
ATOM     15  C   UNL     1       7.384 -36.274  13.470  1.00  0.00    -0.000 C 
BRANCH  15  16
ATOM     16  C   UNL     1       6.527 -36.965  14.540  1.00  0.00    -0.003 C 
ATOM     17  C   UNL     1       6.659 -36.310  15.916  1.00  0.00     0.004 C 
ENDBRANCH  15  16
ENDBRANCH  14  15
ENDBRANCH  13  14
ENDBRANCH  12  13
ENDBRANCH  11  12
ENDBRANCH  10  11
ENDBRANCH   1  10
TORSDOF 13
ENDMDL
MODEL 9
REMARK VINA RESULT:    -2.096      2.811      4.866
REMARK INTER + INTRA:          -5.072
REMARK INTER:                  -3.524
REMARK INTRA:                  -1.548
REMARK UNBOUND:                -1.383
REMARK SMILES CCCCCCCCCCCCCCC(=O)[O-]
REMARK SMILES IDX 9 1 10 2 11 3 12 4 13 5 14 6 15 7 16 8 17 9 8 10 7 11 6 12
REMARK SMILES IDX 5 13 4 14 3 15 2 16 1 17
REMARK H PARENT
REMARK Flexibility Score: inf
ROOT
ATOM      1  C   UNL     1       9.629 -31.467  17.866  1.00  0.00     0.000 C 
ENDROOT
BRANCH   1   2
ATOM      2  C   UNL     1       8.321 -32.255  17.671  1.00  0.00     0.000 C 
BRANCH   2   3
ATOM      3  C   UNL     1       8.317 -33.105  16.392  1.00  0.00     0.000 C 
BRANCH   3   4
ATOM      4  C   UNL     1       7.268 -32.594  15.396  1.00  0.00     0.000 C 
BRANCH   4   5
ATOM      5  C   UNL     1       6.235 -33.685  15.076  1.00  0.00     0.006 C 
BRANCH   5   6
ATOM      6  C   UNL     1       6.572 -34.443  13.786  1.00  0.00     0.053 C 
BRANCH   6   7
ATOM      7  C   UNL     1       6.822 -35.896  14.045  1.00  0.00     0.041 C 
ATOM      8  O   UNL     1       7.034 -36.304  15.218  1.00  0.00    -0.550 OA
ATOM      9  O   UNL     1       6.853 -36.795  12.988  1.00  0.00    -0.550 OA
ENDBRANCH   6   7
ENDBRANCH   5   6
ENDBRANCH   4   5
ENDBRANCH   3   4
ENDBRANCH   2   3
ENDBRANCH   1   2
BRANCH   1  10
ATOM     10  C   UNL     1      10.099 -30.663  16.639  1.00  0.00     0.000 C 
BRANCH  10  11
ATOM     11  C   UNL     1      11.505 -31.064  16.162  1.00  0.00    -0.000 C 
BRANCH  11  12
ATOM     12  C   UNL     1      11.649 -31.000  14.633  1.00  0.00    -0.000 C 
BRANCH  12  13
ATOM     13  C   UNL     1      10.591 -31.846  13.901  1.00  0.00    -0.000 C 
BRANCH  13  14
ATOM     14  C   UNL     1      11.156 -33.178  13.385  1.00  0.00    -0.000 C 
BRANCH  14  15
ATOM     15  C   UNL     1      10.057 -34.129  12.879  1.00  0.00    -0.000 C 
BRANCH  15  16
ATOM     16  C   UNL     1      10.473 -35.605  12.961  1.00  0.00    -0.003 C 
ATOM     17  C   UNL     1      11.990 -35.793  12.935  1.00  0.00     0.004 C 
ENDBRANCH  15  16
ENDBRANCH  14  15
ENDBRANCH  13  14
ENDBRANCH  12  13
ENDBRANCH  11  12
ENDBRANCH  10  11
ENDBRANCH   1  10
TORSDOF 13
ENDMDL
