MODEL 1
REMARK VINA RESULT:    -3.987      0.000      0.000
REMARK INTER + INTRA:          -5.595
REMARK INTER:                  -5.152
REMARK INTRA:                  -0.442
REMARK UNBOUND:                -0.442
REMARK SMILES C=CC(=O)CCCCC
REMARK SMILES IDX 6 1 7 2 8 3 9 4 5 5 3 6 4 7 2 8 1 9
REMARK H PARENT
REMARK Flexibility Score: inf
ROOT
ATOM      1  C   UNL     1      -1.801  26.933  52.854  1.00  0.00     0.008 C 
ENDROOT
BRANCH   1   2
ATOM      2  C   UNL     1      -1.517  27.718  51.563  1.00  0.00     0.000 C 
BRANCH   2   3
ATOM      3  C   UNL     1      -1.841  29.212  51.698  1.00  0.00    -0.003 C 
ATOM      4  C   UNL     1      -0.574  30.059  51.615  1.00  0.00     0.004 C 
ENDBRANCH   2   3
ENDBRANCH   1   2
BRANCH   1   5
ATOM      5  C   UNL     1      -0.528  26.352  53.484  1.00  0.00     0.080 C 
BRANCH   5   6
ATOM      6  C   UNL     1       0.236  27.423  54.204  1.00  0.00     0.155 C 
ATOM      7  O   UNL     1      -0.386  28.236  54.942  1.00  0.00    -0.295 OA
BRANCH   6   8
ATOM      8  C   UNL     1       1.705  27.492  54.083  1.00  0.00     0.039 C 
ATOM      9  C   UNL     1       2.450  26.428  53.792  1.00  0.00     0.012 C 
ENDBRANCH   6   8
ENDBRANCH   5   6
ENDBRANCH   1   5
TORSDOF 5
ENDMDL
MODEL 2
REMARK VINA RESULT:    -3.914      0.719      1.017
REMARK INTER + INTRA:          -5.501
REMARK INTER:                  -5.000
REMARK INTRA:                  -0.500
REMARK UNBOUND:                -0.442
REMARK SMILES C=CC(=O)CCCCC
REMARK SMILES IDX 6 1 7 2 8 3 9 4 5 5 3 6 4 7 2 8 1 9
REMARK H PARENT
REMARK Flexibility Score: inf
ROOT
ATOM      1  C   UNL     1      -1.408  27.382  51.684  1.00  0.00     0.008 C 
ENDROOT
BRANCH   1   2
ATOM      2  C   UNL     1      -2.053  28.777  51.649  1.00  0.00     0.000 C 
BRANCH   2   3
ATOM      3  C   UNL     1      -1.122  29.842  51.055  1.00  0.00    -0.003 C 
ATOM      4  C   UNL     1      -0.345  30.567  52.151  1.00  0.00     0.004 C 
ENDBRANCH   2   3
ENDBRANCH   1   2
BRANCH   1   5
ATOM      5  C   UNL     1      -1.447  26.748  53.081  1.00  0.00     0.080 C 
BRANCH   5   6
ATOM      6  C   UNL     1      -0.342  27.295  53.935  1.00  0.00     0.155 C 
ATOM      7  O   UNL     1      -0.613  28.146  54.826  1.00  0.00    -0.295 OA
BRANCH   6   8
ATOM      8  C   UNL     1       1.038  26.804  53.762  1.00  0.00     0.039 C 
ATOM      9  C   UNL     1       2.090  27.620  53.732  1.00  0.00     0.012 C 
ENDBRANCH   6   8
ENDBRANCH   5   6
ENDBRANCH   1   5
TORSDOF 5
ENDMDL
MODEL 3
REMARK VINA RESULT:    -3.910      1.701      3.750
REMARK INTER + INTRA:          -5.495
REMARK INTER:                  -4.940
REMARK INTRA:                  -0.554
REMARK UNBOUND:                -0.442
REMARK SMILES C=CC(=O)CCCCC
REMARK SMILES IDX 6 1 7 2 8 3 9 4 5 5 3 6 4 7 2 8 1 9
REMARK H PARENT
REMARK Flexibility Score: inf
ROOT
ATOM      1  C   UNL     1      -1.593  26.920  53.043  1.00  0.00     0.008 C 
ENDROOT
BRANCH   1   2
ATOM      2  C   UNL     1      -0.250  26.353  53.532  1.00  0.00     0.000 C 
BRANCH   2   3
ATOM      3  C   UNL     1       0.556  27.370  54.352  1.00  0.00    -0.003 C 
ATOM      4  C   UNL     1       1.937  27.596  53.743  1.00  0.00     0.004 C 
ENDBRANCH   2   3
ENDBRANCH   1   2
BRANCH   1   5
ATOM      5  C   UNL     1      -1.496  27.544  51.645  1.00  0.00     0.080 C 
BRANCH   5   6
ATOM      6  C   UNL     1      -2.008  28.954  51.664  1.00  0.00     0.155 C 
ATOM      7  O   UNL     1      -3.090  29.226  51.076  1.00  0.00    -0.295 OA
BRANCH   6   8
ATOM      8  C   UNL     1      -1.272  29.998  52.402  1.00  0.00     0.039 C 
ATOM      9  C   UNL     1      -0.060  30.413  52.037  1.00  0.00     0.012 C 
ENDBRANCH   6   8
ENDBRANCH   5   6
ENDBRANCH   1   5
TORSDOF 5
ENDMDL
MODEL 4
REMARK VINA RESULT:    -3.896      1.122      3.895
REMARK INTER + INTRA:          -5.477
REMARK INTER:                  -5.165
REMARK INTRA:                  -0.312
REMARK UNBOUND:                -0.442
REMARK SMILES C=CC(=O)CCCCC
REMARK SMILES IDX 6 1 7 2 8 3 9 4 5 5 3 6 4 7 2 8 1 9
REMARK H PARENT
REMARK Flexibility Score: inf
ROOT
ATOM      1  C   UNL     1       0.124  26.483  53.902  1.00  0.00     0.008 C 
ENDROOT
BRANCH   1   2
ATOM      2  C   UNL     1       0.936  27.739  53.543  1.00  0.00     0.000 C 
BRANCH   2   3
ATOM      3  C   UNL     1       2.450  27.514  53.653  1.00  0.00    -0.003 C 
ATOM      4  C   UNL     1       2.788  26.026  53.628  1.00  0.00     0.004 C 
ENDBRANCH   2   3
ENDBRANCH   1   2
BRANCH   1   5
ATOM      5  C   UNL     1      -1.056  26.251  52.949  1.00  0.00     0.080 C 
BRANCH   5   6
ATOM      6  C   UNL     1      -2.001  27.416  52.992  1.00  0.00     0.155 C 
ATOM      7  O   UNL     1      -2.453  27.804  54.104  1.00  0.00    -0.295 OA
BRANCH   6   8
ATOM      8  C   UNL     1      -2.357  28.125  51.748  1.00  0.00     0.039 C 
ATOM      9  C   UNL     1      -1.623  29.121  51.257  1.00  0.00     0.012 C 
ENDBRANCH   6   8
ENDBRANCH   5   6
ENDBRANCH   1   5
TORSDOF 5
ENDMDL
MODEL 5
REMARK VINA RESULT:    -3.876      1.764      4.210
REMARK INTER + INTRA:          -5.451
REMARK INTER:                  -5.181
REMARK INTRA:                  -0.270
REMARK UNBOUND:                -0.442
REMARK SMILES C=CC(=O)CCCCC
REMARK SMILES IDX 6 1 7 2 8 3 9 4 5 5 3 6 4 7 2 8 1 9
REMARK H PARENT
REMARK Flexibility Score: inf
ROOT
ATOM      1  C   UNL     1      -2.242  28.018  51.656  1.00  0.00     0.008 C 
ENDROOT
BRANCH   1   2
ATOM      2  C   UNL     1      -2.214  27.334  53.032  1.00  0.00     0.000 C 
BRANCH   2   3
ATOM      3  C   UNL     1      -1.117  26.266  53.138  1.00  0.00    -0.003 C 
ATOM      4  C   UNL     1       0.216  26.885  53.551  1.00  0.00     0.004 C 
ENDBRANCH   2   3
ENDBRANCH   1   2
BRANCH   1   5
ATOM      5  C   UNL     1      -2.194  29.548  51.757  1.00  0.00     0.080 C 
BRANCH   5   6
ATOM      6  C   UNL     1      -0.933  30.076  51.137  1.00  0.00     0.155 C 
ATOM      7  O   UNL     1       0.147  30.014  51.786  1.00  0.00    -0.295 OA
BRANCH   6   8
ATOM      8  C   UNL     1      -0.955  30.618  49.765  1.00  0.00     0.039 C 
ATOM      9  C   UNL     1      -0.019  30.322  48.865  1.00  0.00     0.012 C 
ENDBRANCH   6   8
ENDBRANCH   5   6
ENDBRANCH   1   5
TORSDOF 5
ENDMDL
MODEL 6
REMARK VINA RESULT:    -3.872      1.549      2.705
REMARK INTER + INTRA:          -5.446
REMARK INTER:                  -5.218
REMARK INTRA:                  -0.229
REMARK UNBOUND:                -0.442
REMARK SMILES C=CC(=O)CCCCC
REMARK SMILES IDX 6 1 7 2 8 3 9 4 5 5 3 6 4 7 2 8 1 9
REMARK H PARENT
REMARK Flexibility Score: inf
ROOT
ATOM      1  C   UNL     1      -2.058  29.559  51.736  1.00  0.00     0.008 C 
ENDROOT
BRANCH   1   2
ATOM      2  C   UNL     1      -0.748  29.900  51.006  1.00  0.00     0.000 C 
BRANCH   2   3
ATOM      3  C   UNL     1      -0.984  30.668  49.699  1.00  0.00    -0.003 C 
ATOM      4  C   UNL     1       0.026  30.257  48.630  1.00  0.00     0.004 C 
ENDBRANCH   2   3
ENDBRANCH   1   2
BRANCH   1   5
ATOM      5  C   UNL     1      -2.331  28.050  51.783  1.00  0.00     0.080 C 
BRANCH   5   6
ATOM      6  C   UNL     1      -2.013  27.502  53.142  1.00  0.00     0.155 C 
ATOM      7  O   UNL     1      -2.538  28.031  54.160  1.00  0.00    -0.295 OA
BRANCH   6   8
ATOM      8  C   UNL     1      -1.130  26.327  53.278  1.00  0.00     0.039 C 
ATOM      9  C   UNL     1       0.174  26.437  53.522  1.00  0.00     0.012 C 
ENDBRANCH   6   8
ENDBRANCH   5   6
ENDBRANCH   1   5
TORSDOF 5
ENDMDL
MODEL 7
REMARK VINA RESULT:    -3.840      1.968      3.827
REMARK INTER + INTRA:          -5.405
REMARK INTER:                  -4.951
REMARK INTRA:                  -0.454
REMARK UNBOUND:                -0.442
REMARK SMILES C=CC(=O)CCCCC
REMARK SMILES IDX 6 1 7 2 8 3 9 4 5 5 3 6 4 7 2 8 1 9
REMARK H PARENT
REMARK Flexibility Score: inf
ROOT
ATOM      1  C   UNL     1      -0.881  26.782  52.571  1.00  0.00     0.008 C 
ENDROOT
BRANCH   1   2
ATOM      2  C   UNL     1      -0.032  26.266  53.744  1.00  0.00     0.000 C 
BRANCH   2   3
ATOM      3  C   UNL     1       1.166  27.175  54.050  1.00  0.00    -0.003 C 
ATOM      4  C   UNL     1       1.765  26.853  55.417  1.00  0.00     0.004 C 
ENDBRANCH   2   3
ENDBRANCH   1   2
BRANCH   1   5
ATOM      5  C   UNL     1      -2.267  27.269  53.015  1.00  0.00     0.080 C 
BRANCH   5   6
ATOM      6  C   UNL     1      -2.170  28.631  53.635  1.00  0.00     0.155 C 
ATOM      7  O   UNL     1      -1.598  29.560  53.000  1.00  0.00    -0.295 OA
BRANCH   6   8
ATOM      8  C   UNL     1      -2.778  28.888  54.955  1.00  0.00     0.039 C 
ATOM      9  C   UNL     1      -2.093  28.778  56.091  1.00  0.00     0.012 C 
ENDBRANCH   6   8
ENDBRANCH   5   6
ENDBRANCH   1   5
TORSDOF 5
ENDMDL
MODEL 8
REMARK VINA RESULT:    -3.824      1.663      2.561
REMARK INTER + INTRA:          -5.385
REMARK INTER:                  -4.837
REMARK INTRA:                  -0.547
REMARK UNBOUND:                -0.442
REMARK SMILES C=CC(=O)CCCCC
REMARK SMILES IDX 6 1 7 2 8 3 9 4 5 5 3 6 4 7 2 8 1 9
REMARK H PARENT
REMARK Flexibility Score: inf
ROOT
ATOM      1  C   UNL     1      -1.353  27.670  51.843  1.00  0.00     0.008 C 
ENDROOT
BRANCH   1   2
ATOM      2  C   UNL     1      -2.306  28.842  51.556  1.00  0.00     0.000 C 
BRANCH   2   3
ATOM      3  C   UNL     1      -1.589  30.044  50.926  1.00  0.00    -0.003 C 
ATOM      4  C   UNL     1      -0.701  30.751  51.947  1.00  0.00     0.004 C 
ENDBRANCH   2   3
ENDBRANCH   1   2
BRANCH   1   5
ATOM      5  C   UNL     1      -1.543  27.086  53.249  1.00  0.00     0.080 C 
BRANCH   5   6
ATOM      6  C   UNL     1      -0.789  27.899  54.261  1.00  0.00     0.155 C 
ATOM      7  O   UNL     1       0.472  27.908  54.230  1.00  0.00    -0.295 OA
BRANCH   6   8
ATOM      8  C   UNL     1      -1.522  28.713  55.249  1.00  0.00     0.039 C 
ATOM      9  C   UNL     1      -2.849  28.824  55.242  1.00  0.00     0.012 C 
ENDBRANCH   6   8
ENDBRANCH   5   6
ENDBRANCH   1   5
TORSDOF 5
ENDMDL
MODEL 9
REMARK VINA RESULT:    -3.596      2.351      4.770
REMARK INTER + INTRA:          -5.089
REMARK INTER:                  -4.832
REMARK INTRA:                  -0.257
REMARK UNBOUND:                -0.442
REMARK SMILES C=CC(=O)CCCCC
REMARK SMILES IDX 6 1 7 2 8 3 9 4 5 5 3 6 4 7 2 8 1 9
REMARK H PARENT
REMARK Flexibility Score: inf
ROOT
ATOM      1  C   UNL     1      -0.840  29.026  52.309  1.00  0.00     0.008 C 
ENDROOT
BRANCH   1   2
ATOM      2  C   UNL     1      -1.536  27.731  51.857  1.00  0.00     0.000 C 
BRANCH   2   3
ATOM      3  C   UNL     1      -1.145  26.521  52.717  1.00  0.00    -0.003 C 
ATOM      4  C   UNL     1       0.088  26.824  53.564  1.00  0.00     0.004 C 
ENDBRANCH   2   3
ENDBRANCH   1   2
BRANCH   1   5
ATOM      5  C   UNL     1      -0.381  29.892  51.129  1.00  0.00     0.080 C 
BRANCH   5   6
ATOM      6  C   UNL     1      -1.519  30.722  50.613  1.00  0.00     0.155 C 
ATOM      7  O   UNL     1      -2.356  31.198  51.429  1.00  0.00    -0.295 OA
BRANCH   6   8
ATOM      8  C   UNL     1      -1.628  31.013  49.171  1.00  0.00     0.039 C 
ATOM      9  C   UNL     1      -0.674  30.687  48.301  1.00  0.00     0.012 C 
ENDBRANCH   6   8
ENDBRANCH   5   6
ENDBRANCH   1   5
TORSDOF 5
ENDMDL
