MODEL 1
REMARK VINA RESULT:    -5.226      0.000      0.000
REMARK INTER + INTRA:          -5.889
REMARK INTER:                  -5.837
REMARK INTRA:                  -0.052
REMARK UNBOUND:                -0.052
REMARK SMILES COc1cc2ccc(=O)oc2c(O)c1O
REMARK SMILES IDX 3 1 14 2 12 3 11 4 5 5 4 6 6 7 7 8 8 9 9 10 10 11 2 12 1 13
REMARK SMILES IDX 15 14 13 16
REMARK H PARENT 15 15 13 17
REMARK Flexibility Score: inf
ROOT
ATOM      1  C   UNL     1      12.663  16.997   9.742  1.00  0.00     0.165 A 
ATOM      2  C   UNL     1      13.060  16.929   8.391  1.00  0.00     0.204 A 
ATOM      3  C   UNL     1      14.421  17.017   8.047  1.00  0.00     0.205 A 
ATOM      4  C   UNL     1      15.388  17.173   9.047  1.00  0.00     0.184 A 
ATOM      5  C   UNL     1      14.995  17.242  10.400  1.00  0.00     0.025 A 
ATOM      6  C   UNL     1      13.641  17.153  10.744  1.00  0.00     0.062 A 
ATOM      7  C   UNL     1      15.987  17.398  11.376  1.00  0.00     0.020 A 
ATOM      8  C   UNL     1      17.323  17.481  10.988  1.00  0.00     0.094 A 
ATOM      9  C   UNL     1      17.639  17.406   9.627  1.00  0.00     0.336 A 
ATOM     10  O   UNL     1      18.839  17.479   9.256  1.00  0.00    -0.246 OA
ATOM     11  O   UNL     1      16.676  17.257   8.720  1.00  0.00    -0.419 OA
ENDROOT
BRANCH   1  12
ATOM     12  O   UNL     1      11.296  16.905  10.050  1.00  0.00    -0.493 OA
ATOM     13  C   UNL     1      10.770  16.267  11.209  1.00  0.00     0.278 C 
ENDBRANCH   1  12
BRANCH   2  14
ATOM     14  O   UNL     1      12.109  16.774   7.381  1.00  0.00    -0.502 OA
ATOM     15  H   UNL     1      11.156  16.490   7.572  1.00  0.00     0.293 HD
ENDBRANCH   2  14
BRANCH   3  16
ATOM     16  O   UNL     1      14.828  16.952   6.714  1.00  0.00    -0.502 OA
ATOM     17  H   UNL     1      14.552  16.194   6.101  1.00  0.00     0.293 HD
ENDBRANCH   3  16
TORSDOF 3
ENDMDL
MODEL 2
REMARK VINA RESULT:    -5.114      0.970      4.607
REMARK INTER + INTRA:          -5.765
REMARK INTER:                  -5.714
REMARK INTRA:                  -0.050
REMARK UNBOUND:                -0.052
REMARK SMILES COc1cc2ccc(=O)oc2c(O)c1O
REMARK SMILES IDX 3 1 14 2 12 3 11 4 5 5 4 6 6 7 7 8 8 9 9 10 10 11 2 12 1 13
REMARK SMILES IDX 15 14 13 16
REMARK H PARENT 15 15 13 17
REMARK Flexibility Score: inf
ROOT
ATOM      1  C   UNL     1      15.616  17.411   8.739  1.00  0.00     0.165 A 
ATOM      2  C   UNL     1      14.600  17.102   7.811  1.00  0.00     0.204 A 
ATOM      3  C   UNL     1      13.281  16.888   8.249  1.00  0.00     0.205 A 
ATOM      4  C   UNL     1      12.971  16.982   9.611  1.00  0.00     0.184 A 
ATOM      5  C   UNL     1      13.983  17.291  10.543  1.00  0.00     0.025 A 
ATOM      6  C   UNL     1      15.297  17.504  10.108  1.00  0.00     0.062 A 
ATOM      7  C   UNL     1      13.640  17.377  11.897  1.00  0.00     0.020 A 
ATOM      8  C   UNL     1      12.320  17.157  12.284  1.00  0.00     0.094 A 
ATOM      9  C   UNL     1      11.368  16.855  11.305  1.00  0.00     0.336 A 
ATOM     10  O   UNL     1      10.171  16.653  11.634  1.00  0.00    -0.246 OA
ATOM     11  O   UNL     1      11.721  16.779  10.024  1.00  0.00    -0.419 OA
ENDROOT
BRANCH   1  12
ATOM     12  O   UNL     1      16.922  17.619   8.267  1.00  0.00    -0.493 OA
ATOM     13  C   UNL     1      18.103  17.402   9.033  1.00  0.00     0.278 C 
ENDBRANCH   1  12
BRANCH   2  14
ATOM     14  O   UNL     1      14.892  17.005   6.449  1.00  0.00    -0.502 OA
ATOM     15  H   UNL     1      14.216  16.677   5.772  1.00  0.00     0.293 HD
ENDBRANCH   2  14
BRANCH   3  16
ATOM     16  O   UNL     1      12.266  16.582   7.341  1.00  0.00    -0.502 OA
ATOM     17  H   UNL     1      11.921  17.256   6.669  1.00  0.00     0.293 HD
ENDBRANCH   3  16
TORSDOF 3
ENDMDL
MODEL 3
REMARK VINA RESULT:    -5.067      1.282      2.004
REMARK INTER + INTRA:          -5.712
REMARK INTER:                  -5.663
REMARK INTRA:                  -0.049
REMARK UNBOUND:                -0.052
REMARK SMILES COc1cc2ccc(=O)oc2c(O)c1O
REMARK SMILES IDX 3 1 14 2 12 3 11 4 5 5 4 6 6 7 7 8 8 9 9 10 10 11 2 12 1 13
REMARK SMILES IDX 15 14 13 16
REMARK H PARENT 15 15 13 17
REMARK Flexibility Score: inf
ROOT
ATOM      1  C   UNL     1      14.044  17.016   9.041  1.00  0.00     0.165 A 
ATOM      2  C   UNL     1      15.100  17.123   8.113  1.00  0.00     0.204 A 
ATOM      3  C   UNL     1      16.417  17.339   8.560  1.00  0.00     0.205 A 
ATOM      4  C   UNL     1      16.683  17.448   9.930  1.00  0.00     0.184 A 
ATOM      5  C   UNL     1      15.630  17.341  10.861  1.00  0.00     0.025 A 
ATOM      6  C   UNL     1      14.319  17.126  10.418  1.00  0.00     0.062 A 
ATOM      7  C   UNL     1      15.930  17.455  12.224  1.00  0.00     0.020 A 
ATOM      8  C   UNL     1      17.249  17.669  12.619  1.00  0.00     0.094 A 
ATOM      9  C   UNL     1      18.243  17.765  11.640  1.00  0.00     0.336 A 
ATOM     10  O   UNL     1      19.439  17.958  11.975  1.00  0.00    -0.246 OA
ATOM     11  O   UNL     1      17.930  17.653  10.351  1.00  0.00    -0.419 OA
ENDROOT
BRANCH   1  12
ATOM     12  O   UNL     1      12.743  16.799   8.561  1.00  0.00    -0.493 OA
ATOM     13  C   UNL     1      11.556  17.001   9.322  1.00  0.00     0.278 C 
ENDBRANCH   1  12
BRANCH   2  14
ATOM     14  O   UNL     1      14.852  17.016   6.744  1.00  0.00    -0.502 OA
ATOM     15  H   UNL     1      15.367  16.381   6.147  1.00  0.00     0.293 HD
ENDBRANCH   2  14
BRANCH   3  16
ATOM     16  O   UNL     1      17.471  17.447   7.652  1.00  0.00    -0.502 OA
ATOM     17  H   UNL     1      18.421  17.642   7.948  1.00  0.00     0.293 HD
ENDBRANCH   3  16
TORSDOF 3
ENDMDL
MODEL 4
REMARK VINA RESULT:    -4.943      1.672      5.412
REMARK INTER + INTRA:          -5.573
REMARK INTER:                  -5.504
REMARK INTRA:                  -0.069
REMARK UNBOUND:                -0.052
REMARK SMILES COc1cc2ccc(=O)oc2c(O)c1O
REMARK SMILES IDX 3 1 14 2 12 3 11 4 5 5 4 6 6 7 7 8 8 9 9 10 10 11 2 12 1 13
REMARK SMILES IDX 15 14 13 16
REMARK H PARENT 15 15 13 17
REMARK Flexibility Score: inf
ROOT
ATOM      1  C   UNL     1      17.328  17.288   9.752  1.00  0.00     0.165 A 
ATOM      2  C   UNL     1      16.716  17.224  11.020  1.00  0.00     0.204 A 
ATOM      3  C   UNL     1      15.315  17.161  11.128  1.00  0.00     0.205 A 
ATOM      4  C   UNL     1      14.522  17.161   9.974  1.00  0.00     0.184 A 
ATOM      5  C   UNL     1      15.131  17.224   8.703  1.00  0.00     0.025 A 
ATOM      6  C   UNL     1      16.525  17.287   8.595  1.00  0.00     0.062 A 
ATOM      7  C   UNL     1      14.310  17.222   7.570  1.00  0.00     0.020 A 
ATOM      8  C   UNL     1      12.927  17.158   7.726  1.00  0.00     0.094 A 
ATOM      9  C   UNL     1      12.393  17.098   9.017  1.00  0.00     0.336 A 
ATOM     10  O   UNL     1      11.147  17.040   9.180  1.00  0.00    -0.246 OA
ATOM     11  O   UNL     1      13.196  17.101  10.078  1.00  0.00    -0.419 OA
ENDROOT
BRANCH   1  12
ATOM     12  O   UNL     1      18.729  17.349   9.680  1.00  0.00    -0.493 OA
ATOM     13  C   UNL     1      19.576  16.233   9.424  1.00  0.00     0.278 C 
ENDBRANCH   1  12
BRANCH   2  14
ATOM     14  O   UNL     1      17.492  17.224  12.181  1.00  0.00    -0.502 OA
ATOM     15  H   UNL     1      17.204  16.746  13.025  1.00  0.00     0.293 HD
ENDBRANCH   2  14
BRANCH   3  16
ATOM     16  O   UNL     1      14.696  17.098  12.377  1.00  0.00    -0.502 OA
ATOM     17  H   UNL     1      14.691  17.883  13.018  1.00  0.00     0.293 HD
ENDBRANCH   3  16
TORSDOF 3
ENDMDL
MODEL 5
REMARK VINA RESULT:    -4.839      2.049      3.197
REMARK INTER + INTRA:          -5.457
REMARK INTER:                  -5.408
REMARK INTRA:                  -0.049
REMARK UNBOUND:                -0.052
REMARK SMILES COc1cc2ccc(=O)oc2c(O)c1O
REMARK SMILES IDX 3 1 14 2 12 3 11 4 5 5 4 6 6 7 7 8 8 9 9 10 10 11 2 12 1 13
REMARK SMILES IDX 15 14 13 16
REMARK H PARENT 15 15 13 17
REMARK Flexibility Score: inf
ROOT
ATOM      1  C   UNL     1      12.800  17.039  10.310  1.00  0.00     0.165 A 
ATOM      2  C   UNL     1      12.809  17.421  11.668  1.00  0.00     0.204 A 
ATOM      3  C   UNL     1      14.024  17.716  12.313  1.00  0.00     0.205 A 
ATOM      4  C   UNL     1      15.230  17.632  11.608  1.00  0.00     0.184 A 
ATOM      5  C   UNL     1      15.226  17.251  10.250  1.00  0.00     0.025 A 
ATOM      6  C   UNL     1      14.017  16.957   9.607  1.00  0.00     0.062 A 
ATOM      7  C   UNL     1      16.449  17.177   9.574  1.00  0.00     0.020 A 
ATOM      8  C   UNL     1      17.627  17.479  10.254  1.00  0.00     0.094 A 
ATOM      9  C   UNL     1      17.556  17.849  11.601  1.00  0.00     0.336 A 
ATOM     10  O   UNL     1      18.607  18.125  12.233  1.00  0.00    -0.246 OA
ATOM     11  O   UNL     1      16.379  17.912  12.220  1.00  0.00    -0.419 OA
ENDROOT
BRANCH   1  12
ATOM     12  O   UNL     1      11.570  16.753   9.697  1.00  0.00    -0.493 OA
ATOM     13  C   UNL     1      11.426  16.161   8.410  1.00  0.00     0.278 C 
ENDBRANCH   1  12
BRANCH   2  14
ATOM     14  O   UNL     1      11.615  17.509  12.386  1.00  0.00    -0.502 OA
ATOM     15  H   UNL     1      10.802  16.952  12.156  1.00  0.00     0.293 HD
ENDBRANCH   2  14
BRANCH   3  16
ATOM     16  O   UNL     1      14.047  18.094  13.656  1.00  0.00    -0.502 OA
ATOM     17  H   UNL     1      13.200  18.224  14.196  1.00  0.00     0.293 HD
ENDBRANCH   3  16
TORSDOF 3
ENDMDL
MODEL 6
REMARK VINA RESULT:    -4.673     10.801     12.330
REMARK INTER + INTRA:          -5.272
REMARK INTER:                  -5.210
REMARK INTRA:                  -0.062
REMARK UNBOUND:                -0.052
REMARK SMILES COc1cc2ccc(=O)oc2c(O)c1O
REMARK SMILES IDX 3 1 14 2 12 3 11 4 5 5 4 6 6 7 7 8 8 9 9 10 10 11 2 12 1 13
REMARK SMILES IDX 15 14 13 16
REMARK H PARENT 15 15 13 17
REMARK Flexibility Score: inf
ROOT
ATOM      1  C   UNL     1      17.430  13.258  17.893  1.00  0.00     0.165 A 
ATOM      2  C   UNL     1      18.247  13.810  18.901  1.00  0.00     0.204 A 
ATOM      3  C   UNL     1      18.560  13.061  20.049  1.00  0.00     0.205 A 
ATOM      4  C   UNL     1      18.060  11.762  20.197  1.00  0.00     0.184 A 
ATOM      5  C   UNL     1      17.243  11.205  19.191  1.00  0.00     0.025 A 
ATOM      6  C   UNL     1      16.931  11.949  18.047  1.00  0.00     0.062 A 
ATOM      7  C   UNL     1      16.760   9.904  19.369  1.00  0.00     0.020 A 
ATOM      8  C   UNL     1      17.096   9.200  20.524  1.00  0.00     0.094 A 
ATOM      9  C   UNL     1      17.911   9.816  21.479  1.00  0.00     0.336 A 
ATOM     10  O   UNL     1      18.226   9.198  22.529  1.00  0.00    -0.246 OA
ATOM     11  O   UNL     1      18.357  11.055  21.285  1.00  0.00    -0.419 OA
ENDROOT
BRANCH   1  12
ATOM     12  O   UNL     1      17.138  14.032  16.759  1.00  0.00    -0.493 OA
ATOM     13  C   UNL     1      15.987  14.857  16.617  1.00  0.00     0.278 C 
ENDBRANCH   1  12
BRANCH   2  14
ATOM     14  O   UNL     1      18.753  15.105  18.770  1.00  0.00    -0.502 OA
ATOM     15  H   UNL     1      19.737  15.290  18.623  1.00  0.00     0.293 HD
ENDBRANCH   2  14
BRANCH   3  16
ATOM     16  O   UNL     1      19.367  13.597  21.055  1.00  0.00    -0.502 OA
ATOM     17  H   UNL     1      19.307  14.568  21.336  1.00  0.00     0.293 HD
ENDBRANCH   3  16
TORSDOF 3
ENDMDL
MODEL 7
REMARK VINA RESULT:    -4.627      3.537      5.330
REMARK INTER + INTRA:          -5.220
REMARK INTER:                  -5.153
REMARK INTRA:                  -0.067
REMARK UNBOUND:                -0.052
REMARK SMILES COc1cc2ccc(=O)oc2c(O)c1O
REMARK SMILES IDX 3 1 14 2 12 3 11 4 5 5 4 6 6 7 7 8 8 9 9 10 10 11 2 12 1 13
REMARK SMILES IDX 15 14 13 16
REMARK H PARENT 15 15 13 17
REMARK Flexibility Score: inf
ROOT
ATOM      1  C   UNL     1      13.915  16.823  12.320  1.00  0.00     0.165 A 
ATOM      2  C   UNL     1      12.524  17.007  12.186  1.00  0.00     0.204 A 
ATOM      3  C   UNL     1      11.748  16.063  11.487  1.00  0.00     0.205 A 
ATOM      4  C   UNL     1      12.357  14.937  10.922  1.00  0.00     0.184 A 
ATOM      5  C   UNL     1      13.748  14.749  11.053  1.00  0.00     0.025 A 
ATOM      6  C   UNL     1      14.521  15.687  11.749  1.00  0.00     0.062 A 
ATOM      7  C   UNL     1      14.326  13.612  10.476  1.00  0.00     0.020 A 
ATOM      8  C   UNL     1      13.518  12.705   9.793  1.00  0.00     0.094 A 
ATOM      9  C   UNL     1      12.145  12.956   9.702  1.00  0.00     0.336 A 
ATOM     10  O   UNL     1      11.398  12.150   9.090  1.00  0.00    -0.246 OA
ATOM     11  O   UNL     1      11.621  14.045  10.260  1.00  0.00    -0.419 OA
ENDROOT
BRANCH   1  12
ATOM     12  O   UNL     1      14.659  17.783  13.024  1.00  0.00    -0.493 OA
ATOM     13  C   UNL     1      15.261  17.566  14.296  1.00  0.00     0.278 C 
ENDBRANCH   1  12
BRANCH   2  14
ATOM     14  O   UNL     1      11.901  18.125  12.744  1.00  0.00    -0.502 OA
ATOM     15  H   UNL     1      11.914  18.313  13.738  1.00  0.00     0.293 HD
ENDBRANCH   2  14
BRANCH   3  16
ATOM     16  O   UNL     1      10.370  16.233  11.347  1.00  0.00    -0.502 OA
ATOM     17  H   UNL     1       9.904  17.096  11.600  1.00  0.00     0.293 HD
ENDBRANCH   3  16
TORSDOF 3
ENDMDL
MODEL 8
REMARK VINA RESULT:    -4.623      2.329      3.885
REMARK INTER + INTRA:          -5.216
REMARK INTER:                  -5.152
REMARK INTRA:                  -0.063
REMARK UNBOUND:                -0.052
REMARK SMILES COc1cc2ccc(=O)oc2c(O)c1O
REMARK SMILES IDX 3 1 14 2 12 3 11 4 5 5 4 6 6 7 7 8 8 9 9 10 10 11 2 12 1 13
REMARK SMILES IDX 15 14 13 16
REMARK H PARENT 15 15 13 17
REMARK Flexibility Score: inf
ROOT
ATOM      1  C   UNL     1      15.089  17.482  12.904  1.00  0.00     0.165 A 
ATOM      2  C   UNL     1      13.824  17.752  12.342  1.00  0.00     0.204 A 
ATOM      3  C   UNL     1      13.630  17.649  10.952  1.00  0.00     0.205 A 
ATOM      4  C   UNL     1      14.694  17.276  10.122  1.00  0.00     0.184 A 
ATOM      5  C   UNL     1      15.960  17.005  10.680  1.00  0.00     0.025 A 
ATOM      6  C   UNL     1      16.154  17.107  12.063  1.00  0.00     0.062 A 
ATOM      7  C   UNL     1      17.002  16.635   9.822  1.00  0.00     0.020 A 
ATOM      8  C   UNL     1      16.763  16.546   8.453  1.00  0.00     0.094 A 
ATOM      9  C   UNL     1      15.482  16.829   7.969  1.00  0.00     0.336 A 
ATOM     10  O   UNL     1      15.245  16.755   6.736  1.00  0.00    -0.246 OA
ATOM     11  O   UNL     1      14.508  17.179   8.807  1.00  0.00    -0.419 OA
ENDROOT
BRANCH   1  12
ATOM     12  O   UNL     1      15.247  17.594  14.295  1.00  0.00    -0.493 OA
ATOM     13  C   UNL     1      15.624  16.523  15.155  1.00  0.00     0.278 C 
ENDBRANCH   1  12
BRANCH   2  14
ATOM     14  O   UNL     1      12.753  18.125  13.156  1.00  0.00    -0.502 OA
ATOM     15  H   UNL     1      11.987  17.498  13.365  1.00  0.00     0.293 HD
ENDBRANCH   2  14
BRANCH   3  16
ATOM     16  O   UNL     1      12.384  17.914  10.382  1.00  0.00    -0.502 OA
ATOM     17  H   UNL     1      12.147  18.821   9.999  1.00  0.00     0.293 HD
ENDBRANCH   3  16
TORSDOF 3
ENDMDL
MODEL 9
REMARK VINA RESULT:    -4.529      1.893      4.910
REMARK INTER + INTRA:          -5.111
REMARK INTER:                  -5.043
REMARK INTRA:                  -0.069
REMARK UNBOUND:                -0.052
REMARK SMILES COc1cc2ccc(=O)oc2c(O)c1O
REMARK SMILES IDX 3 1 14 2 12 3 11 4 5 5 4 6 6 7 7 8 8 9 9 10 10 11 2 12 1 13
REMARK SMILES IDX 15 14 13 16
REMARK H PARENT 15 15 13 17
REMARK Flexibility Score: inf
ROOT
ATOM      1  C   UNL     1      17.996  17.387  10.045  1.00  0.00     0.165 A 
ATOM      2  C   UNL     1      17.042  17.285   9.011  1.00  0.00     0.204 A 
ATOM      3  C   UNL     1      15.671  17.421   9.296  1.00  0.00     0.205 A 
ATOM      4  C   UNL     1      15.248  17.658  10.609  1.00  0.00     0.184 A 
ATOM      5  C   UNL     1      16.199  17.760  11.646  1.00  0.00     0.025 A 
ATOM      6  C   UNL     1      17.563  17.626  11.364  1.00  0.00     0.062 A 
ATOM      7  C   UNL     1      15.743  17.998  12.948  1.00  0.00     0.020 A 
ATOM      8  C   UNL     1      14.375  18.125  13.182  1.00  0.00     0.094 A 
ATOM      9  C   UNL     1      13.490  18.011  12.106  1.00  0.00     0.336 A 
ATOM     10  O   UNL     1      12.251  18.123  12.296  1.00  0.00    -0.246 OA
ATOM     11  O   UNL     1      13.950  17.785  10.877  1.00  0.00    -0.419 OA
ENDROOT
BRANCH   1  12
ATOM     12  O   UNL     1      19.356  17.248   9.725  1.00  0.00    -0.493 OA
ATOM     13  C   UNL     1      20.103  16.045   9.875  1.00  0.00     0.278 C 
ENDBRANCH   1  12
BRANCH   2  14
ATOM     14  O   UNL     1      17.447  17.049   7.696  1.00  0.00    -0.502 OA
ATOM     15  H   UNL     1      17.169  17.646   6.927  1.00  0.00     0.293 HD
ENDBRANCH   2  14
BRANCH   3  16
ATOM     16  O   UNL     1      14.717  17.322   8.283  1.00  0.00    -0.502 OA
ATOM     17  H   UNL     1      14.409  16.430   7.915  1.00  0.00     0.293 HD
ENDBRANCH   3  16
TORSDOF 3
ENDMDL
