MODEL 1
REMARK VINA RESULT:    -4.779      0.000      0.000
REMARK INTER + INTRA:          -5.068
REMARK INTER:                  -5.338
REMARK INTRA:                   0.270
REMARK UNBOUND:                 0.270
REMARK SMILES C=C(C)[C@H]1CC[C@@]2(C(=O)[O-])CC[C@@]3(C)[C@H](CC[C@H]4[C@]5(C)CCC(=O)C(C)(C)[C@H]5CC[C@]43C)[C@H]12
REMARK SMILES IDX 7 1 6 2 33 3 11 4 5 5 15 6 4 7 12 8 16 9 13 10 17 11 31 12
REMARK SMILES IDX 14 13 18 14 30 15 32 16 19 17 29 18 21 19 20 20 28 21 22 22
REMARK SMILES IDX 25 23 23 24 26 25 27 26 24 27 8 28 9 29 10 30 2 31 3 32 1 33
REMARK H PARENT
REMARK Flexibility Score: inf
ROOT
ATOM      1  C   UNL     1      17.688  27.449  28.629  1.00  0.00     0.014 C 
ATOM      2  C   UNL     1      16.430  26.578  28.473  1.00  0.00     0.014 C 
ATOM      3  C   UNL     1      17.381  28.204  29.922  1.00  0.00     0.012 C 
ATOM      4  C   UNL     1      17.842  28.513  27.526  1.00  0.00     0.014 C 
ATOM      5  C   UNL     1      16.026  26.180  29.906  1.00  0.00     0.009 C 
ATOM      6  C   UNL     1      18.508  29.154  30.423  1.00  0.00     0.000 C 
ATOM      7  C   UNL     1      16.731  27.170  30.862  1.00  0.00     0.018 C 
ATOM      8  C   UNL     1      19.038  29.443  27.826  1.00  0.00     0.008 C 
ATOM      9  C   UNL     1      19.574  28.498  31.275  1.00  0.00     0.005 C 
ATOM     10  C   UNL     1      19.103  30.093  29.279  1.00  0.00    -0.024 C 
ATOM     11  C   UNL     1      20.415  29.551  31.993  1.00  0.00     0.005 C 
ATOM     12  C   UNL     1      20.632  30.596  29.614  1.00  0.00    -0.024 C 
ATOM     13  C   UNL     1      18.110  31.312  29.235  1.00  0.00     0.012 C 
ATOM     14  C   UNL     1      20.826  30.840  31.175  1.00  0.00     0.002 C 
ATOM     15  C   UNL     1      21.764  29.573  29.159  1.00  0.00     0.008 C 
ATOM     16  C   UNL     1      20.842  31.921  28.797  1.00  0.00     0.012 C 
ATOM     17  C   UNL     1      22.286  31.383  31.627  1.00  0.00    -0.025 C 
ATOM     18  C   UNL     1      23.041  29.498  30.050  1.00  0.00     0.006 C 
ATOM     19  C   UNL     1      22.378  32.938  31.582  1.00  0.00     0.015 C 
ATOM     20  C   UNL     1      22.563  31.002  33.124  1.00  0.00     0.012 C 
ATOM     21  C   UNL     1      23.397  30.873  30.644  1.00  0.00     0.008 C 
ATOM     22  C   UNL     1      23.799  33.490  31.891  1.00  0.00     0.077 C 
ATOM     23  C   UNL     1      24.877  31.132  31.101  1.00  0.00     0.027 C 
ATOM     24  C   UNL     1      24.971  32.522  31.744  1.00  0.00     0.138 C 
ATOM     25  C   UNL     1      25.407  30.055  32.087  1.00  0.00     0.020 C 
ATOM     26  C   UNL     1      25.820  31.133  29.866  1.00  0.00     0.020 C 
ATOM     27  O   UNL     1      26.048  32.876  32.203  1.00  0.00    -0.299 OA
ENDROOT
BRANCH   1  28
ATOM     28  C   UNL     1      18.902  26.521  28.692  1.00  0.00     0.048 C 
ATOM     29  O   UNL     1      20.019  26.900  28.252  1.00  0.00    -0.550 OA
ATOM     30  O   UNL     1      18.785  25.204  29.123  1.00  0.00    -0.550 OA
ENDBRANCH   1  28
BRANCH   7  31
ATOM     31  C   UNL     1      15.791  27.811  31.879  1.00  0.00    -0.077 C 
ATOM     32  C   UNL     1      14.340  28.065  31.559  1.00  0.00     0.039 C 
ATOM     33  C   UNL     1      16.268  28.223  33.063  1.00  0.00     0.008 C 
ENDBRANCH   7  31
TORSDOF 2
ENDMDL
MODEL 2
REMARK VINA RESULT:    -4.749      2.320      4.086
REMARK INTER + INTRA:          -5.034
REMARK INTER:                  -5.201
REMARK INTRA:                   0.167
REMARK UNBOUND:                 0.270
REMARK SMILES C=C(C)[C@H]1CC[C@@]2(C(=O)[O-])CC[C@@]3(C)[C@H](CC[C@H]4[C@]5(C)CCC(=O)C(C)(C)[C@H]5CC[C@]43C)[C@H]12
REMARK SMILES IDX 7 1 6 2 33 3 11 4 5 5 15 6 4 7 12 8 16 9 13 10 17 11 31 12
REMARK SMILES IDX 14 13 18 14 30 15 32 16 19 17 29 18 21 19 20 20 28 21 22 22
REMARK SMILES IDX 25 23 23 24 26 25 27 26 24 27 8 28 9 29 10 30 2 31 3 32 1 33
REMARK H PARENT
REMARK Flexibility Score: inf
ROOT
ATOM      1  C   UNL     1      18.136  29.730  31.020  1.00  0.00     0.014 C 
ATOM      2  C   UNL     1      16.603  29.800  30.937  1.00  0.00     0.014 C 
ATOM      3  C   UNL     1      18.548  30.791  30.002  1.00  0.00     0.012 C 
ATOM      4  C   UNL     1      18.720  28.394  30.522  1.00  0.00     0.014 C 
ATOM      5  C   UNL     1      16.272  31.287  30.709  1.00  0.00     0.009 C 
ATOM      6  C   UNL     1      20.082  31.035  29.876  1.00  0.00     0.000 C 
ATOM      7  C   UNL     1      17.568  31.962  30.203  1.00  0.00     0.018 C 
ATOM      8  C   UNL     1      20.263  28.448  30.494  1.00  0.00     0.008 C 
ATOM      9  C   UNL     1      20.662  32.022  30.867  1.00  0.00     0.005 C 
ATOM     10  C   UNL     1      20.931  29.691  29.754  1.00  0.00    -0.024 C 
ATOM     11  C   UNL     1      22.065  32.451  30.443  1.00  0.00     0.005 C 
ATOM     12  C   UNL     1      22.486  29.885  30.250  1.00  0.00    -0.024 C 
ATOM     13  C   UNL     1      20.872  29.343  28.221  1.00  0.00     0.012 C 
ATOM     14  C   UNL     1      23.029  31.334  29.876  1.00  0.00     0.002 C 
ATOM     15  C   UNL     1      22.693  29.699  31.817  1.00  0.00     0.008 C 
ATOM     16  C   UNL     1      23.315  28.760  29.530  1.00  0.00     0.012 C 
ATOM     17  C   UNL     1      24.573  31.632  30.276  1.00  0.00    -0.025 C 
ATOM     18  C   UNL     1      23.793  30.578  32.488  1.00  0.00     0.006 C 
ATOM     19  C   UNL     1      25.568  31.197  29.158  1.00  0.00     0.015 C 
ATOM     20  C   UNL     1      24.799  33.176  30.443  1.00  0.00     0.012 C 
ATOM     21  C   UNL     1      24.988  30.806  31.543  1.00  0.00     0.008 C 
ATOM     22  C   UNL     1      27.063  31.354  29.555  1.00  0.00     0.077 C 
ATOM     23  C   UNL     1      26.378  31.181  32.171  1.00  0.00     0.027 C 
ATOM     24  C   UNL     1      27.384  31.453  31.045  1.00  0.00     0.138 C 
ATOM     25  C   UNL     1      26.306  32.404  33.125  1.00  0.00     0.020 C 
ATOM     26  C   UNL     1      26.926  29.983  32.996  1.00  0.00     0.020 C 
ATOM     27  O   UNL     1      28.514  31.806  31.350  1.00  0.00    -0.299 OA
ENDROOT
BRANCH   1  28
ATOM     28  C   UNL     1      18.546  30.021  32.464  1.00  0.00     0.048 C 
ATOM     29  O   UNL     1      19.206  29.175  33.124  1.00  0.00    -0.550 OA
ATOM     30  O   UNL     1      18.107  31.163  33.125  1.00  0.00    -0.550 OA
ENDBRANCH   1  28
BRANCH   7  31
ATOM     31  C   UNL     1      17.371  32.788  28.934  1.00  0.00    -0.077 C 
ATOM     32  C   UNL     1      18.437  33.731  28.435  1.00  0.00     0.039 C 
ATOM     33  C   UNL     1      16.204  32.732  28.275  1.00  0.00     0.008 C 
ENDBRANCH   7  31
TORSDOF 2
ENDMDL
MODEL 3
REMARK VINA RESULT:    -4.691      3.841      6.541
REMARK INTER + INTRA:          -4.969
REMARK INTER:                  -5.546
REMARK INTRA:                   0.577
REMARK UNBOUND:                 0.270
REMARK SMILES C=C(C)[C@H]1CC[C@@]2(C(=O)[O-])CC[C@@]3(C)[C@H](CC[C@H]4[C@]5(C)CCC(=O)C(C)(C)[C@H]5CC[C@]43C)[C@H]12
REMARK SMILES IDX 7 1 6 2 33 3 11 4 5 5 15 6 4 7 12 8 16 9 13 10 17 11 31 12
REMARK SMILES IDX 14 13 18 14 30 15 32 16 19 17 29 18 21 19 20 20 28 21 22 22
REMARK SMILES IDX 25 23 23 24 26 25 27 26 24 27 8 28 9 29 10 30 2 31 3 32 1 33
REMARK H PARENT
REMARK Flexibility Score: inf
ROOT
ATOM      1  C   UNL     1      14.766  24.171  27.448  1.00  0.00     0.014 C 
ATOM      2  C   UNL     1      14.600  22.919  26.571  1.00  0.00     0.014 C 
ATOM      3  C   UNL     1      16.271  24.165  27.710  1.00  0.00     0.012 C 
ATOM      4  C   UNL     1      14.081  24.055  28.824  1.00  0.00     0.014 C 
ATOM      5  C   UNL     1      15.865  22.862  25.693  1.00  0.00     0.009 C 
ATOM      6  C   UNL     1      16.809  25.370  28.538  1.00  0.00     0.000 C 
ATOM      7  C   UNL     1      16.923  23.761  26.374  1.00  0.00     0.018 C 
ATOM      8  C   UNL     1      14.412  25.280  29.704  1.00  0.00     0.008 C 
ATOM      9  C   UNL     1      17.137  26.611  27.735  1.00  0.00     0.005 C 
ATOM     10  C   UNL     1      15.949  25.675  29.847  1.00  0.00    -0.024 C 
ATOM     11  C   UNL     1      17.970  27.585  28.565  1.00  0.00     0.005 C 
ATOM     12  C   UNL     1      16.096  27.235  30.344  1.00  0.00    -0.024 C 
ATOM     13  C   UNL     1      16.534  24.688  30.923  1.00  0.00     0.012 C 
ATOM     14  C   UNL     1      17.567  27.783  30.080  1.00  0.00     0.002 C 
ATOM     15  C   UNL     1      15.089  28.239  29.628  1.00  0.00     0.008 C 
ATOM     16  C   UNL     1      15.750  27.237  31.876  1.00  0.00     0.012 C 
ATOM     17  C   UNL     1      17.850  29.304  30.570  1.00  0.00    -0.025 C 
ATOM     18  C   UNL     1      15.605  29.689  29.377  1.00  0.00     0.006 C 
ATOM     19  C   UNL     1      18.313  29.369  32.056  1.00  0.00     0.015 C 
ATOM     20  C   UNL     1      19.033  29.925  29.747  1.00  0.00     0.012 C 
ATOM     21  C   UNL     1      16.538  30.161  30.508  1.00  0.00     0.008 C 
ATOM     22  C   UNL     1      18.477  30.818  32.598  1.00  0.00     0.077 C 
ATOM     23  C   UNL     1      16.725  31.704  30.730  1.00  0.00     0.027 C 
ATOM     24  C   UNL     1      17.762  31.933  31.837  1.00  0.00     0.138 C 
ATOM     25  C   UNL     1      17.150  32.459  29.441  1.00  0.00     0.020 C 
ATOM     26  C   UNL     1      15.390  32.334  31.216  1.00  0.00     0.020 C 
ATOM     27  O   UNL     1      18.071  33.083  32.113  1.00  0.00    -0.299 OA
ENDROOT
BRANCH   1  28
ATOM     28  C   UNL     1      14.248  25.375  26.659  1.00  0.00     0.048 C 
ATOM     29  O   UNL     1      14.250  25.361  25.400  1.00  0.00    -0.550 OA
ATOM     30  O   UNL     1      13.875  26.552  27.297  1.00  0.00    -0.550 OA
ENDBRANCH   1  28
BRANCH   7  31
ATOM     31  C   UNL     1      18.274  23.077  26.564  1.00  0.00    -0.077 C 
ATOM     32  C   UNL     1      19.517  23.866  26.890  1.00  0.00     0.039 C 
ATOM     33  C   UNL     1      18.386  21.754  26.375  1.00  0.00     0.008 C 
ENDBRANCH   7  31
TORSDOF 2
ENDMDL
MODEL 4
REMARK VINA RESULT:    -4.630      2.787      7.608
REMARK INTER + INTRA:          -4.901
REMARK INTER:                  -5.530
REMARK INTRA:                   0.629
REMARK UNBOUND:                 0.270
REMARK SMILES C=C(C)[C@H]1CC[C@@]2(C(=O)[O-])CC[C@@]3(C)[C@H](CC[C@H]4[C@]5(C)CCC(=O)C(C)(C)[C@H]5CC[C@]43C)[C@H]12
REMARK SMILES IDX 7 1 6 2 33 3 11 4 5 5 15 6 4 7 12 8 16 9 13 10 17 11 31 12
REMARK SMILES IDX 14 13 18 14 30 15 32 16 19 17 29 18 21 19 20 20 28 21 22 22
REMARK SMILES IDX 25 23 23 24 26 25 27 26 24 27 8 28 9 29 10 30 2 31 3 32 1 33
REMARK H PARENT
REMARK Flexibility Score: inf
ROOT
ATOM      1  C   UNL     1      24.635  31.337  31.409  1.00  0.00     0.014 C 
ATOM      2  C   UNL     1      26.122  30.954  31.325  1.00  0.00     0.014 C 
ATOM      3  C   UNL     1      24.118  30.860  30.053  1.00  0.00     0.012 C 
ATOM      4  C   UNL     1      24.393  32.858  31.459  1.00  0.00     0.014 C 
ATOM      5  C   UNL     1      26.160  29.627  30.542  1.00  0.00     0.009 C 
ATOM      6  C   UNL     1      22.588  31.038  29.822  1.00  0.00     0.000 C 
ATOM      7  C   UNL     1      24.811  29.508  29.797  1.00  0.00     0.018 C 
ATOM      8  C   UNL     1      22.883  33.173  31.392  1.00  0.00     0.008 C 
ATOM      9  C   UNL     1      21.720  29.913  30.345  1.00  0.00     0.005 C 
ATOM     10  C   UNL     1      22.051  32.487  30.219  1.00  0.00    -0.024 C 
ATOM     11  C   UNL     1      20.309  30.009  29.769  1.00  0.00     0.005 C 
ATOM     12  C   UNL     1      20.447  32.483  30.581  1.00  0.00    -0.024 C 
ATOM     13  C   UNL     1      22.335  33.360  28.942  1.00  0.00     0.012 C 
ATOM     14  C   UNL     1      19.657  31.445  29.667  1.00  0.00     0.002 C 
ATOM     15  C   UNL     1      20.126  32.110  32.094  1.00  0.00     0.008 C 
ATOM     16  C   UNL     1      19.945  33.953  30.343  1.00  0.00     0.012 C 
ATOM     17  C   UNL     1      18.053  31.381  29.899  1.00  0.00    -0.025 C 
ATOM     18  C   UNL     1      18.807  31.321  32.357  1.00  0.00     0.006 C 
ATOM     19  C   UNL     1      17.287  32.419  29.025  1.00  0.00     0.015 C 
ATOM     20  C   UNL     1      17.498  29.983  29.452  1.00  0.00     0.012 C 
ATOM     21  C   UNL     1      17.692  31.743  31.382  1.00  0.00     0.008 C 
ATOM     22  C   UNL     1      15.759  32.471  29.309  1.00  0.00     0.077 C 
ATOM     23  C   UNL     1      16.199  31.490  31.797  1.00  0.00     0.027 C 
ATOM     24  C   UNL     1      15.277  31.898  30.641  1.00  0.00     0.138 C 
ATOM     25  C   UNL     1      15.920  30.016  32.202  1.00  0.00     0.020 C 
ATOM     26  C   UNL     1      15.829  32.382  33.014  1.00  0.00     0.020 C 
ATOM     27  O   UNL     1      14.073  31.725  30.770  1.00  0.00    -0.299 OA
ENDROOT
BRANCH   1  28
ATOM     28  C   UNL     1      24.031  30.628  32.621  1.00  0.00     0.048 C 
ATOM     29  O   UNL     1      24.603  29.625  33.125  1.00  0.00    -0.550 OA
ATOM     30  O   UNL     1      22.786  30.989  33.125  1.00  0.00    -0.550 OA
ENDBRANCH   1  28
BRANCH   7  31
ATOM     31  C   UNL     1      24.960  29.197  28.310  1.00  0.00    -0.077 C 
ATOM     32  C   UNL     1      23.865  28.506  27.536  1.00  0.00     0.039 C 
ATOM     33  C   UNL     1      26.110  29.479  27.680  1.00  0.00     0.008 C 
ENDBRANCH   7  31
TORSDOF 2
ENDMDL
MODEL 5
REMARK VINA RESULT:    -4.439      2.004      3.890
REMARK INTER + INTRA:          -4.688
REMARK INTER:                  -5.008
REMARK INTRA:                   0.320
REMARK UNBOUND:                 0.270
REMARK SMILES C=C(C)[C@H]1CC[C@@]2(C(=O)[O-])CC[C@@]3(C)[C@H](CC[C@H]4[C@]5(C)CCC(=O)C(C)(C)[C@H]5CC[C@]43C)[C@H]12
REMARK SMILES IDX 7 1 6 2 33 3 11 4 5 5 15 6 4 7 12 8 16 9 13 10 17 11 31 12
REMARK SMILES IDX 14 13 18 14 30 15 32 16 19 17 29 18 21 19 20 20 28 21 22 22
REMARK SMILES IDX 25 23 23 24 26 25 27 26 24 27 8 28 9 29 10 30 2 31 3 32 1 33
REMARK H PARENT
REMARK Flexibility Score: inf
ROOT
ATOM      1  C   UNL     1      18.349  29.753  30.089  1.00  0.00     0.014 C 
ATOM      2  C   UNL     1      17.001  29.137  29.681  1.00  0.00     0.014 C 
ATOM      3  C   UNL     1      19.262  28.529  30.078  1.00  0.00     0.012 C 
ATOM      4  C   UNL     1      18.365  30.299  31.530  1.00  0.00     0.014 C 
ATOM      5  C   UNL     1      17.345  28.036  28.660  1.00  0.00     0.009 C 
ATOM      6  C   UNL     1      20.762  28.812  30.391  1.00  0.00     0.000 C 
ATOM      7  C   UNL     1      18.847  27.713  28.839  1.00  0.00     0.018 C 
ATOM      8  C   UNL     1      19.785  30.765  31.922  1.00  0.00     0.008 C 
ATOM      9  C   UNL     1      21.603  29.225  29.202  1.00  0.00     0.005 C 
ATOM     10  C   UNL     1      20.978  29.740  31.670  1.00  0.00    -0.024 C 
ATOM     11  C   UNL     1      23.090  29.136  29.537  1.00  0.00     0.005 C 
ATOM     12  C   UNL     1      22.417  30.535  31.631  1.00  0.00    -0.024 C 
ATOM     13  C   UNL     1      20.927  28.736  32.880  1.00  0.00     0.012 C 
ATOM     14  C   UNL     1      23.549  29.636  30.964  1.00  0.00     0.002 C 
ATOM     15  C   UNL     1      22.376  31.907  30.826  1.00  0.00     0.008 C 
ATOM     16  C   UNL     1      22.765  30.877  33.125  1.00  0.00     0.012 C 
ATOM     17  C   UNL     1      25.030  30.296  30.908  1.00  0.00    -0.025 C 
ATOM     18  C   UNL     1      23.672  32.309  30.058  1.00  0.00     0.006 C 
ATOM     19  C   UNL     1      25.854  30.012  32.199  1.00  0.00     0.015 C 
ATOM     20  C   UNL     1      25.863  29.654  29.743  1.00  0.00     0.012 C 
ATOM     21  C   UNL     1      24.938  31.859  30.812  1.00  0.00     0.008 C 
ATOM     22  C   UNL     1      27.233  30.730  32.234  1.00  0.00     0.077 C 
ATOM     23  C   UNL     1      26.290  32.601  30.514  1.00  0.00     0.027 C 
ATOM     24  C   UNL     1      27.420  31.926  31.301  1.00  0.00     0.138 C 
ATOM     25  C   UNL     1      26.645  32.638  29.002  1.00  0.00     0.020 C 
ATOM     26  C   UNL     1      26.205  34.073  31.005  1.00  0.00     0.020 C 
ATOM     27  O   UNL     1      28.559  32.345  31.154  1.00  0.00    -0.299 OA
ENDROOT
BRANCH   1  28
ATOM     28  C   UNL     1      18.702  30.838  29.071  1.00  0.00     0.048 C 
ATOM     29  O   UNL     1      18.433  32.046  29.305  1.00  0.00    -0.550 OA
ATOM     30  O   UNL     1      19.216  30.516  27.820  1.00  0.00    -0.550 OA
ENDBRANCH   1  28
BRANCH   7  31
ATOM     31  C   UNL     1      19.136  26.222  28.994  1.00  0.00    -0.077 C 
ATOM     32  C   UNL     1      20.516  25.719  29.334  1.00  0.00     0.039 C 
ATOM     33  C   UNL     1      18.166  25.325  28.761  1.00  0.00     0.008 C 
ENDBRANCH   7  31
TORSDOF 2
ENDMDL
MODEL 6
REMARK VINA RESULT:    -4.246      2.170      8.066
REMARK INTER + INTRA:          -4.472
REMARK INTER:                  -4.881
REMARK INTRA:                   0.408
REMARK UNBOUND:                 0.270
REMARK SMILES C=C(C)[C@H]1CC[C@@]2(C(=O)[O-])CC[C@@]3(C)[C@H](CC[C@H]4[C@]5(C)CCC(=O)C(C)(C)[C@H]5CC[C@]43C)[C@H]12
REMARK SMILES IDX 7 1 6 2 33 3 11 4 5 5 15 6 4 7 12 8 16 9 13 10 17 11 31 12
REMARK SMILES IDX 14 13 18 14 30 15 32 16 19 17 29 18 21 19 20 20 28 21 22 22
REMARK SMILES IDX 25 23 23 24 26 25 27 26 24 27 8 28 9 29 10 30 2 31 3 32 1 33
REMARK H PARENT
REMARK Flexibility Score: inf
ROOT
ATOM      1  C   UNL     1      21.468  30.712  31.370  1.00  0.00     0.014 C 
ATOM      2  C   UNL     1      22.796  31.413  31.702  1.00  0.00     0.014 C 
ATOM      3  C   UNL     1      21.852  29.895  30.137  1.00  0.00     0.012 C 
ATOM      4  C   UNL     1      20.355  31.679  30.925  1.00  0.00     0.014 C 
ATOM      5  C   UNL     1      23.896  30.388  31.364  1.00  0.00     0.009 C 
ATOM      6  C   UNL     1      20.725  28.986  29.562  1.00  0.00     0.000 C 
ATOM      7  C   UNL     1      23.256  29.334  30.431  1.00  0.00     0.018 C 
ATOM      8  C   UNL     1      19.103  30.900  30.467  1.00  0.00     0.008 C 
ATOM      9  C   UNL     1      20.605  27.621  30.204  1.00  0.00     0.005 C 
ATOM     10  C   UNL     1      19.325  29.735  29.403  1.00  0.00    -0.024 C 
ATOM     11  C   UNL     1      19.732  26.700  29.355  1.00  0.00     0.005 C 
ATOM     12  C   UNL     1      18.053  28.694  29.420  1.00  0.00    -0.024 C 
ATOM     13  C   UNL     1      19.438  30.458  28.011  1.00  0.00     0.012 C 
ATOM     14  C   UNL     1      18.429  27.319  28.710  1.00  0.00     0.002 C 
ATOM     15  C   UNL     1      17.529  28.336  30.880  1.00  0.00     0.008 C 
ATOM     16  C   UNL     1      16.883  29.425  28.668  1.00  0.00     0.012 C 
ATOM     17  C   UNL     1      17.237  26.222  28.623  1.00  0.00    -0.025 C 
ATOM     18  C   UNL     1      16.971  26.895  31.091  1.00  0.00     0.006 C 
ATOM     19  C   UNL     1      16.359  26.402  27.349  1.00  0.00     0.015 C 
ATOM     20  C   UNL     1      17.840  24.778  28.501  1.00  0.00     0.012 C 
ATOM     21  C   UNL     1      16.250  26.378  29.832  1.00  0.00     0.008 C 
ATOM     22  C   UNL     1      15.133  25.447  27.293  1.00  0.00     0.077 C 
ATOM     23  C   UNL     1      15.190  25.231  29.994  1.00  0.00     0.027 C 
ATOM     24  C   UNL     1      14.678  24.817  28.608  1.00  0.00     0.138 C 
ATOM     25  C   UNL     1      15.744  23.991  30.747  1.00  0.00     0.020 C 
ATOM     26  C   UNL     1      13.966  25.752  30.798  1.00  0.00     0.020 C 
ATOM     27  O   UNL     1      13.875  23.898  28.538  1.00  0.00    -0.299 OA
ENDROOT
BRANCH   1  28
ATOM     28  C   UNL     1      21.049  29.890  32.589  1.00  0.00     0.048 C 
ATOM     29  O   UNL     1      21.855  29.082  33.123  1.00  0.00    -0.550 OA
ATOM     30  O   UNL     1      19.744  29.919  33.068  1.00  0.00    -0.550 OA
ENDBRANCH   1  28
BRANCH   7  31
ATOM     31  C   UNL     1      24.062  29.074  29.161  1.00  0.00    -0.077 C 
ATOM     32  C   UNL     1      23.617  28.057  28.141  1.00  0.00     0.039 C 
ATOM     33  C   UNL     1      25.228  29.709  28.967  1.00  0.00     0.008 C 
ENDBRANCH   7  31
TORSDOF 2
ENDMDL
MODEL 7
REMARK VINA RESULT:    -3.894      2.728      7.149
REMARK INTER + INTRA:          -4.080
REMARK INTER:                  -4.674
REMARK INTRA:                   0.594
REMARK UNBOUND:                 0.270
REMARK SMILES C=C(C)[C@H]1CC[C@@]2(C(=O)[O-])CC[C@@]3(C)[C@H](CC[C@H]4[C@]5(C)CCC(=O)C(C)(C)[C@H]5CC[C@]43C)[C@H]12
REMARK SMILES IDX 7 1 6 2 33 3 11 4 5 5 15 6 4 7 12 8 16 9 13 10 17 11 31 12
REMARK SMILES IDX 14 13 18 14 30 15 32 16 19 17 29 18 21 19 20 20 28 21 22 22
REMARK SMILES IDX 25 23 23 24 26 25 27 26 24 27 8 28 9 29 10 30 2 31 3 32 1 33
REMARK H PARENT
REMARK Flexibility Score: inf
ROOT
ATOM      1  C   UNL     1      23.812  28.396  29.128  1.00  0.00     0.014 C 
ATOM      2  C   UNL     1      25.272  28.077  28.764  1.00  0.00     0.014 C 
ATOM      3  C   UNL     1      23.981  29.610  30.040  1.00  0.00     0.012 C 
ATOM      4  C   UNL     1      23.135  27.302  29.976  1.00  0.00     0.014 C 
ATOM      5  C   UNL     1      25.974  29.444  28.651  1.00  0.00     0.009 C 
ATOM      6  C   UNL     1      22.656  30.249  30.551  1.00  0.00     0.000 C 
ATOM      7  C   UNL     1      25.081  30.469  29.388  1.00  0.00     0.018 C 
ATOM      8  C   UNL     1      21.729  27.752  30.428  1.00  0.00     0.008 C 
ATOM      9  C   UNL     1      22.027  31.264  29.620  1.00  0.00     0.005 C 
ATOM     10  C   UNL     1      21.614  29.183  31.119  1.00  0.00    -0.024 C 
ATOM     11  C   UNL     1      20.955  32.073  30.348  1.00  0.00     0.005 C 
ATOM     12  C   UNL     1      20.064  29.727  31.056  1.00  0.00    -0.024 C 
ATOM     13  C   UNL     1      22.070  28.964  32.608  1.00  0.00     0.012 C 
ATOM     14  C   UNL     1      19.995  31.293  31.333  1.00  0.00     0.002 C 
ATOM     15  C   UNL     1      19.344  29.468  29.661  1.00  0.00     0.008 C 
ATOM     16  C   UNL     1      19.275  28.918  32.148  1.00  0.00     0.012 C 
ATOM     17  C   UNL     1      18.509  31.943  31.342  1.00  0.00    -0.025 C 
ATOM     18  C   UNL     1      18.310  30.539  29.195  1.00  0.00     0.006 C 
ATOM     19  C   UNL     1      17.842  31.873  32.748  1.00  0.00     0.015 C 
ATOM     20  C   UNL     1      18.586  33.473  31.002  1.00  0.00     0.012 C 
ATOM     21  C   UNL     1      17.550  31.146  30.389  1.00  0.00     0.008 C 
ATOM     22  C   UNL     1      16.370  32.375  32.769  1.00  0.00     0.077 C 
ATOM     23  C   UNL     1      16.151  31.810  30.127  1.00  0.00     0.027 C 
ATOM     24  C   UNL     1      15.631  32.426  31.432  1.00  0.00     0.138 C 
ATOM     25  C   UNL     1      16.188  32.889  29.010  1.00  0.00     0.020 C 
ATOM     26  C   UNL     1      15.125  30.727  29.690  1.00  0.00     0.020 C 
ATOM     27  O   UNL     1      14.568  33.030  31.405  1.00  0.00    -0.299 OA
ENDROOT
BRANCH   1  28
ATOM     28  C   UNL     1      23.047  28.659  27.830  1.00  0.00     0.048 C 
ATOM     29  O   UNL     1      21.806  28.869  27.852  1.00  0.00    -0.550 OA
ATOM     30  O   UNL     1      23.669  28.559  26.590  1.00  0.00    -0.550 OA
ENDBRANCH   1  28
BRANCH   7  31
ATOM     31  C   UNL     1      25.839  31.321  30.403  1.00  0.00    -0.077 C 
ATOM     32  C   UNL     1      26.475  30.710  31.626  1.00  0.00     0.039 C 
ATOM     33  C   UNL     1      25.892  32.653  30.250  1.00  0.00     0.008 C 
ENDBRANCH   7  31
TORSDOF 2
ENDMDL
