MODEL 1
REMARK VINA RESULT:    -5.672      0.000      0.000
REMARK INTER + INTRA:          -6.169
REMARK INTER:                  -6.169
REMARK INTRA:                   0.000
REMARK UNBOUND:                 0.000
REMARK SMILES Cc1cc(O)c2c(c1)C(=O)c1cc(O)cc(O)c1C2=O
REMARK SMILES IDX 1 1 2 2 8 3 7 4 6 5 4 6 3 7 19 8 20 9 18 10 11 11 9 12 10 13
REMARK SMILES IDX 12 14 13 15 15 16 16 17 5 18 17 20 14 22
REMARK H PARENT 5 19 17 21 14 23
REMARK Flexibility Score: inf
ROOT
ATOM      1  C   UNL     1     134.715 -41.451  26.306  1.00  0.00     0.044 C 
ATOM      2  C   UNL     1     133.370 -41.295  26.953  1.00  0.00    -0.047 A 
ATOM      3  C   UNL     1     133.214 -40.448  28.055  1.00  0.00     0.016 A 
ATOM      4  C   UNL     1     131.965 -40.317  28.686  1.00  0.00     0.038 A 
ATOM      5  C   UNL     1     130.855 -41.045  28.205  1.00  0.00     0.076 A 
ATOM      6  C   UNL     1     131.040 -41.966  27.141  1.00  0.00     0.127 A 
ATOM      7  C   UNL     1     132.287 -42.064  26.517  1.00  0.00     0.050 A 
ATOM      8  C   UNL     1     129.522 -40.770  28.801  1.00  0.00     0.201 C 
ATOM      9  O   UNL     1     128.483 -40.910  28.103  1.00  0.00    -0.288 OA
ATOM     10  C   UNL     1     129.429 -40.152  30.149  1.00  0.00     0.076 A 
ATOM     11  C   UNL     1     130.543 -39.426  30.629  1.00  0.00     0.041 A 
ATOM     12  C   UNL     1     131.809 -39.422  29.858  1.00  0.00     0.194 C 
ATOM     13  O   UNL     1     132.763 -38.677  30.215  1.00  0.00    -0.289 OA
ATOM     14  C   UNL     1     130.447 -38.714  31.837  1.00  0.00     0.059 A 
ATOM     15  C   UNL     1     129.265 -38.730  32.576  1.00  0.00     0.120 A 
ATOM     16  C   UNL     1     128.174 -39.479  32.127  1.00  0.00     0.093 A 
ATOM     17  C   UNL     1     128.251 -40.213  30.938  1.00  0.00     0.131 A 
ENDROOT
BRANCH   6  18
ATOM     18  O   UNL     1     130.028 -42.822  26.700  1.00  0.00    -0.507 OA
ATOM     19  H   UNL     1     129.155 -42.954  27.191  1.00  0.00     0.293 HD
ENDBRANCH   6  18
BRANCH  17  20
ATOM     20  O   UNL     1     127.155 -41.010  30.601  1.00  0.00    -0.507 OA
ATOM     21  H   UNL     1     127.182 -41.723  29.885  1.00  0.00     0.293 HD
ENDBRANCH  17  20
BRANCH  15  22
ATOM     22  O   UNL     1     129.188 -38.006  33.764  1.00  0.00    -0.508 OA
ATOM     23  H   UNL     1     129.641 -38.327  34.611  1.00  0.00     0.293 HD
ENDBRANCH  15  22
TORSDOF 3
ENDMDL
MODEL 2
REMARK VINA RESULT:    -5.642      3.473      6.173
REMARK INTER + INTRA:          -6.136
REMARK INTER:                  -6.136
REMARK INTRA:                   0.000
REMARK UNBOUND:                 0.000
REMARK SMILES Cc1cc(O)c2c(c1)C(=O)c1cc(O)cc(O)c1C2=O
REMARK SMILES IDX 1 1 2 2 8 3 7 4 6 5 4 6 3 7 19 8 20 9 18 10 11 11 9 12 10 13
REMARK SMILES IDX 12 14 13 15 15 16 16 17 5 18 17 20 14 22
REMARK H PARENT 5 19 17 21 14 23
REMARK Flexibility Score: inf
ROOT
ATOM      1  C   UNL     1     129.254 -43.105  37.284  1.00  0.00     0.044 C 
ATOM      2  C   UNL     1     128.733 -42.704  35.935  1.00  0.00    -0.047 A 
ATOM      3  C   UNL     1     129.533 -41.952  35.067  1.00  0.00     0.016 A 
ATOM      4  C   UNL     1     129.044 -41.548  33.813  1.00  0.00     0.038 A 
ATOM      5  C   UNL     1     127.735 -41.902  33.422  1.00  0.00     0.076 A 
ATOM      6  C   UNL     1     126.900 -42.591  34.340  1.00  0.00     0.127 A 
ATOM      7  C   UNL     1     127.415 -43.000  35.574  1.00  0.00     0.050 A 
ATOM      8  C   UNL     1     127.306 -41.586  32.034  1.00  0.00     0.201 C 
ATOM      9  O   UNL     1     126.463 -42.322  31.456  1.00  0.00    -0.288 OA
ATOM     10  C   UNL     1     128.008 -40.523  31.269  1.00  0.00     0.076 A 
ATOM     11  C   UNL     1     129.317 -40.169  31.666  1.00  0.00     0.041 A 
ATOM     12  C   UNL     1     129.896 -40.746  32.902  1.00  0.00     0.194 C 
ATOM     13  O   UNL     1     131.105 -40.533  33.193  1.00  0.00    -0.289 OA
ATOM     14  C   UNL     1     130.064 -39.268  30.887  1.00  0.00     0.059 A 
ATOM     15  C   UNL     1     129.519 -38.707  29.733  1.00  0.00     0.120 A 
ATOM     16  C   UNL     1     128.210 -39.022  29.359  1.00  0.00     0.093 A 
ATOM     17  C   UNL     1     127.438 -39.900  30.128  1.00  0.00     0.131 A 
ENDROOT
BRANCH   6  18
ATOM     18  O   UNL     1     125.553 -42.855  34.084  1.00  0.00    -0.507 OA
ATOM     19  H   UNL     1     125.022 -43.566  34.566  1.00  0.00     0.293 HD
ENDBRANCH   6  18
BRANCH  17  20
ATOM     20  O   UNL     1     126.110 -40.095  29.744  1.00  0.00    -0.507 OA
ATOM     21  H   UNL     1     125.508 -39.354  29.414  1.00  0.00     0.293 HD
ENDBRANCH  17  20
BRANCH  15  22
ATOM     22  O   UNL     1     130.283 -37.827  28.970  1.00  0.00    -0.508 OA
ATOM     23  H   UNL     1     131.107 -38.138  28.468  1.00  0.00     0.293 HD
ENDBRANCH  15  22
TORSDOF 3
ENDMDL
MODEL 3
REMARK VINA RESULT:    -5.329      2.047      3.617
REMARK INTER + INTRA:          -5.797
REMARK INTER:                  -5.797
REMARK INTRA:                   0.000
REMARK UNBOUND:                 0.000
REMARK SMILES Cc1cc(O)c2c(c1)C(=O)c1cc(O)cc(O)c1C2=O
REMARK SMILES IDX 1 1 2 2 8 3 7 4 6 5 4 6 3 7 19 8 20 9 18 10 11 11 9 12 10 13
REMARK SMILES IDX 12 14 13 15 15 16 16 17 5 18 17 20 14 22
REMARK H PARENT 5 19 17 21 14 23
REMARK Flexibility Score: inf
ROOT
ATOM      1  C   UNL     1     128.257 -43.095  25.875  1.00  0.00     0.044 C 
ATOM      2  C   UNL     1     129.005 -42.644  27.096  1.00  0.00    -0.047 A 
ATOM      3  C   UNL     1     128.364 -41.867  28.067  1.00  0.00     0.016 A 
ATOM      4  C   UNL     1     129.063 -41.417  29.199  1.00  0.00     0.038 A 
ATOM      5  C   UNL     1     130.426 -41.749  29.363  1.00  0.00     0.076 A 
ATOM      6  C   UNL     1     131.092 -42.466  28.334  1.00  0.00     0.127 A 
ATOM      7  C   UNL     1     130.370 -42.920  27.226  1.00  0.00     0.050 A 
ATOM      8  C   UNL     1     131.091 -41.383  30.640  1.00  0.00     0.201 C 
ATOM      9  O   UNL     1     132.032 -42.093  31.083  1.00  0.00    -0.288 OA
ATOM     10  C   UNL     1     130.525 -40.297  31.482  1.00  0.00     0.076 A 
ATOM     11  C   UNL     1     129.161 -39.965  31.314  1.00  0.00     0.041 A 
ATOM     12  C   UNL     1     128.379 -40.588  30.220  1.00  0.00     0.194 C 
ATOM     13  O   UNL     1     127.135 -40.391  30.143  1.00  0.00    -0.289 OA
ATOM     14  C   UNL     1     128.554 -39.041  32.182  1.00  0.00     0.059 A 
ATOM     15  C   UNL     1     129.290 -38.437  33.201  1.00  0.00     0.120 A 
ATOM     16  C   UNL     1     130.649 -38.732  33.346  1.00  0.00     0.093 A 
ATOM     17  C   UNL     1     131.281 -39.632  32.482  1.00  0.00     0.131 A 
ENDROOT
BRANCH   6  18
ATOM     18  O   UNL     1     132.466 -42.714  28.355  1.00  0.00    -0.507 OA
ATOM     19  H   UNL     1     132.981 -42.932  29.196  1.00  0.00     0.293 HD
ENDBRANCH   6  18
BRANCH  17  20
ATOM     20  O   UNL     1     132.659 -39.807  32.629  1.00  0.00    -0.507 OA
ATOM     21  H   UNL     1     133.073 -40.463  33.277  1.00  0.00     0.293 HD
ENDBRANCH  17  20
BRANCH  15  22
ATOM     22  O   UNL     1     128.664 -37.535  34.059  1.00  0.00    -0.508 OA
ATOM     23  H   UNL     1     127.787 -37.092  33.813  1.00  0.00     0.293 HD
ENDBRANCH  15  22
TORSDOF 3
ENDMDL
MODEL 4
REMARK VINA RESULT:    -5.308      3.353      5.211
REMARK INTER + INTRA:          -5.774
REMARK INTER:                  -5.774
REMARK INTRA:                   0.000
REMARK UNBOUND:                 0.000
REMARK SMILES Cc1cc(O)c2c(c1)C(=O)c1cc(O)cc(O)c1C2=O
REMARK SMILES IDX 1 1 2 2 8 3 7 4 6 5 4 6 3 7 19 8 20 9 18 10 11 11 9 12 10 13
REMARK SMILES IDX 12 14 13 15 15 16 16 17 5 18 17 20 14 22
REMARK H PARENT 5 19 17 21 14 23
REMARK Flexibility Score: inf
ROOT
ATOM      1  C   UNL     1     133.747 -43.125  34.147  1.00  0.00     0.044 C 
ATOM      2  C   UNL     1     132.339 -42.684  33.867  1.00  0.00    -0.047 A 
ATOM      3  C   UNL     1     132.010 -42.126  32.628  1.00  0.00     0.016 A 
ATOM      4  C   UNL     1     130.702 -41.686  32.366  1.00  0.00     0.038 A 
ATOM      5  C   UNL     1     129.708 -41.804  33.361  1.00  0.00     0.076 A 
ATOM      6  C   UNL     1     130.068 -42.292  34.644  1.00  0.00     0.127 A 
ATOM      7  C   UNL     1     131.371 -42.744  34.874  1.00  0.00     0.050 A 
ATOM      8  C   UNL     1     128.306 -41.466  33.000  1.00  0.00     0.201 C 
ATOM      9  O   UNL     1     127.352 -42.054  33.574  1.00  0.00    -0.288 OA
ATOM     10  C   UNL     1     128.038 -40.580  31.837  1.00  0.00     0.076 A 
ATOM     11  C   UNL     1     129.036 -40.460  30.844  1.00  0.00     0.041 A 
ATOM     12  C   UNL     1     130.363 -41.089  31.052  1.00  0.00     0.194 C 
ATOM     13  O   UNL     1     131.212 -41.092  30.118  1.00  0.00    -0.289 OA
ATOM     14  C   UNL     1     128.769 -39.743  29.666  1.00  0.00     0.059 A 
ATOM     15  C   UNL     1     127.529 -39.134  29.473  1.00  0.00     0.120 A 
ATOM     16  C   UNL     1     126.553 -39.215  30.469  1.00  0.00     0.093 A 
ATOM     17  C   UNL     1     126.802 -39.905  31.660  1.00  0.00     0.131 A 
ENDROOT
BRANCH   6  18
ATOM     18  O   UNL     1     129.179 -42.312  35.721  1.00  0.00    -0.507 OA
ATOM     19  H   UNL     1     129.468 -42.229  36.686  1.00  0.00     0.293 HD
ENDBRANCH   6  18
BRANCH  17  20
ATOM     20  O   UNL     1     125.814 -39.865  32.647  1.00  0.00    -0.507 OA
ATOM     21  H   UNL     1     124.899 -39.460  32.506  1.00  0.00     0.293 HD
ENDBRANCH  17  20
BRANCH  15  22
ATOM     22  O   UNL     1     127.281 -38.439  28.291  1.00  0.00    -0.508 OA
ATOM     23  H   UNL     1     128.032 -38.018  27.756  1.00  0.00     0.293 HD
ENDBRANCH  15  22
TORSDOF 3
ENDMDL
MODEL 5
REMARK VINA RESULT:    -5.262      2.015      6.170
REMARK INTER + INTRA:          -5.723
REMARK INTER:                  -5.723
REMARK INTRA:                   0.000
REMARK UNBOUND:                 0.000
REMARK SMILES Cc1cc(O)c2c(c1)C(=O)c1cc(O)cc(O)c1C2=O
REMARK SMILES IDX 1 1 2 2 8 3 7 4 6 5 4 6 3 7 19 8 20 9 18 10 11 11 9 12 10 13
REMARK SMILES IDX 12 14 13 15 15 16 16 17 5 18 17 20 14 22
REMARK H PARENT 5 19 17 21 14 23
REMARK Flexibility Score: inf
ROOT
ATOM      1  C   UNL     1     125.069 -43.125  31.726  1.00  0.00     0.044 C 
ATOM      2  C   UNL     1     126.267 -42.285  31.389  1.00  0.00    -0.047 A 
ATOM      3  C   UNL     1     126.984 -42.522  30.212  1.00  0.00     0.016 A 
ATOM      4  C   UNL     1     128.123 -41.760  29.902  1.00  0.00     0.038 A 
ATOM      5  C   UNL     1     128.551 -40.745  30.785  1.00  0.00     0.076 A 
ATOM      6  C   UNL     1     127.870 -40.567  32.018  1.00  0.00     0.127 A 
ATOM      7  C   UNL     1     126.727 -41.323  32.294  1.00  0.00     0.050 A 
ATOM      8  C   UNL     1     129.668 -39.863  30.355  1.00  0.00     0.201 C 
ATOM      9  O   UNL     1     129.719 -38.673  30.763  1.00  0.00    -0.288 OA
ATOM     10  C   UNL     1     130.610 -40.326  29.302  1.00  0.00     0.076 A 
ATOM     11  C   UNL     1     130.179 -41.345  28.422  1.00  0.00     0.041 A 
ATOM     12  C   UNL     1     128.881 -42.022  28.655  1.00  0.00     0.194 C 
ATOM     13  O   UNL     1     128.435 -42.840  27.805  1.00  0.00    -0.289 OA
ATOM     14  C   UNL     1     130.985 -41.713  27.332  1.00  0.00     0.059 A 
ATOM     15  C   UNL     1     132.215 -41.093  27.118  1.00  0.00     0.120 A 
ATOM     16  C   UNL     1     132.664 -40.114  28.009  1.00  0.00     0.093 A 
ATOM     17  C   UNL     1     131.890 -39.744  29.114  1.00  0.00     0.131 A 
ENDROOT
BRANCH   6  18
ATOM     18  O   UNL     1     128.312 -39.682  33.003  1.00  0.00    -0.507 OA
ATOM     19  H   UNL     1     127.831 -39.536  33.880  1.00  0.00     0.293 HD
ENDBRANCH   6  18
BRANCH  17  20
ATOM     20  O   UNL     1     132.443 -38.827  30.010  1.00  0.00    -0.507 OA
ATOM     21  H   UNL     1     133.415 -38.548  29.996  1.00  0.00     0.293 HD
ENDBRANCH  17  20
BRANCH  15  22
ATOM     22  O   UNL     1     132.991 -41.465  26.023  1.00  0.00    -0.508 OA
ATOM     23  H   UNL     1     132.925 -42.391  25.616  1.00  0.00     0.293 HD
ENDBRANCH  15  22
TORSDOF 3
ENDMDL
MODEL 6
REMARK VINA RESULT:    -5.218      3.826      6.419
REMARK INTER + INTRA:          -5.675
REMARK INTER:                  -5.675
REMARK INTRA:                   0.000
REMARK UNBOUND:                 0.000
REMARK SMILES Cc1cc(O)c2c(c1)C(=O)c1cc(O)cc(O)c1C2=O
REMARK SMILES IDX 1 1 2 2 8 3 7 4 6 5 4 6 3 7 19 8 20 9 18 10 11 11 9 12 10 13
REMARK SMILES IDX 12 14 13 15 15 16 16 17 5 18 17 20 14 22
REMARK H PARENT 5 19 17 21 14 23
REMARK Flexibility Score: inf
ROOT
ATOM      1  C   UNL     1     132.259 -42.450  37.772  1.00  0.00     0.044 C 
ATOM      2  C   UNL     1     131.183 -42.324  36.732  1.00  0.00    -0.047 A 
ATOM      3  C   UNL     1     131.431 -41.626  35.545  1.00  0.00     0.016 A 
ATOM      4  C   UNL     1     130.422 -41.479  34.578  1.00  0.00     0.038 A 
ATOM      5  C   UNL     1     129.145 -42.037  34.803  1.00  0.00     0.076 A 
ATOM      6  C   UNL     1     128.876 -42.670  36.045  1.00  0.00     0.127 A 
ATOM      7  C   UNL     1     129.901 -42.822  36.983  1.00  0.00     0.050 A 
ATOM      8  C   UNL     1     128.152 -41.990  33.699  1.00  0.00     0.201 C 
ATOM      9  O   UNL     1     127.286 -42.898  33.596  1.00  0.00    -0.288 OA
ATOM     10  C   UNL     1     128.300 -40.982  32.617  1.00  0.00     0.076 A 
ATOM     11  C   UNL     1     129.578 -40.422  32.396  1.00  0.00     0.041 A 
ATOM     12  C   UNL     1     130.690 -40.732  33.326  1.00  0.00     0.194 C 
ATOM     13  O   UNL     1     131.860 -40.337  33.064  1.00  0.00    -0.289 OA
ATOM     14  C   UNL     1     129.789 -39.570  31.298  1.00  0.00     0.059 A 
ATOM     15  C   UNL     1     128.742 -39.260  30.431  1.00  0.00     0.120 A 
ATOM     16  C   UNL     1     127.466 -39.779  30.668  1.00  0.00     0.093 A 
ATOM     17  C   UNL     1     127.226 -40.612  31.766  1.00  0.00     0.131 A 
ENDROOT
BRANCH   6  18
ATOM     18  O   UNL     1     127.604 -43.125  36.399  1.00  0.00    -0.507 OA
ATOM     19  H   UNL     1     127.373 -43.480  37.317  1.00  0.00     0.293 HD
ENDBRANCH   6  18
BRANCH  17  20
ATOM     20  O   UNL     1     125.908 -41.017  31.991  1.00  0.00    -0.507 OA
ATOM     21  H   UNL     1     125.607 -41.499  32.827  1.00  0.00     0.293 HD
ENDBRANCH  17  20
BRANCH  15  22
ATOM     22  O   UNL     1     128.977 -38.425  29.341  1.00  0.00    -0.508 OA
ATOM     23  H   UNL     1     129.907 -38.302  28.958  1.00  0.00     0.293 HD
ENDBRANCH  15  22
TORSDOF 3
ENDMDL
MODEL 7
REMARK VINA RESULT:    -5.180      3.020      6.113
REMARK INTER + INTRA:          -5.634
REMARK INTER:                  -5.634
REMARK INTRA:                   0.000
REMARK UNBOUND:                 0.000
REMARK SMILES Cc1cc(O)c2c(c1)C(=O)c1cc(O)cc(O)c1C2=O
REMARK SMILES IDX 1 1 2 2 8 3 7 4 6 5 4 6 3 7 19 8 20 9 18 10 11 11 9 12 10 13
REMARK SMILES IDX 12 14 13 15 15 16 16 17 5 18 17 20 14 22
REMARK H PARENT 5 19 17 21 14 23
REMARK Flexibility Score: inf
ROOT
ATOM      1  C   UNL     1     129.803 -43.125  36.816  1.00  0.00     0.044 C 
ATOM      2  C   UNL     1     130.211 -42.346  35.599  1.00  0.00    -0.047 A 
ATOM      3  C   UNL     1     129.239 -41.788  34.763  1.00  0.00     0.016 A 
ATOM      4  C   UNL     1     129.610 -41.081  33.606  1.00  0.00     0.038 A 
ATOM      5  C   UNL     1     130.976 -40.932  33.281  1.00  0.00     0.076 A 
ATOM      6  C   UNL     1     131.953 -41.574  34.087  1.00  0.00     0.127 A 
ATOM      7  C   UNL     1     131.560 -42.254  35.243  1.00  0.00     0.050 A 
ATOM      8  C   UNL     1     131.335 -40.056  32.136  1.00  0.00     0.201 C 
ATOM      9  O   UNL     1     132.433 -39.439  32.139  1.00  0.00    -0.288 OA
ATOM     10  C   UNL     1     130.324 -39.762  31.087  1.00  0.00     0.076 A 
ATOM     11  C   UNL     1     128.958 -39.915  31.414  1.00  0.00     0.041 A 
ATOM     12  C   UNL     1     128.573 -40.497  32.722  1.00  0.00     0.194 C 
ATOM     13  O   UNL     1     127.360 -40.520  33.070  1.00  0.00    -0.289 OA
ATOM     14  C   UNL     1     127.970 -39.517  30.497  1.00  0.00     0.059 A 
ATOM     15  C   UNL     1     128.326 -38.986  29.258  1.00  0.00     0.120 A 
ATOM     16  C   UNL     1     129.675 -38.870  28.913  1.00  0.00     0.093 A 
ATOM     17  C   UNL     1     130.677 -39.278  29.800  1.00  0.00     0.131 A 
ENDROOT
BRANCH   6  18
ATOM     18  O   UNL     1     133.309 -41.591  33.757  1.00  0.00    -0.507 OA
ATOM     19  H   UNL     1     134.048 -41.706  34.437  1.00  0.00     0.293 HD
ENDBRANCH   6  18
BRANCH  17  20
ATOM     20  O   UNL     1     131.999 -39.219  29.351  1.00  0.00    -0.507 OA
ATOM     21  H   UNL     1     132.488 -40.006  28.948  1.00  0.00     0.293 HD
ENDBRANCH  17  20
BRANCH  15  22
ATOM     22  O   UNL     1     127.330 -38.586  28.370  1.00  0.00    -0.508 OA
ATOM     23  H   UNL     1     126.460 -38.182  28.696  1.00  0.00     0.293 HD
ENDBRANCH  15  22
TORSDOF 3
ENDMDL
MODEL 8
REMARK VINA RESULT:    -5.090      2.804      6.166
REMARK INTER + INTRA:          -5.536
REMARK INTER:                  -5.536
REMARK INTRA:                   0.000
REMARK UNBOUND:                 0.000
REMARK SMILES Cc1cc(O)c2c(c1)C(=O)c1cc(O)cc(O)c1C2=O
REMARK SMILES IDX 1 1 2 2 8 3 7 4 6 5 4 6 3 7 19 8 20 9 18 10 11 11 9 12 10 13
REMARK SMILES IDX 12 14 13 15 15 16 16 17 5 18 17 20 14 22
REMARK H PARENT 5 19 17 21 14 23
REMARK Flexibility Score: inf
ROOT
ATOM      1  C   UNL     1     124.870 -43.063  35.296  1.00  0.00     0.044 C 
ATOM      2  C   UNL     1     125.543 -42.797  33.980  1.00  0.00    -0.047 A 
ATOM      3  C   UNL     1     126.778 -42.142  33.941  1.00  0.00     0.016 A 
ATOM      4  C   UNL     1     127.402 -41.864  32.714  1.00  0.00     0.038 A 
ATOM      5  C   UNL     1     126.780 -42.248  31.506  1.00  0.00     0.076 A 
ATOM      6  C   UNL     1     125.489 -42.835  31.549  1.00  0.00     0.127 A 
ATOM      7  C   UNL     1     124.897 -43.120  32.783  1.00  0.00     0.050 A 
ATOM      8  C   UNL     1     127.536 -42.071  30.238  1.00  0.00     0.201 C 
ATOM      9  O   UNL     1     127.334 -42.857  29.274  1.00  0.00    -0.288 OA
ATOM     10  C   UNL     1     128.654 -41.095  30.176  1.00  0.00     0.076 A 
ATOM     11  C   UNL     1     129.273 -40.711  31.387  1.00  0.00     0.041 A 
ATOM     12  C   UNL     1     128.708 -41.163  32.681  1.00  0.00     0.194 C 
ATOM     13  O   UNL     1     129.327 -40.929  33.755  1.00  0.00    -0.289 OA
ATOM     14  C   UNL     1     130.419 -39.898  31.360  1.00  0.00     0.059 A 
ATOM     15  C   UNL     1     130.944 -39.454  30.147  1.00  0.00     0.120 A 
ATOM     16  C   UNL     1     130.312 -39.797  28.948  1.00  0.00     0.093 A 
ATOM     17  C   UNL     1     129.158 -40.588  28.950  1.00  0.00     0.131 A 
ENDROOT
BRANCH   6  18
ATOM     18  O   UNL     1     124.749 -43.116  30.398  1.00  0.00    -0.507 OA
ATOM     19  H   UNL     1     124.209 -42.424  29.898  1.00  0.00     0.293 HD
ENDBRANCH   6  18
BRANCH  17  20
ATOM     20  O   UNL     1     128.530 -40.813  27.723  1.00  0.00    -0.507 OA
ATOM     21  H   UNL     1     128.977 -40.661  26.830  1.00  0.00     0.293 HD
ENDBRANCH  17  20
BRANCH  15  22
ATOM     22  O   UNL     1     132.089 -38.660  30.143  1.00  0.00    -0.508 OA
ATOM     23  H   UNL     1     132.041 -37.661  29.976  1.00  0.00     0.293 HD
ENDBRANCH  15  22
TORSDOF 3
ENDMDL
MODEL 9
REMARK VINA RESULT:    -3.060      3.282      4.858
REMARK INTER + INTRA:          -3.328
REMARK INTER:                  -3.328
REMARK INTRA:                   0.000
REMARK UNBOUND:                 0.000
REMARK SMILES Cc1cc(O)c2c(c1)C(=O)c1cc(O)cc(O)c1C2=O
REMARK SMILES IDX 1 1 2 2 8 3 7 4 6 5 4 6 3 7 19 8 20 9 18 10 11 11 9 12 10 13
REMARK SMILES IDX 12 14 13 15 15 16 16 17 5 18 17 20 14 22
REMARK H PARENT 5 19 17 21 14 23
REMARK Flexibility Score: inf
ROOT
ATOM      1  C   UNL     1     130.397 -37.915  28.783  1.00  0.00     0.044 C 
ATOM      2  C   UNL     1     129.558 -38.709  29.742  1.00  0.00    -0.047 A 
ATOM      3  C   UNL     1     130.076 -39.083  30.986  1.00  0.00     0.016 A 
ATOM      4  C   UNL     1     129.308 -39.850  31.879  1.00  0.00     0.038 A 
ATOM      5  C   UNL     1     128.002 -40.248  31.521  1.00  0.00     0.076 A 
ATOM      6  C   UNL     1     127.515 -39.937  30.224  1.00  0.00     0.127 A 
ATOM      7  C   UNL     1     128.289 -39.156  29.361  1.00  0.00     0.050 A 
ATOM      8  C   UNL     1     127.168 -40.929  32.545  1.00  0.00     0.201 C 
ATOM      9  O   UNL     1     125.916 -40.796  32.523  1.00  0.00    -0.288 OA
ATOM     10  C   UNL     1     127.820 -41.605  33.697  1.00  0.00     0.076 A 
ATOM     11  C   UNL     1     129.129 -41.206  34.051  1.00  0.00     0.041 A 
ATOM     12  C   UNL     1     129.867 -40.249  33.193  1.00  0.00     0.194 C 
ATOM     13  O   UNL     1     130.982 -39.794  33.570  1.00  0.00    -0.289 OA
ATOM     14  C   UNL     1     129.726 -41.722  35.214  1.00  0.00     0.059 A 
ATOM     15  C   UNL     1     129.044 -42.637  36.015  1.00  0.00     0.120 A 
ATOM     16  C   UNL     1     127.766 -43.066  35.647  1.00  0.00     0.093 A 
ATOM     17  C   UNL     1     127.158 -42.583  34.484  1.00  0.00     0.131 A 
ENDROOT
BRANCH   6  18
ATOM     18  O   UNL     1     126.292 -40.411  29.744  1.00  0.00    -0.507 OA
ATOM     19  H   UNL     1     125.453 -39.851  29.704  1.00  0.00     0.293 HD
ENDBRANCH   6  18
BRANCH  17  20
ATOM     20  O   UNL     1     125.920 -43.125  34.132  1.00  0.00    -0.507 OA
ATOM     21  H   UNL     1     125.039 -42.798  34.505  1.00  0.00     0.293 HD
ENDBRANCH  17  20
BRANCH  15  22
ATOM     22  O   UNL     1     129.651 -43.125  37.170  1.00  0.00    -0.508 OA
ATOM     23  H   UNL     1     130.286 -42.555  37.717  1.00  0.00     0.293 HD
ENDBRANCH  15  22
TORSDOF 3
ENDMDL
