MODEL 1
REMARK VINA RESULT:    -7.695      0.000      0.000
REMARK INTER + INTRA:         -11.264
REMARK INTER:                 -10.395
REMARK INTRA:                  -0.869
REMARK UNBOUND:                -0.869
REMARK SMILES CC[C@H](CC[C@@H](C)[C@H]1CC[C@H]2[C@@H]3CC(=O)C4=CC(=O)CC[C@]4(C)[C@@H]3CC[C@]12C)C(C)C
REMARK SMILES IDX 4 1 3 2 2 3 1 4 29 5 30 6 31 7 5 8 6 9 7 10 8 11 9 12 27 13
REMARK SMILES IDX 10 14 11 15 26 16 28 17 12 18 25 19 24 20 13 21 22 22 14 23
REMARK SMILES IDX 16 24 21 25 23 26 15 27 17 28 20 29 18 30 19 31
REMARK H PARENT
REMARK Flexibility Score: inf
ROOT
ATOM      1  C   UNL     1      47.648  21.384  20.167  1.00  0.00     0.004 C 
ENDROOT
BRANCH   1   2
ATOM      2  C   UNL     1      46.661  20.697  21.166  1.00  0.00    -0.009 C 
BRANCH   2   3
ATOM      3  C   UNL     1      45.217  20.729  20.584  1.00  0.00     0.000 C 
ATOM      4  C   UNL     1      44.155  21.141  21.609  1.00  0.00     0.004 C 
ENDBRANCH   2   3
BRANCH   2   5
ATOM      5  C   UNL     1      47.079  19.220  21.503  1.00  0.00    -0.014 C 
ATOM      6  C   UNL     1      48.538  18.893  21.138  1.00  0.00     0.007 C 
ATOM      7  C   UNL     1      46.873  18.896  22.997  1.00  0.00     0.007 C 
ENDBRANCH   2   5
ENDBRANCH   1   2
BRANCH   1   8
ATOM      8  C   UNL     1      48.629  22.376  20.849  1.00  0.00     0.004 C 
BRANCH   8   9
ATOM      9  C   UNL     1      49.933  22.641  20.044  1.00  0.00    -0.011 C 
ATOM     10  C   UNL     1      50.222  21.440  19.124  1.00  0.00     0.008 C 
BRANCH   9  11
ATOM     11  C   UNL     1      49.804  23.963  19.207  1.00  0.00    -0.002 C 
ATOM     12  C   UNL     1      49.096  25.115  19.976  1.00  0.00     0.005 C 
ATOM     13  C   UNL     1      51.118  24.628  18.687  1.00  0.00    -0.026 C 
ATOM     14  C   UNL     1      49.694  26.435  19.471  1.00  0.00     0.005 C 
ATOM     15  C   UNL     1      50.586  26.017  18.315  1.00  0.00    -0.001 C 
ATOM     16  C   UNL     1      51.717  23.988  17.385  1.00  0.00     0.007 C 
ATOM     17  C   UNL     1      52.169  24.681  19.847  1.00  0.00     0.012 C 
ATOM     18  C   UNL     1      51.659  27.036  17.819  1.00  0.00     0.004 C 
ATOM     19  C   UNL     1      52.255  25.017  16.344  1.00  0.00     0.005 C 
ATOM     20  C   UNL     1      52.811  26.291  17.032  1.00  0.00     0.003 C 
ATOM     21  C   UNL     1      50.925  28.161  17.014  1.00  0.00     0.085 C 
ATOM     22  C   UNL     1      53.702  27.243  16.150  1.00  0.00    -0.000 C 
ATOM     23  C   UNL     1      51.740  28.852  15.969  1.00  0.00     0.159 C 
ATOM     24  C   UNL     1      52.807  28.116  15.283  1.00  0.00     0.005 C 
ATOM     25  C   UNL     1      54.797  26.460  15.329  1.00  0.00     0.020 C 
ATOM     26  C   UNL     1      54.477  28.204  17.100  1.00  0.00     0.017 C 
ATOM     27  O   UNL     1      51.431  30.019  15.609  1.00  0.00    -0.295 OA
ATOM     28  C   UNL     1      52.965  28.242  13.956  1.00  0.00     0.055 C 
ATOM     29  C   UNL     1      54.427  26.159  13.872  1.00  0.00     0.081 C 
ATOM     30  C   UNL     1      53.894  27.388  13.218  1.00  0.00     0.156 C 
ATOM     31  O   UNL     1      54.148  27.626  12.008  1.00  0.00    -0.295 OA
ENDBRANCH   9  11
ENDBRANCH   8   9
ENDBRANCH   1   8
TORSDOF 6
ENDMDL
MODEL 2
REMARK VINA RESULT:    -7.680      1.503      2.434
REMARK INTER + INTRA:         -11.244
REMARK INTER:                 -10.136
REMARK INTRA:                  -1.108
REMARK UNBOUND:                -0.869
REMARK SMILES CC[C@H](CC[C@@H](C)[C@H]1CC[C@H]2[C@@H]3CC(=O)C4=CC(=O)CC[C@]4(C)[C@@H]3CC[C@]12C)C(C)C
REMARK SMILES IDX 4 1 3 2 2 3 1 4 29 5 30 6 31 7 5 8 6 9 7 10 8 11 9 12 27 13
REMARK SMILES IDX 10 14 11 15 26 16 28 17 12 18 25 19 24 20 13 21 22 22 14 23
REMARK SMILES IDX 16 24 21 25 23 26 15 27 17 28 20 29 18 30 19 31
REMARK H PARENT
REMARK Flexibility Score: inf
ROOT
ATOM      1  C   UNL     1      48.217  21.561  20.010  1.00  0.00     0.004 C 
ENDROOT
BRANCH   1   2
ATOM      2  C   UNL     1      48.093  20.042  20.354  1.00  0.00    -0.009 C 
BRANCH   2   3
ATOM      3  C   UNL     1      49.364  19.571  21.121  1.00  0.00     0.000 C 
ATOM      4  C   UNL     1      50.394  18.875  20.227  1.00  0.00     0.004 C 
ENDBRANCH   2   3
BRANCH   2   5
ATOM      5  C   UNL     1      46.802  19.718  21.191  1.00  0.00    -0.014 C 
ATOM      6  C   UNL     1      47.100  19.243  22.625  1.00  0.00     0.007 C 
ATOM      7  C   UNL     1      45.855  20.932  21.272  1.00  0.00     0.007 C 
ENDBRANCH   2   5
ENDBRANCH   1   2
BRANCH   1   8
ATOM      8  C   UNL     1      49.386  22.271  20.747  1.00  0.00     0.004 C 
BRANCH   8   9
ATOM      9  C   UNL     1      50.411  22.962  19.805  1.00  0.00    -0.011 C 
ATOM     10  C   UNL     1      50.717  22.037  18.611  1.00  0.00     0.008 C 
BRANCH   9  11
ATOM     11  C   UNL     1      49.859  24.345  19.309  1.00  0.00    -0.002 C 
ATOM     12  C   UNL     1      48.950  25.057  20.350  1.00  0.00     0.005 C 
ATOM     13  C   UNL     1      50.895  25.446  18.917  1.00  0.00    -0.026 C 
ATOM     14  C   UNL     1      49.128  26.569  20.152  1.00  0.00     0.005 C 
ATOM     15  C   UNL     1      49.982  26.678  18.901  1.00  0.00    -0.001 C 
ATOM     16  C   UNL     1      51.512  25.297  17.481  1.00  0.00     0.007 C 
ATOM     17  C   UNL     1      52.002  25.535  20.021  1.00  0.00     0.012 C 
ATOM     18  C   UNL     1      50.696  28.039  18.624  1.00  0.00     0.004 C 
ATOM     19  C   UNL     1      51.656  26.637  16.695  1.00  0.00     0.005 C 
ATOM     20  C   UNL     1      51.922  27.834  17.646  1.00  0.00     0.003 C 
ATOM     21  C   UNL     1      49.618  29.061  18.132  1.00  0.00     0.085 C 
ATOM     22  C   UNL     1      52.441  29.164  16.984  1.00  0.00    -0.000 C 
ATOM     23  C   UNL     1      50.116  30.162  17.253  1.00  0.00     0.159 C 
ATOM     24  C   UNL     1      51.269  29.920  16.378  1.00  0.00     0.005 C 
ATOM     25  C   UNL     1      53.618  28.916  15.966  1.00  0.00     0.020 C 
ATOM     26  C   UNL     1      53.024  30.072  18.108  1.00  0.00     0.017 C 
ATOM     27  O   UNL     1      49.478  31.247  17.189  1.00  0.00    -0.295 OA
ATOM     28  C   UNL     1      51.258  30.371  15.114  1.00  0.00     0.055 C 
ATOM     29  C   UNL     1      53.201  28.848  14.492  1.00  0.00     0.081 C 
ATOM     30  C   UNL     1      52.303  29.992  14.165  1.00  0.00     0.156 C 
ATOM     31  O   UNL     1      52.368  30.549  13.037  1.00  0.00    -0.295 OA
ENDBRANCH   9  11
ENDBRANCH   8   9
ENDBRANCH   1   8
TORSDOF 6
ENDMDL
MODEL 3
REMARK VINA RESULT:    -7.551      2.419      3.517
REMARK INTER + INTRA:         -11.069
REMARK INTER:                 -10.067
REMARK INTRA:                  -1.002
REMARK UNBOUND:                -0.869
REMARK SMILES CC[C@H](CC[C@@H](C)[C@H]1CC[C@H]2[C@@H]3CC(=O)C4=CC(=O)CC[C@]4(C)[C@@H]3CC[C@]12C)C(C)C
REMARK SMILES IDX 4 1 3 2 2 3 1 4 29 5 30 6 31 7 5 8 6 9 7 10 8 11 9 12 27 13
REMARK SMILES IDX 10 14 11 15 26 16 28 17 12 18 25 19 24 20 13 21 22 22 14 23
REMARK SMILES IDX 16 24 21 25 23 26 15 27 17 28 20 29 18 30 19 31
REMARK H PARENT
REMARK Flexibility Score: inf
ROOT
ATOM      1  C   UNL     1      48.177  21.684  20.434  1.00  0.00     0.004 C 
ENDROOT
BRANCH   1   2
ATOM      2  C   UNL     1      48.075  20.125  20.452  1.00  0.00    -0.009 C 
BRANCH   2   3
ATOM      3  C   UNL     1      49.365  19.520  21.080  1.00  0.00     0.000 C 
ATOM      4  C   UNL     1      50.308  18.891  20.050  1.00  0.00     0.004 C 
ENDBRANCH   2   3
BRANCH   2   5
ATOM      5  C   UNL     1      46.804  19.614  21.224  1.00  0.00    -0.014 C 
ATOM      6  C   UNL     1      47.116  19.057  22.626  1.00  0.00     0.007 C 
ATOM      7  C   UNL     1      45.743  20.724  21.374  1.00  0.00     0.007 C 
ENDBRANCH   2   5
ENDBRANCH   1   2
BRANCH   1   8
ATOM      8  C   UNL     1      49.591  22.216  20.795  1.00  0.00     0.004 C 
BRANCH   8   9
ATOM      9  C   UNL     1      50.228  23.129  19.709  1.00  0.00    -0.011 C 
ATOM     10  C   UNL     1      49.796  22.644  18.312  1.00  0.00     0.008 C 
BRANCH   9  11
ATOM     11  C   UNL     1      49.809  24.625  19.932  1.00  0.00    -0.002 C 
ATOM     12  C   UNL     1      49.722  25.026  21.432  1.00  0.00     0.005 C 
ATOM     13  C   UNL     1      50.715  25.736  19.311  1.00  0.00    -0.026 C 
ATOM     14  C   UNL     1      50.092  26.513  21.529  1.00  0.00     0.005 C 
ATOM     15  C   UNL     1      50.203  26.959  20.081  1.00  0.00    -0.001 C 
ATOM     16  C   UNL     1      50.479  26.008  17.783  1.00  0.00     0.007 C 
ATOM     17  C   UNL     1      52.216  25.418  19.621  1.00  0.00     0.012 C 
ATOM     18  C   UNL     1      50.952  28.298  19.788  1.00  0.00     0.004 C 
ATOM     19  C   UNL     1      50.489  27.516  17.383  1.00  0.00     0.005 C 
ATOM     20  C   UNL     1      51.444  28.342  18.285  1.00  0.00     0.003 C 
ATOM     21  C   UNL     1      50.018  29.479  20.216  1.00  0.00     0.085 C 
ATOM     22  C   UNL     1      51.829  29.782  17.781  1.00  0.00    -0.000 C 
ATOM     23  C   UNL     1      50.228  30.770  19.493  1.00  0.00     0.159 C 
ATOM     24  C   UNL     1      50.703  30.751  18.105  1.00  0.00     0.005 C 
ATOM     25  C   UNL     1      52.252  29.799  16.263  1.00  0.00     0.020 C 
ATOM     26  C   UNL     1      53.075  30.262  18.583  1.00  0.00     0.017 C 
ATOM     27  O   UNL     1      49.891  31.854  20.042  1.00  0.00    -0.295 OA
ATOM     28  C   UNL     1      50.154  31.573  17.196  1.00  0.00     0.055 C 
ATOM     29  C   UNL     1      51.147  30.216  15.284  1.00  0.00     0.081 C 
ATOM     30  C   UNL     1      50.473  31.451  15.774  1.00  0.00     0.156 C 
ATOM     31  O   UNL     1      50.079  32.328  14.961  1.00  0.00    -0.295 OA
ENDBRANCH   9  11
ENDBRANCH   8   9
ENDBRANCH   1   8
TORSDOF 6
ENDMDL
MODEL 4
REMARK VINA RESULT:    -7.405      1.721      3.433
REMARK INTER + INTRA:         -10.871
REMARK INTER:                  -9.584
REMARK INTRA:                  -1.288
REMARK UNBOUND:                -0.869
REMARK SMILES CC[C@H](CC[C@@H](C)[C@H]1CC[C@H]2[C@@H]3CC(=O)C4=CC(=O)CC[C@]4(C)[C@@H]3CC[C@]12C)C(C)C
REMARK SMILES IDX 4 1 3 2 2 3 1 4 29 5 30 6 31 7 5 8 6 9 7 10 8 11 9 12 27 13
REMARK SMILES IDX 10 14 11 15 26 16 28 17 12 18 25 19 24 20 13 21 22 22 14 23
REMARK SMILES IDX 16 24 21 25 23 26 15 27 17 28 20 29 18 30 19 31
REMARK H PARENT
REMARK Flexibility Score: inf
ROOT
ATOM      1  C   UNL     1      49.583  21.694  19.730  1.00  0.00     0.004 C 
ENDROOT
BRANCH   1   2
ATOM      2  C   UNL     1      48.655  20.449  19.901  1.00  0.00    -0.009 C 
BRANCH   2   3
ATOM      3  C   UNL     1      49.484  19.245  20.437  1.00  0.00     0.000 C 
ATOM      4  C   UNL     1      50.781  19.001  19.660  1.00  0.00     0.004 C 
ENDBRANCH   2   3
BRANCH   2   5
ATOM      5  C   UNL     1      47.434  20.734  20.849  1.00  0.00    -0.014 C 
ATOM      6  C   UNL     1      46.101  20.918  20.100  1.00  0.00     0.007 C 
ATOM      7  C   UNL     1      47.248  19.613  21.892  1.00  0.00     0.007 C 
ENDBRANCH   2   5
ENDBRANCH   1   2
BRANCH   1   8
ATOM      8  C   UNL     1      49.360  22.787  20.811  1.00  0.00     0.004 C 
BRANCH   8   9
ATOM      9  C   UNL     1      48.878  24.154  20.249  1.00  0.00    -0.011 C 
ATOM     10  C   UNL     1      47.748  24.706  21.138  1.00  0.00     0.008 C 
BRANCH   9  11
ATOM     11  C   UNL     1      50.072  25.171  20.174  1.00  0.00    -0.002 C 
ATOM     12  C   UNL     1      51.406  24.601  20.735  1.00  0.00     0.005 C 
ATOM     13  C   UNL     1      50.475  25.720  18.769  1.00  0.00    -0.026 C 
ATOM     14  C   UNL     1      52.549  25.258  19.949  1.00  0.00     0.005 C 
ATOM     15  C   UNL     1      51.854  26.304  19.096  1.00  0.00    -0.001 C 
ATOM     16  C   UNL     1      49.580  26.894  18.233  1.00  0.00     0.007 C 
ATOM     17  C   UNL     1      50.553  24.535  17.749  1.00  0.00     0.012 C 
ATOM     18  C   UNL     1      52.640  26.890  17.880  1.00  0.00     0.004 C 
ATOM     19  C   UNL     1      50.369  28.044  17.534  1.00  0.00     0.005 C 
ATOM     20  C   UNL     1      51.643  27.516  16.824  1.00  0.00     0.003 C 
ATOM     21  C   UNL     1      53.725  27.874  18.433  1.00  0.00     0.085 C 
ATOM     22  C   UNL     1      52.332  28.482  15.789  1.00  0.00    -0.000 C 
ATOM     23  C   UNL     1      54.145  28.969  17.507  1.00  0.00     0.159 C 
ATOM     24  C   UNL     1      53.183  29.499  16.534  1.00  0.00     0.005 C 
ATOM     25  C   UNL     1      51.301  29.138  14.794  1.00  0.00     0.020 C 
ATOM     26  C   UNL     1      53.307  27.642  14.912  1.00  0.00     0.017 C 
ATOM     27  O   UNL     1      55.280  29.500  17.643  1.00  0.00    -0.295 OA
ATOM     28  C   UNL     1      53.096  30.823  16.329  1.00  0.00     0.055 C 
ATOM     29  C   UNL     1      50.847  30.554  15.167  1.00  0.00     0.081 C 
ATOM     30  C   UNL     1      52.028  31.395  15.509  1.00  0.00     0.156 C 
ATOM     31  O   UNL     1      52.056  32.614  15.196  1.00  0.00    -0.295 OA
ENDBRANCH   9  11
ENDBRANCH   8   9
ENDBRANCH   1   8
TORSDOF 6
ENDMDL
MODEL 5
REMARK VINA RESULT:    -7.278      1.116      2.145
REMARK INTER + INTRA:         -10.700
REMARK INTER:                 -10.664
REMARK INTRA:                  -0.036
REMARK UNBOUND:                -0.869
REMARK SMILES CC[C@H](CC[C@@H](C)[C@H]1CC[C@H]2[C@@H]3CC(=O)C4=CC(=O)CC[C@]4(C)[C@@H]3CC[C@]12C)C(C)C
REMARK SMILES IDX 4 1 3 2 2 3 1 4 29 5 30 6 31 7 5 8 6 9 7 10 8 11 9 12 27 13
REMARK SMILES IDX 10 14 11 15 26 16 28 17 12 18 25 19 24 20 13 21 22 22 14 23
REMARK SMILES IDX 16 24 21 25 23 26 15 27 17 28 20 29 18 30 19 31
REMARK H PARENT
REMARK Flexibility Score: inf
ROOT
ATOM      1  C   UNL     1      49.162  21.864  19.272  1.00  0.00     0.004 C 
ENDROOT
BRANCH   1   2
ATOM      2  C   UNL     1      48.556  20.548  19.860  1.00  0.00    -0.009 C 
BRANCH   2   3
ATOM      3  C   UNL     1      49.630  19.810  20.712  1.00  0.00     0.000 C 
ATOM      4  C   UNL     1      50.532  18.884  19.891  1.00  0.00     0.004 C 
ENDBRANCH   2   3
BRANCH   2   5
ATOM      5  C   UNL     1      47.266  20.810  20.718  1.00  0.00    -0.014 C 
ATOM      6  C   UNL     1      45.973  20.876  19.884  1.00  0.00     0.007 C 
ATOM      7  C   UNL     1      47.080  19.737  21.810  1.00  0.00     0.007 C 
ENDBRANCH   2   5
ENDBRANCH   1   2
BRANCH   1   8
ATOM      8  C   UNL     1      50.036  22.650  20.287  1.00  0.00     0.004 C 
BRANCH   8   9
ATOM      9  C   UNL     1      49.475  24.050  20.665  1.00  0.00    -0.011 C 
ATOM     10  C   UNL     1      50.277  24.622  21.850  1.00  0.00     0.008 C 
BRANCH   9  11
ATOM     11  C   UNL     1      49.536  25.020  19.433  1.00  0.00    -0.002 C 
ATOM     12  C   UNL     1      48.901  26.412  19.710  1.00  0.00     0.005 C 
ATOM     13  C   UNL     1      50.942  25.372  18.851  1.00  0.00    -0.026 C 
ATOM     14  C   UNL     1      49.662  27.438  18.858  1.00  0.00     0.005 C 
ATOM     15  C   UNL     1      50.579  26.591  17.995  1.00  0.00    -0.001 C 
ATOM     16  C   UNL     1      51.555  24.289  17.894  1.00  0.00     0.007 C 
ATOM     17  C   UNL     1      51.916  25.732  20.023  1.00  0.00     0.012 C 
ATOM     18  C   UNL     1      51.781  27.302  17.295  1.00  0.00     0.004 C 
ATOM     19  C   UNL     1      52.261  24.866  16.628  1.00  0.00     0.005 C 
ATOM     20  C   UNL     1      52.899  26.252  16.909  1.00  0.00     0.003 C 
ATOM     21  C   UNL     1      51.218  28.142  16.100  1.00  0.00     0.085 C 
ATOM     22  C   UNL     1      53.937  26.784  15.852  1.00  0.00    -0.000 C 
ATOM     23  C   UNL     1      52.165  28.380  14.968  1.00  0.00     0.159 C 
ATOM     24  C   UNL     1      53.194  27.379  14.667  1.00  0.00     0.005 C 
ATOM     25  C   UNL     1      54.997  25.691  15.442  1.00  0.00     0.020 C 
ATOM     26  C   UNL     1      54.743  27.946  16.503  1.00  0.00     0.017 C 
ATOM     27  O   UNL     1      52.000  29.378  14.217  1.00  0.00    -0.295 OA
ATOM     28  C   UNL     1      53.449  27.040  13.393  1.00  0.00     0.055 C 
ATOM     29  C   UNL     1      54.693  24.947  14.137  1.00  0.00     0.081 C 
ATOM     30  C   UNL     1      54.332  25.921  13.068  1.00  0.00     0.156 C 
ATOM     31  O   UNL     1      54.687  25.720  11.876  1.00  0.00    -0.295 OA
ENDBRANCH   9  11
ENDBRANCH   8   9
ENDBRANCH   1   8
TORSDOF 6
ENDMDL
MODEL 6
REMARK VINA RESULT:    -7.221      2.807      4.778
REMARK INTER + INTRA:         -10.623
REMARK INTER:                 -10.358
REMARK INTRA:                  -0.266
REMARK UNBOUND:                -0.869
REMARK SMILES CC[C@H](CC[C@@H](C)[C@H]1CC[C@H]2[C@@H]3CC(=O)C4=CC(=O)CC[C@]4(C)[C@@H]3CC[C@]12C)C(C)C
REMARK SMILES IDX 4 1 3 2 2 3 1 4 29 5 30 6 31 7 5 8 6 9 7 10 8 11 9 12 27 13
REMARK SMILES IDX 10 14 11 15 26 16 28 17 12 18 25 19 24 20 13 21 22 22 14 23
REMARK SMILES IDX 16 24 21 25 23 26 15 27 17 28 20 29 18 30 19 31
REMARK H PARENT
REMARK Flexibility Score: inf
ROOT
ATOM      1  C   UNL     1      49.171  21.378  20.313  1.00  0.00     0.004 C 
ENDROOT
BRANCH   1   2
ATOM      2  C   UNL     1      48.040  20.315  20.130  1.00  0.00    -0.009 C 
BRANCH   2   3
ATOM      3  C   UNL     1      48.622  18.886  20.343  1.00  0.00     0.000 C 
ATOM      4  C   UNL     1      50.099  18.882  20.750  1.00  0.00     0.004 C 
ENDBRANCH   2   3
BRANCH   2   5
ATOM      5  C   UNL     1      46.824  20.557  21.096  1.00  0.00    -0.014 C 
ATOM      6  C   UNL     1      45.463  20.589  20.377  1.00  0.00     0.007 C 
ATOM      7  C   UNL     1      46.757  19.488  22.206  1.00  0.00     0.007 C 
ENDBRANCH   2   5
ENDBRANCH   1   2
BRANCH   1   8
ATOM      8  C   UNL     1      49.731  21.925  18.972  1.00  0.00     0.004 C 
BRANCH   8   9
ATOM      9  C   UNL     1      51.256  22.228  18.990  1.00  0.00    -0.011 C 
ATOM     10  C   UNL     1      51.994  21.200  18.113  1.00  0.00     0.008 C 
BRANCH   9  11
ATOM     11  C   UNL     1      51.534  23.689  18.488  1.00  0.00    -0.002 C 
ATOM     12  C   UNL     1      50.780  24.046  17.175  1.00  0.00     0.005 C 
ATOM     13  C   UNL     1      51.175  24.870  19.445  1.00  0.00    -0.026 C 
ATOM     14  C   UNL     1      50.476  25.550  17.219  1.00  0.00     0.005 C 
ATOM     15  C   UNL     1      51.213  26.038  18.453  1.00  0.00    -0.001 C 
ATOM     16  C   UNL     1      52.237  25.165  20.563  1.00  0.00     0.007 C 
ATOM     17  C   UNL     1      49.747  24.639  20.045  1.00  0.00     0.012 C 
ATOM     18  C   UNL     1      50.809  27.429  19.038  1.00  0.00     0.004 C 
ATOM     19  C   UNL     1      52.510  26.681  20.815  1.00  0.00     0.005 C 
ATOM     20  C   UNL     1      51.246  27.542  20.554  1.00  0.00     0.003 C 
ATOM     21  C   UNL     1      51.387  28.538  18.097  1.00  0.00     0.085 C 
ATOM     22  C   UNL     1      51.264  29.016  21.106  1.00  0.00    -0.000 C 
ATOM     23  C   UNL     1      51.667  29.857  18.739  1.00  0.00     0.159 C 
ATOM     24  C   UNL     1      52.051  29.903  20.154  1.00  0.00     0.005 C 
ATOM     25  C   UNL     1      51.767  29.098  22.598  1.00  0.00     0.020 C 
ATOM     26  C   UNL     1      49.803  29.553  21.111  1.00  0.00     0.017 C 
ATOM     27  O   UNL     1      51.679  30.903  18.036  1.00  0.00    -0.295 OA
ATOM     28  C   UNL     1      53.046  30.712  20.554  1.00  0.00     0.055 C 
ATOM     29  C   UNL     1      53.244  29.469  22.768  1.00  0.00     0.081 C 
ATOM     30  C   UNL     1      53.575  30.647  21.916  1.00  0.00     0.156 C 
ATOM     31  O   UNL     1      54.390  31.517  22.320  1.00  0.00    -0.295 OA
ENDBRANCH   9  11
ENDBRANCH   8   9
ENDBRANCH   1   8
TORSDOF 6
ENDMDL
MODEL 7
REMARK VINA RESULT:    -7.178      3.686      5.362
REMARK INTER + INTRA:         -10.565
REMARK INTER:                  -9.406
REMARK INTRA:                  -1.159
REMARK UNBOUND:                -0.869
REMARK SMILES CC[C@H](CC[C@@H](C)[C@H]1CC[C@H]2[C@@H]3CC(=O)C4=CC(=O)CC[C@]4(C)[C@@H]3CC[C@]12C)C(C)C
REMARK SMILES IDX 4 1 3 2 2 3 1 4 29 5 30 6 31 7 5 8 6 9 7 10 8 11 9 12 27 13
REMARK SMILES IDX 10 14 11 15 26 16 28 17 12 18 25 19 24 20 13 21 22 22 14 23
REMARK SMILES IDX 16 24 21 25 23 26 15 27 17 28 20 29 18 30 19 31
REMARK H PARENT
REMARK Flexibility Score: inf
ROOT
ATOM      1  C   UNL     1      48.691  21.486  19.059  1.00  0.00     0.004 C 
ENDROOT
BRANCH   1   2
ATOM      2  C   UNL     1      48.136  20.331  19.954  1.00  0.00    -0.009 C 
BRANCH   2   3
ATOM      3  C   UNL     1      49.125  20.051  21.123  1.00  0.00     0.000 C 
ATOM      4  C   UNL     1      50.097  18.902  20.839  1.00  0.00     0.004 C 
ENDBRANCH   2   3
BRANCH   2   5
ATOM      5  C   UNL     1      46.702  20.642  20.517  1.00  0.00    -0.014 C 
ATOM      6  C   UNL     1      46.382  19.904  21.830  1.00  0.00     0.007 C 
ATOM      7  C   UNL     1      46.497  22.152  20.752  1.00  0.00     0.007 C 
ENDBRANCH   2   5
ENDBRANCH   1   2
BRANCH   1   8
ATOM      8  C   UNL     1      50.112  21.958  19.467  1.00  0.00     0.004 C 
BRANCH   8   9
ATOM      9  C   UNL     1      50.501  23.363  18.924  1.00  0.00    -0.011 C 
ATOM     10  C   UNL     1      49.907  23.551  17.516  1.00  0.00     0.008 C 
BRANCH   9  11
ATOM     11  C   UNL     1      49.997  24.488  19.895  1.00  0.00    -0.002 C 
ATOM     12  C   UNL     1      49.648  23.967  21.318  1.00  0.00     0.005 C 
ATOM     13  C   UNL     1      50.952  25.692  20.173  1.00  0.00    -0.026 C 
ATOM     14  C   UNL     1      49.942  25.105  22.306  1.00  0.00     0.005 C 
ATOM     15  C   UNL     1      50.275  26.288  21.414  1.00  0.00    -0.001 C 
ATOM     16  C   UNL     1      50.962  26.802  19.063  1.00  0.00     0.007 C 
ATOM     17  C   UNL     1      52.391  25.157  20.476  1.00  0.00     0.012 C 
ATOM     18  C   UNL     1      51.012  27.502  22.063  1.00  0.00     0.004 C 
ATOM     19  C   UNL     1      50.983  28.264  19.607  1.00  0.00     0.005 C 
ATOM     20  C   UNL     1      51.744  28.363  20.956  1.00  0.00     0.003 C 
ATOM     21  C   UNL     1      49.978  28.287  22.937  1.00  0.00     0.085 C 
ATOM     22  C   UNL     1      52.155  29.805  21.436  1.00  0.00    -0.000 C 
ATOM     23  C   UNL     1      50.257  29.742  23.128  1.00  0.00     0.159 C 
ATOM     24  C   UNL     1      50.955  30.487  22.075  1.00  0.00     0.005 C 
ATOM     25  C   UNL     1      52.822  30.658  20.290  1.00  0.00     0.020 C 
ATOM     26  C   UNL     1      53.232  29.659  22.550  1.00  0.00     0.017 C 
ATOM     27  O   UNL     1      49.794  30.339  24.138  1.00  0.00    -0.295 OA
ATOM     28  C   UNL     1      50.536  31.715  21.729  1.00  0.00     0.055 C 
ATOM     29  C   UNL     1      51.880  31.629  19.569  1.00  0.00     0.081 C 
ATOM     30  C   UNL     1      51.089  32.405  20.565  1.00  0.00     0.156 C 
ATOM     31  O   UNL     1      50.804  33.613  20.351  1.00  0.00    -0.295 OA
ENDBRANCH   9  11
ENDBRANCH   8   9
ENDBRANCH   1   8
TORSDOF 6
ENDMDL
MODEL 8
REMARK VINA RESULT:    -7.119      4.559      6.896
REMARK INTER + INTRA:         -10.485
REMARK INTER:                  -9.656
REMARK INTRA:                  -0.829
REMARK UNBOUND:                -0.869
REMARK SMILES CC[C@H](CC[C@@H](C)[C@H]1CC[C@H]2[C@@H]3CC(=O)C4=CC(=O)CC[C@]4(C)[C@@H]3CC[C@]12C)C(C)C
REMARK SMILES IDX 4 1 3 2 2 3 1 4 29 5 30 6 31 7 5 8 6 9 7 10 8 11 9 12 27 13
REMARK SMILES IDX 10 14 11 15 26 16 28 17 12 18 25 19 24 20 13 21 22 22 14 23
REMARK SMILES IDX 16 24 21 25 23 26 15 27 17 28 20 29 18 30 19 31
REMARK H PARENT
REMARK Flexibility Score: inf
ROOT
ATOM      1  C   UNL     1      49.161  21.666  19.337  1.00  0.00     0.004 C 
ENDROOT
BRANCH   1   2
ATOM      2  C   UNL     1      48.405  20.374  19.784  1.00  0.00    -0.009 C 
BRANCH   2   3
ATOM      3  C   UNL     1      49.398  19.399  20.482  1.00  0.00     0.000 C 
ATOM      4  C   UNL     1      50.609  19.036  19.616  1.00  0.00     0.004 C 
ENDBRANCH   2   3
BRANCH   2   5
ATOM      5  C   UNL     1      47.191  20.684  20.734  1.00  0.00    -0.014 C 
ATOM      6  C   UNL     1      45.843  20.788  19.996  1.00  0.00     0.007 C 
ATOM      7  C   UNL     1      47.051  19.626  21.845  1.00  0.00     0.007 C 
ENDBRANCH   2   5
ENDBRANCH   1   2
BRANCH   1   8
ATOM      8  C   UNL     1      49.697  22.513  20.523  1.00  0.00     0.004 C 
BRANCH   8   9
ATOM      9  C   UNL     1      49.363  24.029  20.430  1.00  0.00    -0.011 C 
ATOM     10  C   UNL     1      47.968  24.285  21.030  1.00  0.00     0.008 C 
BRANCH   9  11
ATOM     11  C   UNL     1      50.452  24.880  21.174  1.00  0.00    -0.002 C 
ATOM     12  C   UNL     1      51.891  24.657  20.628  1.00  0.00     0.005 C 
ATOM     13  C   UNL     1      50.296  26.433  21.163  1.00  0.00    -0.026 C 
ATOM     14  C   UNL     1      52.657  25.974  20.811  1.00  0.00     0.005 C 
ATOM     15  C   UNL     1      51.704  26.846  21.609  1.00  0.00    -0.001 C 
ATOM     16  C   UNL     1      49.281  27.007  22.215  1.00  0.00     0.007 C 
ATOM     17  C   UNL     1      49.963  26.913  19.711  1.00  0.00     0.012 C 
ATOM     18  C   UNL     1      51.975  28.384  21.637  1.00  0.00     0.004 C 
ATOM     19  C   UNL     1      49.760  28.304  22.939  1.00  0.00     0.005 C 
ATOM     20  C   UNL     1      50.660  29.173  22.021  1.00  0.00     0.003 C 
ATOM     21  C   UNL     1      53.202  28.643  22.574  1.00  0.00     0.085 C 
ATOM     22  C   UNL     1      50.915  30.658  22.478  1.00  0.00    -0.000 C 
ATOM     23  C   UNL     1      53.252  29.986  23.226  1.00  0.00     0.159 C 
ATOM     24  C   UNL     1      51.999  30.680  23.544  1.00  0.00     0.005 C 
ATOM     25  C   UNL     1      49.592  31.393  22.916  1.00  0.00     0.020 C 
ATOM     26  C   UNL     1      51.471  31.453  21.260  1.00  0.00     0.017 C 
ATOM     27  O   UNL     1      54.360  30.459  23.597  1.00  0.00    -0.295 OA
ATOM     28  C   UNL     1      51.859  31.306  24.724  1.00  0.00     0.055 C 
ATOM     29  C   UNL     1      49.333  31.423  24.427  1.00  0.00     0.081 C 
ATOM     30  C   UNL     1      50.567  31.846  25.146  1.00  0.00     0.156 C 
ATOM     31  O   UNL     1      50.489  32.568  26.175  1.00  0.00    -0.295 OA
ENDBRANCH   9  11
ENDBRANCH   8   9
ENDBRANCH   1   8
TORSDOF 6
ENDMDL
MODEL 9
REMARK VINA RESULT:    -7.075      2.606      4.613
REMARK INTER + INTRA:         -10.426
REMARK INTER:                  -8.728
REMARK INTRA:                  -1.698
REMARK UNBOUND:                -0.869
REMARK SMILES CC[C@H](CC[C@@H](C)[C@H]1CC[C@H]2[C@@H]3CC(=O)C4=CC(=O)CC[C@]4(C)[C@@H]3CC[C@]12C)C(C)C
REMARK SMILES IDX 4 1 3 2 2 3 1 4 29 5 30 6 31 7 5 8 6 9 7 10 8 11 9 12 27 13
REMARK SMILES IDX 10 14 11 15 26 16 28 17 12 18 25 19 24 20 13 21 22 22 14 23
REMARK SMILES IDX 16 24 21 25 23 26 15 27 17 28 20 29 18 30 19 31
REMARK H PARENT
REMARK Flexibility Score: inf
ROOT
ATOM      1  C   UNL     1      50.152  22.808  20.790  1.00  0.00     0.004 C 
ENDROOT
BRANCH   1   2
ATOM      2  C   UNL     1      49.257  22.488  19.549  1.00  0.00    -0.009 C 
BRANCH   2   3
ATOM      3  C   UNL     1      50.104  22.595  18.247  1.00  0.00     0.000 C 
ATOM      4  C   UNL     1      51.615  22.575  18.498  1.00  0.00     0.004 C 
ENDBRANCH   2   3
BRANCH   2   5
ATOM      5  C   UNL     1      48.581  21.072  19.644  1.00  0.00    -0.014 C 
ATOM      6  C   UNL     1      49.459  20.016  20.340  1.00  0.00     0.007 C 
ATOM      7  C   UNL     1      47.227  21.134  20.380  1.00  0.00     0.007 C 
ENDBRANCH   2   5
ENDBRANCH   1   2
BRANCH   1   8
ATOM      8  C   UNL     1      49.793  24.151  21.483  1.00  0.00     0.004 C 
BRANCH   8   9
ATOM      9  C   UNL     1      49.293  25.259  20.513  1.00  0.00    -0.011 C 
ATOM     10  C   UNL     1      47.940  25.803  21.010  1.00  0.00     0.008 C 
BRANCH   9  11
ATOM     11  C   UNL     1      50.350  26.413  20.402  1.00  0.00    -0.002 C 
ATOM     12  C   UNL     1      51.809  25.943  20.663  1.00  0.00     0.005 C 
ATOM     13  C   UNL     1      50.452  27.181  19.045  1.00  0.00    -0.026 C 
ATOM     14  C   UNL     1      52.731  26.828  19.812  1.00  0.00     0.005 C 
ATOM     15  C   UNL     1      51.802  27.882  19.236  1.00  0.00    -0.001 C 
ATOM     16  C   UNL     1      49.368  28.295  18.829  1.00  0.00     0.007 C 
ATOM     17  C   UNL     1      50.473  26.152  17.866  1.00  0.00     0.012 C 
ATOM     18  C   UNL     1      52.309  28.707  18.012  1.00  0.00     0.004 C 
ATOM     19  C   UNL     1      49.909  29.611  18.190  1.00  0.00     0.005 C 
ATOM     20  C   UNL     1      51.090  29.335  17.223  1.00  0.00     0.003 C 
ATOM     21  C   UNL     1      53.369  29.738  18.526  1.00  0.00     0.085 C 
ATOM     22  C   UNL     1      51.495  30.500  16.245  1.00  0.00    -0.000 C 
ATOM     23  C   UNL     1      53.515  30.983  17.714  1.00  0.00     0.159 C 
ATOM     24  C   UNL     1      52.354  31.511  16.988  1.00  0.00     0.005 C 
ATOM     25  C   UNL     1      50.250  31.147  15.525  1.00  0.00     0.020 C 
ATOM     26  C   UNL     1      52.385  29.902  15.116  1.00  0.00     0.017 C 
ATOM     27  O   UNL     1      54.598  31.627  17.748  1.00  0.00    -0.295 OA
ATOM     28  C   UNL     1      52.103  32.830  16.992  1.00  0.00     0.055 C 
ATOM     29  C   UNL     1      49.727  32.438  16.164  1.00  0.00     0.081 C 
ATOM     30  C   UNL     1      50.860  33.366  16.437  1.00  0.00     0.156 C 
ATOM     31  O   UNL     1      50.713  34.610  16.302  1.00  0.00    -0.295 OA
ENDBRANCH   9  11
ENDBRANCH   8   9
ENDBRANCH   1   8
TORSDOF 6
ENDMDL
