MODEL 1
REMARK VINA RESULT:    -5.686      0.000      0.000
REMARK INTER + INTRA:          -7.663
REMARK INTER:                  -7.680
REMARK INTRA:                   0.018
REMARK UNBOUND:                 0.018
REMARK SMILES O=c1c(-c2ccc(O)cc2)coc2c([C@H]3O[C@H](CO)[C@@H](O)[C@H](O)[C@H]3O)c(O)ccc12
REMARK SMILES IDX 3 1 11 2 12 3 13 4 30 5 2 6 1 7 29 8 28 9 26 10 14 11 4 12
REMARK SMILES IDX 5 13 6 14 7 15 10 16 9 17 8 18 15 20 24 21 16 22 22 23 17 24
REMARK SMILES IDX 20 25 25 26 23 28 18 30 19 31 21 33 27 35
REMARK H PARENT 8 19 25 27 23 29 19 32 21 34 27 36
REMARK Flexibility Score: inf
ROOT
ATOM      1  C   UNL     1     -17.546  21.786  14.521  1.00  0.00     0.065 A 
ATOM      2  C   UNL     1     -18.106  22.067  13.260  1.00  0.00     0.208 A 
ATOM      3  O   UNL     1     -17.349  22.045  12.158  1.00  0.00    -0.463 OA
ATOM      4  C   UNL     1     -16.049  21.728  12.173  1.00  0.00     0.147 A 
ATOM      5  C   UNL     1     -15.416  21.422  13.407  1.00  0.00     0.066 A 
ATOM      6  C   UNL     1     -16.175  21.471  14.591  1.00  0.00     0.200 A 
ATOM      7  O   UNL     1     -15.637  21.206  15.708  1.00  0.00    -0.288 OA
ATOM      8  C   UNL     1     -14.072  21.021  13.422  1.00  0.00     0.020 A 
ATOM      9  C   UNL     1     -13.368  20.885  12.235  1.00  0.00     0.047 A 
ATOM     10  C   UNL     1     -13.971  21.180  11.007  1.00  0.00     0.125 A 
ATOM     11  C   UNL     1     -15.304  21.677  10.957  1.00  0.00     0.069 A 
ENDROOT
BRANCH   1  12
ATOM     12  C   UNL     1     -18.383  21.785  15.744  1.00  0.00    -0.011 A 
ATOM     13  C   UNL     1     -18.160  22.734  16.758  1.00  0.00     0.013 A 
ATOM     14  C   UNL     1     -19.006  22.784  17.869  1.00  0.00     0.047 A 
ATOM     15  C   UNL     1     -20.078  21.874  17.989  1.00  0.00     0.115 A 
ATOM     16  C   UNL     1     -19.459  20.881  15.865  1.00  0.00     0.013 A 
ATOM     17  C   UNL     1     -20.295  20.921  16.986  1.00  0.00     0.047 A 
BRANCH  15  18
ATOM     18  O   UNL     1     -20.936  21.924  19.089  1.00  0.00    -0.508 OA
ATOM     19  H   UNL     1     -21.879  22.261  18.992  1.00  0.00     0.293 HD
ENDBRANCH  15  18
ENDBRANCH   1  12
BRANCH  11  20
ATOM     20  C   UNL     1     -15.967  21.989   9.607  1.00  0.00     0.188 C 
ATOM     21  C   UNL     1     -16.155  23.536   9.461  1.00  0.00     0.179 C 
ATOM     22  O   UNL     1     -17.161  21.216   9.538  1.00  0.00    -0.362 OA
ATOM     23  C   UNL     1     -17.137  23.929   8.349  1.00  0.00     0.177 C 
ATOM     24  C   UNL     1     -18.052  21.540   8.469  1.00  0.00     0.176 C 
ATOM     25  C   UNL     1     -18.399  23.050   8.356  1.00  0.00     0.177 C 
BRANCH  21  26
ATOM     26  O   UNL     1     -16.478  24.201  10.668  1.00  0.00    -0.387 OA
ATOM     27  H   UNL     1     -17.415  24.498  10.619  1.00  0.00     0.211 HD
ENDBRANCH  21  26
BRANCH  23  28
ATOM     28  O   UNL     1     -16.497  23.818   7.096  1.00  0.00    -0.387 OA
ATOM     29  H   UNL     1     -17.159  24.080   6.409  1.00  0.00     0.211 HD
ENDBRANCH  23  28
BRANCH  24  30
ATOM     30  C   UNL     1     -17.639  20.875   7.126  1.00  0.00     0.191 C 
BRANCH  30  31
ATOM     31  O   UNL     1     -16.251  20.985   6.959  1.00  0.00    -0.394 OA
ATOM     32  H   UNL     1     -15.866  20.056   6.986  1.00  0.00     0.210 HD
ENDBRANCH  30  31
ENDBRANCH  24  30
BRANCH  25  33
ATOM     33  O   UNL     1     -19.290  23.474   9.375  1.00  0.00    -0.388 OA
ATOM     34  H   UNL     1     -20.037  22.808   9.425  1.00  0.00     0.211 HD
ENDBRANCH  25  33
ENDBRANCH  11  20
BRANCH  10  35
ATOM     35  O   UNL     1     -13.240  20.941   9.834  1.00  0.00    -0.507 OA
ATOM     36  H   UNL     1     -13.428  21.450   8.981  1.00  0.00     0.293 HD
ENDBRANCH  10  35
TORSDOF 9
ENDMDL
MODEL 2
REMARK VINA RESULT:    -4.714      2.727      4.614
REMARK INTER + INTRA:          -6.349
REMARK INTER:                  -7.074
REMARK INTRA:                   0.725
REMARK UNBOUND:                 0.018
REMARK SMILES O=c1c(-c2ccc(O)cc2)coc2c([C@H]3O[C@H](CO)[C@@H](O)[C@H](O)[C@H]3O)c(O)ccc12
REMARK SMILES IDX 3 1 11 2 12 3 13 4 30 5 2 6 1 7 29 8 28 9 26 10 14 11 4 12
REMARK SMILES IDX 5 13 6 14 7 15 10 16 9 17 8 18 15 20 24 21 16 22 22 23 17 24
REMARK SMILES IDX 20 25 25 26 23 28 18 30 19 31 21 33 27 35
REMARK H PARENT 8 19 25 27 23 29 19 32 21 34 27 36
REMARK Flexibility Score: inf
ROOT
ATOM      1  C   UNL     1     -16.577  22.019  16.982  1.00  0.00     0.065 A 
ATOM      2  C   UNL     1     -16.010  21.676  15.740  1.00  0.00     0.208 A 
ATOM      3  O   UNL     1     -16.748  21.697  14.626  1.00  0.00    -0.463 OA
ATOM      4  C   UNL     1     -18.032  22.072  14.608  1.00  0.00     0.147 A 
ATOM      5  C   UNL     1     -18.670  22.443  15.821  1.00  0.00     0.066 A 
ATOM      6  C   UNL     1     -17.933  22.397  17.020  1.00  0.00     0.200 A 
ATOM      7  O   UNL     1     -18.477  22.720  18.118  1.00  0.00    -0.288 OA
ATOM      8  C   UNL     1     -19.995  22.904  15.801  1.00  0.00     0.020 A 
ATOM      9  C   UNL     1     -20.673  23.035  14.598  1.00  0.00     0.047 A 
ATOM     10  C   UNL     1     -20.064  22.675  13.390  1.00  0.00     0.125 A 
ATOM     11  C   UNL     1     -18.754  22.119  13.378  1.00  0.00     0.069 A 
ENDROOT
BRANCH   1  12
ATOM     12  C   UNL     1     -15.760  22.020  18.219  1.00  0.00    -0.011 A 
ATOM     13  C   UNL     1     -15.766  20.904  19.076  1.00  0.00     0.013 A 
ATOM     14  C   UNL     1     -14.929  20.875  20.194  1.00  0.00     0.047 A 
ATOM     15  C   UNL     1     -14.088  21.970  20.482  1.00  0.00     0.115 A 
ATOM     16  C   UNL     1     -14.913  23.111  18.508  1.00  0.00     0.013 A 
ATOM     17  C   UNL     1     -14.089  23.088  19.638  1.00  0.00     0.047 A 
BRANCH  15  18
ATOM     18  O   UNL     1     -13.239  21.945  21.590  1.00  0.00    -0.508 OA
ATOM     19  H   UNL     1     -12.390  22.485  21.602  1.00  0.00     0.293 HD
ENDBRANCH  15  18
ENDBRANCH   1  12
BRANCH  11  20
ATOM     20  C   UNL     1     -18.084  21.736  12.050  1.00  0.00     0.188 C 
ATOM     21  C   UNL     1     -16.587  22.192  12.068  1.00  0.00     0.179 C 
ATOM     22  O   UNL     1     -18.882  22.286  11.006  1.00  0.00    -0.362 OA
ATOM     23  C   UNL     1     -15.939  22.211  10.677  1.00  0.00     0.177 C 
ATOM     24  C   UNL     1     -18.305  22.254   9.699  1.00  0.00     0.176 C 
ATOM     25  C   UNL     1     -16.865  22.829   9.616  1.00  0.00     0.177 C 
BRANCH  21  26
ATOM     26  O   UNL     1     -16.358  23.416  12.740  1.00  0.00    -0.387 OA
ATOM     27  H   UNL     1     -16.972  24.093  12.373  1.00  0.00     0.211 HD
ENDBRANCH  21  26
BRANCH  23  28
ATOM     28  O   UNL     1     -15.606  20.892  10.296  1.00  0.00    -0.387 OA
ATOM     29  H   UNL     1     -15.142  20.953   9.424  1.00  0.00     0.211 HD
ENDBRANCH  23  28
BRANCH  24  30
ATOM     30  C   UNL     1     -18.486  20.875   9.002  1.00  0.00     0.191 C 
BRANCH  30  31
ATOM     31  O   UNL     1     -17.914  20.923   7.723  1.00  0.00    -0.394 OA
ATOM     32  H   UNL     1     -18.325  20.184   7.177  1.00  0.00     0.210 HD
ENDBRANCH  30  31
ENDBRANCH  24  30
BRANCH  25  33
ATOM     33  O   UNL     1     -16.846  24.245   9.709  1.00  0.00    -0.388 OA
ATOM     34  H   UNL     1     -17.518  24.602   9.058  1.00  0.00     0.211 HD
ENDBRANCH  25  33
ENDBRANCH  11  20
BRANCH  10  35
ATOM     35  O   UNL     1     -20.765  22.911  12.198  1.00  0.00    -0.507 OA
ATOM     36  H   UNL     1     -21.038  23.844  11.922  1.00  0.00     0.293 HD
ENDBRANCH  10  35
TORSDOF 9
ENDMDL
MODEL 3
REMARK VINA RESULT:    -4.291      2.204      3.859
REMARK INTER + INTRA:          -5.779
REMARK INTER:                  -6.013
REMARK INTRA:                   0.235
REMARK UNBOUND:                 0.018
REMARK SMILES O=c1c(-c2ccc(O)cc2)coc2c([C@H]3O[C@H](CO)[C@@H](O)[C@H](O)[C@H]3O)c(O)ccc12
REMARK SMILES IDX 3 1 11 2 12 3 13 4 30 5 2 6 1 7 29 8 28 9 26 10 14 11 4 12
REMARK SMILES IDX 5 13 6 14 7 15 10 16 9 17 8 18 15 20 24 21 16 22 22 23 17 24
REMARK SMILES IDX 20 25 25 26 23 28 18 30 19 31 21 33 27 35
REMARK H PARENT 8 19 25 27 23 29 19 32 21 34 27 36
REMARK Flexibility Score: inf
ROOT
ATOM      1  C   UNL     1     -17.778  22.115  15.272  1.00  0.00     0.065 A 
ATOM      2  C   UNL     1     -17.100  21.564  14.168  1.00  0.00     0.208 A 
ATOM      3  O   UNL     1     -17.515  21.812  12.922  1.00  0.00    -0.463 OA
ATOM      4  C   UNL     1     -18.553  22.609  12.644  1.00  0.00     0.147 A 
ATOM      5  C   UNL     1     -19.280  23.210  13.705  1.00  0.00     0.066 A 
ATOM      6  C   UNL     1     -18.893  22.941  15.032  1.00  0.00     0.200 A 
ATOM      7  O   UNL     1     -19.524  23.461  16.001  1.00  0.00    -0.288 OA
ATOM      8  C   UNL     1     -20.325  24.101  13.420  1.00  0.00     0.020 A 
ATOM      9  C   UNL     1     -20.628  24.429  12.107  1.00  0.00     0.047 A 
ATOM     10  C   UNL     1     -19.925  23.849  11.044  1.00  0.00     0.125 A 
ATOM     11  C   UNL     1     -18.919  22.872  11.290  1.00  0.00     0.069 A 
ENDROOT
BRANCH   1  12
ATOM     12  C   UNL     1     -17.311  21.865  16.657  1.00  0.00    -0.011 A 
ATOM     13  C   UNL     1     -18.134  21.186  17.573  1.00  0.00     0.013 A 
ATOM     14  C   UNL     1     -17.656  20.876  18.849  1.00  0.00     0.047 A 
ATOM     15  C   UNL     1     -16.353  21.257  19.232  1.00  0.00     0.115 A 
ATOM     16  C   UNL     1     -16.006  22.239  17.042  1.00  0.00     0.013 A 
ATOM     17  C   UNL     1     -15.536  21.943  18.326  1.00  0.00     0.047 A 
BRANCH  15  18
ATOM     18  O   UNL     1     -15.862  20.941  20.500  1.00  0.00    -0.508 OA
ATOM     19  H   UNL     1     -15.757  21.652  21.204  1.00  0.00     0.293 HD
ENDBRANCH  15  18
ENDBRANCH   1  12
BRANCH  11  20
ATOM     20  C   UNL     1     -18.142  22.247  10.122  1.00  0.00     0.188 C 
ATOM     21  C   UNL     1     -16.609  22.498  10.318  1.00  0.00     0.179 C 
ATOM     22  O   UNL     1     -18.701  22.769   8.920  1.00  0.00    -0.362 OA
ATOM     23  C   UNL     1     -15.785  22.263   9.045  1.00  0.00     0.177 C 
ATOM     24  C   UNL     1     -17.966  22.503   7.724  1.00  0.00     0.176 C 
ATOM     25  C   UNL     1     -16.458  22.867   7.801  1.00  0.00     0.177 C 
BRANCH  21  26
ATOM     26  O   UNL     1     -16.293  23.752  10.891  1.00  0.00    -0.387 OA
ATOM     27  H   UNL     1     -15.435  23.669  11.367  1.00  0.00     0.211 HD
ENDBRANCH  21  26
BRANCH  23  28
ATOM     28  O   UNL     1     -15.605  20.876   8.852  1.00  0.00    -0.387 OA
ATOM     29  H   UNL     1     -14.666  20.744   8.568  1.00  0.00     0.211 HD
ENDBRANCH  23  28
BRANCH  24  30
ATOM     30  C   UNL     1     -18.255  21.087   7.149  1.00  0.00     0.191 C 
BRANCH  30  31
ATOM     31  O   UNL     1     -19.640  20.875   7.109  1.00  0.00    -0.394 OA
ATOM     32  H   UNL     1     -20.015  21.446   6.371  1.00  0.00     0.210 HD
ENDBRANCH  30  31
ENDBRANCH  24  30
BRANCH  25  33
ATOM     33  O   UNL     1     -16.241  24.268   7.754  1.00  0.00    -0.388 OA
ATOM     34  H   UNL     1     -16.577  24.658   8.614  1.00  0.00     0.211 HD
ENDBRANCH  25  33
ENDBRANCH  11  20
BRANCH  10  35
ATOM     35  O   UNL     1     -20.216  24.282   9.742  1.00  0.00    -0.507 OA
ATOM     36  H   UNL     1     -21.069  24.010   9.273  1.00  0.00     0.293 HD
ENDBRANCH  10  35
TORSDOF 9
ENDMDL
MODEL 4
REMARK VINA RESULT:    -3.901      2.552      7.581
REMARK INTER + INTRA:          -5.251
REMARK INTER:                  -5.321
REMARK INTRA:                   0.070
REMARK UNBOUND:                 0.018
REMARK SMILES O=c1c(-c2ccc(O)cc2)coc2c([C@H]3O[C@H](CO)[C@@H](O)[C@H](O)[C@H]3O)c(O)ccc12
REMARK SMILES IDX 3 1 11 2 12 3 13 4 30 5 2 6 1 7 29 8 28 9 26 10 14 11 4 12
REMARK SMILES IDX 5 13 6 14 7 15 10 16 9 17 8 18 15 20 24 21 16 22 22 23 17 24
REMARK SMILES IDX 20 25 25 26 23 28 18 30 19 31 21 33 27 35
REMARK H PARENT 8 19 25 27 23 29 19 32 21 34 27 36
REMARK Flexibility Score: inf
ROOT
ATOM      1  C   UNL     1     -15.071  21.844  11.596  1.00  0.00     0.065 A 
ATOM      2  C   UNL     1     -16.445  22.153  11.558  1.00  0.00     0.208 A 
ATOM      3  O   UNL     1     -17.207  21.996  12.645  1.00  0.00    -0.463 OA
ATOM      4  C   UNL     1     -16.724  21.581  13.821  1.00  0.00     0.147 A 
ATOM      5  C   UNL     1     -15.346  21.261  13.940  1.00  0.00     0.066 A 
ATOM      6  C   UNL     1     -14.520  21.380  12.805  1.00  0.00     0.200 A 
ATOM      7  O   UNL     1     -13.287  21.098  12.879  1.00  0.00    -0.288 OA
ATOM      8  C   UNL     1     -14.818  20.892  15.186  1.00  0.00     0.020 A 
ATOM      9  C   UNL     1     -15.628  20.875  16.312  1.00  0.00     0.047 A 
ATOM     10  C   UNL     1     -16.990  21.187  16.220  1.00  0.00     0.125 A 
ATOM     11  C   UNL     1     -17.581  21.478  14.958  1.00  0.00     0.069 A 
ENDROOT
BRANCH   1  12
ATOM     12  C   UNL     1     -14.214  22.038  10.402  1.00  0.00    -0.011 A 
ATOM     13  C   UNL     1     -13.138  21.168  10.152  1.00  0.00     0.013 A 
ATOM     14  C   UNL     1     -12.386  21.301   8.982  1.00  0.00     0.047 A 
ATOM     15  C   UNL     1     -12.690  22.318   8.053  1.00  0.00     0.115 A 
ATOM     16  C   UNL     1     -14.518  23.050   9.468  1.00  0.00     0.013 A 
ATOM     17  C   UNL     1     -13.753  23.194   8.305  1.00  0.00     0.047 A 
BRANCH  15  18
ATOM     18  O   UNL     1     -11.952  22.452   6.875  1.00  0.00    -0.508 OA
ATOM     19  H   UNL     1     -12.373  22.268   5.980  1.00  0.00     0.293 HD
ENDBRANCH  15  18
ENDBRANCH   1  12
BRANCH  11  20
ATOM     20  C   UNL     1     -19.072  21.831  14.862  1.00  0.00     0.188 C 
ATOM     21  C   UNL     1     -19.237  23.383  14.737  1.00  0.00     0.179 C 
ATOM     22  O   UNL     1     -19.717  21.234  15.984  1.00  0.00    -0.362 OA
ATOM     23  C   UNL     1     -20.664  23.869  15.020  1.00  0.00     0.177 C 
ATOM     24  C   UNL     1     -21.066  21.642  16.217  1.00  0.00     0.176 C 
ATOM     25  C   UNL     1     -21.276  23.180  16.251  1.00  0.00     0.177 C 
BRANCH  21  26
ATOM     26  O   UNL     1     -18.298  24.131  15.486  1.00  0.00    -0.387 OA
ATOM     27  H   UNL     1     -18.216  25.024  15.079  1.00  0.00     0.211 HD
ENDBRANCH  21  26
BRANCH  23  28
ATOM     28  O   UNL     1     -21.478  23.621  13.892  1.00  0.00    -0.387 OA
ATOM     29  H   UNL     1     -20.994  22.969  13.326  1.00  0.00     0.211 HD
ENDBRANCH  23  28
BRANCH  24  30
ATOM     30  C   UNL     1     -22.084  20.875  15.326  1.00  0.00     0.191 C 
BRANCH  30  31
ATOM     31  O   UNL     1     -23.381  21.091  15.810  1.00  0.00    -0.394 OA
ATOM     32  H   UNL     1     -23.660  22.017  15.534  1.00  0.00     0.210 HD
ENDBRANCH  30  31
ENDBRANCH  24  30
BRANCH  25  33
ATOM     33  O   UNL     1     -20.777  23.765  17.443  1.00  0.00    -0.388 OA
ATOM     34  H   UNL     1     -21.534  24.251  17.884  1.00  0.00     0.211 HD
ENDBRANCH  25  33
ENDBRANCH  11  20
BRANCH  10  35
ATOM     35  O   UNL     1     -17.740  21.238  17.404  1.00  0.00    -0.507 OA
ATOM     36  H   UNL     1     -18.141  20.404  17.811  1.00  0.00     0.293 HD
ENDBRANCH  10  35
TORSDOF 9
ENDMDL
MODEL 5
REMARK VINA RESULT:    -3.232      3.331      5.403
REMARK INTER + INTRA:          -4.347
REMARK INTER:                  -5.896
REMARK INTRA:                   1.549
REMARK UNBOUND:                 0.018
REMARK SMILES O=c1c(-c2ccc(O)cc2)coc2c([C@H]3O[C@H](CO)[C@@H](O)[C@H](O)[C@H]3O)c(O)ccc12
REMARK SMILES IDX 3 1 11 2 12 3 13 4 30 5 2 6 1 7 29 8 28 9 26 10 14 11 4 12
REMARK SMILES IDX 5 13 6 14 7 15 10 16 9 17 8 18 15 20 24 21 16 22 22 23 17 24
REMARK SMILES IDX 20 25 25 26 23 28 18 30 19 31 21 33 27 35
REMARK H PARENT 8 19 25 27 23 29 19 32 21 34 27 36
REMARK Flexibility Score: inf
ROOT
ATOM      1  C   UNL     1     -16.492  22.043  17.548  1.00  0.00     0.065 A 
ATOM      2  C   UNL     1     -16.260  22.641  16.295  1.00  0.00     0.208 A 
ATOM      3  O   UNL     1     -17.214  22.649  15.358  1.00  0.00    -0.463 OA
ATOM      4  C   UNL     1     -18.434  22.135  15.555  1.00  0.00     0.147 A 
ATOM      5  C   UNL     1     -18.746  21.526  16.799  1.00  0.00     0.066 A 
ATOM      6  C   UNL     1     -17.753  21.467  17.795  1.00  0.00     0.200 A 
ATOM      7  O   UNL     1     -18.000  20.926  18.915  1.00  0.00    -0.288 OA
ATOM      8  C   UNL     1     -20.043  21.048  17.038  1.00  0.00     0.020 A 
ATOM      9  C   UNL     1     -21.034  21.203  16.080  1.00  0.00     0.047 A 
ATOM     10  C   UNL     1     -20.750  21.802  14.846  1.00  0.00     0.125 A 
ATOM     11  C   UNL     1     -19.425  22.216  14.532  1.00  0.00     0.069 A 
ENDROOT
BRANCH   1  12
ATOM     12  C   UNL     1     -15.448  22.050  18.601  1.00  0.00    -0.011 A 
ATOM     13  C   UNL     1     -14.779  23.242  18.930  1.00  0.00     0.013 A 
ATOM     14  C   UNL     1     -13.857  23.262  19.980  1.00  0.00     0.047 A 
ATOM     15  C   UNL     1     -13.579  22.085  20.705  1.00  0.00     0.115 A 
ATOM     16  C   UNL     1     -15.171  20.875  19.332  1.00  0.00     0.013 A 
ATOM     17  C   UNL     1     -14.235  20.893  20.371  1.00  0.00     0.047 A 
BRANCH  15  18
ATOM     18  O   UNL     1     -12.670  22.097  21.764  1.00  0.00    -0.508 OA
ATOM     19  H   UNL     1     -11.865  22.700  21.745  1.00  0.00     0.293 HD
ENDBRANCH  15  18
ENDBRANCH   1  12
BRANCH  11  20
ATOM     20  C   UNL     1     -19.120  22.883  13.182  1.00  0.00     0.188 C 
ATOM     21  C   UNL     1     -20.020  24.152  13.009  1.00  0.00     0.179 C 
ATOM     22  O   UNL     1     -19.269  21.883  12.178  1.00  0.00    -0.362 OA
ATOM     23  C   UNL     1     -20.079  24.665  11.564  1.00  0.00     0.177 C 
ATOM     24  C   UNL     1     -19.267  22.351  10.828  1.00  0.00     0.176 C 
ATOM     25  C   UNL     1     -20.250  23.521  10.551  1.00  0.00     0.177 C 
BRANCH  21  26
ATOM     26  O   UNL     1     -21.323  24.020  13.544  1.00  0.00    -0.387 OA
ATOM     27  H   UNL     1     -21.514  24.811  14.099  1.00  0.00     0.211 HD
ENDBRANCH  21  26
BRANCH  23  28
ATOM     28  O   UNL     1     -18.896  25.378  11.269  1.00  0.00    -0.387 OA
ATOM     29  H   UNL     1     -18.442  25.550  12.131  1.00  0.00     0.211 HD
ENDBRANCH  23  28
BRANCH  24  30
ATOM     30  C   UNL     1     -17.830  22.577  10.277  1.00  0.00     0.191 C 
BRANCH  30  31
ATOM     31  O   UNL     1     -17.026  23.124  11.287  1.00  0.00    -0.394 OA
ATOM     32  H   UNL     1     -16.093  22.772  11.158  1.00  0.00     0.210 HD
ENDBRANCH  30  31
ENDBRANCH  24  30
BRANCH  25  33
ATOM     33  O   UNL     1     -21.602  23.090  10.516  1.00  0.00    -0.388 OA
ATOM     34  H   UNL     1     -21.983  23.355   9.629  1.00  0.00     0.211 HD
ENDBRANCH  25  33
ENDBRANCH  11  20
BRANCH  10  35
ATOM     35  O   UNL     1     -21.809  22.010  13.951  1.00  0.00    -0.507 OA
ATOM     36  H   UNL     1     -22.462  21.272  13.724  1.00  0.00     0.293 HD
ENDBRANCH  10  35
TORSDOF 9
ENDMDL
