MODEL 1
REMARK VINA RESULT:    -2.462      0.000      0.000
REMARK INTER + INTRA:          -2.678
REMARK INTER:                  -2.678
REMARK INTRA:                   0.000
REMARK UNBOUND:                 0.000
REMARK SMILES [NH3+]CC(=O)[O-]
REMARK SMILES IDX 2 1 1 2 3 6 4 7 5 8
REMARK H PARENT 1 3 1 4 1 5
REMARK Flexibility Score: inf
ROOT
ATOM      1  C   UNL     1      32.271   6.329   1.530  1.00  0.00     0.312 C 
ENDROOT
BRANCH   1   2
ATOM      2  N   UNL     1      32.961   6.486   2.808  1.00  0.00    -0.353 N 
ATOM      3  H   UNL     1      32.412   7.116   3.438  1.00  0.00     0.344 HD
ATOM      4  H   UNL     1      33.088   5.554   3.266  1.00  0.00     0.344 HD
ATOM      5  H   UNL     1      33.901   6.912   2.640  1.00  0.00     0.344 HD
ENDBRANCH   1   2
BRANCH   1   6
ATOM      6  C   UNL     1      32.262   7.621   0.772  1.00  0.00     0.096 C 
ATOM      7  O   UNL     1      31.560   8.585   1.174  1.00  0.00    -0.544 OA
ATOM      8  O   UNL     1      32.990   7.742  -0.404  1.00  0.00    -0.544 OA
ENDBRANCH   1   6
TORSDOF 2
ENDMDL
MODEL 2
REMARK VINA RESULT:    -2.438      0.140      1.455
REMARK INTER + INTRA:          -2.652
REMARK INTER:                  -2.652
REMARK INTRA:                   0.000
REMARK UNBOUND:                 0.000
REMARK SMILES [NH3+]CC(=O)[O-]
REMARK SMILES IDX 2 1 1 2 3 6 4 7 5 8
REMARK H PARENT 1 3 1 4 1 5
REMARK Flexibility Score: inf
ROOT
ATOM      1  C   UNL     1      32.318   6.225   1.363  1.00  0.00     0.312 C 
ENDROOT
BRANCH   1   2
ATOM      2  N   UNL     1      32.959   6.353   2.670  1.00  0.00    -0.353 N 
ATOM      3  H   UNL     1      33.141   5.405   3.075  1.00  0.00     0.344 HD
ATOM      4  H   UNL     1      33.860   6.877   2.579  1.00  0.00     0.344 HD
ATOM      5  H   UNL     1      32.325   6.879   3.313  1.00  0.00     0.344 HD
ENDBRANCH   1   2
BRANCH   1   6
ATOM      6  C   UNL     1      32.281   7.548   0.662  1.00  0.00     0.096 C 
ATOM      7  O   UNL     1      32.961   7.731  -0.382  1.00  0.00    -0.544 OA
ATOM      8  O   UNL     1      31.535   8.594   1.189  1.00  0.00    -0.544 OA
ENDBRANCH   1   6
TORSDOF 2
ENDMDL
MODEL 3
REMARK VINA RESULT:    -2.319      1.489      1.489
REMARK INTER + INTRA:          -2.522
REMARK INTER:                  -2.522
REMARK INTRA:                   0.000
REMARK UNBOUND:                 0.000
REMARK SMILES [NH3+]CC(=O)[O-]
REMARK SMILES IDX 2 1 1 2 3 6 4 7 5 8
REMARK H PARENT 1 3 1 4 1 5
REMARK Flexibility Score: inf
ROOT
ATOM      1  C   UNL     1      32.584   5.855   0.173  1.00  0.00     0.312 C 
ENDROOT
BRANCH   1   2
ATOM      2  N   UNL     1      33.851   5.306   0.652  1.00  0.00    -0.353 N 
ATOM      3  H   UNL     1      33.682   4.414   1.173  1.00  0.00     0.344 HD
ATOM      4  H   UNL     1      34.494   5.127  -0.154  1.00  0.00     0.344 HD
ATOM      5  H   UNL     1      34.300   5.995   1.297  1.00  0.00     0.344 HD
ENDBRANCH   1   2
BRANCH   1   6
ATOM      6  C   UNL     1      32.682   7.341   0.008  1.00  0.00     0.096 C 
ATOM      7  O   UNL     1      32.102   8.107   0.821  1.00  0.00    -0.544 OA
ATOM      8  O   UNL     1      33.371   7.877  -1.072  1.00  0.00    -0.544 OA
ENDBRANCH   1   6
TORSDOF 2
ENDMDL
MODEL 4
REMARK VINA RESULT:    -2.286      2.260      2.668
REMARK INTER + INTRA:          -2.486
REMARK INTER:                  -2.486
REMARK INTRA:                   0.000
REMARK UNBOUND:                 0.000
REMARK SMILES [NH3+]CC(=O)[O-]
REMARK SMILES IDX 2 1 1 2 3 6 4 7 5 8
REMARK H PARENT 1 3 1 4 1 5
REMARK Flexibility Score: inf
ROOT
ATOM      1  C   UNL     1      33.410   5.802  -0.551  1.00  0.00     0.312 C 
ENDROOT
BRANCH   1   2
ATOM      2  N   UNL     1      34.831   5.568  -0.304  1.00  0.00    -0.353 N 
ATOM      3  H   UNL     1      34.954   4.760   0.350  1.00  0.00     0.344 HD
ATOM      4  H   UNL     1      35.326   5.372  -1.204  1.00  0.00     0.344 HD
ATOM      5  H   UNL     1      35.248   6.422   0.132  1.00  0.00     0.344 HD
ENDBRANCH   1   2
BRANCH   1   6
ATOM      6  C   UNL     1      33.119   7.270  -0.611  1.00  0.00     0.096 C 
ATOM      7  O   UNL     1      33.533   7.959  -1.581  1.00  0.00    -0.544 OA
ATOM      8  O   UNL     1      32.435   7.886   0.428  1.00  0.00    -0.544 OA
ENDBRANCH   1   6
TORSDOF 2
ENDMDL
MODEL 5
REMARK VINA RESULT:    -2.221     13.617     13.810
REMARK INTER + INTRA:          -2.415
REMARK INTER:                  -2.415
REMARK INTRA:                   0.000
REMARK UNBOUND:                 0.000
REMARK SMILES [NH3+]CC(=O)[O-]
REMARK SMILES IDX 2 1 1 2 3 6 4 7 5 8
REMARK H PARENT 1 3 1 4 1 5
REMARK Flexibility Score: inf
ROOT
ATOM      1  C   UNL     1      43.229   8.055   8.488  1.00  0.00     0.312 C 
ENDROOT
BRANCH   1   2
ATOM      2  N   UNL     1      42.865   7.970   7.075  1.00  0.00    -0.353 N 
ATOM      3  H   UNL     1      42.608   6.986   6.829  1.00  0.00     0.344 HD
ATOM      4  H   UNL     1      42.059   8.606   6.872  1.00  0.00     0.344 HD
ATOM      5  H   UNL     1      43.682   8.262   6.492  1.00  0.00     0.344 HD
ENDBRANCH   1   2
BRANCH   1   6
ATOM      6  C   UNL     1      43.986   6.834   8.912  1.00  0.00     0.096 C 
ATOM      7  O   UNL     1      44.404   6.017   8.050  1.00  0.00    -0.544 OA
ATOM      8  O   UNL     1      44.186   6.574  10.261  1.00  0.00    -0.544 OA
ENDBRANCH   1   6
TORSDOF 2
ENDMDL
MODEL 6
REMARK VINA RESULT:    -2.186      1.445      2.107
REMARK INTER + INTRA:          -2.378
REMARK INTER:                  -2.378
REMARK INTRA:                   0.000
REMARK UNBOUND:                 0.000
REMARK SMILES [NH3+]CC(=O)[O-]
REMARK SMILES IDX 2 1 1 2 3 6 4 7 5 8
REMARK H PARENT 1 3 1 4 1 5
REMARK Flexibility Score: inf
ROOT
ATOM      1  C   UNL     1      31.570   7.071   2.883  1.00  0.00     0.312 C 
ENDROOT
BRANCH   1   2
ATOM      2  N   UNL     1      32.882   6.583   2.465  1.00  0.00    -0.353 N 
ATOM      3  H   UNL     1      33.327   6.040   3.241  1.00  0.00     0.344 HD
ATOM      4  H   UNL     1      32.788   5.977   1.618  1.00  0.00     0.344 HD
ATOM      5  H   UNL     1      33.493   7.399   2.231  1.00  0.00     0.344 HD
ENDBRANCH   1   2
BRANCH   1   6
ATOM      6  C   UNL     1      30.961   7.928   1.815  1.00  0.00     0.096 C 
ATOM      7  O   UNL     1      31.698   8.571   1.023  1.00  0.00    -0.544 OA
ATOM      8  O   UNL     1      29.581   8.053   1.728  1.00  0.00    -0.544 OA
ENDBRANCH   1   6
TORSDOF 2
ENDMDL
MODEL 7
REMARK VINA RESULT:    -2.172      3.648      3.947
REMARK INTER + INTRA:          -2.362
REMARK INTER:                  -2.362
REMARK INTRA:                   0.000
REMARK UNBOUND:                 0.000
REMARK SMILES [NH3+]CC(=O)[O-]
REMARK SMILES IDX 2 1 1 2 3 6 4 7 5 8
REMARK H PARENT 1 3 1 4 1 5
REMARK Flexibility Score: inf
ROOT
ATOM      1  C   UNL     1      35.042   6.544  -2.106  1.00  0.00     0.312 C 
ENDROOT
BRANCH   1   2
ATOM      2  N   UNL     1      36.005   6.895  -1.064  1.00  0.00    -0.353 N 
ATOM      3  H   UNL     1      35.807   6.349  -0.194  1.00  0.00     0.344 HD
ATOM      4  H   UNL     1      36.978   6.695  -1.392  1.00  0.00     0.344 HD
ATOM      5  H   UNL     1      35.922   7.915  -0.851  1.00  0.00     0.344 HD
ENDBRANCH   1   2
BRANCH   1   6
ATOM      6  C   UNL     1      34.024   7.630  -2.273  1.00  0.00     0.096 C 
ATOM      7  O   UNL     1      33.318   7.991  -1.294  1.00  0.00    -0.544 OA
ATOM      8  O   UNL     1      33.821   8.208  -3.519  1.00  0.00    -0.544 OA
ENDBRANCH   1   6
TORSDOF 2
ENDMDL
MODEL 8
REMARK VINA RESULT:    -2.143     13.521     13.614
REMARK INTER + INTRA:          -2.330
REMARK INTER:                  -2.330
REMARK INTRA:                   0.000
REMARK UNBOUND:                 0.000
REMARK SMILES [NH3+]CC(=O)[O-]
REMARK SMILES IDX 2 1 1 2 3 6 4 7 5 8
REMARK H PARENT 1 3 1 4 1 5
REMARK Flexibility Score: inf
ROOT
ATOM      1  C   UNL     1      42.653   6.914   8.275  1.00  0.00     0.312 C 
ENDROOT
BRANCH   1   2
ATOM      2  N   UNL     1      42.933   7.790   7.140  1.00  0.00    -0.353 N 
ATOM      3  H   UNL     1      42.297   8.621   7.161  1.00  0.00     0.344 HD
ATOM      4  H   UNL     1      43.929   8.109   7.168  1.00  0.00     0.344 HD
ATOM      5  H   UNL     1      42.771   7.263   6.252  1.00  0.00     0.344 HD
ENDBRANCH   1   2
BRANCH   1   6
ATOM      6  C   UNL     1      43.394   7.375   9.493  1.00  0.00     0.096 C 
ATOM      7  O   UNL     1      43.270   8.561   9.898  1.00  0.00    -0.544 OA
ATOM      8  O   UNL     1      44.258   6.509  10.150  1.00  0.00    -0.544 OA
ENDBRANCH   1   6
TORSDOF 2
ENDMDL
MODEL 9
REMARK VINA RESULT:    -1.916      4.183      4.468
REMARK INTER + INTRA:          -2.083
REMARK INTER:                  -2.083
REMARK INTRA:                   0.000
REMARK UNBOUND:                 0.000
REMARK SMILES [NH3+]CC(=O)[O-]
REMARK SMILES IDX 2 1 1 2 3 6 4 7 5 8
REMARK H PARENT 1 3 1 4 1 5
REMARK Flexibility Score: inf
ROOT
ATOM      1  C   UNL     1      28.648   6.323   0.785  1.00  0.00     0.312 C 
ENDROOT
BRANCH   1   2
ATOM      2  N   UNL     1      27.584   6.273  -0.215  1.00  0.00    -0.353 N 
ATOM      3  H   UNL     1      27.400   7.232  -0.593  1.00  0.00     0.344 HD
ATOM      4  H   UNL     1      27.856   5.633  -0.997  1.00  0.00     0.344 HD
ATOM      5  H   UNL     1      26.711   5.911   0.231  1.00  0.00     0.344 HD
ENDBRANCH   1   2
BRANCH   1   6
ATOM      6  C   UNL     1      28.577   7.599   1.568  1.00  0.00     0.096 C 
ATOM      7  O   UNL     1      27.461   8.120   1.829  1.00  0.00    -0.544 OA
ATOM      8  O   UNL     1      29.745   8.237   1.964  1.00  0.00    -0.544 OA
ENDBRANCH   1   6
TORSDOF 2
ENDMDL
