MODEL 1
REMARK VINA RESULT:    -4.211      0.000      0.000
REMARK INTER + INTRA:         -12.257
REMARK INTER:                  -9.134
REMARK INTRA:                  -3.123
REMARK UNBOUND:                -3.123
REMARK SMILES CCCCCCCCCCCCCCCCCCCCCC(=O)[O-]
REMARK SMILES IDX 12 1 11 2 10 3 9 4 8 5 7 6 6 7 5 8 4 9 3 10 2 11 1 12 13 13
REMARK SMILES IDX 14 14 15 15 16 16 17 17 18 18 19 19 20 20 21 21 22 22 23 23
REMARK SMILES IDX 24 24
REMARK H PARENT
REMARK Flexibility Score: inf
ROOT
ATOM      1  C   UNL     1     154.763 171.316 163.936  1.00  0.00     0.000 C 
ENDROOT
BRANCH   1   2
ATOM      2  C   UNL     1     153.375 171.229 164.599  1.00  0.00     0.000 C 
BRANCH   2   3
ATOM      3  C   UNL     1     153.382 171.288 166.138  1.00  0.00     0.000 C 
BRANCH   3   4
ATOM      4  C   UNL     1     154.749 170.926 166.744  1.00  0.00    -0.000 C 
BRANCH   4   5
ATOM      5  C   UNL     1     155.447 172.129 167.397  1.00  0.00    -0.000 C 
BRANCH   5   6
ATOM      6  C   UNL     1     154.977 173.512 166.903  1.00  0.00    -0.000 C 
BRANCH   6   7
ATOM      7  C   UNL     1     155.981 174.223 165.970  1.00  0.00    -0.000 C 
BRANCH   7   8
ATOM      8  C   UNL     1     157.414 173.683 166.126  1.00  0.00    -0.000 C 
BRANCH   8   9
ATOM      9  C   UNL     1     158.462 174.574 165.442  1.00  0.00    -0.000 C 
BRANCH   9  10
ATOM     10  C   UNL     1     159.245 173.833 164.347  1.00  0.00    -0.000 C 
BRANCH  10  11
ATOM     11  C   UNL     1     158.292 173.239 163.302  1.00  0.00    -0.003 C 
ATOM     12  C   UNL     1     158.474 173.910 161.943  1.00  0.00     0.004 C 
ENDBRANCH  10  11
ENDBRANCH   9  10
ENDBRANCH   8   9
ENDBRANCH   7   8
ENDBRANCH   6   7
ENDBRANCH   5   6
ENDBRANCH   4   5
ENDBRANCH   3   4
ENDBRANCH   2   3
ENDBRANCH   1   2
BRANCH   1  13
ATOM     13  C   UNL     1     154.858 172.449 162.901  1.00  0.00     0.000 C 
BRANCH  13  14
ATOM     14  C   UNL     1     153.629 173.377 162.910  1.00  0.00     0.000 C 
BRANCH  14  15
ATOM     15  C   UNL     1     153.899 174.831 163.352  1.00  0.00     0.000 C 
BRANCH  15  16
ATOM     16  C   UNL     1     155.085 175.524 162.659  1.00  0.00     0.000 C 
BRANCH  16  17
ATOM     17  C   UNL     1     154.731 176.064 161.264  1.00  0.00     0.000 C 
BRANCH  17  18
ATOM     18  C   UNL     1     155.852 175.836 160.236  1.00  0.00     0.000 C 
BRANCH  18  19
ATOM     19  C   UNL     1     155.763 174.505 159.465  1.00  0.00     0.000 C 
BRANCH  19  20
ATOM     20  C   UNL     1     157.015 174.198 158.613  1.00  0.00     0.006 C 
BRANCH  20  21
ATOM     21  C   UNL     1     156.923 174.745 157.180  1.00  0.00     0.053 C 
BRANCH  21  22
ATOM     22  C   UNL     1     155.851 174.058 156.390  1.00  0.00     0.041 C 
ATOM     23  O   UNL     1     154.817 174.688 156.043  1.00  0.00    -0.550 OA
ATOM     24  O   UNL     1     155.991 172.719 156.044  1.00  0.00    -0.550 OA
ENDBRANCH  21  22
ENDBRANCH  20  21
ENDBRANCH  19  20
ENDBRANCH  18  19
ENDBRANCH  17  18
ENDBRANCH  16  17
ENDBRANCH  15  16
ENDBRANCH  14  15
ENDBRANCH  13  14
ENDBRANCH   1  13
TORSDOF 20
ENDMDL
MODEL 2
REMARK VINA RESULT:    -3.952      2.568      3.378
REMARK INTER + INTRA:         -11.696
REMARK INTER:                  -8.972
REMARK INTRA:                  -2.724
REMARK UNBOUND:                -3.123
REMARK SMILES CCCCCCCCCCCCCCCCCCCCCC(=O)[O-]
REMARK SMILES IDX 12 1 11 2 10 3 9 4 8 5 7 6 6 7 5 8 4 9 3 10 2 11 1 12 13 13
REMARK SMILES IDX 14 14 15 15 16 16 17 17 18 18 19 19 20 20 21 21 22 22 23 23
REMARK SMILES IDX 24 24
REMARK H PARENT
REMARK Flexibility Score: inf
ROOT
ATOM      1  C   UNL     1     154.764 171.353 164.831  1.00  0.00     0.000 C 
ENDROOT
BRANCH   1   2
ATOM      2  C   UNL     1     153.980 171.103 166.132  1.00  0.00     0.000 C 
BRANCH   2   3
ATOM      3  C   UNL     1     154.532 171.823 167.377  1.00  0.00     0.000 C 
BRANCH   3   4
ATOM      4  C   UNL     1     155.969 171.396 167.725  1.00  0.00    -0.000 C 
BRANCH   4   5
ATOM      5  C   UNL     1     156.935 172.587 167.829  1.00  0.00    -0.000 C 
BRANCH   5   6
ATOM      6  C   UNL     1     156.922 173.552 166.626  1.00  0.00    -0.000 C 
BRANCH   6   7
ATOM      7  C   UNL     1     158.326 173.961 166.132  1.00  0.00    -0.000 C 
BRANCH   7   8
ATOM      8  C   UNL     1     158.294 175.208 165.231  1.00  0.00    -0.000 C 
BRANCH   8   9
ATOM      9  C   UNL     1     159.644 175.942 165.183  1.00  0.00    -0.000 C 
BRANCH   9  10
ATOM     10  C   UNL     1     160.653 175.390 166.202  1.00  0.00    -0.000 C 
BRANCH  10  11
ATOM     11  C   UNL     1     161.944 174.941 165.503  1.00  0.00    -0.003 C 
ATOM     12  C   UNL     1     162.022 173.419 165.414  1.00  0.00     0.004 C 
ENDBRANCH  10  11
ENDBRANCH   9  10
ENDBRANCH   8   9
ENDBRANCH   7   8
ENDBRANCH   6   7
ENDBRANCH   5   6
ENDBRANCH   4   5
ENDBRANCH   3   4
ENDBRANCH   2   3
ENDBRANCH   1   2
BRANCH   1  13
ATOM     13  C   UNL     1     153.899 171.979 163.725  1.00  0.00     0.000 C 
BRANCH  13  14
ATOM     14  C   UNL     1     153.148 173.240 164.190  1.00  0.00     0.000 C 
BRANCH  14  15
ATOM     15  C   UNL     1     154.038 174.449 164.548  1.00  0.00     0.000 C 
BRANCH  15  16
ATOM     16  C   UNL     1     154.940 174.966 163.412  1.00  0.00     0.000 C 
BRANCH  16  17
ATOM     17  C   UNL     1     154.157 175.311 162.135  1.00  0.00     0.000 C 
BRANCH  17  18
ATOM     18  C   UNL     1     154.545 174.423 160.941  1.00  0.00     0.000 C 
BRANCH  18  19
ATOM     19  C   UNL     1     155.718 174.954 160.094  1.00  0.00     0.000 C 
BRANCH  19  20
ATOM     20  C   UNL     1     157.035 174.171 160.301  1.00  0.00     0.006 C 
BRANCH  20  21
ATOM     21  C   UNL     1     157.849 174.660 161.509  1.00  0.00     0.053 C 
BRANCH  21  22
ATOM     22  C   UNL     1     158.338 173.519 162.348  1.00  0.00     0.041 C 
ATOM     23  O   UNL     1     157.517 172.712 162.859  1.00  0.00    -0.550 OA
ATOM     24  O   UNL     1     159.699 173.351 162.571  1.00  0.00    -0.550 OA
ENDBRANCH  21  22
ENDBRANCH  20  21
ENDBRANCH  19  20
ENDBRANCH  18  19
ENDBRANCH  17  18
ENDBRANCH  16  17
ENDBRANCH  15  16
ENDBRANCH  14  15
ENDBRANCH  13  14
ENDBRANCH   1  13
TORSDOF 20
ENDMDL
MODEL 3
REMARK VINA RESULT:    -3.857      4.198      7.230
REMARK INTER + INTRA:         -11.491
REMARK INTER:                  -8.766
REMARK INTRA:                  -2.725
REMARK UNBOUND:                -3.123
REMARK SMILES CCCCCCCCCCCCCCCCCCCCCC(=O)[O-]
REMARK SMILES IDX 12 1 11 2 10 3 9 4 8 5 7 6 6 7 5 8 4 9 3 10 2 11 1 12 13 13
REMARK SMILES IDX 14 14 15 15 16 16 17 17 18 18 19 19 20 20 21 21 22 22 23 23
REMARK SMILES IDX 24 24
REMARK H PARENT
REMARK Flexibility Score: inf
ROOT
ATOM      1  C   UNL     1     157.746 172.753 162.958  1.00  0.00     0.000 C 
ENDROOT
BRANCH   1   2
ATOM      2  C   UNL     1     156.547 172.999 163.893  1.00  0.00     0.000 C 
BRANCH   2   3
ATOM      3  C   UNL     1     155.305 172.134 163.604  1.00  0.00     0.000 C 
BRANCH   3   4
ATOM      4  C   UNL     1     153.987 172.912 163.761  1.00  0.00    -0.000 C 
BRANCH   4   5
ATOM      5  C   UNL     1     153.095 172.828 162.512  1.00  0.00    -0.000 C 
BRANCH   5   6
ATOM      6  C   UNL     1     153.296 173.958 161.482  1.00  0.00    -0.000 C 
BRANCH   6   7
ATOM      7  C   UNL     1     153.992 175.212 162.052  1.00  0.00    -0.000 C 
BRANCH   7   8
ATOM      8  C   UNL     1     155.384 175.446 161.437  1.00  0.00    -0.000 C 
BRANCH   8   9
ATOM      9  C   UNL     1     155.742 174.405 160.364  1.00  0.00    -0.000 C 
BRANCH   9  10
ATOM     10  C   UNL     1     157.130 174.641 159.750  1.00  0.00    -0.000 C 
BRANCH  10  11
ATOM     11  C   UNL     1     157.135 174.282 158.259  1.00  0.00    -0.003 C 
ATOM     12  C   UNL     1     155.771 174.541 157.624  1.00  0.00     0.004 C 
ENDBRANCH  10  11
ENDBRANCH   9  10
ENDBRANCH   8   9
ENDBRANCH   7   8
ENDBRANCH   6   7
ENDBRANCH   5   6
ENDBRANCH   4   5
ENDBRANCH   3   4
ENDBRANCH   2   3
ENDBRANCH   1   2
BRANCH   1  13
ATOM     13  C   UNL     1     158.797 173.872 163.031  1.00  0.00     0.000 C 
BRANCH  13  14
ATOM     14  C   UNL     1     158.340 175.072 163.881  1.00  0.00     0.000 C 
BRANCH  14  15
ATOM     15  C   UNL     1     159.175 175.342 165.150  1.00  0.00     0.000 C 
BRANCH  15  16
ATOM     16  C   UNL     1     159.140 174.231 166.215  1.00  0.00     0.000 C 
BRANCH  16  17
ATOM     17  C   UNL     1     160.371 174.246 167.137  1.00  0.00     0.000 C 
BRANCH  17  18
ATOM     18  C   UNL     1     161.195 175.538 167.008  1.00  0.00     0.000 C 
BRANCH  18  19
ATOM     19  C   UNL     1     162.646 175.335 166.533  1.00  0.00     0.000 C 
BRANCH  19  20
ATOM     20  C   UNL     1     162.824 174.129 165.583  1.00  0.00     0.006 C 
BRANCH  20  21
ATOM     21  C   UNL     1     163.270 174.530 164.168  1.00  0.00     0.053 C 
BRANCH  21  22
ATOM     22  C   UNL     1     164.736 174.300 163.961  1.00  0.00     0.041 C 
ATOM     23  O   UNL     1     165.573 174.793 164.762  1.00  0.00    -0.550 OA
ATOM     24  O   UNL     1     165.177 173.545 162.881  1.00  0.00    -0.550 OA
ENDBRANCH  21  22
ENDBRANCH  20  21
ENDBRANCH  19  20
ENDBRANCH  18  19
ENDBRANCH  17  18
ENDBRANCH  16  17
ENDBRANCH  15  16
ENDBRANCH  14  15
ENDBRANCH  13  14
ENDBRANCH   1  13
TORSDOF 20
ENDMDL
MODEL 4
REMARK VINA RESULT:    -3.785      3.505      5.568
REMARK INTER + INTRA:         -11.333
REMARK INTER:                  -9.206
REMARK INTRA:                  -2.127
REMARK UNBOUND:                -3.123
REMARK SMILES CCCCCCCCCCCCCCCCCCCCCC(=O)[O-]
REMARK SMILES IDX 12 1 11 2 10 3 9 4 8 5 7 6 6 7 5 8 4 9 3 10 2 11 1 12 13 13
REMARK SMILES IDX 14 14 15 15 16 16 17 17 18 18 19 19 20 20 21 21 22 22 23 23
REMARK SMILES IDX 24 24
REMARK H PARENT
REMARK Flexibility Score: inf
ROOT
ATOM      1  C   UNL     1     156.499 173.865 166.244  1.00  0.00     0.000 C 
ENDROOT
BRANCH   1   2
ATOM      2  C   UNL     1     157.905 174.257 165.752  1.00  0.00     0.000 C 
BRANCH   2   3
ATOM      3  C   UNL     1     158.209 173.894 164.286  1.00  0.00     0.000 C 
BRANCH   3   4
ATOM      4  C   UNL     1     159.716 173.755 164.006  1.00  0.00    -0.000 C 
BRANCH   4   5
ATOM      5  C   UNL     1     160.558 173.710 165.290  1.00  0.00    -0.000 C 
BRANCH   5   6
ATOM      6  C   UNL     1     161.733 174.709 165.343  1.00  0.00    -0.000 C 
BRANCH   6   7
ATOM      7  C   UNL     1     162.857 174.412 164.328  1.00  0.00    -0.000 C 
BRANCH   7   8
ATOM      8  C   UNL     1     164.260 174.550 164.945  1.00  0.00    -0.000 C 
BRANCH   8   9
ATOM      9  C   UNL     1     165.302 175.069 163.941  1.00  0.00    -0.000 C 
BRANCH   9  10
ATOM     10  C   UNL     1     166.449 174.073 163.712  1.00  0.00    -0.000 C 
BRANCH  10  11
ATOM     11  C   UNL     1     166.066 173.035 162.649  1.00  0.00    -0.003 C 
ATOM     12  C   UNL     1     165.464 173.704 161.415  1.00  0.00     0.004 C 
ENDBRANCH  10  11
ENDBRANCH   9  10
ENDBRANCH   8   9
ENDBRANCH   7   8
ENDBRANCH   6   7
ENDBRANCH   5   6
ENDBRANCH   4   5
ENDBRANCH   3   4
ENDBRANCH   2   3
ENDBRANCH   1   2
BRANCH   1  13
ATOM     13  C   UNL     1     156.526 172.724 167.272  1.00  0.00     0.000 C 
BRANCH  13  14
ATOM     14  C   UNL     1     155.516 171.605 166.957  1.00  0.00     0.000 C 
BRANCH  14  15
ATOM     15  C   UNL     1     154.392 171.984 165.968  1.00  0.00     0.000 C 
BRANCH  15  16
ATOM     16  C   UNL     1     154.409 171.229 164.627  1.00  0.00     0.000 C 
BRANCH  16  17
ATOM     17  C   UNL     1     155.197 171.969 163.534  1.00  0.00     0.000 C 
BRANCH  17  18
ATOM     18  C   UNL     1     154.363 173.051 162.828  1.00  0.00     0.000 C 
BRANCH  18  19
ATOM     19  C   UNL     1     154.668 174.495 163.270  1.00  0.00     0.000 C 
BRANCH  19  20
ATOM     20  C   UNL     1     155.446 175.314 162.215  1.00  0.00     0.006 C 
BRANCH  20  21
ATOM     21  C   UNL     1     155.457 174.658 160.825  1.00  0.00     0.053 C 
BRANCH  21  22
ATOM     22  C   UNL     1     156.849 174.503 160.295  1.00  0.00     0.041 C 
ATOM     23  O   UNL     1     157.835 174.871 160.988  1.00  0.00    -0.550 OA
ATOM     24  O   UNL     1     157.058 173.958 159.034  1.00  0.00    -0.550 OA
ENDBRANCH  21  22
ENDBRANCH  20  21
ENDBRANCH  19  20
ENDBRANCH  18  19
ENDBRANCH  17  18
ENDBRANCH  16  17
ENDBRANCH  15  16
ENDBRANCH  14  15
ENDBRANCH  13  14
ENDBRANCH   1  13
TORSDOF 20
ENDMDL
MODEL 5
REMARK VINA RESULT:    -3.679     13.986     17.406
REMARK INTER + INTRA:         -11.104
REMARK INTER:                  -6.840
REMARK INTRA:                  -4.264
REMARK UNBOUND:                -3.123
REMARK SMILES CCCCCCCCCCCCCCCCCCCCCC(=O)[O-]
REMARK SMILES IDX 12 1 11 2 10 3 9 4 8 5 7 6 6 7 5 8 4 9 3 10 2 11 1 12 13 13
REMARK SMILES IDX 14 14 15 15 16 16 17 17 18 18 19 19 20 20 21 21 22 22 23 23
REMARK SMILES IDX 24 24
REMARK H PARENT
REMARK Flexibility Score: inf
ROOT
ATOM      1  C   UNL     1     169.997 170.877 155.056  1.00  0.00     0.000 C 
ENDROOT
BRANCH   1   2
ATOM      2  C   UNL     1     168.996 171.284 153.958  1.00  0.00     0.000 C 
BRANCH   2   3
ATOM      3  C   UNL     1     169.211 172.689 153.366  1.00  0.00     0.000 C 
BRANCH   3   4
ATOM      4  C   UNL     1     170.631 173.229 153.610  1.00  0.00    -0.000 C 
BRANCH   4   5
ATOM      5  C   UNL     1     171.542 173.085 152.381  1.00  0.00    -0.000 C 
BRANCH   5   6
ATOM      6  C   UNL     1     172.300 171.746 152.276  1.00  0.00    -0.000 C 
BRANCH   6   7
ATOM      7  C   UNL     1     171.724 170.777 151.222  1.00  0.00    -0.000 C 
BRANCH   7   8
ATOM      8  C   UNL     1     170.766 171.475 150.241  1.00  0.00    -0.000 C 
BRANCH   8   9
ATOM      9  C   UNL     1     169.716 170.518 149.653  1.00  0.00    -0.000 C 
BRANCH   9  10
ATOM     10  C   UNL     1     168.517 170.308 150.590  1.00  0.00    -0.000 C 
BRANCH  10  11
ATOM     11  C   UNL     1     167.955 168.887 150.446  1.00  0.00    -0.003 C 
ATOM     12  C   UNL     1     169.062 167.885 150.127  1.00  0.00     0.004 C 
ENDBRANCH  10  11
ENDBRANCH   9  10
ENDBRANCH   8   9
ENDBRANCH   7   8
ENDBRANCH   6   7
ENDBRANCH   5   6
ENDBRANCH   4   5
ENDBRANCH   3   4
ENDBRANCH   2   3
ENDBRANCH   1   2
BRANCH   1  13
ATOM     13  C   UNL     1     170.492 169.430 154.903  1.00  0.00     0.000 C 
BRANCH  13  14
ATOM     14  C   UNL     1     169.927 168.729 153.653  1.00  0.00     0.000 C 
BRANCH  14  15
ATOM     15  C   UNL     1     169.418 167.289 153.873  1.00  0.00     0.000 C 
BRANCH  15  16
ATOM     16  C   UNL     1     167.892 167.139 154.004  1.00  0.00     0.000 C 
BRANCH  16  17
ATOM     17  C   UNL     1     167.364 167.571 155.383  1.00  0.00     0.000 C 
BRANCH  17  18
ATOM     18  C   UNL     1     166.561 168.881 155.328  1.00  0.00     0.000 C 
BRANCH  18  19
ATOM     19  C   UNL     1     165.494 168.940 154.219  1.00  0.00     0.000 C 
BRANCH  19  20
ATOM     20  C   UNL     1     165.696 170.108 153.227  1.00  0.00     0.006 C 
BRANCH  20  21
ATOM     21  C   UNL     1     164.411 170.500 152.480  1.00  0.00     0.053 C 
BRANCH  21  22
ATOM     22  C   UNL     1     164.456 170.083 151.042  1.00  0.00     0.041 C 
ATOM     23  O   UNL     1     164.413 168.862 150.735  1.00  0.00    -0.550 OA
ATOM     24  O   UNL     1     164.550 171.042 150.041  1.00  0.00    -0.550 OA
ENDBRANCH  21  22
ENDBRANCH  20  21
ENDBRANCH  19  20
ENDBRANCH  18  19
ENDBRANCH  17  18
ENDBRANCH  16  17
ENDBRANCH  15  16
ENDBRANCH  14  15
ENDBRANCH  13  14
ENDBRANCH   1  13
TORSDOF 20
ENDMDL
MODEL 6
REMARK VINA RESULT:    -3.659      5.144      8.346
REMARK INTER + INTRA:         -11.061
REMARK INTER:                  -8.397
REMARK INTRA:                  -2.664
REMARK UNBOUND:                -3.123
REMARK SMILES CCCCCCCCCCCCCCCCCCCCCC(=O)[O-]
REMARK SMILES IDX 12 1 11 2 10 3 9 4 8 5 7 6 6 7 5 8 4 9 3 10 2 11 1 12 13 13
REMARK SMILES IDX 14 14 15 15 16 16 17 17 18 18 19 19 20 20 21 21 22 22 23 23
REMARK SMILES IDX 24 24
REMARK H PARENT
REMARK Flexibility Score: inf
ROOT
ATOM      1  C   UNL     1     158.708 174.377 164.340  1.00  0.00     0.000 C 
ENDROOT
BRANCH   1   2
ATOM      2  C   UNL     1     158.011 175.674 163.888  1.00  0.00     0.000 C 
BRANCH   2   3
ATOM      3  C   UNL     1     157.724 175.770 162.378  1.00  0.00     0.000 C 
BRANCH   3   4
ATOM      4  C   UNL     1     158.008 174.454 161.631  1.00  0.00    -0.000 C 
BRANCH   4   5
ATOM      5  C   UNL     1     157.058 174.227 160.445  1.00  0.00    -0.000 C 
BRANCH   5   6
ATOM      6  C   UNL     1     155.959 175.295 160.268  1.00  0.00    -0.000 C 
BRANCH   6   7
ATOM      7  C   UNL     1     154.539 174.802 160.620  1.00  0.00    -0.000 C 
BRANCH   7   8
ATOM      8  C   UNL     1     154.028 175.379 161.952  1.00  0.00    -0.000 C 
BRANCH   8   9
ATOM      9  C   UNL     1     153.760 174.294 163.007  1.00  0.00    -0.000 C 
BRANCH   9  10
ATOM     10  C   UNL     1     154.556 174.519 164.302  1.00  0.00    -0.000 C 
BRANCH  10  11
ATOM     11  C   UNL     1     155.302 173.242 164.712  1.00  0.00    -0.003 C 
ATOM     12  C   UNL     1     155.595 172.361 163.500  1.00  0.00     0.004 C 
ENDBRANCH  10  11
ENDBRANCH   9  10
ENDBRANCH   8   9
ENDBRANCH   7   8
ENDBRANCH   6   7
ENDBRANCH   5   6
ENDBRANCH   4   5
ENDBRANCH   3   4
ENDBRANCH   2   3
ENDBRANCH   1   2
BRANCH   1  13
ATOM     13  C   UNL     1     158.789 174.247 165.869  1.00  0.00     0.000 C 
BRANCH  13  14
ATOM     14  C   UNL     1     160.228 174.341 166.407  1.00  0.00     0.000 C 
BRANCH  14  15
ATOM     15  C   UNL     1     160.911 175.715 166.242  1.00  0.00     0.000 C 
BRANCH  15  16
ATOM     16  C   UNL     1     162.193 175.720 165.391  1.00  0.00     0.000 C 
BRANCH  16  17
ATOM     17  C   UNL     1     162.454 174.374 164.694  1.00  0.00     0.000 C 
BRANCH  17  18
ATOM     18  C   UNL     1     163.747 174.377 163.861  1.00  0.00     0.000 C 
BRANCH  18  19
ATOM     19  C   UNL     1     165.013 173.956 164.631  1.00  0.00     0.000 C 
BRANCH  19  20
ATOM     20  C   UNL     1     165.929 172.996 163.839  1.00  0.00     0.006 C 
BRANCH  20  21
ATOM     21  C   UNL     1     167.335 173.564 163.590  1.00  0.00     0.053 C 
BRANCH  21  22
ATOM     22  C   UNL     1     167.349 174.536 162.451  1.00  0.00     0.041 C 
ATOM     23  O   UNL     1     167.606 174.140 161.283  1.00  0.00    -0.550 OA
ATOM     24  O   UNL     1     167.084 175.881 162.679  1.00  0.00    -0.550 OA
ENDBRANCH  21  22
ENDBRANCH  20  21
ENDBRANCH  19  20
ENDBRANCH  18  19
ENDBRANCH  17  18
ENDBRANCH  16  17
ENDBRANCH  15  16
ENDBRANCH  14  15
ENDBRANCH  13  14
ENDBRANCH   1  13
TORSDOF 20
ENDMDL
MODEL 7
REMARK VINA RESULT:    -3.566     14.433     17.245
REMARK INTER + INTRA:         -10.858
REMARK INTER:                  -7.744
REMARK INTRA:                  -3.114
REMARK UNBOUND:                -3.123
REMARK SMILES CCCCCCCCCCCCCCCCCCCCCC(=O)[O-]
REMARK SMILES IDX 12 1 11 2 10 3 9 4 8 5 7 6 6 7 5 8 4 9 3 10 2 11 1 12 13 13
REMARK SMILES IDX 14 14 15 15 16 16 17 17 18 18 19 19 20 20 21 21 22 22 23 23
REMARK SMILES IDX 24 24
REMARK H PARENT
REMARK Flexibility Score: inf
ROOT
ATOM      1  C   UNL     1     170.283 171.222 149.526  1.00  0.00     0.000 C 
ENDROOT
BRANCH   1   2
ATOM      2  C   UNL     1     171.803 171.202 149.776  1.00  0.00     0.000 C 
BRANCH   2   3
ATOM      3  C   UNL     1     172.331 172.331 150.680  1.00  0.00     0.000 C 
BRANCH   3   4
ATOM      4  C   UNL     1     171.955 172.138 152.160  1.00  0.00    -0.000 C 
BRANCH   4   5
ATOM      5  C   UNL     1     171.178 173.331 152.737  1.00  0.00    -0.000 C 
BRANCH   5   6
ATOM      6  C   UNL     1     170.314 173.018 153.975  1.00  0.00    -0.000 C 
BRANCH   6   7
ATOM      7  C   UNL     1     170.950 172.000 154.945  1.00  0.00    -0.000 C 
BRANCH   7   8
ATOM      8  C   UNL     1     170.102 170.725 155.102  1.00  0.00    -0.000 C 
BRANCH   8   9
ATOM      9  C   UNL     1     170.740 169.500 154.429  1.00  0.00    -0.000 C 
BRANCH   9  10
ATOM     10  C   UNL     1     169.861 168.244 154.531  1.00  0.00    -0.000 C 
BRANCH  10  11
ATOM     11  C   UNL     1     168.644 168.501 155.429  1.00  0.00    -0.003 C 
ATOM     12  C   UNL     1     167.537 167.483 155.164  1.00  0.00     0.004 C 
ENDBRANCH  10  11
ENDBRANCH   9  10
ENDBRANCH   8   9
ENDBRANCH   7   8
ENDBRANCH   6   7
ENDBRANCH   5   6
ENDBRANCH   4   5
ENDBRANCH   3   4
ENDBRANCH   2   3
ENDBRANCH   1   2
BRANCH   1  13
ATOM     13  C   UNL     1     169.644 169.828 149.634  1.00  0.00     0.000 C 
BRANCH  13  14
ATOM     14  C   UNL     1     168.390 169.808 150.526  1.00  0.00     0.000 C 
BRANCH  14  15
ATOM     15  C   UNL     1     168.503 170.595 151.849  1.00  0.00     0.000 C 
BRANCH  15  16
ATOM     16  C   UNL     1     167.213 171.292 152.317  1.00  0.00     0.000 C 
BRANCH  16  17
ATOM     17  C   UNL     1     166.328 170.389 153.192  1.00  0.00     0.000 C 
BRANCH  17  18
ATOM     18  C   UNL     1     164.898 170.247 152.644  1.00  0.00     0.000 C 
BRANCH  18  19
ATOM     19  C   UNL     1     164.723 169.164 151.562  1.00  0.00     0.000 C 
BRANCH  19  20
ATOM     20  C   UNL     1     164.364 169.732 150.171  1.00  0.00     0.006 C 
BRANCH  20  21
ATOM     21  C   UNL     1     164.120 171.250 150.179  1.00  0.00     0.053 C 
BRANCH  21  22
ATOM     22  C   UNL     1     163.314 171.689 148.995  1.00  0.00     0.041 C 
ATOM     23  O   UNL     1     162.935 170.847 148.139  1.00  0.00    -0.550 OA
ATOM     24  O   UNL     1     162.987 173.030 148.834  1.00  0.00    -0.550 OA
ENDBRANCH  21  22
ENDBRANCH  20  21
ENDBRANCH  19  20
ENDBRANCH  18  19
ENDBRANCH  17  18
ENDBRANCH  16  17
ENDBRANCH  15  16
ENDBRANCH  14  15
ENDBRANCH  13  14
ENDBRANCH   1  13
TORSDOF 20
ENDMDL
MODEL 8
REMARK VINA RESULT:    -3.519     13.569     17.465
REMARK INTER + INTRA:         -10.756
REMARK INTER:                  -7.194
REMARK INTRA:                  -3.562
REMARK UNBOUND:                -3.123
REMARK SMILES CCCCCCCCCCCCCCCCCCCCCC(=O)[O-]
REMARK SMILES IDX 12 1 11 2 10 3 9 4 8 5 7 6 6 7 5 8 4 9 3 10 2 11 1 12 13 13
REMARK SMILES IDX 14 14 15 15 16 16 17 17 18 18 19 19 20 20 21 21 22 22 23 23
REMARK SMILES IDX 24 24
REMARK H PARENT
REMARK Flexibility Score: inf
ROOT
ATOM      1  C   UNL     1     170.881 172.416 154.312  1.00  0.00     0.000 C 
ENDROOT
BRANCH   1   2
ATOM      2  C   UNL     1     172.009 171.989 153.355  1.00  0.00     0.000 C 
BRANCH   2   3
ATOM      3  C   UNL     1     171.969 172.645 151.962  1.00  0.00     0.000 C 
BRANCH   3   4
ATOM      4  C   UNL     1     172.795 171.877 150.916  1.00  0.00    -0.000 C 
BRANCH   4   5
ATOM      5  C   UNL     1     171.956 170.865 150.121  1.00  0.00    -0.000 C 
BRANCH   5   6
ATOM      6  C   UNL     1     170.541 171.342 149.735  1.00  0.00    -0.000 C 
BRANCH   6   7
ATOM      7  C   UNL     1     169.408 170.413 150.222  1.00  0.00    -0.000 C 
BRANCH   7   8
ATOM      8  C   UNL     1     169.891 168.973 150.467  1.00  0.00    -0.000 C 
BRANCH   8   9
ATOM      9  C   UNL     1     169.480 168.434 151.847  1.00  0.00    -0.000 C 
BRANCH   9  10
ATOM     10  C   UNL     1     170.544 168.691 152.924  1.00  0.00    -0.000 C 
BRANCH  10  11
ATOM     11  C   UNL     1     170.141 168.042 154.255  1.00  0.00    -0.003 C 
ATOM     12  C   UNL     1     170.338 169.008 155.421  1.00  0.00     0.004 C 
ENDBRANCH  10  11
ENDBRANCH   9  10
ENDBRANCH   8   9
ENDBRANCH   7   8
ENDBRANCH   6   7
ENDBRANCH   5   6
ENDBRANCH   4   5
ENDBRANCH   3   4
ENDBRANCH   2   3
ENDBRANCH   1   2
BRANCH   1  13
ATOM     13  C   UNL     1     170.056 173.594 153.771  1.00  0.00     0.000 C 
BRANCH  13  14
ATOM     14  C   UNL     1     168.645 173.181 153.313  1.00  0.00     0.000 C 
BRANCH  14  15
ATOM     15  C   UNL     1     168.356 171.665 153.335  1.00  0.00     0.000 C 
BRANCH  15  16
ATOM     16  C   UNL     1     166.873 171.272 153.220  1.00  0.00     0.000 C 
BRANCH  16  17
ATOM     17  C   UNL     1     166.617 169.795 153.562  1.00  0.00     0.000 C 
BRANCH  17  18
ATOM     18  C   UNL     1     166.783 169.494 155.060  1.00  0.00     0.000 C 
BRANCH  18  19
ATOM     19  C   UNL     1     166.162 168.163 155.526  1.00  0.00     0.000 C 
BRANCH  19  20
ATOM     20  C   UNL     1     165.441 167.389 154.400  1.00  0.00     0.006 C 
BRANCH  20  21
ATOM     21  C   UNL     1     163.929 167.246 154.632  1.00  0.00     0.053 C 
BRANCH  21  22
ATOM     22  C   UNL     1     163.156 168.329 153.943  1.00  0.00     0.041 C 
ATOM     23  O   UNL     1     162.251 168.951 154.560  1.00  0.00    -0.550 OA
ATOM     24  O   UNL     1     163.431 168.646 152.618  1.00  0.00    -0.550 OA
ENDBRANCH  21  22
ENDBRANCH  20  21
ENDBRANCH  19  20
ENDBRANCH  18  19
ENDBRANCH  17  18
ENDBRANCH  16  17
ENDBRANCH  15  16
ENDBRANCH  14  15
ENDBRANCH  13  14
ENDBRANCH   1  13
TORSDOF 20
ENDMDL
MODEL 9
REMARK VINA RESULT:    -3.479      5.483      8.150
REMARK INTER + INTRA:         -10.669
REMARK INTER:                  -8.725
REMARK INTRA:                  -1.945
REMARK UNBOUND:                -3.123
REMARK SMILES CCCCCCCCCCCCCCCCCCCCCC(=O)[O-]
REMARK SMILES IDX 12 1 11 2 10 3 9 4 8 5 7 6 6 7 5 8 4 9 3 10 2 11 1 12 13 13
REMARK SMILES IDX 14 14 15 15 16 16 17 17 18 18 19 19 20 20 21 21 22 22 23 23
REMARK SMILES IDX 24 24
REMARK H PARENT
REMARK Flexibility Score: inf
ROOT
ATOM      1  C   UNL     1     159.759 173.881 165.663  1.00  0.00     0.000 C 
ENDROOT
BRANCH   1   2
ATOM      2  C   UNL     1     158.793 174.876 164.994  1.00  0.00     0.000 C 
BRANCH   2   3
ATOM      3  C   UNL     1     157.301 174.644 165.299  1.00  0.00     0.000 C 
BRANCH   3   4
ATOM      4  C   UNL     1     157.068 173.519 166.323  1.00  0.00    -0.000 C 
BRANCH   4   5
ATOM      5  C   UNL     1     155.578 173.219 166.547  1.00  0.00    -0.000 C 
BRANCH   5   6
ATOM      6  C   UNL     1     155.075 171.891 165.945  1.00  0.00    -0.000 C 
BRANCH   6   7
ATOM      7  C   UNL     1     154.742 171.968 164.440  1.00  0.00    -0.000 C 
BRANCH   7   8
ATOM      8  C   UNL     1     153.871 173.187 164.090  1.00  0.00    -0.000 C 
BRANCH   8   9
ATOM      9  C   UNL     1     154.481 174.055 162.978  1.00  0.00    -0.000 C 
BRANCH   9  10
ATOM     10  C   UNL     1     155.791 173.473 162.425  1.00  0.00    -0.000 C 
BRANCH  10  11
ATOM     11  C   UNL     1     156.317 174.323 161.262  1.00  0.00    -0.003 C 
ATOM     12  C   UNL     1     157.825 174.537 161.371  1.00  0.00     0.004 C 
ENDBRANCH  10  11
ENDBRANCH   9  10
ENDBRANCH   8   9
ENDBRANCH   7   8
ENDBRANCH   6   7
ENDBRANCH   5   6
ENDBRANCH   4   5
ENDBRANCH   3   4
ENDBRANCH   2   3
ENDBRANCH   1   2
BRANCH   1  13
ATOM     13  C   UNL     1     160.421 174.453 166.927  1.00  0.00     0.000 C 
BRANCH  13  14
ATOM     14  C   UNL     1     161.954 174.541 166.816  1.00  0.00     0.000 C 
BRANCH  14  15
ATOM     15  C   UNL     1     162.504 175.868 166.251  1.00  0.00     0.000 C 
BRANCH  15  16
ATOM     16  C   UNL     1     162.993 175.813 164.793  1.00  0.00     0.000 C 
BRANCH  16  17
ATOM     17  C   UNL     1     163.435 174.405 164.362  1.00  0.00     0.000 C 
BRANCH  17  18
ATOM     18  C   UNL     1     164.828 174.391 163.710  1.00  0.00     0.000 C 
BRANCH  18  19
ATOM     19  C   UNL     1     165.636 173.099 163.938  1.00  0.00     0.000 C 
BRANCH  19  20
ATOM     20  C   UNL     1     166.989 173.076 163.191  1.00  0.00     0.006 C 
BRANCH  20  21
ATOM     21  C   UNL     1     167.579 174.477 162.960  1.00  0.00     0.053 C 
BRANCH  21  22
ATOM     22  C   UNL     1     167.833 174.739 161.507  1.00  0.00     0.041 C 
ATOM     23  O   UNL     1     169.009 174.925 161.094  1.00  0.00    -0.550 OA
ATOM     24  O   UNL     1     166.773 174.784 160.610  1.00  0.00    -0.550 OA
ENDBRANCH  21  22
ENDBRANCH  20  21
ENDBRANCH  19  20
ENDBRANCH  18  19
ENDBRANCH  17  18
ENDBRANCH  16  17
ENDBRANCH  15  16
ENDBRANCH  14  15
ENDBRANCH  13  14
ENDBRANCH   1  13
TORSDOF 20
ENDMDL
