MODEL 1
REMARK VINA RESULT:    -6.102      0.000      0.000
REMARK INTER + INTRA:          -7.653
REMARK INTER:                  -7.350
REMARK INTRA:                  -0.302
REMARK UNBOUND:                -0.302
REMARK SMILES O=c1c(O)c(-c2ccc(O)c(O)c2)oc2cc(O)cc(O)c12
REMARK SMILES IDX 5 1 3 2 2 3 1 4 22 5 20 6 19 7 17 8 16 9 15 10 14 11 6 12
REMARK SMILES IDX 7 13 8 14 9 15 13 16 11 17 10 18 12 20 4 22 21 24 18 26
REMARK H PARENT 10 19 12 21 4 23 21 25 18 27
REMARK Flexibility Score: inf
ROOT
ATOM      1  C   UNL     1      -8.433 -14.818   4.940  1.00  0.00     0.180 A 
ATOM      2  C   UNL     1      -8.491 -16.169   4.558  1.00  0.00     0.208 A 
ATOM      3  C   UNL     1      -8.731 -16.486   3.211  1.00  0.00     0.238 A 
ATOM      4  O   UNL     1      -8.728 -17.696   2.865  1.00  0.00    -0.285 OA
ATOM      5  C   UNL     1      -8.925 -15.449   2.267  1.00  0.00     0.111 A 
ATOM      6  C   UNL     1      -9.215 -15.656   0.885  1.00  0.00     0.134 A 
ATOM      7  C   UNL     1      -9.257 -14.558   0.017  1.00  0.00     0.093 A 
ATOM      8  C   UNL     1      -9.087 -13.256   0.493  1.00  0.00     0.123 A 
ATOM      9  C   UNL     1      -8.864 -13.040   1.851  1.00  0.00     0.094 A 
ATOM     10  C   UNL     1      -8.779 -14.118   2.736  1.00  0.00     0.146 A 
ATOM     11  O   UNL     1      -8.553 -13.869   4.020  1.00  0.00    -0.452 OA
ENDROOT
BRANCH   1  12
ATOM     12  C   UNL     1      -8.209 -14.405   6.344  1.00  0.00     0.025 A 
ATOM     13  C   UNL     1      -9.249 -14.438   7.292  1.00  0.00     0.016 A 
ATOM     14  C   UNL     1      -9.020 -14.020   8.605  1.00  0.00     0.051 A 
ATOM     15  C   UNL     1      -7.757 -13.553   8.989  1.00  0.00     0.157 A 
ATOM     16  C   UNL     1      -6.950 -13.916   6.730  1.00  0.00     0.062 A 
ATOM     17  C   UNL     1      -6.720 -13.498   8.049  1.00  0.00     0.158 A 
BRANCH  15  18
ATOM     18  O   UNL     1      -7.525 -13.137  10.299  1.00  0.00    -0.504 OA
ATOM     19  H   UNL     1      -6.677 -13.392  10.792  1.00  0.00     0.293 HD
ENDBRANCH  15  18
BRANCH  17  20
ATOM     20  O   UNL     1      -5.465 -13.026   8.431  1.00  0.00    -0.504 OA
ATOM     21  H   UNL     1      -5.317 -12.580   9.328  1.00  0.00     0.293 HD
ENDBRANCH  17  20
ENDBRANCH   1  12
BRANCH   2  22
ATOM     22  O   UNL     1      -8.274 -17.177   5.502  1.00  0.00    -0.502 OA
ATOM     23  H   UNL     1      -7.347 -17.440   5.813  1.00  0.00     0.293 HD
ENDBRANCH   2  22
BRANCH   6  24
ATOM     24  O   UNL     1      -9.492 -16.906   0.323  1.00  0.00    -0.507 OA
ATOM     25  H   UNL     1     -10.006 -17.049  -0.532  1.00  0.00     0.293 HD
ENDBRANCH   6  24
BRANCH   8  26
ATOM     26  O   UNL     1      -9.147 -12.167  -0.375  1.00  0.00    -0.508 OA
ATOM     27  H   UNL     1      -8.811 -12.231  -1.328  1.00  0.00     0.293 HD
ENDBRANCH   8  26
TORSDOF 6
ENDMDL
MODEL 2
REMARK VINA RESULT:    -6.028     17.140     19.896
REMARK INTER + INTRA:          -7.564
REMARK INTER:                  -7.513
REMARK INTRA:                  -0.051
REMARK UNBOUND:                -0.302
REMARK SMILES O=c1c(O)c(-c2ccc(O)c(O)c2)oc2cc(O)cc(O)c12
REMARK SMILES IDX 5 1 3 2 2 3 1 4 22 5 20 6 19 7 17 8 16 9 15 10 14 11 6 12
REMARK SMILES IDX 7 13 8 14 9 15 13 16 11 17 10 18 12 20 4 22 21 24 18 26
REMARK H PARENT 10 19 12 21 4 23 21 25 18 27
REMARK Flexibility Score: inf
ROOT
ATOM      1  C   UNL     1       2.046 -26.300  -5.603  1.00  0.00     0.180 A 
ATOM      2  C   UNL     1       3.189 -26.016  -6.370  1.00  0.00     0.208 A 
ATOM      3  C   UNL     1       4.429 -26.535  -5.963  1.00  0.00     0.238 A 
ATOM      4  O   UNL     1       5.438 -26.322  -6.684  1.00  0.00    -0.285 OA
ATOM      5  C   UNL     1       4.513 -27.316  -4.786  1.00  0.00     0.111 A 
ATOM      6  C   UNL     1       5.724 -27.858  -4.259  1.00  0.00     0.134 A 
ATOM      7  C   UNL     1       5.671 -28.726  -3.160  1.00  0.00     0.093 A 
ATOM      8  C   UNL     1       4.459 -29.017  -2.530  1.00  0.00     0.123 A 
ATOM      9  C   UNL     1       3.279 -28.445  -3.001  1.00  0.00     0.094 A 
ATOM     10  C   UNL     1       3.295 -27.605  -4.118  1.00  0.00     0.146 A 
ATOM     11  O   UNL     1       2.147 -27.090  -4.541  1.00  0.00    -0.452 OA
ENDROOT
BRANCH   1  12
ATOM     12  C   UNL     1       0.709 -25.769  -5.953  1.00  0.00     0.025 A 
ATOM     13  C   UNL     1      -0.048 -25.024  -5.030  1.00  0.00     0.016 A 
ATOM     14  C   UNL     1      -1.318 -24.554  -5.375  1.00  0.00     0.051 A 
ATOM     15  C   UNL     1      -1.855 -24.830  -6.638  1.00  0.00     0.157 A 
ATOM     16  C   UNL     1       0.156 -26.061  -7.211  1.00  0.00     0.062 A 
ATOM     17  C   UNL     1      -1.118 -25.588  -7.558  1.00  0.00     0.158 A 
BRANCH  15  18
ATOM     18  O   UNL     1      -3.120 -24.361  -6.987  1.00  0.00    -0.504 OA
ATOM     19  H   UNL     1      -3.943 -24.614  -6.453  1.00  0.00     0.293 HD
ENDBRANCH  15  18
BRANCH  17  20
ATOM     20  O   UNL     1      -1.657 -25.867  -8.812  1.00  0.00    -0.504 OA
ATOM     21  H   UNL     1      -1.066 -26.074  -9.609  1.00  0.00     0.293 HD
ENDBRANCH  17  20
ENDBRANCH   1  12
BRANCH   2  22
ATOM     22  O   UNL     1       3.079 -25.261  -7.541  1.00  0.00    -0.502 OA
ATOM     23  H   UNL     1       2.620 -24.358  -7.565  1.00  0.00     0.293 HD
ENDBRANCH   2  22
BRANCH   6  24
ATOM     24  O   UNL     1       6.995 -27.558  -4.756  1.00  0.00    -0.507 OA
ATOM     25  H   UNL     1       7.845 -27.587  -4.213  1.00  0.00     0.293 HD
ENDBRANCH   6  24
BRANCH   8  26
ATOM     26  O   UNL     1       4.417 -29.869  -1.428  1.00  0.00    -0.508 OA
ATOM     27  H   UNL     1       5.178 -30.503  -1.219  1.00  0.00     0.293 HD
ENDBRANCH   8  26
TORSDOF 6
ENDMDL
MODEL 3
REMARK VINA RESULT:    -5.738      2.000      3.840
REMARK INTER + INTRA:          -7.214
REMARK INTER:                  -6.892
REMARK INTRA:                  -0.322
REMARK UNBOUND:                -0.302
REMARK SMILES O=c1c(O)c(-c2ccc(O)c(O)c2)oc2cc(O)cc(O)c12
REMARK SMILES IDX 5 1 3 2 2 3 1 4 22 5 20 6 19 7 17 8 16 9 15 10 14 11 6 12
REMARK SMILES IDX 7 13 8 14 9 15 13 16 11 17 10 18 12 20 4 22 21 24 18 26
REMARK H PARENT 10 19 12 21 4 23 21 25 18 27
REMARK Flexibility Score: inf
ROOT
ATOM      1  C   UNL     1      -8.060 -13.036   6.256  1.00  0.00     0.180 A 
ATOM      2  C   UNL     1      -9.058 -12.250   5.654  1.00  0.00     0.208 A 
ATOM      3  C   UNL     1      -9.774 -12.775   4.566  1.00  0.00     0.238 A 
ATOM      4  O   UNL     1     -10.702 -12.088   4.066  1.00  0.00    -0.285 OA
ATOM      5  C   UNL     1      -9.471 -14.070   4.083  1.00  0.00     0.111 A 
ATOM      6  C   UNL     1     -10.105 -14.685   2.962  1.00  0.00     0.134 A 
ATOM      7  C   UNL     1      -9.819 -16.021   2.654  1.00  0.00     0.093 A 
ATOM      8  C   UNL     1      -8.874 -16.742   3.385  1.00  0.00     0.123 A 
ATOM      9  C   UNL     1      -8.206 -16.132   4.445  1.00  0.00     0.094 A 
ATOM     10  C   UNL     1      -8.496 -14.812   4.799  1.00  0.00     0.146 A 
ATOM     11  O   UNL     1      -7.845 -14.272   5.822  1.00  0.00    -0.452 OA
ENDROOT
BRANCH   1  12
ATOM     12  C   UNL     1      -7.246 -12.543   7.391  1.00  0.00     0.025 A 
ATOM     13  C   UNL     1      -6.119 -11.726   7.184  1.00  0.00     0.016 A 
ATOM     14  C   UNL     1      -5.352 -11.293   8.268  1.00  0.00     0.051 A 
ATOM     15  C   UNL     1      -5.689 -11.679   9.572  1.00  0.00     0.157 A 
ATOM     16  C   UNL     1      -7.567 -12.943   8.699  1.00  0.00     0.062 A 
ATOM     17  C   UNL     1      -6.798 -12.508   9.787  1.00  0.00     0.158 A 
BRANCH  15  18
ATOM     18  O   UNL     1      -4.928 -11.247  10.656  1.00  0.00    -0.504 OA
ATOM     19  H   UNL     1      -4.293 -11.872  11.138  1.00  0.00     0.293 HD
ENDBRANCH  15  18
BRANCH  17  20
ATOM     20  O   UNL     1      -7.128 -12.896  11.084  1.00  0.00    -0.504 OA
ATOM     21  H   UNL     1      -7.379 -13.852  11.304  1.00  0.00     0.293 HD
ENDBRANCH  17  20
ENDBRANCH   1  12
BRANCH   2  22
ATOM     22  O   UNL     1      -9.355 -10.982   6.162  1.00  0.00    -0.502 OA
ATOM     23  H   UNL     1      -8.636 -10.328   6.447  1.00  0.00     0.293 HD
ENDBRANCH   2  22
BRANCH   6  24
ATOM     24  O   UNL     1     -10.996 -14.025   2.110  1.00  0.00    -0.507 OA
ATOM     25  H   UNL     1     -11.985 -13.926   2.279  1.00  0.00     0.293 HD
ENDBRANCH   6  24
BRANCH   8  26
ATOM     26  O   UNL     1      -8.583 -18.066   3.062  1.00  0.00    -0.508 OA
ATOM     27  H   UNL     1      -9.064 -18.839   3.507  1.00  0.00     0.293 HD
ENDBRANCH   8  26
TORSDOF 6
ENDMDL
MODEL 4
REMARK VINA RESULT:    -5.567     15.908     18.270
REMARK INTER + INTRA:          -7.009
REMARK INTER:                  -6.677
REMARK INTRA:                  -0.331
REMARK UNBOUND:                -0.302
REMARK SMILES O=c1c(O)c(-c2ccc(O)c(O)c2)oc2cc(O)cc(O)c12
REMARK SMILES IDX 5 1 3 2 2 3 1 4 22 5 20 6 19 7 17 8 16 9 15 10 14 11 6 12
REMARK SMILES IDX 7 13 8 14 9 15 13 16 11 17 10 18 12 20 4 22 21 24 18 26
REMARK H PARENT 10 19 12 21 4 23 21 25 18 27
REMARK Flexibility Score: inf
ROOT
ATOM      1  C   UNL     1       1.925 -25.716  -5.142  1.00  0.00     0.180 A 
ATOM      2  C   UNL     1       2.393 -24.416  -4.886  1.00  0.00     0.208 A 
ATOM      3  C   UNL     1       1.583 -23.320  -5.227  1.00  0.00     0.238 A 
ATOM      4  O   UNL     1       1.985 -22.161  -4.946  1.00  0.00    -0.285 OA
ATOM      5  C   UNL     1       0.324 -23.539  -5.835  1.00  0.00     0.111 A 
ATOM      6  C   UNL     1      -0.561 -22.502  -6.259  1.00  0.00     0.134 A 
ATOM      7  C   UNL     1      -1.838 -22.834  -6.728  1.00  0.00     0.093 A 
ATOM      8  C   UNL     1      -2.237 -24.167  -6.850  1.00  0.00     0.123 A 
ATOM      9  C   UNL     1      -1.358 -25.187  -6.495  1.00  0.00     0.094 A 
ATOM     10  C   UNL     1      -0.090 -24.887  -5.989  1.00  0.00     0.146 A 
ATOM     11  O   UNL     1       0.712 -25.889  -5.652  1.00  0.00    -0.452 OA
ENDROOT
BRANCH   1  12
ATOM     12  C   UNL     1       2.731 -26.919  -4.833  1.00  0.00     0.025 A 
ATOM     13  C   UNL     1       3.621 -27.466  -5.776  1.00  0.00     0.016 A 
ATOM     14  C   UNL     1       4.353 -28.617  -5.471  1.00  0.00     0.051 A 
ATOM     15  C   UNL     1       4.199 -29.244  -4.229  1.00  0.00     0.157 A 
ATOM     16  C   UNL     1       2.565 -27.565  -3.597  1.00  0.00     0.062 A 
ATOM     17  C   UNL     1       3.301 -28.719  -3.290  1.00  0.00     0.158 A 
BRANCH  15  18
ATOM     18  O   UNL     1       4.929 -30.390  -3.920  1.00  0.00    -0.504 OA
ATOM     19  H   UNL     1       5.843 -30.560  -4.323  1.00  0.00     0.293 HD
ENDBRANCH  15  18
BRANCH  17  20
ATOM     20  O   UNL     1       3.144 -29.349  -2.057  1.00  0.00    -0.504 OA
ATOM     21  H   UNL     1       2.230 -29.612  -1.708  1.00  0.00     0.293 HD
ENDBRANCH  17  20
ENDBRANCH   1  12
BRANCH   2  22
ATOM     22  O   UNL     1       3.631 -24.224  -4.265  1.00  0.00    -0.502 OA
ATOM     23  H   UNL     1       4.424 -23.818  -4.746  1.00  0.00     0.293 HD
ENDBRANCH   2  22
BRANCH   6  24
ATOM     24  O   UNL     1      -0.228 -21.144  -6.265  1.00  0.00    -0.507 OA
ATOM     25  H   UNL     1      -0.440 -20.505  -7.015  1.00  0.00     0.293 HD
ENDBRANCH   6  24
BRANCH   8  26
ATOM     26  O   UNL     1      -3.504 -24.489  -7.333  1.00  0.00    -0.508 OA
ATOM     27  H   UNL     1      -3.645 -25.255  -7.981  1.00  0.00     0.293 HD
ENDBRANCH   8  26
TORSDOF 6
ENDMDL
MODEL 5
REMARK VINA RESULT:    -5.540      1.935      7.117
REMARK INTER + INTRA:          -6.976
REMARK INTER:                  -6.711
REMARK INTRA:                  -0.265
REMARK UNBOUND:                -0.302
REMARK SMILES O=c1c(O)c(-c2ccc(O)c(O)c2)oc2cc(O)cc(O)c12
REMARK SMILES IDX 5 1 3 2 2 3 1 4 22 5 20 6 19 7 17 8 16 9 15 10 14 11 6 12
REMARK SMILES IDX 7 13 8 14 9 15 13 16 11 17 10 18 12 20 4 22 21 24 18 26
REMARK H PARENT 10 19 12 21 4 23 21 25 18 27
REMARK Flexibility Score: inf
ROOT
ATOM      1  C   UNL     1      -8.489 -14.444   4.432  1.00  0.00     0.180 A 
ATOM      2  C   UNL     1      -7.736 -13.317   4.062  1.00  0.00     0.208 A 
ATOM      3  C   UNL     1      -7.150 -12.530   5.067  1.00  0.00     0.238 A 
ATOM      4  O   UNL     1      -6.433 -11.553   4.728  1.00  0.00    -0.285 OA
ATOM      5  C   UNL     1      -7.339 -12.870   6.427  1.00  0.00     0.111 A 
ATOM      6  C   UNL     1      -6.825 -12.121   7.528  1.00  0.00     0.134 A 
ATOM      7  C   UNL     1      -6.962 -12.623   8.829  1.00  0.00     0.093 A 
ATOM      8  C   UNL     1      -7.651 -13.813   9.073  1.00  0.00     0.123 A 
ATOM      9  C   UNL     1      -8.207 -14.521   8.010  1.00  0.00     0.094 A 
ATOM     10  C   UNL     1      -8.056 -14.064   6.698  1.00  0.00     0.146 A 
ATOM     11  O   UNL     1      -8.592 -14.774   5.713  1.00  0.00    -0.452 OA
ENDROOT
BRANCH   1  12
ATOM     12  C   UNL     1      -9.158 -15.308   3.432  1.00  0.00     0.025 A 
ATOM     13  C   UNL     1      -8.619 -16.555   3.065  1.00  0.00     0.016 A 
ATOM     14  C   UNL     1      -9.254 -17.343   2.101  1.00  0.00     0.051 A 
ATOM     15  C   UNL     1     -10.427 -16.893   1.482  1.00  0.00     0.157 A 
ATOM     16  C   UNL     1     -10.323 -14.854   2.792  1.00  0.00     0.062 A 
ATOM     17  C   UNL     1     -10.961 -15.644   1.826  1.00  0.00     0.158 A 
BRANCH  15  18
ATOM     18  O   UNL     1     -11.065 -17.676   0.522  1.00  0.00    -0.504 OA
ATOM     19  H   UNL     1     -10.542 -18.280  -0.101  1.00  0.00     0.293 HD
ENDBRANCH  15  18
BRANCH  17  20
ATOM     20  O   UNL     1     -12.124 -15.195   1.203  1.00  0.00    -0.504 OA
ATOM     21  H   UNL     1     -12.261 -15.289   0.204  1.00  0.00     0.293 HD
ENDBRANCH  17  20
ENDBRANCH   1  12
BRANCH   2  22
ATOM     22  O   UNL     1      -7.545 -13.012   2.711  1.00  0.00    -0.502 OA
ATOM     23  H   UNL     1      -8.229 -12.501   2.167  1.00  0.00     0.293 HD
ENDBRANCH   2  22
BRANCH   6  24
ATOM     24  O   UNL     1      -6.202 -10.876   7.403  1.00  0.00    -0.507 OA
ATOM     25  H   UNL     1      -6.231 -10.300   6.575  1.00  0.00     0.293 HD
ENDBRANCH   6  24
BRANCH   8  26
ATOM     26  O   UNL     1      -7.796 -14.297  10.372  1.00  0.00    -0.508 OA
ATOM     27  H   UNL     1      -7.013 -14.687  10.883  1.00  0.00     0.293 HD
ENDBRANCH   8  26
TORSDOF 6
ENDMDL
MODEL 6
REMARK VINA RESULT:    -5.480     11.101     12.681
REMARK INTER + INTRA:          -6.904
REMARK INTER:                  -6.615
REMARK INTRA:                  -0.289
REMARK UNBOUND:                -0.302
REMARK SMILES O=c1c(O)c(-c2ccc(O)c(O)c2)oc2cc(O)cc(O)c12
REMARK SMILES IDX 5 1 3 2 2 3 1 4 22 5 20 6 19 7 17 8 16 9 15 10 14 11 6 12
REMARK SMILES IDX 7 13 8 14 9 15 13 16 11 17 10 18 12 20 4 22 21 24 18 26
REMARK H PARENT 10 19 12 21 4 23 21 25 18 27
REMARK Flexibility Score: inf
ROOT
ATOM      1  C   UNL     1       0.625 -18.705  -0.273  1.00  0.00     0.180 A 
ATOM      2  C   UNL     1       0.718 -20.024   0.204  1.00  0.00     0.208 A 
ATOM      3  C   UNL     1       1.989 -20.584   0.412  1.00  0.00     0.238 A 
ATOM      4  O   UNL     1       2.066 -21.746   0.891  1.00  0.00    -0.285 OA
ATOM      5  C   UNL     1       3.149 -19.827   0.123  1.00  0.00     0.111 A 
ATOM      6  C   UNL     1       4.486 -20.309   0.257  1.00  0.00     0.134 A 
ATOM      7  C   UNL     1       5.559 -19.429   0.069  1.00  0.00     0.093 A 
ATOM      8  C   UNL     1       5.345 -18.103  -0.313  1.00  0.00     0.123 A 
ATOM      9  C   UNL     1       4.046 -17.639  -0.505  1.00  0.00     0.094 A 
ATOM     10  C   UNL     1       2.953 -18.483  -0.289  1.00  0.00     0.146 A 
ATOM     11  O   UNL     1       1.731 -17.998  -0.472  1.00  0.00    -0.452 OA
ENDROOT
BRANCH   1  12
ATOM     12  C   UNL     1      -0.678 -18.053  -0.540  1.00  0.00     0.025 A 
ATOM     13  C   UNL     1      -1.252 -17.160   0.382  1.00  0.00     0.016 A 
ATOM     14  C   UNL     1      -2.494 -16.575   0.120  1.00  0.00     0.051 A 
ATOM     15  C   UNL     1      -3.185 -16.884  -1.058  1.00  0.00     0.157 A 
ATOM     16  C   UNL     1      -1.386 -18.375  -1.710  1.00  0.00     0.062 A 
ATOM     17  C   UNL     1      -2.631 -17.787  -1.974  1.00  0.00     0.158 A 
BRANCH  15  18
ATOM     18  O   UNL     1      -4.423 -16.302  -1.324  1.00  0.00    -0.504 OA
ATOM     19  H   UNL     1      -4.844 -16.351  -2.245  1.00  0.00     0.293 HD
ENDBRANCH  15  18
BRANCH  17  20
ATOM     20  O   UNL     1      -3.324 -18.098  -3.143  1.00  0.00    -0.504 OA
ATOM     21  H   UNL     1      -2.977 -18.789  -3.797  1.00  0.00     0.293 HD
ENDBRANCH  17  20
ENDBRANCH   1  12
BRANCH   2  22
ATOM     22  O   UNL     1      -0.440 -20.746   0.504  1.00  0.00    -0.502 OA
ATOM     23  H   UNL     1      -0.792 -21.482  -0.096  1.00  0.00     0.293 HD
ENDBRANCH   2  22
BRANCH   6  24
ATOM     24  O   UNL     1       4.812 -21.637   0.546  1.00  0.00    -0.507 OA
ATOM     25  H   UNL     1       5.714 -21.949   0.869  1.00  0.00     0.293 HD
ENDBRANCH   6  24
BRANCH   8  26
ATOM     26  O   UNL     1       6.420 -17.238  -0.514  1.00  0.00    -0.508 OA
ATOM     27  H   UNL     1       6.603 -16.823  -1.420  1.00  0.00     0.293 HD
ENDBRANCH   8  26
TORSDOF 6
ENDMDL
MODEL 7
REMARK VINA RESULT:    -5.440      1.479      2.715
REMARK INTER + INTRA:          -6.856
REMARK INTER:                  -7.123
REMARK INTRA:                   0.267
REMARK UNBOUND:                -0.302
REMARK SMILES O=c1c(O)c(-c2ccc(O)c(O)c2)oc2cc(O)cc(O)c12
REMARK SMILES IDX 5 1 3 2 2 3 1 4 22 5 20 6 19 7 17 8 16 9 15 10 14 11 6 12
REMARK SMILES IDX 7 13 8 14 9 15 13 16 11 17 10 18 12 20 4 22 21 24 18 26
REMARK H PARENT 10 19 12 21 4 23 21 25 18 27
REMARK Flexibility Score: inf
ROOT
ATOM      1  C   UNL     1      -7.807 -14.078   4.786  1.00  0.00     0.180 A 
ATOM      2  C   UNL     1      -7.062 -13.283   3.899  1.00  0.00     0.208 A 
ATOM      3  C   UNL     1      -7.150 -13.535   2.520  1.00  0.00     0.238 A 
ATOM      4  O   UNL     1      -6.523 -12.785   1.727  1.00  0.00    -0.285 OA
ATOM      5  C   UNL     1      -7.967 -14.590   2.048  1.00  0.00     0.111 A 
ATOM      6  C   UNL     1      -8.099 -14.960   0.676  1.00  0.00     0.134 A 
ATOM      7  C   UNL     1      -9.037 -15.935   0.311  1.00  0.00     0.093 A 
ATOM      8  C   UNL     1      -9.799 -16.598   1.275  1.00  0.00     0.123 A 
ATOM      9  C   UNL     1      -9.634 -16.285   2.622  1.00  0.00     0.094 A 
ATOM     10  C   UNL     1      -8.733 -15.292   3.015  1.00  0.00     0.146 A 
ATOM     11  O   UNL     1      -8.615 -15.017   4.307  1.00  0.00    -0.452 OA
ENDROOT
BRANCH   1  12
ATOM     12  C   UNL     1      -7.748 -13.890   6.253  1.00  0.00     0.025 A 
ATOM     13  C   UNL     1      -8.884 -14.079   7.062  1.00  0.00     0.016 A 
ATOM     14  C   UNL     1      -8.811 -13.871   8.442  1.00  0.00     0.051 A 
ATOM     15  C   UNL     1      -7.609 -13.460   9.032  1.00  0.00     0.157 A 
ATOM     16  C   UNL     1      -6.551 -13.458   6.849  1.00  0.00     0.062 A 
ATOM     17  C   UNL     1      -6.478 -13.250   8.233  1.00  0.00     0.158 A 
BRANCH  15  18
ATOM     18  O   UNL     1      -7.531 -13.254  10.408  1.00  0.00    -0.504 OA
ATOM     19  H   UNL     1      -7.163 -12.393  10.794  1.00  0.00     0.293 HD
ENDBRANCH  15  18
BRANCH  17  20
ATOM     20  O   UNL     1      -5.284 -12.836   8.822  1.00  0.00    -0.504 OA
ATOM     21  H   UNL     1      -4.678 -12.160   8.372  1.00  0.00     0.293 HD
ENDBRANCH  17  20
ENDBRANCH   1  12
BRANCH   2  22
ATOM     22  O   UNL     1      -6.279 -12.232   4.385  1.00  0.00    -0.502 OA
ATOM     23  H   UNL     1      -5.267 -12.240   4.335  1.00  0.00     0.293 HD
ENDBRANCH   2  22
BRANCH   6  24
ATOM     24  O   UNL     1      -7.321 -14.426  -0.356  1.00  0.00    -0.507 OA
ATOM     25  H   UNL     1      -7.676 -14.157  -1.261  1.00  0.00     0.293 HD
ENDBRANCH   6  24
BRANCH   8  26
ATOM     26  O   UNL     1     -10.718 -17.578   0.904  1.00  0.00    -0.508 OA
ATOM     27  H   UNL     1     -10.571 -18.554   1.131  1.00  0.00     0.293 HD
ENDBRANCH   8  26
TORSDOF 6
ENDMDL
MODEL 8
REMARK VINA RESULT:    -5.295      1.843      7.090
REMARK INTER + INTRA:          -6.680
REMARK INTER:                  -6.584
REMARK INTRA:                  -0.097
REMARK UNBOUND:                -0.302
REMARK SMILES O=c1c(O)c(-c2ccc(O)c(O)c2)oc2cc(O)cc(O)c12
REMARK SMILES IDX 5 1 3 2 2 3 1 4 22 5 20 6 19 7 17 8 16 9 15 10 14 11 6 12
REMARK SMILES IDX 7 13 8 14 9 15 13 16 11 17 10 18 12 20 4 22 21 24 18 26
REMARK H PARENT 10 19 12 21 4 23 21 25 18 27
REMARK Flexibility Score: inf
ROOT
ATOM      1  C   UNL     1      -8.350 -14.558   3.722  1.00  0.00     0.180 A 
ATOM      2  C   UNL     1      -7.655 -13.353   3.521  1.00  0.00     0.208 A 
ATOM      3  C   UNL     1      -7.170 -12.652   4.637  1.00  0.00     0.238 A 
ATOM      4  O   UNL     1      -6.502 -11.602   4.448  1.00  0.00    -0.285 OA
ATOM      5  C   UNL     1      -7.400 -13.156   5.939  1.00  0.00     0.111 A 
ATOM      6  C   UNL     1      -6.989 -12.508   7.143  1.00  0.00     0.134 A 
ATOM      7  C   UNL     1      -7.154 -13.163   8.370  1.00  0.00     0.093 A 
ATOM      8  C   UNL     1      -7.775 -14.412   8.443  1.00  0.00     0.123 A 
ATOM      9  C   UNL     1      -8.233 -15.025   7.279  1.00  0.00     0.094 A 
ATOM     10  C   UNL     1      -8.050 -14.414   6.036  1.00  0.00     0.146 A 
ATOM     11  O   UNL     1      -8.492 -15.038   4.951  1.00  0.00    -0.452 OA
ENDROOT
BRANCH   1  12
ATOM     12  C   UNL     1      -8.912 -15.341   2.598  1.00  0.00     0.025 A 
ATOM     13  C   UNL     1     -10.287 -15.629   2.522  1.00  0.00     0.016 A 
ATOM     14  C   UNL     1     -10.792 -16.390   1.465  1.00  0.00     0.051 A 
ATOM     15  C   UNL     1      -9.933 -16.884   0.476  1.00  0.00     0.157 A 
ATOM     16  C   UNL     1      -8.052 -15.857   1.614  1.00  0.00     0.062 A 
ATOM     17  C   UNL     1      -8.559 -16.620   0.552  1.00  0.00     0.158 A 
BRANCH  15  18
ATOM     18  O   UNL     1     -10.432 -17.642  -0.582  1.00  0.00    -0.504 OA
ATOM     19  H   UNL     1     -10.156 -18.607  -0.718  1.00  0.00     0.293 HD
ENDBRANCH  15  18
BRANCH  17  20
ATOM     20  O   UNL     1      -7.704 -17.118  -0.429  1.00  0.00    -0.504 OA
ATOM     21  H   UNL     1      -7.031 -17.847  -0.226  1.00  0.00     0.293 HD
ENDBRANCH  17  20
ENDBRANCH   1  12
BRANCH   2  22
ATOM     22  O   UNL     1      -7.420 -12.885   2.225  1.00  0.00    -0.502 OA
ATOM     23  H   UNL     1      -6.812 -12.098   2.033  1.00  0.00     0.293 HD
ENDBRANCH   2  22
BRANCH   6  24
ATOM     24  O   UNL     1      -6.442 -11.223   7.190  1.00  0.00    -0.507 OA
ATOM     25  H   UNL     1      -5.455 -11.020   7.216  1.00  0.00     0.293 HD
ENDBRANCH   6  24
BRANCH   8  26
ATOM     26  O   UNL     1      -7.950 -15.049   9.670  1.00  0.00    -0.508 OA
ATOM     27  H   UNL     1      -8.108 -16.047   9.731  1.00  0.00     0.293 HD
ENDBRANCH   8  26
TORSDOF 6
ENDMDL
MODEL 9
REMARK VINA RESULT:    -5.194      1.872      6.970
REMARK INTER + INTRA:          -6.559
REMARK INTER:                  -6.228
REMARK INTRA:                  -0.331
REMARK UNBOUND:                -0.302
REMARK SMILES O=c1c(O)c(-c2ccc(O)c(O)c2)oc2cc(O)cc(O)c12
REMARK SMILES IDX 5 1 3 2 2 3 1 4 22 5 20 6 19 7 17 8 16 9 15 10 14 11 6 12
REMARK SMILES IDX 7 13 8 14 9 15 13 16 11 17 10 18 12 20 4 22 21 24 18 26
REMARK H PARENT 10 19 12 21 4 23 21 25 18 27
REMARK Flexibility Score: inf
ROOT
ATOM      1  C   UNL     1      -9.079 -14.721   3.763  1.00  0.00     0.180 A 
ATOM      2  C   UNL     1      -7.834 -15.059   4.321  1.00  0.00     0.208 A 
ATOM      3  C   UNL     1      -7.583 -14.743   5.666  1.00  0.00     0.238 A 
ATOM      4  O   UNL     1      -6.487 -15.096   6.175  1.00  0.00    -0.285 OA
ATOM      5  C   UNL     1      -8.572 -14.079   6.430  1.00  0.00     0.111 A 
ATOM      6  C   UNL     1      -8.409 -13.674   7.789  1.00  0.00     0.134 A 
ATOM      7  C   UNL     1      -9.502 -13.142   8.486  1.00  0.00     0.093 A 
ATOM      8  C   UNL     1     -10.730 -12.938   7.853  1.00  0.00     0.123 A 
ATOM      9  C   UNL     1     -10.881 -13.275   6.510  1.00  0.00     0.094 A 
ATOM     10  C   UNL     1      -9.820 -13.842   5.798  1.00  0.00     0.146 A 
ATOM     11  O   UNL     1     -10.009 -14.158   4.523  1.00  0.00    -0.452 OA
ENDROOT
BRANCH   1  12
ATOM     12  C   UNL     1      -9.409 -14.999   2.346  1.00  0.00     0.025 A 
ATOM     13  C   UNL     1      -9.123 -14.067   1.331  1.00  0.00     0.016 A 
ATOM     14  C   UNL     1      -9.466 -14.341   0.004  1.00  0.00     0.051 A 
ATOM     15  C   UNL     1     -10.108 -15.541  -0.327  1.00  0.00     0.157 A 
ATOM     16  C   UNL     1     -10.071 -16.192   2.010  1.00  0.00     0.062 A 
ATOM     17  C   UNL     1     -10.414 -16.467   0.679  1.00  0.00     0.158 A 
BRANCH  15  18
ATOM     18  O   UNL     1     -10.449 -15.818  -1.649  1.00  0.00    -0.504 OA
ATOM     19  H   UNL     1     -10.914 -16.682  -1.905  1.00  0.00     0.293 HD
ENDBRANCH  15  18
BRANCH  17  20
ATOM     20  O   UNL     1     -11.059 -17.657   0.348  1.00  0.00    -0.504 OA
ATOM     21  H   UNL     1     -11.720 -18.095   0.979  1.00  0.00     0.293 HD
ENDBRANCH  17  20
ENDBRANCH   1  12
BRANCH   2  22
ATOM     22  O   UNL     1      -6.880 -15.735   3.555  1.00  0.00    -0.502 OA
ATOM     23  H   UNL     1      -6.631 -15.445   2.617  1.00  0.00     0.293 HD
ENDBRANCH   2  22
BRANCH   6  24
ATOM     24  O   UNL     1      -7.201 -13.748   8.487  1.00  0.00    -0.507 OA
ATOM     25  H   UNL     1      -7.051 -13.386   9.416  1.00  0.00     0.293 HD
ENDBRANCH   6  24
BRANCH   8  26
ATOM     26  O   UNL     1     -11.807 -12.393   8.550  1.00  0.00    -0.508 OA
ATOM     27  H   UNL     1     -11.668 -11.765   9.332  1.00  0.00     0.293 HD
ENDBRANCH   8  26
TORSDOF 6
ENDMDL
