MODEL 1
REMARK VINA RESULT:    -2.644      0.000      0.000
REMARK INTER + INTRA:          -3.219
REMARK INTER:                  -3.107
REMARK INTRA:                  -0.112
REMARK UNBOUND:                -0.112
REMARK SMILES O=C([O-])CCC(=O)[O-]
REMARK SMILES IDX 4 1 2 2 1 3 3 4 5 5 6 6 7 7 8 8
REMARK H PARENT
REMARK Flexibility Score: inf
ROOT
ATOM      1  C   UNL     1       1.288  14.328   8.733  1.00  0.00     0.059 C 
ENDROOT
BRANCH   1   2
ATOM      2  C   UNL     1       1.497  15.529   9.604  1.00  0.00     0.042 C 
ATOM      3  O   UNL     1       1.144  16.669   9.205  1.00  0.00    -0.550 OA
ATOM      4  O   UNL     1       2.119  15.393  10.839  1.00  0.00    -0.550 OA
ENDBRANCH   1   2
BRANCH   1   5
ATOM      5  C   UNL     1       2.515  14.045   7.859  1.00  0.00     0.059 C 
BRANCH   5   6
ATOM      6  C   UNL     1       3.399  13.002   8.471  1.00  0.00     0.042 C 
ATOM      7  O   UNL     1       4.235  13.322   9.357  1.00  0.00    -0.550 OA
ATOM      8  O   UNL     1       3.273  11.673   8.092  1.00  0.00    -0.550 OA
ENDBRANCH   5   6
ENDBRANCH   1   5
TORSDOF 3
ENDMDL
MODEL 2
REMARK VINA RESULT:    -2.585      2.971      4.785
REMARK INTER + INTRA:          -3.150
REMARK INTER:                  -2.958
REMARK INTRA:                  -0.192
REMARK UNBOUND:                -0.112
REMARK SMILES O=C([O-])CCC(=O)[O-]
REMARK SMILES IDX 4 1 2 2 1 3 3 4 5 5 6 6 7 7 8 8
REMARK H PARENT
REMARK Flexibility Score: inf
ROOT
ATOM      1  C   UNL     1       5.150  13.823  11.352  1.00  0.00     0.059 C 
ENDROOT
BRANCH   1   2
ATOM      2  C   UNL     1       4.674  12.403  11.306  1.00  0.00     0.042 C 
ATOM      3  O   UNL     1       4.166  11.940  10.253  1.00  0.00    -0.550 OA
ATOM      4  O   UNL     1       4.755  11.605  12.441  1.00  0.00    -0.550 OA
ENDBRANCH   1   2
BRANCH   1   5
ATOM      5  C   UNL     1       4.414  14.632  12.425  1.00  0.00     0.059 C 
BRANCH   5   6
ATOM      6  C   UNL     1       2.937  14.663  12.176  1.00  0.00     0.042 C 
ATOM      7  O   UNL     1       2.137  14.242  13.052  1.00  0.00    -0.550 OA
ATOM      8  O   UNL     1       2.443  15.194  10.992  1.00  0.00    -0.550 OA
ENDBRANCH   5   6
ENDBRANCH   1   5
TORSDOF 3
ENDMDL
MODEL 3
REMARK VINA RESULT:    -2.585      3.437      5.174
REMARK INTER + INTRA:          -3.150
REMARK INTER:                  -3.032
REMARK INTRA:                  -0.118
REMARK UNBOUND:                -0.112
REMARK SMILES O=C([O-])CCC(=O)[O-]
REMARK SMILES IDX 4 1 2 2 1 3 3 4 5 5 6 6 7 7 8 8
REMARK H PARENT
REMARK Flexibility Score: inf
ROOT
ATOM      1  C   UNL     1       5.744  13.878  11.048  1.00  0.00     0.059 C 
ENDROOT
BRANCH   1   2
ATOM      2  C   UNL     1       6.559  12.690  11.459  1.00  0.00     0.042 C 
ATOM      3  O   UNL     1       7.800  12.671  11.253  1.00  0.00    -0.550 OA
ATOM      4  O   UNL     1       5.939  11.587  12.034  1.00  0.00    -0.550 OA
ENDBRANCH   1   2
BRANCH   1   5
ATOM      5  C   UNL     1       4.718  14.258  12.120  1.00  0.00     0.059 C 
BRANCH   5   6
ATOM      6  C   UNL     1       3.315  14.134  11.610  1.00  0.00     0.042 C 
ATOM      7  O   UNL     1       2.631  15.166  11.380  1.00  0.00    -0.550 OA
ATOM      8  O   UNL     1       2.778  12.880  11.351  1.00  0.00    -0.550 OA
ENDBRANCH   5   6
ENDBRANCH   1   5
TORSDOF 3
ENDMDL
MODEL 4
REMARK VINA RESULT:    -2.571      2.067      2.843
REMARK INTER + INTRA:          -3.134
REMARK INTER:                  -3.066
REMARK INTRA:                  -0.069
REMARK UNBOUND:                -0.112
REMARK SMILES O=C([O-])CCC(=O)[O-]
REMARK SMILES IDX 4 1 2 2 1 3 3 4 5 5 6 6 7 7 8 8
REMARK H PARENT
REMARK Flexibility Score: inf
ROOT
ATOM      1  C   UNL     1       3.684  13.136   7.894  1.00  0.00     0.059 C 
ENDROOT
BRANCH   1   2
ATOM      2  C   UNL     1       2.445  13.849   7.446  1.00  0.00     0.042 C 
ATOM      3  O   UNL     1       1.844  14.628   8.230  1.00  0.00    -0.550 OA
ATOM      4  O   UNL     1       1.932  13.619   6.175  1.00  0.00    -0.550 OA
ENDBRANCH   1   2
BRANCH   1   5
ATOM      5  C   UNL     1       3.837  13.174   9.418  1.00  0.00     0.059 C 
BRANCH   5   6
ATOM      6  C   UNL     1       3.929  11.796   9.998  1.00  0.00     0.042 C 
ATOM      7  O   UNL     1       4.059  11.639  11.241  1.00  0.00    -0.550 OA
ATOM      8  O   UNL     1       3.832  10.685   9.171  1.00  0.00    -0.550 OA
ENDBRANCH   5   6
ENDBRANCH   1   5
TORSDOF 3
ENDMDL
MODEL 5
REMARK VINA RESULT:    -2.565      2.997      3.705
REMARK INTER + INTRA:          -3.126
REMARK INTER:                  -2.935
REMARK INTRA:                  -0.191
REMARK UNBOUND:                -0.112
REMARK SMILES O=C([O-])CCC(=O)[O-]
REMARK SMILES IDX 4 1 2 2 1 3 3 4 5 5 6 6 7 7 8 8
REMARK H PARENT
REMARK Flexibility Score: inf
ROOT
ATOM      1  C   UNL     1       4.426  14.640  12.426  1.00  0.00     0.059 C 
ENDROOT
BRANCH   1   2
ATOM      2  C   UNL     1       2.950  14.608  12.175  1.00  0.00     0.042 C 
ATOM      3  O   UNL     1       2.169  14.151  13.050  1.00  0.00    -0.550 OA
ATOM      4  O   UNL     1       2.441  15.045  10.958  1.00  0.00    -0.550 OA
ENDBRANCH   1   2
BRANCH   1   5
ATOM      5  C   UNL     1       5.198  13.858  11.358  1.00  0.00     0.059 C 
BRANCH   5   6
ATOM      6  C   UNL     1       4.779  12.420  11.317  1.00  0.00     0.042 C 
ATOM      7  O   UNL     1       4.335  11.920  10.250  1.00  0.00    -0.550 OA
ATOM      8  O   UNL     1       4.917  11.623  12.445  1.00  0.00    -0.550 OA
ENDBRANCH   5   6
ENDBRANCH   1   5
TORSDOF 3
ENDMDL
MODEL 6
REMARK VINA RESULT:    -2.560      1.827      3.539
REMARK INTER + INTRA:          -3.121
REMARK INTER:                  -3.003
REMARK INTRA:                  -0.117
REMARK UNBOUND:                -0.112
REMARK SMILES O=C([O-])CCC(=O)[O-]
REMARK SMILES IDX 4 1 2 2 1 3 3 4 5 5 6 6 7 7 8 8
REMARK H PARENT
REMARK Flexibility Score: inf
ROOT
ATOM      1  C   UNL     1       2.950  14.340  11.037  1.00  0.00     0.059 C 
ENDROOT
BRANCH   1   2
ATOM      2  C   UNL     1       4.107  13.532  10.534  1.00  0.00     0.042 C 
ATOM      3  O   UNL     1       3.905  12.483   9.870  1.00  0.00    -0.550 OA
ATOM      4  O   UNL     1       5.408  13.918  10.835  1.00  0.00    -0.550 OA
ENDBRANCH   1   2
BRANCH   1   5
ATOM      5  C   UNL     1       1.655  13.997  10.293  1.00  0.00     0.059 C 
BRANCH   5   6
ATOM      6  C   UNL     1       1.467  14.861   9.084  1.00  0.00     0.042 C 
ATOM      7  O   UNL     1       0.926  15.993   9.192  1.00  0.00    -0.550 OA
ATOM      8  O   UNL     1       1.927  14.433   7.846  1.00  0.00    -0.550 OA
ENDBRANCH   5   6
ENDBRANCH   1   5
TORSDOF 3
ENDMDL
MODEL 7
REMARK VINA RESULT:    -2.552      3.446      4.123
REMARK INTER + INTRA:          -3.112
REMARK INTER:                  -3.033
REMARK INTRA:                  -0.079
REMARK UNBOUND:                -0.112
REMARK SMILES O=C([O-])CCC(=O)[O-]
REMARK SMILES IDX 4 1 2 2 1 3 3 4 5 5 6 6 7 7 8 8
REMARK H PARENT
REMARK Flexibility Score: inf
ROOT
ATOM      1  C   UNL     1       4.859  14.220  12.000  1.00  0.00     0.059 C 
ENDROOT
BRANCH   1   2
ATOM      2  C   UNL     1       3.459  14.163  11.470  1.00  0.00     0.042 C 
ATOM      3  O   UNL     1       2.486  14.414  12.227  1.00  0.00    -0.550 OA
ATOM      4  O   UNL     1       3.228  13.791  10.152  1.00  0.00    -0.550 OA
ENDBRANCH   1   2
BRANCH   1   5
ATOM      5  C   UNL     1       5.881  13.795  10.940  1.00  0.00     0.059 C 
BRANCH   5   6
ATOM      6  C   UNL     1       6.729  12.655  11.417  1.00  0.00     0.042 C 
ATOM      7  O   UNL     1       7.974  12.670  11.231  1.00  0.00    -0.550 OA
ATOM      8  O   UNL     1       6.148  11.596  12.102  1.00  0.00    -0.550 OA
ENDBRANCH   5   6
ENDBRANCH   1   5
TORSDOF 3
ENDMDL
MODEL 8
REMARK VINA RESULT:    -2.552      1.834      2.148
REMARK INTER + INTRA:          -3.111
REMARK INTER:                  -2.990
REMARK INTRA:                  -0.121
REMARK UNBOUND:                -0.112
REMARK SMILES O=C([O-])CCC(=O)[O-]
REMARK SMILES IDX 4 1 2 2 1 3 3 4 5 5 6 6 7 7 8 8
REMARK H PARENT
REMARK Flexibility Score: inf
ROOT
ATOM      1  C   UNL     1       1.742  13.908  10.253  1.00  0.00     0.059 C 
ENDROOT
BRANCH   1   2
ATOM      2  C   UNL     1       1.477  14.770   9.056  1.00  0.00     0.042 C 
ATOM      3  O   UNL     1       0.811  15.831   9.175  1.00  0.00    -0.550 OA
ATOM      4  O   UNL     1       1.930  14.378   7.803  1.00  0.00    -0.550 OA
ENDBRANCH   1   2
BRANCH   1   5
ATOM      5  C   UNL     1       3.033  14.319  10.969  1.00  0.00     0.059 C 
BRANCH   5   6
ATOM      6  C   UNL     1       4.214  13.550  10.463  1.00  0.00     0.042 C 
ATOM      7  O   UNL     1       5.381  13.893  10.788  1.00  0.00    -0.550 OA
ATOM      8  O   UNL     1       4.024  12.430   9.664  1.00  0.00    -0.550 OA
ENDBRANCH   5   6
ENDBRANCH   1   5
TORSDOF 3
ENDMDL
MODEL 9
REMARK VINA RESULT:    -2.550      2.057      4.014
REMARK INTER + INTRA:          -3.109
REMARK INTER:                  -3.063
REMARK INTRA:                  -0.046
REMARK UNBOUND:                -0.112
REMARK SMILES O=C([O-])CCC(=O)[O-]
REMARK SMILES IDX 4 1 2 2 1 3 3 4 5 5 6 6 7 7 8 8
REMARK H PARENT
REMARK Flexibility Score: inf
ROOT
ATOM      1  C   UNL     1       3.984  13.100   9.505  1.00  0.00     0.059 C 
ENDROOT
BRANCH   1   2
ATOM      2  C   UNL     1       4.480  11.803  10.070  1.00  0.00     0.042 C 
ATOM      3  O   UNL     1       4.820  10.867   9.300  1.00  0.00    -0.550 OA
ATOM      4  O   UNL     1       4.526  11.616  11.445  1.00  0.00    -0.550 OA
ENDBRANCH   1   2
BRANCH   1   5
ATOM      5  C   UNL     1       3.721  12.996   8.000  1.00  0.00     0.059 C 
BRANCH   5   6
ATOM      6  C   UNL     1       2.538  13.820   7.588  1.00  0.00     0.042 C 
ATOM      7  O   UNL     1       2.122  13.782   6.401  1.00  0.00    -0.550 OA
ATOM      8  O   UNL     1       1.872  14.597   8.527  1.00  0.00    -0.550 OA
ENDBRANCH   5   6
ENDBRANCH   1   5
TORSDOF 3
ENDMDL
