MODEL 1
REMARK VINA RESULT:    -5.228      0.000      0.000
REMARK INTER + INTRA:          -5.482
REMARK INTER:                  -5.687
REMARK INTRA:                   0.205
REMARK UNBOUND:                 0.205
REMARK SMILES C=C1C[C@]2(O)O[C@]3(C[C@H]2C(C)C)[C@H](C)CC[C@H]13
REMARK SMILES IDX 14 1 13 2 15 3 16 4 17 5 7 6 8 7 9 8 4 9 6 10 3 11 2 12 1 13
REMARK SMILES IDX 10 14 11 15 12 16 5 17
REMARK H PARENT 5 18
REMARK Flexibility Score: inf
ROOT
ATOM      1  C   UNL     1      43.152  15.870  -2.861  1.00  0.00     0.011 C 
ATOM      2  C   UNL     1      43.123  16.798  -4.084  1.00  0.00     0.019 C 
ATOM      3  C   UNL     1      44.481  16.865  -4.797  1.00  0.00     0.007 C 
ATOM      4  C   UNL     1      44.676  18.312  -5.255  1.00  0.00     0.011 C 
ATOM      5  C   UNL     1      43.375  19.048  -4.931  1.00  0.00     0.047 C 
ATOM      6  C   UNL     1      42.763  18.256  -3.761  1.00  0.00     0.081 C 
ATOM      7  C   UNL     1      41.261  18.522  -3.613  1.00  0.00     0.046 C 
ATOM      8  C   UNL     1      41.216  19.694  -2.631  1.00  0.00     0.054 C 
ATOM      9  C   UNL     1      42.718  19.905  -2.275  1.00  0.00     0.173 C 
ATOM     10  O   UNL     1      43.362  18.683  -2.556  1.00  0.00    -0.342 OA
ATOM     11  C   UNL     1      43.363  21.004  -3.163  1.00  0.00     0.096 C 
ATOM     12  C   UNL     1      43.597  20.512  -4.578  1.00  0.00    -0.066 C 
ATOM     13  C   UNL     1      44.013  21.372  -5.517  1.00  0.00     0.008 C 
ENDROOT
BRANCH   8  14
ATOM     14  C   UNL     1      40.221  19.428  -1.452  1.00  0.00    -0.009 C 
ATOM     15  C   UNL     1      40.003  20.621  -0.502  1.00  0.00     0.008 C 
ATOM     16  C   UNL     1      38.875  18.882  -1.952  1.00  0.00     0.008 C 
ENDBRANCH   8  14
BRANCH   9  17
ATOM     17  O   UNL     1      42.895  20.250  -0.925  1.00  0.00    -0.365 OA
ATOM     18  H   UNL     1      42.353  21.063  -0.752  1.00  0.00     0.214 HD
ENDBRANCH   9  17
TORSDOF 2
ENDMDL
MODEL 2
REMARK VINA RESULT:    -5.016      5.562      8.197
REMARK INTER + INTRA:          -5.250
REMARK INTER:                  -4.932
REMARK INTRA:                  -0.318
REMARK UNBOUND:                 0.205
REMARK SMILES C=C1C[C@]2(O)O[C@]3(C[C@H]2C(C)C)[C@H](C)CC[C@H]13
REMARK SMILES IDX 14 1 13 2 15 3 16 4 17 5 7 6 8 7 9 8 4 9 6 10 3 11 2 12 1 13
REMARK SMILES IDX 10 14 11 15 12 16 5 17
REMARK H PARENT 5 18
REMARK Flexibility Score: inf
ROOT
ATOM      1  C   UNL     1      45.264  15.631  -4.590  1.00  0.00     0.011 C 
ATOM      2  C   UNL     1      46.630  16.259  -4.274  1.00  0.00     0.019 C 
ATOM      3  C   UNL     1      47.082  17.246  -5.360  1.00  0.00     0.007 C 
ATOM      4  C   UNL     1      48.594  17.067  -5.526  1.00  0.00     0.011 C 
ATOM      5  C   UNL     1      49.035  16.081  -4.444  1.00  0.00     0.047 C 
ATOM      6  C   UNL     1      47.776  15.244  -4.146  1.00  0.00     0.081 C 
ATOM      7  C   UNL     1      47.861  14.550  -2.783  1.00  0.00     0.046 C 
ATOM      8  C   UNL     1      48.482  13.195  -3.126  1.00  0.00     0.054 C 
ATOM      9  C   UNL     1      48.606  13.255  -4.678  1.00  0.00     0.173 C 
ATOM     10  O   UNL     1      47.670  14.217  -5.108  1.00  0.00    -0.342 OA
ATOM     11  C   UNL     1      50.018  13.729  -5.115  1.00  0.00     0.096 C 
ATOM     12  C   UNL     1      50.208  15.214  -4.878  1.00  0.00    -0.066 C 
ATOM     13  C   UNL     1      51.415  15.765  -5.064  1.00  0.00     0.008 C 
ENDROOT
BRANCH   8  14
ATOM     14  C   UNL     1      47.668  12.009  -2.509  1.00  0.00    -0.009 C 
ATOM     15  C   UNL     1      48.278  11.395  -1.234  1.00  0.00     0.008 C 
ATOM     16  C   UNL     1      46.196  12.384  -2.277  1.00  0.00     0.008 C 
ENDBRANCH   8  14
BRANCH   9  17
ATOM     17  O   UNL     1      48.337  12.013  -5.276  1.00  0.00    -0.365 OA
ATOM     18  H   UNL     1      49.055  11.387  -4.996  1.00  0.00     0.214 HD
ENDBRANCH   9  17
TORSDOF 2
ENDMDL
MODEL 3
REMARK VINA RESULT:    -4.976      1.902      3.617
REMARK INTER + INTRA:          -5.207
REMARK INTER:                  -4.958
REMARK INTRA:                  -0.249
REMARK UNBOUND:                 0.205
REMARK SMILES C=C1C[C@]2(O)O[C@]3(C[C@H]2C(C)C)[C@H](C)CC[C@H]13
REMARK SMILES IDX 14 1 13 2 15 3 16 4 17 5 7 6 8 7 9 8 4 9 6 10 3 11 2 12 1 13
REMARK SMILES IDX 10 14 11 15 12 16 5 17
REMARK H PARENT 5 18
REMARK Flexibility Score: inf
ROOT
ATOM      1  C   UNL     1      43.374  18.212  -5.398  1.00  0.00     0.011 C 
ATOM      2  C   UNL     1      42.569  19.348  -4.749  1.00  0.00     0.019 C 
ATOM      3  C   UNL     1      43.461  20.522  -4.321  1.00  0.00     0.007 C 
ATOM      4  C   UNL     1      42.909  21.043  -2.991  1.00  0.00     0.011 C 
ATOM      5  C   UNL     1      41.622  20.262  -2.721  1.00  0.00     0.047 C 
ATOM      6  C   UNL     1      41.807  18.935  -3.480  1.00  0.00     0.081 C 
ATOM      7  C   UNL     1      40.470  18.234  -3.742  1.00  0.00     0.046 C 
ATOM      8  C   UNL     1      40.314  17.327  -2.521  1.00  0.00     0.054 C 
ATOM      9  C   UNL     1      41.640  17.569  -1.738  1.00  0.00     0.173 C 
ATOM     10  O   UNL     1      42.568  18.053  -2.683  1.00  0.00    -0.342 OA
ATOM     11  C   UNL     1      41.460  18.651  -0.640  1.00  0.00     0.096 C 
ATOM     12  C   UNL     1      41.366  20.042  -1.237  1.00  0.00    -0.066 C 
ATOM     13  C   UNL     1      41.066  21.082  -0.448  1.00  0.00     0.008 C 
ENDROOT
BRANCH   8  14
ATOM     14  C   UNL     1      39.971  15.855  -2.929  1.00  0.00    -0.009 C 
ATOM     15  C   UNL     1      38.875  15.182  -2.080  1.00  0.00     0.008 C 
ATOM     16  C   UNL     1      39.643  15.738  -4.426  1.00  0.00     0.008 C 
ENDBRANCH   8  14
BRANCH   9  17
ATOM     17  O   UNL     1      42.121  16.391  -1.142  1.00  0.00    -0.365 OA
ATOM     18  H   UNL     1      42.861  16.648  -0.532  1.00  0.00     0.214 HD
ENDBRANCH   9  17
TORSDOF 2
ENDMDL
MODEL 4
REMARK VINA RESULT:    -4.890      6.258      8.986
REMARK INTER + INTRA:          -5.113
REMARK INTER:                  -4.884
REMARK INTRA:                  -0.230
REMARK UNBOUND:                 0.205
REMARK SMILES C=C1C[C@]2(O)O[C@]3(C[C@H]2C(C)C)[C@H](C)CC[C@H]13
REMARK SMILES IDX 14 1 13 2 15 3 16 4 17 5 7 6 8 7 9 8 4 9 6 10 3 11 2 12 1 13
REMARK SMILES IDX 10 14 11 15 12 16 5 17
REMARK H PARENT 5 18
REMARK Flexibility Score: inf
ROOT
ATOM      1  C   UNL     1      47.232  13.669  -1.384  1.00  0.00     0.011 C 
ATOM      2  C   UNL     1      47.339  12.719  -2.585  1.00  0.00     0.019 C 
ATOM      3  C   UNL     1      47.893  11.342  -2.191  1.00  0.00     0.007 C 
ATOM      4  C   UNL     1      48.810  10.886  -3.329  1.00  0.00     0.011 C 
ATOM      5  C   UNL     1      48.678  11.930  -4.437  1.00  0.00     0.047 C 
ATOM      6  C   UNL     1      48.262  13.221  -3.707  1.00  0.00     0.081 C 
ATOM      7  C   UNL     1      47.614  14.233  -4.657  1.00  0.00     0.046 C 
ATOM      8  C   UNL     1      48.803  15.073  -5.124  1.00  0.00     0.054 C 
ATOM      9  C   UNL     1      49.990  14.477  -4.310  1.00  0.00     0.173 C 
ATOM     10  O   UNL     1      49.415  13.846  -3.187  1.00  0.00    -0.342 OA
ATOM     11  C   UNL     1      50.754  13.401  -5.128  1.00  0.00     0.096 C 
ATOM     12  C   UNL     1      49.962  12.112  -5.233  1.00  0.00    -0.066 C 
ATOM     13  C   UNL     1      50.406  11.126  -6.024  1.00  0.00     0.008 C 
ENDROOT
BRANCH   8  14
ATOM     14  C   UNL     1      48.523  16.607  -4.981  1.00  0.00    -0.009 C 
ATOM     15  C   UNL     1      49.075  17.480  -6.125  1.00  0.00     0.008 C 
ATOM     16  C   UNL     1      47.032  16.898  -4.751  1.00  0.00     0.008 C 
ENDBRANCH   8  14
BRANCH   9  17
ATOM     17  O   UNL     1      50.898  15.467  -3.900  1.00  0.00    -0.365 OA
ATOM     18  H   UNL     1      50.481  16.349  -4.089  1.00  0.00     0.214 HD
ENDBRANCH   9  17
TORSDOF 2
ENDMDL
MODEL 5
REMARK VINA RESULT:    -4.839      1.406      5.158
REMARK INTER + INTRA:          -5.058
REMARK INTER:                  -4.820
REMARK INTRA:                  -0.239
REMARK UNBOUND:                 0.205
REMARK SMILES C=C1C[C@]2(O)O[C@]3(C[C@H]2C(C)C)[C@H](C)CC[C@H]13
REMARK SMILES IDX 14 1 13 2 15 3 16 4 17 5 7 6 8 7 9 8 4 9 6 10 3 11 2 12 1 13
REMARK SMILES IDX 10 14 11 15 12 16 5 17
REMARK H PARENT 5 18
REMARK Flexibility Score: inf
ROOT
ATOM      1  C   UNL     1      43.001  20.999  -2.769  1.00  0.00     0.011 C 
ATOM      2  C   UNL     1      41.821  20.096  -3.156  1.00  0.00     0.019 C 
ATOM      3  C   UNL     1      40.693  20.133  -2.115  1.00  0.00     0.007 C 
ATOM      4  C   UNL     1      40.136  18.712  -2.007  1.00  0.00     0.011 C 
ATOM      5  C   UNL     1      40.846  17.885  -3.079  1.00  0.00     0.047 C 
ATOM      6  C   UNL     1      42.186  18.611  -3.305  1.00  0.00     0.081 C 
ATOM      7  C   UNL     1      42.816  18.243  -4.652  1.00  0.00     0.046 C 
ATOM      8  C   UNL     1      43.707  17.051  -4.299  1.00  0.00     0.054 C 
ATOM      9  C   UNL     1      43.531  16.933  -2.756  1.00  0.00     0.173 C 
ATOM     10  O   UNL     1      43.102  18.201  -2.313  1.00  0.00    -0.342 OA
ATOM     11  C   UNL     1      42.434  15.898  -2.388  1.00  0.00     0.096 C 
ATOM     12  C   UNL     1      41.044  16.433  -2.671  1.00  0.00    -0.066 C 
ATOM     13  C   UNL     1      39.985  15.621  -2.548  1.00  0.00     0.008 C 
ENDROOT
BRANCH   8  14
ATOM     14  C   UNL     1      45.161  17.227  -4.853  1.00  0.00    -0.009 C 
ATOM     15  C   UNL     1      45.796  15.949  -5.433  1.00  0.00     0.008 C 
ATOM     16  C   UNL     1      45.252  18.383  -5.861  1.00  0.00     0.008 C 
ENDBRANCH   8  14
BRANCH   9  17
ATOM     17  O   UNL     1      44.729  16.573  -2.116  1.00  0.00    -0.365 OA
ATOM     18  H   UNL     1      44.720  16.988  -1.214  1.00  0.00     0.214 HD
ENDBRANCH   9  17
TORSDOF 2
ENDMDL
MODEL 6
REMARK VINA RESULT:    -4.743      5.145      7.610
REMARK INTER + INTRA:          -4.954
REMARK INTER:                  -4.651
REMARK INTRA:                  -0.303
REMARK UNBOUND:                 0.205
REMARK SMILES C=C1C[C@]2(O)O[C@]3(C[C@H]2C(C)C)[C@H](C)CC[C@H]13
REMARK SMILES IDX 14 1 13 2 15 3 16 4 17 5 7 6 8 7 9 8 4 9 6 10 3 11 2 12 1 13
REMARK SMILES IDX 10 14 11 15 12 16 5 17
REMARK H PARENT 5 18
REMARK Flexibility Score: inf
ROOT
ATOM      1  C   UNL     1      46.988  12.910  -0.463  1.00  0.00     0.011 C 
ATOM      2  C   UNL     1      47.199  12.153  -1.782  1.00  0.00     0.019 C 
ATOM      3  C   UNL     1      48.459  11.275  -1.753  1.00  0.00     0.007 C 
ATOM      4  C   UNL     1      49.098  11.364  -3.142  1.00  0.00     0.011 C 
ATOM      5  C   UNL     1      48.138  12.178  -4.009  1.00  0.00     0.047 C 
ATOM      6  C   UNL     1      47.365  13.060  -3.011  1.00  0.00     0.081 C 
ATOM      7  C   UNL     1      46.050  13.576  -3.602  1.00  0.00     0.046 C 
ATOM      8  C   UNL     1      46.454  14.914  -4.222  1.00  0.00     0.054 C 
ATOM      9  C   UNL     1      47.959  15.034  -3.834  1.00  0.00     0.173 C 
ATOM     10  O   UNL     1      48.140  14.201  -2.712  1.00  0.00    -0.342 OA
ATOM     11  C   UNL     1      48.880  14.518  -4.972  1.00  0.00     0.096 C 
ATOM     12  C   UNL     1      48.855  13.005  -5.067  1.00  0.00    -0.066 C 
ATOM     13  C   UNL     1      49.479  12.395  -6.084  1.00  0.00     0.008 C 
ENDROOT
BRANCH   8  14
ATOM     14  C   UNL     1      45.497  16.072  -3.782  1.00  0.00    -0.009 C 
ATOM     15  C   UNL     1      44.657  16.690  -4.917  1.00  0.00     0.008 C 
ATOM     16  C   UNL     1      44.597  15.655  -2.608  1.00  0.00     0.008 C 
ENDBRANCH   8  14
BRANCH   9  17
ATOM     17  O   UNL     1      48.318  16.356  -3.522  1.00  0.00    -0.365 OA
ATOM     18  H   UNL     1      48.921  16.322  -2.735  1.00  0.00     0.214 HD
ENDBRANCH   9  17
TORSDOF 2
ENDMDL
MODEL 7
REMARK VINA RESULT:    -4.696      5.078      6.500
REMARK INTER + INTRA:          -4.902
REMARK INTER:                  -4.591
REMARK INTRA:                  -0.311
REMARK UNBOUND:                 0.205
REMARK SMILES C=C1C[C@]2(O)O[C@]3(C[C@H]2C(C)C)[C@H](C)CC[C@H]13
REMARK SMILES IDX 14 1 13 2 15 3 16 4 17 5 7 6 8 7 9 8 4 9 6 10 3 11 2 12 1 13
REMARK SMILES IDX 10 14 11 15 12 16 5 17
REMARK H PARENT 5 18
REMARK Flexibility Score: inf
ROOT
ATOM      1  C   UNL     1      48.621  12.380  -2.712  1.00  0.00     0.011 C 
ATOM      2  C   UNL     1      48.719  13.185  -4.016  1.00  0.00     0.019 C 
ATOM      3  C   UNL     1      49.994  14.038  -4.079  1.00  0.00     0.007 C 
ATOM      4  C   UNL     1      49.614  15.362  -4.748  1.00  0.00     0.011 C 
ATOM      5  C   UNL     1      48.158  15.220  -5.193  1.00  0.00     0.047 C 
ATOM      6  C   UNL     1      47.561  14.169  -4.239  1.00  0.00     0.081 C 
ATOM      7  C   UNL     1      46.289  13.535  -4.810  1.00  0.00     0.046 C 
ATOM      8  C   UNL     1      45.180  14.431  -4.255  1.00  0.00     0.054 C 
ATOM      9  C   UNL     1      45.964  15.437  -3.360  1.00  0.00     0.173 C 
ATOM     10  O   UNL     1      47.182  14.804  -3.037  1.00  0.00    -0.342 OA
ATOM     11  C   UNL     1      46.290  16.746  -4.128  1.00  0.00     0.096 C 
ATOM     12  C   UNL     1      47.395  16.536  -5.145  1.00  0.00    -0.066 C 
ATOM     13  C   UNL     1      47.706  17.523  -5.997  1.00  0.00     0.008 C 
ENDROOT
BRANCH   8  14
ATOM     14  C   UNL     1      44.039  13.597  -3.583  1.00  0.00    -0.009 C 
ATOM     15  C   UNL     1      42.880  13.206  -4.519  1.00  0.00     0.008 C 
ATOM     16  C   UNL     1      44.588  12.360  -2.855  1.00  0.00     0.008 C 
ENDBRANCH   8  14
BRANCH   9  17
ATOM     17  O   UNL     1      45.258  15.760  -2.189  1.00  0.00    -0.365 OA
ATOM     18  H   UNL     1      45.908  16.150  -1.548  1.00  0.00     0.214 HD
ENDBRANCH   9  17
TORSDOF 2
ENDMDL
MODEL 8
REMARK VINA RESULT:    -4.668      1.666      4.367
REMARK INTER + INTRA:          -4.871
REMARK INTER:                  -4.552
REMARK INTRA:                  -0.319
REMARK UNBOUND:                 0.205
REMARK SMILES C=C1C[C@]2(O)O[C@]3(C[C@H]2C(C)C)[C@H](C)CC[C@H]13
REMARK SMILES IDX 14 1 13 2 15 3 16 4 17 5 7 6 8 7 9 8 4 9 6 10 3 11 2 12 1 13
REMARK SMILES IDX 10 14 11 15 12 16 5 17
REMARK H PARENT 5 18
REMARK Flexibility Score: inf
ROOT
ATOM      1  C   UNL     1      40.960  17.811  -1.774  1.00  0.00     0.011 C 
ATOM      2  C   UNL     1      41.900  18.994  -2.048  1.00  0.00     0.019 C 
ATOM      3  C   UNL     1      41.133  20.281  -2.383  1.00  0.00     0.007 C 
ATOM      4  C   UNL     1      41.925  21.004  -3.475  1.00  0.00     0.011 C 
ATOM      5  C   UNL     1      43.215  20.208  -3.674  1.00  0.00     0.047 C 
ATOM      6  C   UNL     1      42.860  18.777  -3.229  1.00  0.00     0.081 C 
ATOM      7  C   UNL     1      44.108  17.957  -2.889  1.00  0.00     0.046 C 
ATOM      8  C   UNL     1      44.448  17.284  -4.220  1.00  0.00     0.054 C 
ATOM      9  C   UNL     1      43.289  17.750  -5.150  1.00  0.00     0.173 C 
ATOM     10  O   UNL     1      42.224  18.108  -4.297  1.00  0.00    -0.342 OA
ATOM     11  C   UNL     1      43.690  19.004  -5.971  1.00  0.00     0.096 C 
ATOM     12  C   UNL     1      43.720  20.251  -5.109  1.00  0.00    -0.066 C 
ATOM     13  C   UNL     1      44.185  21.399  -5.621  1.00  0.00     0.008 C 
ENDROOT
BRANCH   8  14
ATOM     14  C   UNL     1      44.670  15.743  -4.053  1.00  0.00    -0.009 C 
ATOM     15  C   UNL     1      46.144  15.306  -3.942  1.00  0.00     0.008 C 
ATOM     16  C   UNL     1      43.847  15.170  -2.889  1.00  0.00     0.008 C 
ENDBRANCH   8  14
BRANCH   9  17
ATOM     17  O   UNL     1      42.884  16.737  -6.034  1.00  0.00    -0.365 OA
ATOM     18  H   UNL     1      43.147  15.868  -5.632  1.00  0.00     0.214 HD
ENDBRANCH   9  17
TORSDOF 2
ENDMDL
MODEL 9
REMARK VINA RESULT:    -4.653      1.631      4.457
REMARK INTER + INTRA:          -4.855
REMARK INTER:                  -4.545
REMARK INTRA:                  -0.310
REMARK UNBOUND:                 0.205
REMARK SMILES C=C1C[C@]2(O)O[C@]3(C[C@H]2C(C)C)[C@H](C)CC[C@H]13
REMARK SMILES IDX 14 1 13 2 15 3 16 4 17 5 7 6 8 7 9 8 4 9 6 10 3 11 2 12 1 13
REMARK SMILES IDX 10 14 11 15 12 16 5 17
REMARK H PARENT 5 18
REMARK Flexibility Score: inf
ROOT
ATOM      1  C   UNL     1      39.876  16.885  -4.888  1.00  0.00     0.011 C 
ATOM      2  C   UNL     1      40.073  17.257  -3.412  1.00  0.00     0.019 C 
ATOM      3  C   UNL     1      38.953  18.167  -2.887  1.00  0.00     0.007 C 
ATOM      4  C   UNL     1      39.605  19.182  -1.943  1.00  0.00     0.011 C 
ATOM      5  C   UNL     1      41.073  18.773  -1.817  1.00  0.00     0.047 C 
ATOM      6  C   UNL     1      41.379  18.013  -3.121  1.00  0.00     0.081 C 
ATOM      7  C   UNL     1      42.614  17.117  -2.985  1.00  0.00     0.046 C 
ATOM      8  C   UNL     1      43.751  18.031  -3.443  1.00  0.00     0.054 C 
ATOM      9  C   UNL     1      43.003  19.332  -3.863  1.00  0.00     0.173 C 
ATOM     10  O   UNL     1      41.675  18.946  -4.137  1.00  0.00    -0.342 OA
ATOM     11  C   UNL     1      42.975  20.368  -2.707  1.00  0.00     0.096 C 
ATOM     12  C   UNL     1      42.001  19.963  -1.618  1.00  0.00    -0.066 C 
ATOM     13  C   UNL     1      41.954  20.667  -0.478  1.00  0.00     0.008 C 
ENDROOT
BRANCH   8  14
ATOM     14  C   UNL     1      44.660  17.339  -4.514  1.00  0.00    -0.009 C 
ATOM     15  C   UNL     1      45.866  16.568  -3.943  1.00  0.00     0.008 C 
ATOM     16  C   UNL     1      43.845  16.445  -5.462  1.00  0.00     0.008 C 
ENDBRANCH   8  14
BRANCH   9  17
ATOM     17  O   UNL     1      43.580  19.928  -4.996  1.00  0.00    -0.365 OA
ATOM     18  H   UNL     1      43.557  20.912  -4.858  1.00  0.00     0.214 HD
ENDBRANCH   9  17
TORSDOF 2
ENDMDL
