MODEL 1
REMARK VINA RESULT:    -3.139      0.000      0.000
REMARK INTER + INTRA:          -3.786
REMARK INTER:                  -3.689
REMARK INTRA:                  -0.097
REMARK UNBOUND:                -0.097
REMARK SMILES CCCCC(=O)[O-]
REMARK SMILES IDX 4 1 5 2 6 3 7 4 3 5 2 6 1 7
REMARK H PARENT
REMARK Flexibility Score: inf
ROOT
ATOM      1  C   UNL     1     -22.114 -15.687  -0.060  1.00  0.00     0.053 C 
ENDROOT
BRANCH   1   2
ATOM      2  C   UNL     1     -22.440 -16.242   1.292  1.00  0.00     0.041 C 
ATOM      3  O   UNL     1     -23.133 -17.287   1.398  1.00  0.00    -0.550 OA
ATOM      4  O   UNL     1     -21.950 -15.622   2.436  1.00  0.00    -0.550 OA
ENDBRANCH   1   2
BRANCH   1   5
ATOM      5  C   UNL     1     -22.994 -14.479  -0.415  1.00  0.00     0.006 C 
BRANCH   5   6
ATOM      6  C   UNL     1     -24.354 -14.849  -1.033  1.00  0.00    -0.003 C 
ATOM      7  C   UNL     1     -25.507 -14.744  -0.036  1.00  0.00     0.004 C 
ENDBRANCH   5   6
ENDBRANCH   1   5
TORSDOF 3
ENDMDL
MODEL 2
REMARK VINA RESULT:    -3.137      0.085      1.224
REMARK INTER + INTRA:          -3.784
REMARK INTER:                  -3.681
REMARK INTRA:                  -0.104
REMARK UNBOUND:                -0.097
REMARK SMILES CCCCC(=O)[O-]
REMARK SMILES IDX 4 1 5 2 6 3 7 4 3 5 2 6 1 7
REMARK H PARENT
REMARK Flexibility Score: inf
ROOT
ATOM      1  C   UNL     1     -22.131 -15.690  -0.013  1.00  0.00     0.053 C 
ENDROOT
BRANCH   1   2
ATOM      2  C   UNL     1     -22.421 -16.189   1.368  1.00  0.00     0.041 C 
ATOM      3  O   UNL     1     -21.979 -15.570   2.371  1.00  0.00    -0.550 OA
ATOM      4  O   UNL     1     -23.207 -17.320   1.549  1.00  0.00    -0.550 OA
ENDBRANCH   1   2
BRANCH   1   5
ATOM      5  C   UNL     1     -23.008 -14.485  -0.387  1.00  0.00     0.006 C 
BRANCH   5   6
ATOM      6  C   UNL     1     -24.364 -14.861  -1.009  1.00  0.00    -0.003 C 
ATOM      7  C   UNL     1     -25.521 -14.762  -0.016  1.00  0.00     0.004 C 
ENDBRANCH   5   6
ENDBRANCH   1   5
TORSDOF 3
ENDMDL
MODEL 3
REMARK VINA RESULT:    -3.120      2.296      3.196
REMARK INTER + INTRA:          -3.764
REMARK INTER:                  -3.691
REMARK INTRA:                  -0.073
REMARK UNBOUND:                -0.097
REMARK SMILES CCCCC(=O)[O-]
REMARK SMILES IDX 4 1 5 2 6 3 7 4 3 5 2 6 1 7
REMARK H PARENT
REMARK Flexibility Score: inf
ROOT
ATOM      1  C   UNL     1     -24.305 -15.340   1.532  1.00  0.00     0.053 C 
ENDROOT
BRANCH   1   2
ATOM      2  C   UNL     1     -25.661 -15.855   1.160  1.00  0.00     0.041 C 
ATOM      3  O   UNL     1     -26.216 -15.470   0.098  1.00  0.00    -0.550 OA
ATOM      4  O   UNL     1     -26.298 -16.786   1.971  1.00  0.00    -0.550 OA
ENDBRANCH   1   2
BRANCH   1   5
ATOM      5  C   UNL     1     -23.180 -16.232   0.984  1.00  0.00     0.006 C 
BRANCH   5   6
ATOM      6  C   UNL     1     -22.240 -15.524  -0.009  1.00  0.00    -0.003 C 
ATOM      7  C   UNL     1     -22.992 -14.794  -1.120  1.00  0.00     0.004 C 
ENDBRANCH   5   6
ENDBRANCH   1   5
TORSDOF 3
ENDMDL
MODEL 4
REMARK VINA RESULT:    -3.055     15.365     16.263
REMARK INTER + INTRA:          -3.687
REMARK INTER:                  -3.585
REMARK INTRA:                  -0.102
REMARK UNBOUND:                -0.097
REMARK SMILES CCCCC(=O)[O-]
REMARK SMILES IDX 4 1 5 2 6 3 7 4 3 5 2 6 1 7
REMARK H PARENT
REMARK Flexibility Score: inf
ROOT
ATOM      1  C   UNL     1     -29.077  -8.194 -11.321  1.00  0.00     0.053 C 
ENDROOT
BRANCH   1   2
ATOM      2  C   UNL     1     -29.113  -6.905 -10.560  1.00  0.00     0.041 C 
ATOM      3  O   UNL     1     -28.689  -6.856  -9.376  1.00  0.00    -0.550 OA
ATOM      4  O   UNL     1     -29.586  -5.749 -11.170  1.00  0.00    -0.550 OA
ENDBRANCH   1   2
BRANCH   1   5
ATOM      5  C   UNL     1     -28.823  -7.971 -12.820  1.00  0.00     0.006 C 
BRANCH   5   6
ATOM      6  C   UNL     1     -30.010  -8.347 -13.724  1.00  0.00    -0.003 C 
ATOM      7  C   UNL     1     -30.838  -7.136 -14.151  1.00  0.00     0.004 C 
ENDBRANCH   5   6
ENDBRANCH   1   5
TORSDOF 3
ENDMDL
MODEL 5
REMARK VINA RESULT:    -3.040     15.719     16.516
REMARK INTER + INTRA:          -3.670
REMARK INTER:                  -3.572
REMARK INTRA:                  -0.098
REMARK UNBOUND:                -0.097
REMARK SMILES CCCCC(=O)[O-]
REMARK SMILES IDX 4 1 5 2 6 3 7 4 3 5 2 6 1 7
REMARK H PARENT
REMARK Flexibility Score: inf
ROOT
ATOM      1  C   UNL     1     -29.216  -8.261 -11.397  1.00  0.00     0.053 C 
ENDROOT
BRANCH   1   2
ATOM      2  C   UNL     1     -28.968  -8.280 -12.874  1.00  0.00     0.041 C 
ATOM      3  O   UNL     1     -29.906  -8.546 -13.670  1.00  0.00    -0.550 OA
ATOM      4  O   UNL     1     -27.709  -7.971 -13.372  1.00  0.00    -0.550 OA
ENDBRANCH   1   2
BRANCH   1   5
ATOM      5  C   UNL     1     -28.922  -6.884 -10.781  1.00  0.00     0.006 C 
BRANCH   5   6
ATOM      6  C   UNL     1     -29.614  -5.711 -11.500  1.00  0.00    -0.003 C 
ATOM      7  C   UNL     1     -28.626  -4.767 -12.181  1.00  0.00     0.004 C 
ENDBRANCH   5   6
ENDBRANCH   1   5
TORSDOF 3
ENDMDL
MODEL 6
REMARK VINA RESULT:    -3.028      2.443      3.347
REMARK INTER + INTRA:          -3.656
REMARK INTER:                  -3.564
REMARK INTRA:                  -0.092
REMARK UNBOUND:                -0.097
REMARK SMILES CCCCC(=O)[O-]
REMARK SMILES IDX 4 1 5 2 6 3 7 4 3 5 2 6 1 7
REMARK H PARENT
REMARK Flexibility Score: inf
ROOT
ATOM      1  C   UNL     1     -22.311 -15.477  -0.274  1.00  0.00     0.053 C 
ENDROOT
BRANCH   1   2
ATOM      2  C   UNL     1     -23.425 -14.866  -1.065  1.00  0.00     0.041 C 
ATOM      3  O   UNL     1     -23.171 -14.124  -2.049  1.00  0.00    -0.550 OA
ATOM      4  O   UNL     1     -24.746 -15.142  -0.735  1.00  0.00    -0.550 OA
ENDBRANCH   1   2
BRANCH   1   5
ATOM      5  C   UNL     1     -22.668 -15.615   1.214  1.00  0.00     0.006 C 
BRANCH   5   6
ATOM      6  C   UNL     1     -23.025 -17.048   1.646  1.00  0.00    -0.003 C 
ATOM      7  C   UNL     1     -24.438 -17.161   2.217  1.00  0.00     0.004 C 
ENDBRANCH   5   6
ENDBRANCH   1   5
TORSDOF 3
ENDMDL
MODEL 7
REMARK VINA RESULT:    -3.009     16.160     17.010
REMARK INTER + INTRA:          -3.633
REMARK INTER:                  -3.555
REMARK INTRA:                  -0.078
REMARK UNBOUND:                -0.097
REMARK SMILES CCCCC(=O)[O-]
REMARK SMILES IDX 4 1 5 2 6 3 7 4 3 5 2 6 1 7
REMARK H PARENT
REMARK Flexibility Score: inf
ROOT
ATOM      1  C   UNL     1     -28.945  -8.034 -13.028  1.00  0.00     0.053 C 
ENDROOT
BRANCH   1   2
ATOM      2  C   UNL     1     -30.115  -8.180 -13.952  1.00  0.00     0.041 C 
ATOM      3  O   UNL     1     -30.241  -9.216 -14.655  1.00  0.00    -0.550 OA
ATOM      4  O   UNL     1     -31.082  -7.184 -14.013  1.00  0.00    -0.550 OA
ENDBRANCH   1   2
BRANCH   1   5
ATOM      5  C   UNL     1     -29.325  -8.323 -11.568  1.00  0.00     0.006 C 
BRANCH   5   6
ATOM      6  C   UNL     1     -29.092  -7.141 -10.610  1.00  0.00    -0.003 C 
ATOM      7  C   UNL     1     -29.421  -5.790 -11.244  1.00  0.00     0.004 C 
ENDBRANCH   5   6
ENDBRANCH   1   5
TORSDOF 3
ENDMDL
MODEL 8
REMARK VINA RESULT:    -3.002      2.342      3.068
REMARK INTER + INTRA:          -3.626
REMARK INTER:                  -3.542
REMARK INTRA:                  -0.084
REMARK UNBOUND:                -0.097
REMARK SMILES CCCCC(=O)[O-]
REMARK SMILES IDX 4 1 5 2 6 3 7 4 3 5 2 6 1 7
REMARK H PARENT
REMARK Flexibility Score: inf
ROOT
ATOM      1  C   UNL     1     -24.216 -14.523   0.326  1.00  0.00     0.053 C 
ENDROOT
BRANCH   1   2
ATOM      2  C   UNL     1     -23.150 -14.866  -0.669  1.00  0.00     0.041 C 
ATOM      3  O   UNL     1     -23.209 -14.413  -1.841  1.00  0.00    -0.550 OA
ATOM      4  O   UNL     1     -22.074 -15.659  -0.290  1.00  0.00    -0.550 OA
ENDBRANCH   1   2
BRANCH   1   5
ATOM      5  C   UNL     1     -25.449 -15.430   0.185  1.00  0.00     0.006 C 
BRANCH   5   6
ATOM      6  C   UNL     1     -25.830 -16.180   1.473  1.00  0.00    -0.003 C 
ATOM      7  C   UNL     1     -24.641 -16.884   2.124  1.00  0.00     0.004 C 
ENDBRANCH   5   6
ENDBRANCH   1   5
TORSDOF 3
ENDMDL
MODEL 9
REMARK VINA RESULT:    -2.951     15.775     16.731
REMARK INTER + INTRA:          -3.565
REMARK INTER:                  -3.509
REMARK INTRA:                  -0.056
REMARK UNBOUND:                -0.097
REMARK SMILES CCCCC(=O)[O-]
REMARK SMILES IDX 4 1 5 2 6 3 7 4 3 5 2 6 1 7
REMARK H PARENT
REMARK Flexibility Score: inf
ROOT
ATOM      1  C   UNL     1     -29.425  -5.767 -11.421  1.00  0.00     0.053 C 
ENDROOT
BRANCH   1   2
ATOM      2  C   UNL     1     -29.065  -6.959 -10.589  1.00  0.00     0.041 C 
ATOM      3  O   UNL     1     -28.626  -6.805  -9.419  1.00  0.00    -0.550 OA
ATOM      4  O   UNL     1     -29.244  -8.240 -11.094  1.00  0.00    -0.550 OA
ENDBRANCH   1   2
BRANCH   1   5
ATOM      5  C   UNL     1     -30.198  -6.162 -12.689  1.00  0.00     0.006 C 
BRANCH   5   6
ATOM      6  C   UNL     1     -29.596  -5.607 -13.992  1.00  0.00    -0.003 C 
ATOM      7  C   UNL     1     -28.746  -4.357 -13.768  1.00  0.00     0.004 C 
ENDBRANCH   5   6
ENDBRANCH   1   5
TORSDOF 3
ENDMDL
