MODEL 1
REMARK VINA RESULT:    -6.441      0.000      0.000
REMARK INTER + INTRA:         -17.407
REMARK INTER:                 -14.725
REMARK INTRA:                  -2.683
REMARK UNBOUND:                -2.683
REMARK SMILES CCCCCCCCCCCCCCCCCCCCCCCC(=O)[O-]
REMARK SMILES IDX 13 1 14 2 15 3 16 4 17 5 18 6 19 7 20 8 21 9 22 10 23 11
REMARK SMILES IDX 24 12 25 13 26 14 12 15 11 16 10 17 9 18 8 19 7 20 6 21 5 22
REMARK SMILES IDX 4 23 3 24 2 25 1 26
REMARK H PARENT
REMARK Flexibility Score: inf
ROOT
ATOM      1  C   UNL     1      30.586  -8.531  22.121  1.00  0.00     0.000 C 
ENDROOT
BRANCH   1   2
ATOM      2  C   UNL     1      29.575  -9.221  21.198  1.00  0.00     0.000 C 
BRANCH   2   3
ATOM      3  C   UNL     1      28.702 -10.211  21.983  1.00  0.00     0.000 C 
BRANCH   3   4
ATOM      4  C   UNL     1      27.980 -11.223  21.075  1.00  0.00     0.000 C 
BRANCH   4   5
ATOM      5  C   UNL     1      26.531 -10.849  20.701  1.00  0.00     0.000 C 
BRANCH   5   6
ATOM      6  C   UNL     1      26.324 -10.417  19.237  1.00  0.00     0.000 C 
BRANCH   6   7
ATOM      7  C   UNL     1      26.530  -8.910  19.026  1.00  0.00     0.000 C 
BRANCH   7   8
ATOM      8  C   UNL     1      25.690  -8.096  20.018  1.00  0.00     0.000 C 
BRANCH   8   9
ATOM      9  C   UNL     1      26.536  -7.000  20.684  1.00  0.00     0.000 C 
BRANCH   9  10
ATOM     10  C   UNL     1      27.695  -6.516  19.792  1.00  0.00     0.006 C 
BRANCH  10  11
ATOM     11  C   UNL     1      27.260  -5.621  18.621  1.00  0.00     0.053 C 
BRANCH  11  12
ATOM     12  C   UNL     1      27.650  -4.191  18.830  1.00  0.00     0.041 C 
ATOM     13  O   UNL     1      28.852  -3.887  19.053  1.00  0.00    -0.550 OA
ATOM     14  O   UNL     1      26.691  -3.189  18.749  1.00  0.00    -0.550 OA
ENDBRANCH  11  12
ENDBRANCH  10  11
ENDBRANCH   9  10
ENDBRANCH   8   9
ENDBRANCH   7   8
ENDBRANCH   6   7
ENDBRANCH   5   6
ENDBRANCH   4   5
ENDBRANCH   3   4
ENDBRANCH   2   3
ENDBRANCH   1   2
BRANCH   1  15
ATOM     15  C   UNL     1      32.025  -8.845  21.692  1.00  0.00     0.000 C 
BRANCH  15  16
ATOM     16  C   UNL     1      32.076  -9.289  20.221  1.00  0.00     0.000 C 
BRANCH  16  17
ATOM     17  C   UNL     1      33.491  -9.685  19.767  1.00  0.00     0.000 C 
BRANCH  17  18
ATOM     18  C   UNL     1      34.582  -9.190  20.731  1.00  0.00    -0.000 C 
BRANCH  18  19
ATOM     19  C   UNL     1      35.831 -10.088  20.714  1.00  0.00    -0.000 C 
BRANCH  19  20
ATOM     20  C   UNL     1      36.870  -9.677  21.767  1.00  0.00    -0.000 C 
BRANCH  20  21
ATOM     21  C   UNL     1      36.210  -8.890  22.909  1.00  0.00    -0.000 C 
BRANCH  21  22
ATOM     22  C   UNL     1      36.927  -7.562  23.217  1.00  0.00    -0.000 C 
BRANCH  22  23
ATOM     23  C   UNL     1      36.030  -6.460  23.807  1.00  0.00    -0.000 C 
BRANCH  23  24
ATOM     24  C   UNL     1      34.615  -6.452  23.207  1.00  0.00    -0.000 C 
BRANCH  24  25
ATOM     25  C   UNL     1      34.439  -5.282  22.232  1.00  0.00    -0.003 C 
ATOM     26  C   UNL     1      33.368  -5.589  21.190  1.00  0.00     0.004 C 
ENDBRANCH  24  25
ENDBRANCH  23  24
ENDBRANCH  22  23
ENDBRANCH  21  22
ENDBRANCH  20  21
ENDBRANCH  19  20
ENDBRANCH  18  19
ENDBRANCH  17  18
ENDBRANCH  16  17
ENDBRANCH  15  16
ENDBRANCH   1  15
TORSDOF 22
ENDMDL
MODEL 2
REMARK VINA RESULT:    -6.426      3.620     10.141
REMARK INTER + INTRA:         -17.373
REMARK INTER:                 -15.550
REMARK INTRA:                  -1.823
REMARK UNBOUND:                -2.683
REMARK SMILES CCCCCCCCCCCCCCCCCCCCCCCC(=O)[O-]
REMARK SMILES IDX 13 1 14 2 15 3 16 4 17 5 18 6 19 7 20 8 21 9 22 10 23 11
REMARK SMILES IDX 24 12 25 13 26 14 12 15 11 16 10 17 9 18 8 19 7 20 6 21 5 22
REMARK SMILES IDX 4 23 3 24 2 25 1 26
REMARK H PARENT
REMARK Flexibility Score: inf
ROOT
ATOM      1  C   UNL     1      35.640  -9.847  21.204  1.00  0.00     0.000 C 
ENDROOT
BRANCH   1   2
ATOM      2  C   UNL     1      36.702 -10.769  20.594  1.00  0.00     0.000 C 
BRANCH   2   3
ATOM      3  C   UNL     1      37.580 -11.393  21.688  1.00  0.00     0.000 C 
BRANCH   3   4
ATOM      4  C   UNL     1      38.660 -12.335  21.124  1.00  0.00     0.000 C 
BRANCH   4   5
ATOM      5  C   UNL     1      39.896 -12.529  22.027  1.00  0.00     0.000 C 
BRANCH   5   6
ATOM      6  C   UNL     1      40.831 -11.311  22.128  1.00  0.00     0.000 C 
BRANCH   6   7
ATOM      7  C   UNL     1      40.741 -10.600  23.486  1.00  0.00     0.000 C 
BRANCH   7   8
ATOM      8  C   UNL     1      40.395  -9.117  23.308  1.00  0.00     0.000 C 
BRANCH   8   9
ATOM      9  C   UNL     1      39.533  -8.610  24.474  1.00  0.00     0.000 C 
BRANCH   9  10
ATOM     10  C   UNL     1      38.114  -9.211  24.472  1.00  0.00     0.006 C 
BRANCH  10  11
ATOM     11  C   UNL     1      37.018  -8.244  24.949  1.00  0.00     0.053 C 
BRANCH  11  12
ATOM     12  C   UNL     1      36.964  -7.001  24.117  1.00  0.00     0.041 C 
ATOM     13  O   UNL     1      36.457  -7.030  22.964  1.00  0.00    -0.550 OA
ATOM     14  O   UNL     1      37.445  -5.801  24.627  1.00  0.00    -0.550 OA
ENDBRANCH  11  12
ENDBRANCH  10  11
ENDBRANCH   9  10
ENDBRANCH   8   9
ENDBRANCH   7   8
ENDBRANCH   6   7
ENDBRANCH   5   6
ENDBRANCH   4   5
ENDBRANCH   3   4
ENDBRANCH   2   3
ENDBRANCH   1   2
BRANCH   1  15
ATOM     15  C   UNL     1      34.466  -9.646  20.239  1.00  0.00     0.000 C 
BRANCH  15  16
ATOM     16  C   UNL     1      33.501  -8.571  20.763  1.00  0.00     0.000 C 
BRANCH  16  17
ATOM     17  C   UNL     1      32.817  -8.975  22.080  1.00  0.00     0.000 C 
BRANCH  17  18
ATOM     18  C   UNL     1      31.297  -8.741  22.053  1.00  0.00    -0.000 C 
BRANCH  18  19
ATOM     19  C   UNL     1      30.640  -9.302  20.781  1.00  0.00    -0.000 C 
BRANCH  19  20
ATOM     20  C   UNL     1      29.225  -8.751  20.553  1.00  0.00    -0.000 C 
BRANCH  20  21
ATOM     21  C   UNL     1      28.254  -9.279  21.621  1.00  0.00    -0.000 C 
BRANCH  21  22
ATOM     22  C   UNL     1      28.133 -10.814  21.618  1.00  0.00    -0.000 C 
BRANCH  22  23
ATOM     23  C   UNL     1      27.534 -11.417  20.335  1.00  0.00    -0.000 C 
BRANCH  23  24
ATOM     24  C   UNL     1      28.036 -12.840  20.049  1.00  0.00    -0.000 C 
BRANCH  24  25
ATOM     25  C   UNL     1      27.360 -13.422  18.803  1.00  0.00    -0.003 C 
ATOM     26  C   UNL     1      26.233 -12.517  18.314  1.00  0.00     0.004 C 
ENDBRANCH  24  25
ENDBRANCH  23  24
ENDBRANCH  22  23
ENDBRANCH  21  22
ENDBRANCH  20  21
ENDBRANCH  19  20
ENDBRANCH  18  19
ENDBRANCH  17  18
ENDBRANCH  16  17
ENDBRANCH  15  16
ENDBRANCH   1  15
TORSDOF 22
ENDMDL
MODEL 3
REMARK VINA RESULT:    -6.416      3.109      7.921
REMARK INTER + INTRA:         -17.350
REMARK INTER:                 -14.047
REMARK INTRA:                  -3.303
REMARK UNBOUND:                -2.683
REMARK SMILES CCCCCCCCCCCCCCCCCCCCCCCC(=O)[O-]
REMARK SMILES IDX 13 1 14 2 15 3 16 4 17 5 18 6 19 7 20 8 21 9 22 10 23 11
REMARK SMILES IDX 24 12 25 13 26 14 12 15 11 16 10 17 9 18 8 19 7 20 6 21 5 22
REMARK SMILES IDX 4 23 3 24 2 25 1 26
REMARK H PARENT
REMARK Flexibility Score: inf
ROOT
ATOM      1  C   UNL     1      28.284  -3.656  19.502  1.00  0.00     0.000 C 
ENDROOT
BRANCH   1   2
ATOM      2  C   UNL     1      27.537  -2.329  19.677  1.00  0.00     0.000 C 
BRANCH   2   3
ATOM      3  C   UNL     1      26.283  -2.515  20.543  1.00  0.00     0.000 C 
BRANCH   3   4
ATOM      4  C   UNL     1      26.539  -3.384  21.788  1.00  0.00     0.000 C 
BRANCH   4   5
ATOM      5  C   UNL     1      25.475  -4.468  22.060  1.00  0.00     0.000 C 
BRANCH   5   6
ATOM      6  C   UNL     1      26.027  -5.892  22.256  1.00  0.00     0.000 C 
BRANCH   6   7
ATOM      7  C   UNL     1      27.342  -5.919  23.047  1.00  0.00     0.000 C 
BRANCH   7   8
ATOM      8  C   UNL     1      28.499  -6.418  22.173  1.00  0.00     0.000 C 
BRANCH   8   9
ATOM      9  C   UNL     1      29.793  -6.541  22.992  1.00  0.00     0.000 C 
BRANCH   9  10
ATOM     10  C   UNL     1      31.041  -6.732  22.111  1.00  0.00     0.006 C 
BRANCH  10  11
ATOM     11  C   UNL     1      31.433  -8.200  21.879  1.00  0.00     0.053 C 
BRANCH  11  12
ATOM     12  C   UNL     1      32.900  -8.357  21.622  1.00  0.00     0.041 C 
ATOM     13  O   UNL     1      33.564  -9.226  22.246  1.00  0.00    -0.550 OA
ATOM     14  O   UNL     1      33.528  -7.564  20.669  1.00  0.00    -0.550 OA
ENDBRANCH  11  12
ENDBRANCH  10  11
ENDBRANCH   9  10
ENDBRANCH   8   9
ENDBRANCH   7   8
ENDBRANCH   6   7
ENDBRANCH   5   6
ENDBRANCH   4   5
ENDBRANCH   3   4
ENDBRANCH   2   3
ENDBRANCH   1   2
BRANCH   1  15
ATOM     15  C   UNL     1      27.831  -4.379  18.228  1.00  0.00     0.000 C 
BRANCH  15  16
ATOM     16  C   UNL     1      27.650  -5.883  18.485  1.00  0.00     0.000 C 
BRANCH  16  17
ATOM     17  C   UNL     1      26.173  -6.292  18.619  1.00  0.00     0.000 C 
BRANCH  17  18
ATOM     18  C   UNL     1      25.994  -7.807  18.812  1.00  0.00    -0.000 C 
BRANCH  18  19
ATOM     19  C   UNL     1      27.188  -8.452  19.536  1.00  0.00    -0.000 C 
BRANCH  19  20
ATOM     20  C   UNL     1      26.766  -9.250  20.779  1.00  0.00    -0.000 C 
BRANCH  20  21
ATOM     21  C   UNL     1      27.990  -9.849  21.486  1.00  0.00    -0.000 C 
BRANCH  21  22
ATOM     22  C   UNL     1      28.443 -11.188  20.874  1.00  0.00    -0.000 C 
BRANCH  22  23
ATOM     23  C   UNL     1      27.322 -12.020  20.228  1.00  0.00    -0.000 C 
BRANCH  23  24
ATOM     24  C   UNL     1      27.822 -13.351  19.645  1.00  0.00    -0.000 C 
BRANCH  24  25
ATOM     25  C   UNL     1      27.285 -13.565  18.225  1.00  0.00    -0.003 C 
ATOM     26  C   UNL     1      26.195 -12.552  17.890  1.00  0.00     0.004 C 
ENDBRANCH  24  25
ENDBRANCH  23  24
ENDBRANCH  22  23
ENDBRANCH  21  22
ENDBRANCH  20  21
ENDBRANCH  19  20
ENDBRANCH  18  19
ENDBRANCH  17  18
ENDBRANCH  16  17
ENDBRANCH  15  16
ENDBRANCH   1  15
TORSDOF 22
ENDMDL
MODEL 4
REMARK VINA RESULT:    -6.396      1.868      6.474
REMARK INTER + INTRA:         -17.304
REMARK INTER:                 -14.110
REMARK INTRA:                  -3.193
REMARK UNBOUND:                -2.683
REMARK SMILES CCCCCCCCCCCCCCCCCCCCCCCC(=O)[O-]
REMARK SMILES IDX 13 1 14 2 15 3 16 4 17 5 18 6 19 7 20 8 21 9 22 10 23 11
REMARK SMILES IDX 24 12 25 13 26 14 12 15 11 16 10 17 9 18 8 19 7 20 6 21 5 22
REMARK SMILES IDX 4 23 3 24 2 25 1 26
REMARK H PARENT
REMARK Flexibility Score: inf
ROOT
ATOM      1  C   UNL     1      34.767  -8.158  23.107  1.00  0.00     0.000 C 
ENDROOT
BRANCH   1   2
ATOM      2  C   UNL     1      34.983  -6.720  23.591  1.00  0.00     0.000 C 
BRANCH   2   3
ATOM      3  C   UNL     1      34.288  -5.718  22.659  1.00  0.00     0.000 C 
BRANCH   3   4
ATOM      4  C   UNL     1      32.789  -5.552  22.970  1.00  0.00     0.000 C 
BRANCH   4   5
ATOM      5  C   UNL     1      31.889  -5.299  21.743  1.00  0.00     0.000 C 
BRANCH   5   6
ATOM      6  C   UNL     1      30.391  -5.131  22.053  1.00  0.00     0.000 C 
BRANCH   6   7
ATOM      7  C   UNL     1      30.036  -5.505  23.500  1.00  0.00     0.000 C 
BRANCH   7   8
ATOM      8  C   UNL     1      28.744  -6.329  23.554  1.00  0.00     0.000 C 
BRANCH   8   9
ATOM      9  C   UNL     1      27.677  -5.739  22.621  1.00  0.00     0.000 C 
BRANCH   9  10
ATOM     10  C   UNL     1      27.023  -6.799  21.715  1.00  0.00     0.006 C 
BRANCH  10  11
ATOM     11  C   UNL     1      27.743  -7.015  20.374  1.00  0.00     0.053 C 
BRANCH  11  12
ATOM     12  C   UNL     1      27.349  -5.994  19.353  1.00  0.00     0.041 C 
ATOM     13  O   UNL     1      26.360  -6.197  18.600  1.00  0.00    -0.550 OA
ATOM     14  O   UNL     1      28.055  -4.801  19.255  1.00  0.00    -0.550 OA
ENDBRANCH  11  12
ENDBRANCH  10  11
ENDBRANCH   9  10
ENDBRANCH   8   9
ENDBRANCH   7   8
ENDBRANCH   6   7
ENDBRANCH   5   6
ENDBRANCH   4   5
ENDBRANCH   3   4
ENDBRANCH   2   3
ENDBRANCH   1   2
BRANCH   1  15
ATOM     15  C   UNL     1      35.396  -8.375  21.726  1.00  0.00     0.000 C 
BRANCH  15  16
ATOM     16  C   UNL     1      34.478  -9.222  20.830  1.00  0.00     0.000 C 
BRANCH  16  17
ATOM     17  C   UNL     1      33.218  -8.464  20.382  1.00  0.00     0.000 C 
BRANCH  17  18
ATOM     18  C   UNL     1      31.926  -9.257  20.645  1.00  0.00    -0.000 C 
BRANCH  18  19
ATOM     19  C   UNL     1      31.329  -8.963  22.031  1.00  0.00    -0.000 C 
BRANCH  19  20
ATOM     20  C   UNL     1      29.811  -9.193  22.083  1.00  0.00    -0.000 C 
BRANCH  20  21
ATOM     21  C   UNL     1      29.383 -10.252  21.055  1.00  0.00    -0.000 C 
BRANCH  21  22
ATOM     22  C   UNL     1      28.048 -10.931  21.413  1.00  0.00    -0.000 C 
BRANCH  22  23
ATOM     23  C   UNL     1      27.315 -11.588  20.231  1.00  0.00    -0.000 C 
BRANCH  23  24
ATOM     24  C   UNL     1      27.857 -12.984  19.888  1.00  0.00    -0.000 C 
BRANCH  24  25
ATOM     25  C   UNL     1      27.355 -13.448  18.517  1.00  0.00    -0.003 C 
ATOM     26  C   UNL     1      26.180 -12.598  18.044  1.00  0.00     0.004 C 
ENDBRANCH  24  25
ENDBRANCH  23  24
ENDBRANCH  22  23
ENDBRANCH  21  22
ENDBRANCH  20  21
ENDBRANCH  19  20
ENDBRANCH  18  19
ENDBRANCH  17  18
ENDBRANCH  16  17
ENDBRANCH  15  16
ENDBRANCH   1  15
TORSDOF 22
ENDMDL
MODEL 5
REMARK VINA RESULT:    -6.385      1.611      3.563
REMARK INTER + INTRA:         -17.278
REMARK INTER:                 -15.143
REMARK INTRA:                  -2.135
REMARK UNBOUND:                -2.683
REMARK SMILES CCCCCCCCCCCCCCCCCCCCCCCC(=O)[O-]
REMARK SMILES IDX 13 1 14 2 15 3 16 4 17 5 18 6 19 7 20 8 21 9 22 10 23 11
REMARK SMILES IDX 24 12 25 13 26 14 12 15 11 16 10 17 9 18 8 19 7 20 6 21 5 22
REMARK SMILES IDX 4 23 3 24 2 25 1 26
REMARK H PARENT
REMARK Flexibility Score: inf
ROOT
ATOM      1  C   UNL     1      31.436  -7.643  21.783  1.00  0.00     0.000 C 
ENDROOT
BRANCH   1   2
ATOM      2  C   UNL     1      29.969  -8.077  21.886  1.00  0.00     0.000 C 
BRANCH   2   3
ATOM      3  C   UNL     1      29.832  -9.595  21.698  1.00  0.00     0.000 C 
BRANCH   3   4
ATOM      4  C   UNL     1      28.407 -10.106  21.979  1.00  0.00     0.000 C 
BRANCH   4   5
ATOM      5  C   UNL     1      27.875 -11.147  20.972  1.00  0.00     0.000 C 
BRANCH   5   6
ATOM      6  C   UNL     1      26.768 -10.639  20.030  1.00  0.00     0.000 C 
BRANCH   6   7
ATOM      7  C   UNL     1      26.453  -9.149  20.228  1.00  0.00     0.000 C 
BRANCH   7   8
ATOM      8  C   UNL     1      26.318  -8.431  18.880  1.00  0.00     0.000 C 
BRANCH   8   9
ATOM      9  C   UNL     1      27.376  -7.327  18.738  1.00  0.00     0.000 C 
BRANCH   9  10
ATOM     10  C   UNL     1      27.358  -6.328  19.910  1.00  0.00     0.006 C 
BRANCH  10  11
ATOM     11  C   UNL     1      26.557  -5.045  19.635  1.00  0.00     0.053 C 
BRANCH  11  12
ATOM     12  C   UNL     1      27.411  -3.965  19.047  1.00  0.00     0.041 C 
ATOM     13  O   UNL     1      28.665  -4.022  19.147  1.00  0.00    -0.550 OA
ATOM     14  O   UNL     1      26.823  -2.911  18.360  1.00  0.00    -0.550 OA
ENDBRANCH  11  12
ENDBRANCH  10  11
ENDBRANCH   9  10
ENDBRANCH   8   9
ENDBRANCH   7   8
ENDBRANCH   6   7
ENDBRANCH   5   6
ENDBRANCH   4   5
ENDBRANCH   3   4
ENDBRANCH   2   3
ENDBRANCH   1   2
BRANCH   1  15
ATOM     15  C   UNL     1      32.334  -8.826  21.403  1.00  0.00     0.000 C 
BRANCH  15  16
ATOM     16  C   UNL     1      33.750  -8.347  21.043  1.00  0.00     0.000 C 
BRANCH  16  17
ATOM     17  C   UNL     1      34.045  -6.925  21.550  1.00  0.00     0.000 C 
BRANCH  17  18
ATOM     18  C   UNL     1      35.266  -6.872  22.484  1.00  0.00    -0.000 C 
BRANCH  18  19
ATOM     19  C   UNL     1      35.269  -8.018  23.509  1.00  0.00    -0.000 C 
BRANCH  19  20
ATOM     20  C   UNL     1      36.674  -8.588  23.755  1.00  0.00    -0.000 C 
BRANCH  20  21
ATOM     21  C   UNL     1      37.364  -8.937  22.427  1.00  0.00    -0.000 C 
BRANCH  21  22
ATOM     22  C   UNL     1      36.777 -10.193  21.757  1.00  0.00    -0.000 C 
BRANCH  22  23
ATOM     23  C   UNL     1      37.758 -11.368  21.607  1.00  0.00    -0.000 C 
BRANCH  23  24
ATOM     24  C   UNL     1      38.817 -11.131  20.520  1.00  0.00    -0.000 C 
BRANCH  24  25
ATOM     25  C   UNL     1      39.964 -12.141  20.640  1.00  0.00    -0.003 C 
ATOM     26  C   UNL     1      39.655 -13.203  21.690  1.00  0.00     0.004 C 
ENDBRANCH  24  25
ENDBRANCH  23  24
ENDBRANCH  22  23
ENDBRANCH  21  22
ENDBRANCH  20  21
ENDBRANCH  19  20
ENDBRANCH  18  19
ENDBRANCH  17  18
ENDBRANCH  16  17
ENDBRANCH  15  16
ENDBRANCH   1  15
TORSDOF 22
ENDMDL
MODEL 6
REMARK VINA RESULT:    -6.379      3.218      9.680
REMARK INTER + INTRA:         -17.267
REMARK INTER:                 -15.378
REMARK INTRA:                  -1.889
REMARK UNBOUND:                -2.683
REMARK SMILES CCCCCCCCCCCCCCCCCCCCCCCC(=O)[O-]
REMARK SMILES IDX 13 1 14 2 15 3 16 4 17 5 18 6 19 7 20 8 21 9 22 10 23 11
REMARK SMILES IDX 24 12 25 13 26 14 12 15 11 16 10 17 9 18 8 19 7 20 6 21 5 22
REMARK SMILES IDX 4 23 3 24 2 25 1 26
REMARK H PARENT
REMARK Flexibility Score: inf
ROOT
ATOM      1  C   UNL     1      36.321 -11.126  19.947  1.00  0.00     0.000 C 
ENDROOT
BRANCH   1   2
ATOM      2  C   UNL     1      37.206 -10.913  21.179  1.00  0.00     0.000 C 
BRANCH   2   3
ATOM      3  C   UNL     1      38.227 -12.051  21.325  1.00  0.00     0.000 C 
BRANCH   3   4
ATOM      4  C   UNL     1      39.678 -11.585  21.111  1.00  0.00     0.000 C 
BRANCH   4   5
ATOM      5  C   UNL     1      40.100 -10.354  21.940  1.00  0.00     0.000 C 
BRANCH   5   6
ATOM      6  C   UNL     1      40.083 -10.557  23.466  1.00  0.00     0.000 C 
BRANCH   6   7
ATOM      7  C   UNL     1      39.555  -9.330  24.225  1.00  0.00     0.000 C 
BRANCH   7   8
ATOM      8  C   UNL     1      38.373  -9.707  25.126  1.00  0.00     0.000 C 
BRANCH   8   9
ATOM      9  C   UNL     1      37.490  -8.484  25.415  1.00  0.00     0.000 C 
BRANCH   9  10
ATOM     10  C   UNL     1      36.560  -8.129  24.240  1.00  0.00     0.006 C 
BRANCH  10  11
ATOM     11  C   UNL     1      36.734  -6.698  23.705  1.00  0.00     0.053 C 
BRANCH  11  12
ATOM     12  C   UNL     1      35.567  -5.824  24.045  1.00  0.00     0.041 C 
ATOM     13  O   UNL     1      35.594  -5.103  25.077  1.00  0.00    -0.550 OA
ATOM     14  O   UNL     1      34.462  -5.782  23.204  1.00  0.00    -0.550 OA
ENDBRANCH  11  12
ENDBRANCH  10  11
ENDBRANCH   9  10
ENDBRANCH   8   9
ENDBRANCH   7   8
ENDBRANCH   6   7
ENDBRANCH   5   6
ENDBRANCH   4   5
ENDBRANCH   3   4
ENDBRANCH   2   3
ENDBRANCH   1   2
BRANCH   1  15
ATOM     15  C   UNL     1      34.989 -10.380  20.091  1.00  0.00     0.000 C 
BRANCH  15  16
ATOM     16  C   UNL     1      35.119  -9.209  21.078  1.00  0.00     0.000 C 
BRANCH  16  17
ATOM     17  C   UNL     1      33.861  -9.017  21.943  1.00  0.00     0.000 C 
BRANCH  17  18
ATOM     18  C   UNL     1      32.573  -8.944  21.106  1.00  0.00    -0.000 C 
BRANCH  18  19
ATOM     19  C   UNL     1      31.306  -8.981  21.977  1.00  0.00    -0.000 C 
BRANCH  19  20
ATOM     20  C   UNL     1      30.016  -8.888  21.149  1.00  0.00    -0.000 C 
BRANCH  20  21
ATOM     21  C   UNL     1      29.125 -10.118  21.385  1.00  0.00    -0.000 C 
BRANCH  21  22
ATOM     22  C   UNL     1      27.666  -9.896  20.944  1.00  0.00    -0.000 C 
BRANCH  22  23
ATOM     23  C   UNL     1      27.039 -11.062  20.159  1.00  0.00    -0.000 C 
BRANCH  23  24
ATOM     24  C   UNL     1      27.893 -12.339  20.197  1.00  0.00    -0.000 C 
BRANCH  24  25
ATOM     25  C   UNL     1      27.367 -13.381  19.204  1.00  0.00    -0.003 C 
ATOM     26  C   UNL     1      26.250 -12.805  18.340  1.00  0.00     0.004 C 
ENDBRANCH  24  25
ENDBRANCH  23  24
ENDBRANCH  22  23
ENDBRANCH  21  22
ENDBRANCH  20  21
ENDBRANCH  19  20
ENDBRANCH  18  19
ENDBRANCH  17  18
ENDBRANCH  16  17
ENDBRANCH  15  16
ENDBRANCH   1  15
TORSDOF 22
ENDMDL
MODEL 7
REMARK VINA RESULT:    -6.360      1.695      3.522
REMARK INTER + INTRA:         -17.222
REMARK INTER:                 -13.683
REMARK INTRA:                  -3.538
REMARK UNBOUND:                -2.683
REMARK SMILES CCCCCCCCCCCCCCCCCCCCCCCC(=O)[O-]
REMARK SMILES IDX 13 1 14 2 15 3 16 4 17 5 18 6 19 7 20 8 21 9 22 10 23 11
REMARK SMILES IDX 24 12 25 13 26 14 12 15 11 16 10 17 9 18 8 19 7 20 6 21 5 22
REMARK SMILES IDX 4 23 3 24 2 25 1 26
REMARK H PARENT
REMARK Flexibility Score: inf
ROOT
ATOM      1  C   UNL     1      31.539  -8.913  21.332  1.00  0.00     0.000 C 
ENDROOT
BRANCH   1   2
ATOM      2  C   UNL     1      30.072  -9.239  21.030  1.00  0.00     0.000 C 
BRANCH   2   3
ATOM      3  C   UNL     1      29.303  -9.551  22.322  1.00  0.00     0.000 C 
BRANCH   3   4
ATOM      4  C   UNL     1      28.162 -10.562  22.110  1.00  0.00     0.000 C 
BRANCH   4   5
ATOM      5  C   UNL     1      27.989 -11.060  20.660  1.00  0.00     0.000 C 
BRANCH   5   6
ATOM      6  C   UNL     1      26.657 -10.675  19.991  1.00  0.00     0.000 C 
BRANCH   6   7
ATOM      7  C   UNL     1      26.275  -9.206  20.223  1.00  0.00     0.000 C 
BRANCH   7   8
ATOM      8  C   UNL     1      26.259  -8.427  18.903  1.00  0.00     0.000 C 
BRANCH   8   9
ATOM      9  C   UNL     1      27.447  -7.456  18.824  1.00  0.00     0.000 C 
BRANCH   9  10
ATOM     10  C   UNL     1      27.504  -6.484  20.018  1.00  0.00     0.006 C 
BRANCH  10  11
ATOM     11  C   UNL     1      26.571  -5.269  19.889  1.00  0.00     0.053 C 
BRANCH  11  12
ATOM     12  C   UNL     1      27.242  -4.114  19.214  1.00  0.00     0.041 C 
ATOM     13  O   UNL     1      26.556  -3.171  18.739  1.00  0.00    -0.550 OA
ATOM     14  O   UNL     1      28.629  -4.063  19.136  1.00  0.00    -0.550 OA
ENDBRANCH  11  12
ENDBRANCH  10  11
ENDBRANCH   9  10
ENDBRANCH   8   9
ENDBRANCH   7   8
ENDBRANCH   6   7
ENDBRANCH   5   6
ENDBRANCH   4   5
ENDBRANCH   3   4
ENDBRANCH   2   3
ENDBRANCH   1   2
BRANCH   1  15
ATOM     15  C   UNL     1      32.435  -9.250  20.134  1.00  0.00     0.000 C 
BRANCH  15  16
ATOM     16  C   UNL     1      33.920  -9.218  20.532  1.00  0.00     0.000 C 
BRANCH  16  17
ATOM     17  C   UNL     1      34.141  -8.708  21.966  1.00  0.00     0.000 C 
BRANCH  17  18
ATOM     18  C   UNL     1      35.044  -7.465  22.019  1.00  0.00    -0.000 C 
BRANCH  18  19
ATOM     19  C   UNL     1      34.338  -6.253  22.649  1.00  0.00    -0.000 C 
BRANCH  19  20
ATOM     20  C   UNL     1      33.638  -5.367  21.608  1.00  0.00    -0.000 C 
BRANCH  20  21
ATOM     21  C   UNL     1      32.378  -4.719  22.199  1.00  0.00    -0.000 C 
BRANCH  21  22
ATOM     22  C   UNL     1      31.076  -5.256  21.576  1.00  0.00    -0.000 C 
BRANCH  22  23
ATOM     23  C   UNL     1      29.819  -5.089  22.447  1.00  0.00    -0.000 C 
BRANCH  23  24
ATOM     24  C   UNL     1      29.761  -6.086  23.615  1.00  0.00    -0.000 C 
BRANCH  24  25
ATOM     25  C   UNL     1      28.312  -6.467  23.940  1.00  0.00    -0.003 C 
ATOM     26  C   UNL     1      27.487  -5.237  24.303  1.00  0.00     0.004 C 
ENDBRANCH  24  25
ENDBRANCH  23  24
ENDBRANCH  22  23
ENDBRANCH  21  22
ENDBRANCH  20  21
ENDBRANCH  19  20
ENDBRANCH  18  19
ENDBRANCH  17  18
ENDBRANCH  16  17
ENDBRANCH  15  16
ENDBRANCH   1  15
TORSDOF 22
ENDMDL
MODEL 8
REMARK VINA RESULT:    -6.314      2.880      9.175
REMARK INTER + INTRA:         -17.117
REMARK INTER:                 -14.665
REMARK INTRA:                  -2.452
REMARK UNBOUND:                -2.683
REMARK SMILES CCCCCCCCCCCCCCCCCCCCCCCC(=O)[O-]
REMARK SMILES IDX 13 1 14 2 15 3 16 4 17 5 18 6 19 7 20 8 21 9 22 10 23 11
REMARK SMILES IDX 24 12 25 13 26 14 12 15 11 16 10 17 9 18 8 19 7 20 6 21 5 22
REMARK SMILES IDX 4 23 3 24 2 25 1 26
REMARK H PARENT
REMARK Flexibility Score: inf
ROOT
ATOM      1  C   UNL     1      31.578  -9.258  20.563  1.00  0.00     0.000 C 
ENDROOT
BRANCH   1   2
ATOM      2  C   UNL     1      32.440  -8.311  21.404  1.00  0.00     0.000 C 
BRANCH   2   3
ATOM      3  C   UNL     1      33.900  -8.783  21.439  1.00  0.00     0.000 C 
BRANCH   3   4
ATOM      4  C   UNL     1      34.280  -9.642  20.219  1.00  0.00     0.000 C 
BRANCH   4   5
ATOM      5  C   UNL     1      35.633 -10.376  20.330  1.00  0.00     0.000 C 
BRANCH   5   6
ATOM      6  C   UNL     1      36.301 -10.309  21.716  1.00  0.00     0.000 C 
BRANCH   6   7
ATOM      7  C   UNL     1      37.831 -10.202  21.635  1.00  0.00     0.000 C 
BRANCH   7   8
ATOM      8  C   UNL     1      38.404  -9.561  22.905  1.00  0.00     0.000 C 
BRANCH   8   9
ATOM      9  C   UNL     1      37.282  -8.999  23.791  1.00  0.00     0.000 C 
BRANCH   9  10
ATOM     10  C   UNL     1      37.333  -7.465  23.918  1.00  0.00     0.006 C 
BRANCH  10  11
ATOM     11  C   UNL     1      36.198  -6.732  23.184  1.00  0.00     0.053 C 
BRANCH  11  12
ATOM     12  C   UNL     1      35.542  -5.703  24.050  1.00  0.00     0.041 C 
ATOM     13  O   UNL     1      34.326  -5.815  24.359  1.00  0.00    -0.550 OA
ATOM     14  O   UNL     1      36.281  -4.635  24.543  1.00  0.00    -0.550 OA
ENDBRANCH  11  12
ENDBRANCH  10  11
ENDBRANCH   9  10
ENDBRANCH   8   9
ENDBRANCH   7   8
ENDBRANCH   6   7
ENDBRANCH   5   6
ENDBRANCH   4   5
ENDBRANCH   3   4
ENDBRANCH   2   3
ENDBRANCH   1   2
BRANCH   1  15
ATOM     15  C   UNL     1      30.099  -9.154  20.957  1.00  0.00     0.000 C 
BRANCH  15  16
ATOM     16  C   UNL     1      29.951  -8.777  22.440  1.00  0.00     0.000 C 
BRANCH  16  17
ATOM     17  C   UNL     1      28.984  -7.602  22.662  1.00  0.00     0.000 C 
BRANCH  17  18
ATOM     18  C   UNL     1      28.295  -7.149  21.363  1.00  0.00    -0.000 C 
BRANCH  18  19
ATOM     19  C   UNL     1      26.784  -6.929  21.547  1.00  0.00    -0.000 C 
BRANCH  19  20
ATOM     20  C   UNL     1      25.956  -7.510  20.391  1.00  0.00    -0.000 C 
BRANCH  20  21
ATOM     21  C   UNL     1      26.811  -8.445  19.522  1.00  0.00    -0.000 C 
BRANCH  21  22
ATOM     22  C   UNL     1      26.324  -9.906  19.553  1.00  0.00    -0.000 C 
BRANCH  22  23
ATOM     23  C   UNL     1      26.984 -10.789  20.627  1.00  0.00    -0.000 C 
BRANCH  23  24
ATOM     24  C   UNL     1      27.535 -12.108  20.064  1.00  0.00    -0.000 C 
BRANCH  24  25
ATOM     25  C   UNL     1      26.547 -12.740  19.077  1.00  0.00    -0.003 C 
ATOM     26  C   UNL     1      27.266 -13.646  18.083  1.00  0.00     0.004 C 
ENDBRANCH  24  25
ENDBRANCH  23  24
ENDBRANCH  22  23
ENDBRANCH  21  22
ENDBRANCH  20  21
ENDBRANCH  19  20
ENDBRANCH  18  19
ENDBRANCH  17  18
ENDBRANCH  16  17
ENDBRANCH  15  16
ENDBRANCH   1  15
TORSDOF 22
ENDMDL
MODEL 9
REMARK VINA RESULT:    -6.282      3.038      8.318
REMARK INTER + INTRA:         -17.043
REMARK INTER:                 -14.118
REMARK INTRA:                  -2.925
REMARK UNBOUND:                -2.683
REMARK SMILES CCCCCCCCCCCCCCCCCCCCCCCC(=O)[O-]
REMARK SMILES IDX 13 1 14 2 15 3 16 4 17 5 18 6 19 7 20 8 21 9 22 10 23 11
REMARK SMILES IDX 24 12 25 13 26 14 12 15 11 16 10 17 9 18 8 19 7 20 6 21 5 22
REMARK SMILES IDX 4 23 3 24 2 25 1 26
REMARK H PARENT
REMARK Flexibility Score: inf
ROOT
ATOM      1  C   UNL     1      26.322  -3.159  21.651  1.00  0.00     0.000 C 
ENDROOT
BRANCH   1   2
ATOM      2  C   UNL     1      25.219  -2.779  22.646  1.00  0.00     0.000 C 
BRANCH   2   3
ATOM      3  C   UNL     1      24.569  -4.033  23.248  1.00  0.00     0.000 C 
BRANCH   3   4
ATOM      4  C   UNL     1      25.440  -5.293  23.091  1.00  0.00     0.000 C 
BRANCH   4   5
ATOM      5  C   UNL     1      26.220  -5.712  24.354  1.00  0.00     0.000 C 
BRANCH   5   6
ATOM      6  C   UNL     1      27.649  -6.227  24.100  1.00  0.00     0.000 C 
BRANCH   6   7
ATOM      7  C   UNL     1      27.918  -6.533  22.620  1.00  0.00     0.000 C 
BRANCH   7   8
ATOM      8  C   UNL     1      28.377  -7.984  22.433  1.00  0.00     0.000 C 
BRANCH   8   9
ATOM      9  C   UNL     1      29.495  -8.076  21.384  1.00  0.00     0.000 C 
BRANCH   9  10
ATOM     10  C   UNL     1      30.866  -8.407  22.001  1.00  0.00     0.006 C 
BRANCH  10  11
ATOM     11  C   UNL     1      31.831  -9.132  21.048  1.00  0.00     0.053 C 
BRANCH  11  12
ATOM     12  C   UNL     1      33.160  -8.449  20.965  1.00  0.00     0.041 C 
ATOM     13  O   UNL     1      34.125  -9.007  20.380  1.00  0.00    -0.550 OA
ATOM     14  O   UNL     1      33.324  -7.180  21.507  1.00  0.00    -0.550 OA
ENDBRANCH  11  12
ENDBRANCH  10  11
ENDBRANCH   9  10
ENDBRANCH   8   9
ENDBRANCH   7   8
ENDBRANCH   6   7
ENDBRANCH   5   6
ENDBRANCH   4   5
ENDBRANCH   3   4
ENDBRANCH   2   3
ENDBRANCH   1   2
BRANCH   1  15
ATOM     15  C   UNL     1      26.396  -2.149  20.500  1.00  0.00     0.000 C 
BRANCH  15  16
ATOM     16  C   UNL     1      26.998  -2.794  19.241  1.00  0.00     0.000 C 
BRANCH  16  17
ATOM     17  C   UNL     1      26.503  -4.232  19.014  1.00  0.00     0.000 C 
BRANCH  17  18
ATOM     18  C   UNL     1      27.635  -5.189  18.602  1.00  0.00    -0.000 C 
BRANCH  18  19
ATOM     19  C   UNL     1      27.242  -6.667  18.765  1.00  0.00    -0.000 C 
BRANCH  19  20
ATOM     20  C   UNL     1      25.797  -6.845  19.253  1.00  0.00    -0.000 C 
BRANCH  20  21
ATOM     21  C   UNL     1      25.621  -8.196  19.962  1.00  0.00    -0.000 C 
BRANCH  21  22
ATOM     22  C   UNL     1      26.471  -9.318  19.337  1.00  0.00    -0.000 C 
BRANCH  22  23
ATOM     23  C   UNL     1      26.713 -10.535  20.247  1.00  0.00    -0.000 C 
BRANCH  23  24
ATOM     24  C   UNL     1      26.239 -11.856  19.622  1.00  0.00    -0.000 C 
BRANCH  24  25
ATOM     25  C   UNL     1      27.408 -12.832  19.448  1.00  0.00    -0.003 C 
ATOM     26  C   UNL     1      27.181 -13.758  18.258  1.00  0.00     0.004 C 
ENDBRANCH  24  25
ENDBRANCH  23  24
ENDBRANCH  22  23
ENDBRANCH  21  22
ENDBRANCH  20  21
ENDBRANCH  19  20
ENDBRANCH  18  19
ENDBRANCH  17  18
ENDBRANCH  16  17
ENDBRANCH  15  16
ENDBRANCH   1  15
TORSDOF 22
ENDMDL
