MODEL 1
REMARK VINA RESULT:    -4.565      0.000      0.000
REMARK INTER + INTRA:          -7.029
REMARK INTER:                  -6.700
REMARK INTRA:                  -0.330
REMARK UNBOUND:                -0.330
REMARK SMILES O=C([O-])CCCCCCCC(=O)[O-]
REMARK SMILES IDX 7 1 6 2 5 3 4 4 2 5 1 6 3 7 8 8 9 9 10 10 11 11 12 12 13 13
REMARK H PARENT
REMARK Flexibility Score: inf
ROOT
ATOM      1  C   UNL     1     -18.898   9.338  31.177  1.00  0.00     0.000 C 
ENDROOT
BRANCH   1   2
ATOM      2  C   UNL     1     -19.969   9.894  32.129  1.00  0.00     0.000 C 
BRANCH   2   3
ATOM      3  C   UNL     1     -21.381   9.849  31.523  1.00  0.00     0.006 C 
BRANCH   3   4
ATOM      4  C   UNL     1     -21.370   9.521  30.024  1.00  0.00     0.053 C 
BRANCH   4   5
ATOM      5  C   UNL     1     -22.768   9.358  29.516  1.00  0.00     0.041 C 
ATOM      6  O   UNL     1     -23.119   9.910  28.441  1.00  0.00    -0.550 OA
ATOM      7  O   UNL     1     -23.696   8.636  30.256  1.00  0.00    -0.550 OA
ENDBRANCH   4   5
ENDBRANCH   3   4
ENDBRANCH   2   3
ENDBRANCH   1   2
BRANCH   1   8
ATOM      8  C   UNL     1     -17.488   9.699  31.670  1.00  0.00     0.000 C 
BRANCH   8   9
ATOM      9  C   UNL     1     -16.398   8.812  31.049  1.00  0.00     0.006 C 
BRANCH   9  10
ATOM     10  C   UNL     1     -15.404   9.610  30.194  1.00  0.00     0.053 C 
BRANCH  10  11
ATOM     11  C   UNL     1     -15.686   9.404  28.739  1.00  0.00     0.041 C 
ATOM     12  O   UNL     1     -14.937   8.665  28.046  1.00  0.00    -0.550 OA
ATOM     13  O   UNL     1     -16.804   9.989  28.158  1.00  0.00    -0.550 OA
ENDBRANCH  10  11
ENDBRANCH   9  10
ENDBRANCH   8   9
ENDBRANCH   1   8
TORSDOF 8
ENDMDL
MODEL 2
REMARK VINA RESULT:    -4.526     11.188     12.708
REMARK INTER + INTRA:          -6.973
REMARK INTER:                  -6.533
REMARK INTRA:                  -0.440
REMARK UNBOUND:                -0.330
REMARK SMILES O=C([O-])CCCCCCCC(=O)[O-]
REMARK SMILES IDX 7 1 6 2 5 3 4 4 2 5 1 6 3 7 8 8 9 9 10 10 11 11 12 12 13 13
REMARK H PARENT
REMARK Flexibility Score: inf
ROOT
ATOM      1  C   UNL     1     -16.831  -1.797  35.201  1.00  0.00     0.000 C 
ENDROOT
BRANCH   1   2
ATOM      2  C   UNL     1     -17.702  -1.570  33.957  1.00  0.00     0.000 C 
BRANCH   2   3
ATOM      3  C   UNL     1     -16.879  -1.166  32.722  1.00  0.00     0.006 C 
BRANCH   3   4
ATOM      4  C   UNL     1     -16.868  -2.253  31.640  1.00  0.00     0.053 C 
BRANCH   4   5
ATOM      5  C   UNL     1     -15.643  -3.103  31.767  1.00  0.00     0.041 C 
ATOM      6  O   UNL     1     -15.660  -4.300  31.379  1.00  0.00    -0.550 OA
ATOM      7  O   UNL     1     -14.497  -2.587  32.360  1.00  0.00    -0.550 OA
ENDBRANCH   4   5
ENDBRANCH   3   4
ENDBRANCH   2   3
ENDBRANCH   1   2
BRANCH   1   8
ATOM      8  C   UNL     1     -17.323  -0.939  36.377  1.00  0.00     0.000 C 
BRANCH   8   9
ATOM      9  C   UNL     1     -18.179   0.254  35.923  1.00  0.00     0.006 C 
BRANCH   9  10
ATOM     10  C   UNL     1     -17.592   1.602  36.361  1.00  0.00     0.053 C 
BRANCH  10  11
ATOM     11  C   UNL     1     -17.957   1.892  37.783  1.00  0.00     0.041 C 
ATOM     12  O   UNL     1     -17.146   2.497  38.534  1.00  0.00    -0.550 OA
ATOM     13  O   UNL     1     -19.210   1.536  38.267  1.00  0.00    -0.550 OA
ENDBRANCH  10  11
ENDBRANCH   9  10
ENDBRANCH   8   9
ENDBRANCH   1   8
TORSDOF 8
ENDMDL
MODEL 3
REMARK VINA RESULT:    -4.522     11.348     12.217
REMARK INTER + INTRA:          -6.966
REMARK INTER:                  -6.636
REMARK INTRA:                  -0.330
REMARK UNBOUND:                -0.330
REMARK SMILES O=C([O-])CCCCCCCC(=O)[O-]
REMARK SMILES IDX 7 1 6 2 5 3 4 4 2 5 1 6 3 7 8 8 9 9 10 10 11 11 12 12 13 13
REMARK H PARENT
REMARK Flexibility Score: inf
ROOT
ATOM      1  C   UNL     1     -17.839  -1.040  35.053  1.00  0.00     0.000 C 
ENDROOT
BRANCH   1   2
ATOM      2  C   UNL     1     -17.057  -1.263  36.356  1.00  0.00     0.000 C 
BRANCH   2   3
ATOM      3  C   UNL     1     -17.804  -0.737  37.593  1.00  0.00     0.006 C 
BRANCH   3   4
ATOM      4  C   UNL     1     -18.909   0.265  37.233  1.00  0.00     0.053 C 
BRANCH   4   5
ATOM      5  C   UNL     1     -18.409   1.667  37.380  1.00  0.00     0.041 C 
ATOM      6  O   UNL     1     -18.554   2.279  38.470  1.00  0.00    -0.550 OA
ATOM      7  O   UNL     1     -17.826   2.315  36.298  1.00  0.00    -0.550 OA
ENDBRANCH   4   5
ENDBRANCH   3   4
ENDBRANCH   2   3
ENDBRANCH   1   2
BRANCH   1   8
ATOM      8  C   UNL     1     -17.376  -2.020  33.963  1.00  0.00     0.000 C 
BRANCH   8   9
ATOM      9  C   UNL     1     -16.930  -1.307  32.676  1.00  0.00     0.006 C 
BRANCH   9  10
ATOM     10  C   UNL     1     -16.933  -2.236  31.455  1.00  0.00     0.053 C 
BRANCH  10  11
ATOM     11  C   UNL     1     -15.815  -3.227  31.552  1.00  0.00     0.041 C 
ATOM     12  O   UNL     1     -14.625  -2.830  31.662  1.00  0.00    -0.550 OA
ATOM     13  O   UNL     1     -16.092  -4.588  31.570  1.00  0.00    -0.550 OA
ENDBRANCH  10  11
ENDBRANCH   9  10
ENDBRANCH   8   9
ENDBRANCH   1   8
TORSDOF 8
ENDMDL
MODEL 4
REMARK VINA RESULT:    -4.467     11.351     13.484
REMARK INTER + INTRA:          -6.886
REMARK INTER:                  -6.409
REMARK INTRA:                  -0.477
REMARK UNBOUND:                -0.330
REMARK SMILES O=C([O-])CCCCCCCC(=O)[O-]
REMARK SMILES IDX 7 1 6 2 5 3 4 4 2 5 1 6 3 7 8 8 9 9 10 10 11 11 12 12 13 13
REMARK H PARENT
REMARK Flexibility Score: inf
ROOT
ATOM      1  C   UNL     1     -24.421  -0.866  23.642  1.00  0.00     0.000 C 
ENDROOT
BRANCH   1   2
ATOM      2  C   UNL     1     -23.273  -0.555  24.614  1.00  0.00     0.000 C 
BRANCH   2   3
ATOM      3  C   UNL     1     -22.306   0.509  24.069  1.00  0.00     0.006 C 
BRANCH   3   4
ATOM      4  C   UNL     1     -23.023   1.800  23.653  1.00  0.00     0.053 C 
BRANCH   4   5
ATOM      5  C   UNL     1     -22.681   2.152  22.239  1.00  0.00     0.041 C 
ATOM      6  O   UNL     1     -23.559   2.637  21.478  1.00  0.00    -0.550 OA
ATOM      7  O   UNL     1     -21.406   1.901  21.749  1.00  0.00    -0.550 OA
ENDBRANCH   4   5
ENDBRANCH   3   4
ENDBRANCH   2   3
ENDBRANCH   1   2
BRANCH   1   8
ATOM      8  C   UNL     1     -25.784  -0.658  24.320  1.00  0.00     0.000 C 
BRANCH   8   9
ATOM      9  C   UNL     1     -26.315  -1.937  24.987  1.00  0.00     0.006 C 
BRANCH   9  10
ATOM     10  C   UNL     1     -26.394  -1.816  26.515  1.00  0.00     0.053 C 
BRANCH  10  11
ATOM     11  C   UNL     1     -25.132  -2.318  27.143  1.00  0.00     0.041 C 
ATOM     12  O   UNL     1     -24.697  -1.790  28.201  1.00  0.00    -0.550 OA
ATOM     13  O   UNL     1     -24.460  -3.400  26.587  1.00  0.00    -0.550 OA
ENDBRANCH  10  11
ENDBRANCH   9  10
ENDBRANCH   8   9
ENDBRANCH   1   8
TORSDOF 8
ENDMDL
MODEL 5
REMARK VINA RESULT:    -4.460     11.253     12.298
REMARK INTER + INTRA:          -6.875
REMARK INTER:                  -6.522
REMARK INTRA:                  -0.353
REMARK UNBOUND:                -0.330
REMARK SMILES O=C([O-])CCCCCCCC(=O)[O-]
REMARK SMILES IDX 7 1 6 2 5 3 4 4 2 5 1 6 3 7 8 8 9 9 10 10 11 11 12 12 13 13
REMARK H PARENT
REMARK Flexibility Score: inf
ROOT
ATOM      1  C   UNL     1     -16.506  -2.260  35.081  1.00  0.00     0.000 C 
ENDROOT
BRANCH   1   2
ATOM      2  C   UNL     1     -17.090  -1.376  33.968  1.00  0.00     0.000 C 
BRANCH   2   3
ATOM      3  C   UNL     1     -16.360  -1.555  32.627  1.00  0.00     0.006 C 
BRANCH   3   4
ATOM      4  C   UNL     1     -17.322  -1.584  31.432  1.00  0.00     0.053 C 
BRANCH   4   5
ATOM      5  C   UNL     1     -18.411  -2.584  31.664  1.00  0.00     0.041 C 
ATOM      6  O   UNL     1     -19.617  -2.225  31.631  1.00  0.00    -0.550 OA
ATOM      7  O   UNL     1     -18.092  -3.902  31.965  1.00  0.00    -0.550 OA
ENDBRANCH   4   5
ENDBRANCH   3   4
ENDBRANCH   2   3
ENDBRANCH   1   2
BRANCH   1   8
ATOM      8  C   UNL     1     -16.836  -1.683  36.467  1.00  0.00     0.000 C 
BRANCH   8   9
ATOM      9  C   UNL     1     -17.798  -0.486  36.397  1.00  0.00     0.006 C 
BRANCH   9  10
ATOM     10  C   UNL     1     -17.920   0.252  37.737  1.00  0.00     0.053 C 
BRANCH  10  11
ATOM     11  C   UNL     1     -17.943   1.732  37.516  1.00  0.00     0.041 C 
ATOM     12  O   UNL     1     -17.891   2.199  36.348  1.00  0.00    -0.550 OA
ATOM     13  O   UNL     1     -18.069   2.595  38.598  1.00  0.00    -0.550 OA
ENDBRANCH  10  11
ENDBRANCH   9  10
ENDBRANCH   8   9
ENDBRANCH   1   8
TORSDOF 8
ENDMDL
MODEL 6
REMARK VINA RESULT:    -4.412     11.386     12.955
REMARK INTER + INTRA:          -6.805
REMARK INTER:                  -6.510
REMARK INTRA:                  -0.295
REMARK UNBOUND:                -0.330
REMARK SMILES O=C([O-])CCCCCCCC(=O)[O-]
REMARK SMILES IDX 7 1 6 2 5 3 4 4 2 5 1 6 3 7 8 8 9 9 10 10 11 11 12 12 13 13
REMARK H PARENT
REMARK Flexibility Score: inf
ROOT
ATOM      1  C   UNL     1     -17.506  -1.057  35.192  1.00  0.00     0.000 C 
ENDROOT
BRANCH   1   2
ATOM      2  C   UNL     1     -17.182  -2.087  34.099  1.00  0.00     0.000 C 
BRANCH   2   3
ATOM      3  C   UNL     1     -16.833  -1.433  32.752  1.00  0.00     0.006 C 
BRANCH   3   4
ATOM      4  C   UNL     1     -16.301  -2.442  31.727  1.00  0.00     0.053 C 
BRANCH   4   5
ATOM      5  C   UNL     1     -15.024  -3.052  32.211  1.00  0.00     0.041 C 
ATOM      6  O   UNL     1     -14.052  -2.318  32.530  1.00  0.00    -0.550 OA
ATOM      7  O   UNL     1     -14.890  -4.434  32.263  1.00  0.00    -0.550 OA
ENDBRANCH   4   5
ENDBRANCH   3   4
ENDBRANCH   2   3
ENDBRANCH   1   2
BRANCH   1   8
ATOM      8  C   UNL     1     -17.108  -1.587  36.578  1.00  0.00     0.000 C 
BRANCH   8   9
ATOM      9  C   UNL     1     -17.520  -0.639  37.716  1.00  0.00     0.006 C 
BRANCH   9  10
ATOM     10  C   UNL     1     -18.679   0.287  37.322  1.00  0.00     0.053 C 
BRANCH  10  11
ATOM     11  C   UNL     1     -18.228   1.714  37.319  1.00  0.00     0.041 C 
ATOM     12  O   UNL     1     -17.915   2.277  36.237  1.00  0.00    -0.550 OA
ATOM     13  O   UNL     1     -18.199   2.437  38.505  1.00  0.00    -0.550 OA
ENDBRANCH  10  11
ENDBRANCH   9  10
ENDBRANCH   8   9
ENDBRANCH   1   8
TORSDOF 8
ENDMDL
MODEL 7
REMARK VINA RESULT:    -4.384     11.196     12.367
REMARK INTER + INTRA:          -6.764
REMARK INTER:                  -6.368
REMARK INTRA:                  -0.396
REMARK UNBOUND:                -0.330
REMARK SMILES O=C([O-])CCCCCCCC(=O)[O-]
REMARK SMILES IDX 7 1 6 2 5 3 4 4 2 5 1 6 3 7 8 8 9 9 10 10 11 11 12 12 13 13
REMARK H PARENT
REMARK Flexibility Score: inf
ROOT
ATOM      1  C   UNL     1     -16.986  -1.495  35.417  1.00  0.00     0.000 C 
ENDROOT
BRANCH   1   2
ATOM      2  C   UNL     1     -16.065  -2.547  34.782  1.00  0.00     0.000 C 
BRANCH   2   3
ATOM      3  C   UNL     1     -15.889  -2.345  33.268  1.00  0.00     0.006 C 
BRANCH   3   4
ATOM      4  C   UNL     1     -16.862  -1.307  32.694  1.00  0.00     0.053 C 
BRANCH   4   5
ATOM      5  C   UNL     1     -17.782  -1.948  31.703  1.00  0.00     0.041 C 
ATOM      6  O   UNL     1     -18.583  -2.846  32.070  1.00  0.00    -0.550 OA
ATOM      7  O   UNL     1     -17.720  -1.586  30.363  1.00  0.00    -0.550 OA
ENDBRANCH   4   5
ENDBRANCH   3   4
ENDBRANCH   2   3
ENDBRANCH   1   2
BRANCH   1   8
ATOM      8  C   UNL     1     -17.245  -1.816  36.897  1.00  0.00     0.000 C 
BRANCH   8   9
ATOM      9  C   UNL     1     -17.400  -0.553  37.759  1.00  0.00     0.006 C 
BRANCH   9  10
ATOM     10  C   UNL     1     -18.618   0.290  37.359  1.00  0.00     0.053 C 
BRANCH  10  11
ATOM     11  C   UNL     1     -18.222   1.720  37.168  1.00  0.00     0.041 C 
ATOM     12  O   UNL     1     -18.174   2.501  38.155  1.00  0.00    -0.550 OA
ATOM     13  O   UNL     1     -17.860   2.180  35.908  1.00  0.00    -0.550 OA
ENDBRANCH  10  11
ENDBRANCH   9  10
ENDBRANCH   8   9
ENDBRANCH   1   8
TORSDOF 8
ENDMDL
MODEL 8
REMARK VINA RESULT:    -4.307     11.214     12.125
REMARK INTER + INTRA:          -6.651
REMARK INTER:                  -6.256
REMARK INTRA:                  -0.395
REMARK UNBOUND:                -0.330
REMARK SMILES O=C([O-])CCCCCCCC(=O)[O-]
REMARK SMILES IDX 7 1 6 2 5 3 4 4 2 5 1 6 3 7 8 8 9 9 10 10 11 11 12 12 13 13
REMARK H PARENT
REMARK Flexibility Score: inf
ROOT
ATOM      1  C   UNL     1     -16.707  -1.654  35.417  1.00  0.00     0.000 C 
ENDROOT
BRANCH   1   2
ATOM      2  C   UNL     1     -16.763  -1.913  36.931  1.00  0.00     0.000 C 
BRANCH   2   3
ATOM      3  C   UNL     1     -17.526  -0.817  37.692  1.00  0.00     0.006 C 
BRANCH   3   4
ATOM      4  C   UNL     1     -18.330   0.098  36.760  1.00  0.00     0.053 C 
BRANCH   4   5
ATOM      5  C   UNL     1     -17.874   1.516  36.902  1.00  0.00     0.041 C 
ATOM      6  O   UNL     1     -17.824   2.269  35.894  1.00  0.00    -0.550 OA
ATOM      7  O   UNL     1     -17.459   1.993  38.139  1.00  0.00    -0.550 OA
ENDBRANCH   4   5
ENDBRANCH   3   4
ENDBRANCH   2   3
ENDBRANCH   1   2
BRANCH   1   8
ATOM      8  C   UNL     1     -15.743  -2.634  34.730  1.00  0.00     0.000 C 
BRANCH   8   9
ATOM      9  C   UNL     1     -16.026  -2.787  33.227  1.00  0.00     0.006 C 
BRANCH   9  10
ATOM     10  C   UNL     1     -16.489  -1.477  32.577  1.00  0.00     0.053 C 
BRANCH  10  11
ATOM     11  C   UNL     1     -17.768  -1.690  31.829  1.00  0.00     0.041 C 
ATOM     12  O   UNL     1     -18.843  -1.885  32.455  1.00  0.00    -0.550 OA
ATOM     13  O   UNL     1     -17.781  -1.626  30.441  1.00  0.00    -0.550 OA
ENDBRANCH  10  11
ENDBRANCH   9  10
ENDBRANCH   8   9
ENDBRANCH   1   8
TORSDOF 8
ENDMDL
MODEL 9
REMARK VINA RESULT:    -4.291     11.183     13.733
REMARK INTER + INTRA:          -6.628
REMARK INTER:                  -6.209
REMARK INTRA:                  -0.420
REMARK UNBOUND:                -0.330
REMARK SMILES O=C([O-])CCCCCCCC(=O)[O-]
REMARK SMILES IDX 7 1 6 2 5 3 4 4 2 5 1 6 3 7 8 8 9 9 10 10 11 11 12 12 13 13
REMARK H PARENT
REMARK Flexibility Score: inf
ROOT
ATOM      1  C   UNL     1     -24.408  -2.270  25.897  1.00  0.00     0.000 C 
ENDROOT
BRANCH   1   2
ATOM      2  C   UNL     1     -23.289  -1.353  25.379  1.00  0.00     0.000 C 
BRANCH   2   3
ATOM      3  C   UNL     1     -23.807  -0.270  24.419  1.00  0.00     0.006 C 
BRANCH   3   4
ATOM      4  C   UNL     1     -22.680   0.401  23.623  1.00  0.00     0.053 C 
BRANCH   4   5
ATOM      5  C   UNL     1     -22.968   1.859  23.441  1.00  0.00     0.041 C 
ATOM      6  O   UNL     1     -22.994   2.628  24.437  1.00  0.00    -0.550 OA
ATOM      7  O   UNL     1     -23.255   2.358  22.177  1.00  0.00    -0.550 OA
ENDBRANCH   4   5
ENDBRANCH   3   4
ENDBRANCH   2   3
ENDBRANCH   1   2
BRANCH   1   8
ATOM      8  C   UNL     1     -24.711  -1.983  27.376  1.00  0.00     0.000 C 
BRANCH   8   9
ATOM      9  C   UNL     1     -26.217  -1.879  27.663  1.00  0.00     0.006 C 
BRANCH   9  10
ATOM     10  C   UNL     1     -27.077  -2.274  26.454  1.00  0.00     0.053 C 
BRANCH  10  11
ATOM     11  C   UNL     1     -28.053  -1.186  26.133  1.00  0.00     0.041 C 
ATOM     12  O   UNL     1     -29.236  -1.249  26.562  1.00  0.00    -0.550 OA
ATOM     13  O   UNL     1     -27.645  -0.079  25.399  1.00  0.00    -0.550 OA
ENDBRANCH  10  11
ENDBRANCH   9  10
ENDBRANCH   8   9
ENDBRANCH   1   8
TORSDOF 8
ENDMDL
