MODEL 1
REMARK VINA RESULT:    -2.709      0.000      0.000
REMARK INTER + INTRA:          -6.254
REMARK INTER:                  -5.242
REMARK INTRA:                  -1.012
REMARK UNBOUND:                -1.012
REMARK SMILES CCCCCCCCCCCCCCCCCC(=O)[O-]
REMARK SMILES IDX 10 1 11 2 12 3 13 4 14 5 15 6 16 7 17 8 18 9 19 10 20 11
REMARK SMILES IDX 9 12 8 13 7 14 6 15 5 16 4 17 3 18 2 19 1 20
REMARK H PARENT
REMARK Flexibility Score: inf
ROOT
ATOM      1  C   UNL     1     -15.724  16.835  -8.252  1.00  0.00     0.000 C 
ENDROOT
BRANCH   1   2
ATOM      2  C   UNL     1     -15.754  15.739  -7.176  1.00  0.00     0.000 C 
BRANCH   2   3
ATOM      3  C   UNL     1     -17.120  15.037  -7.149  1.00  0.00     0.000 C 
BRANCH   3   4
ATOM      4  C   UNL     1     -17.051  13.581  -7.637  1.00  0.00     0.000 C 
BRANCH   4   5
ATOM      5  C   UNL     1     -17.093  13.409  -9.168  1.00  0.00     0.000 C 
BRANCH   5   6
ATOM      6  C   UNL     1     -15.785  13.822  -9.875  1.00  0.00     0.000 C 
BRANCH   6   7
ATOM      7  C   UNL     1     -14.681  12.760  -9.726  1.00  0.00     0.006 C 
BRANCH   7   8
ATOM      8  C   UNL     1     -14.754  11.687 -10.821  1.00  0.00     0.053 C 
BRANCH   8   9
ATOM      9  C   UNL     1     -14.948  12.291 -12.178  1.00  0.00     0.041 C 
ATOM     10  O   UNL     1     -16.078  12.260 -12.730  1.00  0.00    -0.550 OA
ATOM     11  O   UNL     1     -13.870  12.860 -12.845  1.00  0.00    -0.550 OA
ENDBRANCH   8   9
ENDBRANCH   7   8
ENDBRANCH   6   7
ENDBRANCH   5   6
ENDBRANCH   4   5
ENDBRANCH   3   4
ENDBRANCH   2   3
ENDBRANCH   1   2
BRANCH   1  12
ATOM     12  C   UNL     1     -17.049  17.607  -8.355  1.00  0.00     0.000 C 
BRANCH  12  13
ATOM     13  C   UNL     1     -16.950  18.832  -9.280  1.00  0.00    -0.000 C 
BRANCH  13  14
ATOM     14  C   UNL     1     -16.365  18.484 -10.659  1.00  0.00    -0.000 C 
BRANCH  14  15
ATOM     15  C   UNL     1     -16.761  19.504 -11.741  1.00  0.00    -0.000 C 
BRANCH  15  16
ATOM     16  C   UNL     1     -16.825  20.941 -11.198  1.00  0.00    -0.000 C 
BRANCH  16  17
ATOM     17  C   UNL     1     -16.661  22.000 -12.304  1.00  0.00    -0.000 C 
BRANCH  17  18
ATOM     18  C   UNL     1     -15.351  21.814 -13.098  1.00  0.00    -0.000 C 
BRANCH  18  19
ATOM     19  C   UNL     1     -14.111  21.642 -12.206  1.00  0.00    -0.003 C 
ATOM     20  C   UNL     1     -13.354  20.343 -12.475  1.00  0.00     0.004 C 
ENDBRANCH  18  19
ENDBRANCH  17  18
ENDBRANCH  16  17
ENDBRANCH  15  16
ENDBRANCH  14  15
ENDBRANCH  13  14
ENDBRANCH  12  13
ENDBRANCH   1  12
TORSDOF 16
ENDMDL
MODEL 2
REMARK VINA RESULT:    -2.417      2.750      7.302
REMARK INTER + INTRA:          -5.689
REMARK INTER:                  -4.160
REMARK INTRA:                  -1.529
REMARK UNBOUND:                -1.012
REMARK SMILES CCCCCCCCCCCCCCCCCC(=O)[O-]
REMARK SMILES IDX 10 1 11 2 12 3 13 4 14 5 15 6 16 7 17 8 18 9 19 10 20 11
REMARK SMILES IDX 9 12 8 13 7 14 6 15 5 16 4 17 3 18 2 19 1 20
REMARK H PARENT
REMARK Flexibility Score: inf
ROOT
ATOM      1  C   UNL     1     -15.265  15.278  -7.634  1.00  0.00     0.000 C 
ENDROOT
BRANCH   1   2
ATOM      2  C   UNL     1     -16.326  16.284  -7.162  1.00  0.00     0.000 C 
BRANCH   2   3
ATOM      3  C   UNL     1     -17.035  16.933  -8.360  1.00  0.00     0.000 C 
BRANCH   3   4
ATOM      4  C   UNL     1     -16.066  17.681  -9.291  1.00  0.00     0.000 C 
BRANCH   4   5
ATOM      5  C   UNL     1     -16.721  18.305 -10.539  1.00  0.00     0.000 C 
BRANCH   5   6
ATOM      6  C   UNL     1     -16.709  19.848 -10.541  1.00  0.00     0.000 C 
BRANCH   6   7
ATOM      7  C   UNL     1     -16.319  20.426 -11.913  1.00  0.00     0.006 C 
BRANCH   7   8
ATOM      8  C   UNL     1     -15.152  21.418 -11.816  1.00  0.00     0.053 C 
BRANCH   8   9
ATOM      9  C   UNL     1     -13.854  20.789 -12.223  1.00  0.00     0.041 C 
ATOM     10  O   UNL     1     -13.774  19.543 -12.377  1.00  0.00    -0.550 OA
ATOM     11  O   UNL     1     -12.725  21.579 -12.400  1.00  0.00    -0.550 OA
ENDBRANCH   8   9
ENDBRANCH   7   8
ENDBRANCH   6   7
ENDBRANCH   5   6
ENDBRANCH   4   5
ENDBRANCH   3   4
ENDBRANCH   2   3
ENDBRANCH   1   2
BRANCH   1  12
ATOM     12  C   UNL     1     -15.714  13.817  -7.474  1.00  0.00     0.000 C 
BRANCH  12  13
ATOM     13  C   UNL     1     -17.125  13.567  -8.033  1.00  0.00    -0.000 C 
BRANCH  13  14
ATOM     14  C   UNL     1     -17.100  12.998  -9.462  1.00  0.00    -0.000 C 
BRANCH  14  15
ATOM     15  C   UNL     1     -16.711  14.056 -10.510  1.00  0.00    -0.000 C 
BRANCH  15  16
ATOM     16  C   UNL     1     -15.385  13.725 -11.215  1.00  0.00    -0.000 C 
BRANCH  16  17
ATOM     17  C   UNL     1     -15.121  12.209 -11.298  1.00  0.00    -0.000 C 
BRANCH  17  18
ATOM     18  C   UNL     1     -15.148  11.694 -12.752  1.00  0.00    -0.000 C 
BRANCH  18  19
ATOM     19  C   UNL     1     -16.451  10.967 -13.124  1.00  0.00    -0.003 C 
ATOM     20  C   UNL     1     -17.093  10.245 -11.940  1.00  0.00     0.004 C 
ENDBRANCH  18  19
ENDBRANCH  17  18
ENDBRANCH  16  17
ENDBRANCH  15  16
ENDBRANCH  14  15
ENDBRANCH  13  14
ENDBRANCH  12  13
ENDBRANCH   1  12
TORSDOF 16
ENDMDL
MODEL 3
REMARK VINA RESULT:    -2.305      2.917      7.727
REMARK INTER + INTRA:          -5.473
REMARK INTER:                  -5.135
REMARK INTRA:                  -0.339
REMARK UNBOUND:                -1.012
REMARK SMILES CCCCCCCCCCCCCCCCCC(=O)[O-]
REMARK SMILES IDX 10 1 11 2 12 3 13 4 14 5 15 6 16 7 17 8 18 9 19 10 20 11
REMARK SMILES IDX 9 12 8 13 7 14 6 15 5 16 4 17 3 18 2 19 1 20
REMARK H PARENT
REMARK Flexibility Score: inf
ROOT
ATOM      1  C   UNL     1     -17.125  15.421  -9.867  1.00  0.00     0.000 C 
ENDROOT
BRANCH   1   2
ATOM      2  C   UNL     1     -16.408  16.780  -9.861  1.00  0.00     0.000 C 
BRANCH   2   3
ATOM      3  C   UNL     1     -17.038  17.724  -8.825  1.00  0.00     0.000 C 
BRANCH   3   4
ATOM      4  C   UNL     1     -16.968  19.202  -9.246  1.00  0.00     0.000 C 
BRANCH   4   5
ATOM      5  C   UNL     1     -16.890  19.438 -10.767  1.00  0.00     0.000 C 
BRANCH   5   6
ATOM      6  C   UNL     1     -16.497  20.879 -11.152  1.00  0.00     0.000 C 
BRANCH   6   7
ATOM      7  C   UNL     1     -15.923  20.965 -12.578  1.00  0.00     0.006 C 
BRANCH   7   8
ATOM      8  C   UNL     1     -14.732  21.929 -12.668  1.00  0.00     0.053 C 
BRANCH   8   9
ATOM      9  C   UNL     1     -13.467  21.295 -12.175  1.00  0.00     0.041 C 
ATOM     10  O   UNL     1     -12.592  21.991 -11.598  1.00  0.00    -0.550 OA
ATOM     11  O   UNL     1     -13.241  19.940 -12.384  1.00  0.00    -0.550 OA
ENDBRANCH   8   9
ENDBRANCH   7   8
ENDBRANCH   6   7
ENDBRANCH   5   6
ENDBRANCH   4   5
ENDBRANCH   3   4
ENDBRANCH   2   3
ENDBRANCH   1   2
BRANCH   1  12
ATOM     12  C   UNL     1     -17.104  14.742 -11.246  1.00  0.00     0.000 C 
BRANCH  12  13
ATOM     13  C   UNL     1     -15.693  14.289 -11.661  1.00  0.00    -0.000 C 
BRANCH  13  14
ATOM     14  C   UNL     1     -15.662  12.831 -12.149  1.00  0.00    -0.000 C 
BRANCH  14  15
ATOM     15  C   UNL     1     -15.683  11.821 -10.987  1.00  0.00    -0.000 C 
BRANCH  15  16
ATOM     16  C   UNL     1     -14.585  12.100  -9.948  1.00  0.00    -0.000 C 
BRANCH  16  17
ATOM     17  C   UNL     1     -14.917  13.299  -9.040  1.00  0.00    -0.000 C 
BRANCH  17  18
ATOM     18  C   UNL     1     -14.217  13.201  -7.669  1.00  0.00    -0.000 C 
BRANCH  18  19
ATOM     19  C   UNL     1     -15.190  13.008  -6.494  1.00  0.00    -0.003 C 
ATOM     20  C   UNL     1     -16.587  13.559  -6.775  1.00  0.00     0.004 C 
ENDBRANCH  18  19
ENDBRANCH  17  18
ENDBRANCH  16  17
ENDBRANCH  15  16
ENDBRANCH  14  15
ENDBRANCH  13  14
ENDBRANCH  12  13
ENDBRANCH   1  12
TORSDOF 16
ENDMDL
MODEL 4
REMARK VINA RESULT:    -1.896      1.359      3.270
REMARK INTER + INTRA:          -4.681
REMARK INTER:                  -4.805
REMARK INTRA:                   0.124
REMARK UNBOUND:                -1.012
REMARK SMILES CCCCCCCCCCCCCCCCCC(=O)[O-]
REMARK SMILES IDX 10 1 11 2 12 3 13 4 14 5 15 6 16 7 17 8 18 9 19 10 20 11
REMARK SMILES IDX 9 12 8 13 7 14 6 15 5 16 4 17 3 18 2 19 1 20
REMARK H PARENT
REMARK Flexibility Score: inf
ROOT
ATOM      1  C   UNL     1     -14.977  13.614  -8.005  1.00  0.00     0.000 C 
ENDROOT
BRANCH   1   2
ATOM      2  C   UNL     1     -15.146  13.993  -9.484  1.00  0.00     0.000 C 
BRANCH   2   3
ATOM      3  C   UNL     1     -16.578  13.706  -9.960  1.00  0.00     0.000 C 
BRANCH   3   4
ATOM      4  C   UNL     1     -16.858  14.257 -11.369  1.00  0.00     0.000 C 
BRANCH   4   5
ATOM      5  C   UNL     1     -17.124  13.182 -12.442  1.00  0.00     0.000 C 
BRANCH   5   6
ATOM      6  C   UNL     1     -17.104  11.740 -11.894  1.00  0.00     0.000 C 
BRANCH   6   7
ATOM      7  C   UNL     1     -15.758  11.038 -12.148  1.00  0.00     0.006 C 
BRANCH   7   8
ATOM      8  C   UNL     1     -14.857  11.836 -13.101  1.00  0.00     0.053 C 
BRANCH   8   9
ATOM      9  C   UNL     1     -13.622  12.330 -12.412  1.00  0.00     0.041 C 
ATOM     10  O   UNL     1     -13.659  12.651 -11.197  1.00  0.00    -0.550 OA
ATOM     11  O   UNL     1     -12.436  12.465 -13.125  1.00  0.00    -0.550 OA
ENDBRANCH   8   9
ENDBRANCH   7   8
ENDBRANCH   6   7
ENDBRANCH   5   6
ENDBRANCH   4   5
ENDBRANCH   3   4
ENDBRANCH   2   3
ENDBRANCH   1   2
BRANCH   1  12
ATOM     12  C   UNL     1     -16.300  13.649  -7.224  1.00  0.00     0.000 C 
BRANCH  12  13
ATOM     13  C   UNL     1     -17.109  14.931  -7.487  1.00  0.00    -0.000 C 
BRANCH  13  14
ATOM     14  C   UNL     1     -16.279  16.207  -7.265  1.00  0.00    -0.000 C 
BRANCH  14  15
ATOM     15  C   UNL     1     -16.921  17.446  -7.913  1.00  0.00    -0.000 C 
BRANCH  15  16
ATOM     16  C   UNL     1     -16.306  17.778  -9.282  1.00  0.00    -0.000 C 
BRANCH  16  17
ATOM     17  C   UNL     1     -16.709  19.175  -9.791  1.00  0.00    -0.000 C 
BRANCH  17  18
ATOM     18  C   UNL     1     -16.549  19.305 -11.320  1.00  0.00    -0.000 C 
BRANCH  18  19
ATOM     19  C   UNL     1     -15.278  20.059 -11.744  1.00  0.00    -0.003 C 
ATOM     20  C   UNL     1     -15.524  21.541 -12.020  1.00  0.00     0.004 C 
ENDBRANCH  18  19
ENDBRANCH  17  18
ENDBRANCH  16  17
ENDBRANCH  15  16
ENDBRANCH  14  15
ENDBRANCH  13  14
ENDBRANCH  12  13
ENDBRANCH   1  12
TORSDOF 16
ENDMDL
MODEL 5
REMARK VINA RESULT:    -1.148      1.523      2.221
REMARK INTER + INTRA:          -3.234
REMARK INTER:                  -2.713
REMARK INTRA:                  -0.522
REMARK UNBOUND:                -1.012
REMARK SMILES CCCCCCCCCCCCCCCCCC(=O)[O-]
REMARK SMILES IDX 10 1 11 2 12 3 13 4 14 5 15 6 16 7 17 8 18 9 19 10 20 11
REMARK SMILES IDX 9 12 8 13 7 14 6 15 5 16 4 17 3 18 2 19 1 20
REMARK H PARENT
REMARK Flexibility Score: inf
ROOT
ATOM      1  C   UNL     1     -15.186  15.926  -8.554  1.00  0.00     0.000 C 
ENDROOT
BRANCH   1   2
ATOM      2  C   UNL     1     -16.377  14.980  -8.768  1.00  0.00     0.000 C 
BRANCH   2   3
ATOM      3  C   UNL     1     -17.124  15.326 -10.065  1.00  0.00     0.000 C 
BRANCH   3   4
ATOM      4  C   UNL     1     -16.336  14.937 -11.327  1.00  0.00     0.000 C 
BRANCH   4   5
ATOM      5  C   UNL     1     -17.070  13.966 -12.273  1.00  0.00     0.000 C 
BRANCH   5   6
ATOM      6  C   UNL     1     -16.926  12.483 -11.873  1.00  0.00     0.000 C 
BRANCH   6   7
ATOM      7  C   UNL     1     -15.930  11.730 -12.772  1.00  0.00     0.006 C 
BRANCH   7   8
ATOM      8  C   UNL     1     -14.705  12.583 -13.125  1.00  0.00     0.053 C 
BRANCH   8   9
ATOM      9  C   UNL     1     -13.590  12.386 -12.144  1.00  0.00     0.041 C 
ATOM     10  O   UNL     1     -13.844  12.136 -10.937  1.00  0.00    -0.550 OA
ATOM     11  O   UNL     1     -12.269  12.510 -12.558  1.00  0.00    -0.550 OA
ENDBRANCH   8   9
ENDBRANCH   7   8
ENDBRANCH   6   7
ENDBRANCH   5   6
ENDBRANCH   4   5
ENDBRANCH   3   4
ENDBRANCH   2   3
ENDBRANCH   1   2
BRANCH   1  12
ATOM     12  C   UNL     1     -15.609  17.309  -8.033  1.00  0.00     0.000 C 
BRANCH  12  13
ATOM     13  C   UNL     1     -16.836  17.870  -8.772  1.00  0.00    -0.000 C 
BRANCH  13  14
ATOM     14  C   UNL     1     -16.457  18.917  -9.833  1.00  0.00    -0.000 C 
BRANCH  14  15
ATOM     15  C   UNL     1     -15.561  18.335 -10.940  1.00  0.00    -0.000 C 
BRANCH  15  16
ATOM     16  C   UNL     1     -15.862  18.943 -12.320  1.00  0.00    -0.000 C 
BRANCH  16  17
ATOM     17  C   UNL     1     -16.588  20.298 -12.225  1.00  0.00    -0.000 C 
BRANCH  17  18
ATOM     18  C   UNL     1     -15.781  21.437 -12.882  1.00  0.00    -0.000 C 
BRANCH  18  19
ATOM     19  C   UNL     1     -14.259  21.227 -12.822  1.00  0.00    -0.003 C 
ATOM     20  C   UNL     1     -13.570  22.118 -11.790  1.00  0.00     0.004 C 
ENDBRANCH  18  19
ENDBRANCH  17  18
ENDBRANCH  16  17
ENDBRANCH  15  16
ENDBRANCH  14  15
ENDBRANCH  13  14
ENDBRANCH  12  13
ENDBRANCH   1  12
TORSDOF 16
ENDMDL
