MODEL 1
REMARK VINA RESULT:    -2.825      0.000      0.000
REMARK INTER + INTRA:          -4.006
REMARK INTER:                  -3.650
REMARK INTRA:                  -0.356
REMARK UNBOUND:                -0.356
REMARK SMILES CCCCCCC(=O)[O-]
REMARK SMILES IDX 5 1 6 2 7 3 8 4 9 5 4 6 3 7 2 8 1 9
REMARK H PARENT
REMARK Flexibility Score: inf
ROOT
ATOM      1  C   UNL     1      34.619  37.302   1.010  1.00  0.00     0.006 C 
ENDROOT
BRANCH   1   2
ATOM      2  C   UNL     1      33.187  37.041   1.498  1.00  0.00     0.053 C 
BRANCH   2   3
ATOM      3  C   UNL     1      32.945  35.572   1.646  1.00  0.00     0.041 C 
ATOM      4  O   UNL     1      31.794  35.097   1.455  1.00  0.00    -0.550 OA
ATOM      5  O   UNL     1      34.001  34.720   1.944  1.00  0.00    -0.550 OA
ENDBRANCH   2   3
ENDBRANCH   1   2
BRANCH   1   6
ATOM      6  C   UNL     1      34.660  38.086  -0.310  1.00  0.00     0.000 C 
BRANCH   6   7
ATOM      7  C   UNL     1      33.267  38.285  -0.925  1.00  0.00    -0.000 C 
BRANCH   7   8
ATOM      8  C   UNL     1      33.161  37.576  -2.280  1.00  0.00    -0.003 C 
ATOM      9  C   UNL     1      32.574  36.176  -2.128  1.00  0.00     0.004 C 
ENDBRANCH   7   8
ENDBRANCH   6   7
ENDBRANCH   1   6
TORSDOF 5
ENDMDL
MODEL 2
REMARK VINA RESULT:    -2.805      1.653      2.140
REMARK INTER + INTRA:          -3.981
REMARK INTER:                  -3.820
REMARK INTRA:                  -0.161
REMARK UNBOUND:                -0.356
REMARK SMILES CCCCCCC(=O)[O-]
REMARK SMILES IDX 5 1 6 2 7 3 8 4 9 5 4 6 3 7 2 8 1 9
REMARK H PARENT
REMARK Flexibility Score: inf
ROOT
ATOM      1  C   UNL     1      33.624  36.773  -0.968  1.00  0.00     0.006 C 
ENDROOT
BRANCH   1   2
ATOM      2  C   UNL     1      33.625  37.574   0.341  1.00  0.00     0.053 C 
BRANCH   2   3
ATOM      3  C   UNL     1      33.216  36.702   1.486  1.00  0.00     0.041 C 
ATOM      4  O   UNL     1      32.462  37.153   2.389  1.00  0.00    -0.550 OA
ATOM      5  O   UNL     1      33.624  35.375   1.530  1.00  0.00    -0.550 OA
ENDBRANCH   2   3
ENDBRANCH   1   2
BRANCH   1   6
ATOM      6  C   UNL     1      32.963  37.535  -2.127  1.00  0.00     0.000 C 
BRANCH   6   7
ATOM      7  C   UNL     1      33.541  38.946  -2.314  1.00  0.00    -0.000 C 
BRANCH   7   8
ATOM      8  C   UNL     1      34.100  39.125  -3.731  1.00  0.00    -0.003 C 
ATOM      9  C   UNL     1      33.250  38.383  -4.758  1.00  0.00     0.004 C 
ENDBRANCH   7   8
ENDBRANCH   6   7
ENDBRANCH   1   6
TORSDOF 5
ENDMDL
MODEL 3
REMARK VINA RESULT:    -2.801      1.009      1.557
REMARK INTER + INTRA:          -3.976
REMARK INTER:                  -3.739
REMARK INTRA:                  -0.237
REMARK UNBOUND:                -0.356
REMARK SMILES CCCCCCC(=O)[O-]
REMARK SMILES IDX 5 1 6 2 7 3 8 4 9 5 4 6 3 7 2 8 1 9
REMARK H PARENT
REMARK Flexibility Score: inf
ROOT
ATOM      1  C   UNL     1      34.763  37.745   0.015  1.00  0.00     0.006 C 
ENDROOT
BRANCH   1   2
ATOM      2  C   UNL     1      34.347  37.822   1.490  1.00  0.00     0.053 C 
BRANCH   2   3
ATOM      3  C   UNL     1      33.446  36.680   1.838  1.00  0.00     0.041 C 
ATOM      4  O   UNL     1      33.859  35.493   1.740  1.00  0.00    -0.550 OA
ATOM      5  O   UNL     1      32.166  36.925   2.320  1.00  0.00    -0.550 OA
ENDBRANCH   2   3
ENDBRANCH   1   2
BRANCH   1   6
ATOM      6  C   UNL     1      33.992  38.736  -0.870  1.00  0.00     0.000 C 
BRANCH   6   7
ATOM      7  C   UNL     1      33.138  38.035  -1.937  1.00  0.00    -0.000 C 
BRANCH   7   8
ATOM      8  C   UNL     1      33.172  36.513  -1.754  1.00  0.00    -0.003 C 
ATOM      9  C   UNL     1      32.146  35.826  -2.650  1.00  0.00     0.004 C 
ENDBRANCH   7   8
ENDBRANCH   6   7
ENDBRANCH   1   6
TORSDOF 5
ENDMDL
MODEL 4
REMARK VINA RESULT:    -2.770      4.164      4.861
REMARK INTER + INTRA:          -3.935
REMARK INTER:                  -3.805
REMARK INTRA:                  -0.130
REMARK UNBOUND:                -0.356
REMARK SMILES CCCCCCC(=O)[O-]
REMARK SMILES IDX 5 1 6 2 7 3 8 4 9 5 4 6 3 7 2 8 1 9
REMARK H PARENT
REMARK Flexibility Score: inf
ROOT
ATOM      1  C   UNL     1      34.350  37.958   4.239  1.00  0.00     0.006 C 
ENDROOT
BRANCH   1   2
ATOM      2  C   UNL     1      35.064  38.042   5.595  1.00  0.00     0.053 C 
BRANCH   2   3
ATOM      3  C   UNL     1      34.106  38.462   6.664  1.00  0.00     0.041 C 
ATOM      4  O   UNL     1      32.882  38.601   6.400  1.00  0.00    -0.550 OA
ATOM      5  O   UNL     1      34.555  38.650   7.966  1.00  0.00    -0.550 OA
ENDBRANCH   2   3
ENDBRANCH   1   2
BRANCH   1   6
ATOM      6  C   UNL     1      34.980  36.916   3.303  1.00  0.00     0.000 C 
BRANCH   6   7
ATOM      7  C   UNL     1      34.392  36.963   1.884  1.00  0.00    -0.000 C 
BRANCH   7   8
ATOM      8  C   UNL     1      32.897  36.623   1.899  1.00  0.00    -0.003 C 
ATOM      9  C   UNL     1      32.625  35.304   1.183  1.00  0.00     0.004 C 
ENDBRANCH   7   8
ENDBRANCH   6   7
ENDBRANCH   1   6
TORSDOF 5
ENDMDL
MODEL 5
REMARK VINA RESULT:    -2.764      2.578      4.127
REMARK INTER + INTRA:          -3.928
REMARK INTER:                  -3.713
REMARK INTRA:                  -0.214
REMARK UNBOUND:                -0.356
REMARK SMILES CCCCCCC(=O)[O-]
REMARK SMILES IDX 5 1 6 2 7 3 8 4 9 5 4 6 3 7 2 8 1 9
REMARK H PARENT
REMARK Flexibility Score: inf
ROOT
ATOM      1  C   UNL     1      33.884  37.767  -0.780  1.00  0.00     0.006 C 
ENDROOT
BRANCH   1   2
ATOM      2  C   UNL     1      33.253  36.419  -1.153  1.00  0.00     0.053 C 
BRANCH   2   3
ATOM      3  C   UNL     1      32.599  36.503  -2.495  1.00  0.00     0.041 C 
ATOM      4  O   UNL     1      32.790  37.506  -3.233  1.00  0.00    -0.550 OA
ATOM      5  O   UNL     1      31.818  35.450  -2.955  1.00  0.00    -0.550 OA
ENDBRANCH   2   3
ENDBRANCH   1   2
BRANCH   1   6
ATOM      6  C   UNL     1      34.847  37.660   0.412  1.00  0.00     0.000 C 
BRANCH   6   7
ATOM      7  C   UNL     1      34.276  38.286   1.693  1.00  0.00    -0.000 C 
BRANCH   7   8
ATOM      8  C   UNL     1      33.960  37.207   2.736  1.00  0.00    -0.003 C 
ATOM      9  C   UNL     1      35.101  36.201   2.852  1.00  0.00     0.004 C 
ENDBRANCH   7   8
ENDBRANCH   6   7
ENDBRANCH   1   6
TORSDOF 5
ENDMDL
MODEL 6
REMARK VINA RESULT:    -2.676      3.385      5.188
REMARK INTER + INTRA:          -3.814
REMARK INTER:                  -3.696
REMARK INTRA:                  -0.119
REMARK UNBOUND:                -0.356
REMARK SMILES CCCCCCC(=O)[O-]
REMARK SMILES IDX 5 1 6 2 7 3 8 4 9 5 4 6 3 7 2 8 1 9
REMARK H PARENT
REMARK Flexibility Score: inf
ROOT
ATOM      1  C   UNL     1      34.512  36.913   3.064  1.00  0.00     0.006 C 
ENDROOT
BRANCH   1   2
ATOM      2  C   UNL     1      33.258  37.043   2.190  1.00  0.00     0.053 C 
BRANCH   2   3
ATOM      3  C   UNL     1      33.279  36.027   1.092  1.00  0.00     0.041 C 
ATOM      4  O   UNL     1      32.886  34.850   1.309  1.00  0.00    -0.550 OA
ATOM      5  O   UNL     1      33.686  36.392  -0.185  1.00  0.00    -0.550 OA
ENDBRANCH   2   3
ENDBRANCH   1   2
BRANCH   1   6
ATOM      6  C   UNL     1      34.857  38.216   3.802  1.00  0.00     0.000 C 
BRANCH   6   7
ATOM      7  C   UNL     1      34.834  38.055   5.329  1.00  0.00    -0.000 C 
BRANCH   7   8
ATOM      8  C   UNL     1      33.634  38.788   5.940  1.00  0.00    -0.003 C 
ATOM      9  C   UNL     1      33.713  38.804   7.463  1.00  0.00     0.004 C 
ENDBRANCH   7   8
ENDBRANCH   6   7
ENDBRANCH   1   6
TORSDOF 5
ENDMDL
MODEL 7
REMARK VINA RESULT:    -2.546     22.446     23.066
REMARK INTER + INTRA:          -3.646
REMARK INTER:                  -3.647
REMARK INTRA:                   0.000
REMARK UNBOUND:                -0.356
REMARK SMILES CCCCCCC(=O)[O-]
REMARK SMILES IDX 5 1 6 2 7 3 8 4 9 5 4 6 3 7 2 8 1 9
REMARK H PARENT
REMARK Flexibility Score: inf
ROOT
ATOM      1  C   UNL     1      16.964  26.735  11.510  1.00  0.00     0.006 C 
ENDROOT
BRANCH   1   2
ATOM      2  C   UNL     1      17.887  27.118  12.675  1.00  0.00     0.053 C 
BRANCH   2   3
ATOM      3  C   UNL     1      17.333  26.609  13.969  1.00  0.00     0.041 C 
ATOM      4  O   UNL     1      17.908  26.882  15.056  1.00  0.00    -0.550 OA
ATOM      5  O   UNL     1      16.153  25.876  13.980  1.00  0.00    -0.550 OA
ENDBRANCH   2   3
ENDBRANCH   1   2
BRANCH   1   6
ATOM      6  C   UNL     1      15.721  27.633  11.420  1.00  0.00     0.000 C 
BRANCH   6   7
ATOM      7  C   UNL     1      14.875  27.348  10.170  1.00  0.00    -0.000 C 
BRANCH   7   8
ATOM      8  C   UNL     1      14.926  25.861   9.802  1.00  0.00    -0.003 C 
ATOM      9  C   UNL     1      14.875  25.664   8.290  1.00  0.00     0.004 C 
ENDBRANCH   7   8
ENDBRANCH   6   7
ENDBRANCH   1   6
TORSDOF 5
ENDMDL
MODEL 8
REMARK VINA RESULT:    -2.472     21.156     23.009
REMARK INTER + INTRA:          -3.551
REMARK INTER:                  -3.562
REMARK INTRA:                   0.011
REMARK UNBOUND:                -0.356
REMARK SMILES CCCCCCC(=O)[O-]
REMARK SMILES IDX 5 1 6 2 7 3 8 4 9 5 4 6 3 7 2 8 1 9
REMARK H PARENT
REMARK Flexibility Score: inf
ROOT
ATOM      1  C   UNL     1      15.480  26.003  13.055  1.00  0.00     0.006 C 
ENDROOT
BRANCH   1   2
ATOM      2  C   UNL     1      15.077  27.353  12.448  1.00  0.00     0.053 C 
BRANCH   2   3
ATOM      3  C   UNL     1      14.941  27.238  10.963  1.00  0.00     0.041 C 
ATOM      4  O   UNL     1      14.931  28.273  10.245  1.00  0.00    -0.550 OA
ATOM      5  O   UNL     1      14.877  25.986  10.365  1.00  0.00    -0.550 OA
ENDBRANCH   2   3
ENDBRANCH   1   2
BRANCH   1   6
ATOM      6  C   UNL     1      16.880  26.033  13.686  1.00  0.00     0.000 C 
BRANCH   6   7
ATOM      7  C   UNL     1      17.758  27.161  13.125  1.00  0.00    -0.000 C 
BRANCH   7   8
ATOM      8  C   UNL     1      18.330  26.780  11.755  1.00  0.00    -0.003 C 
ATOM      9  C   UNL     1      19.725  27.366  11.556  1.00  0.00     0.004 C 
ENDBRANCH   7   8
ENDBRANCH   6   7
ENDBRANCH   1   6
TORSDOF 5
ENDMDL
MODEL 9
REMARK VINA RESULT:    -2.467      2.138      2.522
REMARK INTER + INTRA:          -3.544
REMARK INTER:                  -3.312
REMARK INTRA:                  -0.232
REMARK UNBOUND:                -0.356
REMARK SMILES CCCCCCC(=O)[O-]
REMARK SMILES IDX 5 1 6 2 7 3 8 4 9 5 4 6 3 7 2 8 1 9
REMARK H PARENT
REMARK Flexibility Score: inf
ROOT
ATOM      1  C   UNL     1      33.402  35.978   1.610  1.00  0.00     0.006 C 
ENDROOT
BRANCH   1   2
ATOM      2  C   UNL     1      34.575  36.652   2.335  1.00  0.00     0.053 C 
BRANCH   2   3
ATOM      3  C   UNL     1      34.072  37.539   3.429  1.00  0.00     0.041 C 
ATOM      4  O   UNL     1      32.957  38.115   3.316  1.00  0.00    -0.550 OA
ATOM      5  O   UNL     1      34.810  37.691   4.596  1.00  0.00    -0.550 OA
ENDBRANCH   2   3
ENDBRANCH   1   2
BRANCH   1   6
ATOM      6  C   UNL     1      33.282  36.418   0.143  1.00  0.00     0.000 C 
BRANCH   6   7
ATOM      7  C   UNL     1      34.392  37.394  -0.274  1.00  0.00    -0.000 C 
BRANCH   7   8
ATOM      8  C   UNL     1      33.877  38.395  -1.315  1.00  0.00    -0.003 C 
ATOM      9  C   UNL     1      33.040  37.699  -2.384  1.00  0.00     0.004 C 
ENDBRANCH   7   8
ENDBRANCH   6   7
ENDBRANCH   1   6
TORSDOF 5
ENDMDL
