MODEL 1
REMARK VINA RESULT:    -4.647      0.000      0.000
REMARK INTER + INTRA:          -5.081
REMARK INTER:                  -5.055
REMARK INTRA:                  -0.027
REMARK UNBOUND:                -0.027
REMARK SMILES O=C([O-])c1ccc(O)cc1
REMARK SMILES IDX 4 1 5 2 10 3 6 4 9 5 7 6 2 7 1 8 3 9 8 10
REMARK H PARENT 8 11
REMARK Flexibility Score: inf
ROOT
ATOM      1  C   UNL     1      79.721 -21.149  43.995  1.00  0.00    -0.003 A 
ATOM      2  C   UNL     1      79.673 -20.196  45.029  1.00  0.00     0.014 A 
ATOM      3  C   UNL     1      80.113 -20.739  42.708  1.00  0.00     0.014 A 
ATOM      4  C   UNL     1      80.010 -18.863  44.779  1.00  0.00     0.047 A 
ATOM      5  C   UNL     1      80.451 -19.404  42.462  1.00  0.00     0.047 A 
ATOM      6  C   UNL     1      80.400 -18.464  43.495  1.00  0.00     0.115 A 
ENDROOT
BRANCH   1   7
ATOM      7  C   UNL     1      79.364 -22.560  44.262  1.00  0.00     0.071 C 
ATOM      8  O   UNL     1      80.248 -23.393  44.592  1.00  0.00    -0.545 OA
ATOM      9  O   UNL     1      78.045 -22.985  44.150  1.00  0.00    -0.545 OA
ENDBRANCH   1   7
BRANCH   6  10
ATOM     10  O   UNL     1      80.738 -17.137  43.235  1.00  0.00    -0.508 OA
ATOM     11  H   UNL     1      80.790 -16.449  43.977  1.00  0.00     0.293 HD
ENDBRANCH   6  10
TORSDOF 2
ENDMDL
MODEL 2
REMARK VINA RESULT:    -4.627      0.067      1.533
REMARK INTER + INTRA:          -5.059
REMARK INTER:                  -5.033
REMARK INTRA:                  -0.027
REMARK UNBOUND:                -0.027
REMARK SMILES O=C([O-])c1ccc(O)cc1
REMARK SMILES IDX 4 1 5 2 10 3 6 4 9 5 7 6 2 7 1 8 3 9 8 10
REMARK H PARENT 8 11
REMARK Flexibility Score: inf
ROOT
ATOM      1  C   UNL     1      79.746 -21.200  44.030  1.00  0.00    -0.003 A 
ATOM      2  C   UNL     1      80.124 -20.804  42.734  1.00  0.00     0.014 A 
ATOM      3  C   UNL     1      79.709 -20.237  45.053  1.00  0.00     0.014 A 
ATOM      4  C   UNL     1      80.457 -19.473  42.470  1.00  0.00     0.047 A 
ATOM      5  C   UNL     1      80.043 -18.905  44.785  1.00  0.00     0.047 A 
ATOM      6  C   UNL     1      80.418 -18.520  43.495  1.00  0.00     0.115 A 
ENDROOT
BRANCH   1   7
ATOM      7  C   UNL     1      79.393 -22.610  44.307  1.00  0.00     0.071 C 
ATOM      8  O   UNL     1      80.282 -23.441  44.631  1.00  0.00    -0.545 OA
ATOM      9  O   UNL     1      78.073 -23.038  44.213  1.00  0.00    -0.545 OA
ENDBRANCH   1   7
BRANCH   6  10
ATOM     10  O   UNL     1      80.748 -17.190  43.242  1.00  0.00    -0.508 OA
ATOM     11  H   UNL     1      80.298 -16.664  42.503  1.00  0.00     0.293 HD
ENDBRANCH   6  10
TORSDOF 2
ENDMDL
MODEL 3
REMARK VINA RESULT:    -4.547      2.203      3.871
REMARK INTER + INTRA:          -4.972
REMARK INTER:                  -4.944
REMARK INTRA:                  -0.029
REMARK UNBOUND:                -0.027
REMARK SMILES O=C([O-])c1ccc(O)cc1
REMARK SMILES IDX 4 1 5 2 10 3 6 4 9 5 7 6 2 7 1 8 3 9 8 10
REMARK H PARENT 8 11
REMARK Flexibility Score: inf
ROOT
ATOM      1  C   UNL     1      80.484 -19.303  42.718  1.00  0.00    -0.003 A 
ATOM      2  C   UNL     1      80.136 -20.591  43.163  1.00  0.00     0.014 A 
ATOM      3  C   UNL     1      80.446 -18.233  43.630  1.00  0.00     0.014 A 
ATOM      4  C   UNL     1      79.761 -20.803  44.493  1.00  0.00     0.047 A 
ATOM      5  C   UNL     1      80.071 -18.449  44.960  1.00  0.00     0.047 A 
ATOM      6  C   UNL     1      79.726 -19.733  45.394  1.00  0.00     0.115 A 
ENDROOT
BRANCH   1   7
ATOM      7  C   UNL     1      80.881 -19.081  41.310  1.00  0.00     0.071 C 
ATOM      8  O   UNL     1      81.885 -19.669  40.827  1.00  0.00    -0.545 OA
ATOM      9  O   UNL     1      80.152 -18.218  40.500  1.00  0.00    -0.545 OA
ENDBRANCH   1   7
BRANCH   6  10
ATOM     10  O   UNL     1      79.354 -19.933  46.722  1.00  0.00    -0.508 OA
ATOM     11  H   UNL     1      79.912 -20.500  47.348  1.00  0.00     0.293 HD
ENDBRANCH   6  10
TORSDOF 2
ENDMDL
MODEL 4
REMARK VINA RESULT:    -4.391      1.416      2.229
REMARK INTER + INTRA:          -4.803
REMARK INTER:                  -4.767
REMARK INTRA:                  -0.036
REMARK UNBOUND:                -0.027
REMARK SMILES O=C([O-])c1ccc(O)cc1
REMARK SMILES IDX 4 1 5 2 10 3 6 4 9 5 7 6 2 7 1 8 3 9 8 10
REMARK H PARENT 8 11
REMARK Flexibility Score: inf
ROOT
ATOM      1  C   UNL     1      80.530 -20.295  43.081  1.00  0.00    -0.003 A 
ATOM      2  C   UNL     1      81.431 -20.143  42.013  1.00  0.00     0.014 A 
ATOM      3  C   UNL     1      80.064 -19.149  43.750  1.00  0.00     0.014 A 
ATOM      4  C   UNL     1      81.856 -18.870  41.622  1.00  0.00     0.047 A 
ATOM      5  C   UNL     1      80.492 -17.877  43.356  1.00  0.00     0.047 A 
ATOM      6  C   UNL     1      81.388 -17.734  42.293  1.00  0.00     0.115 A 
ENDROOT
BRANCH   1   7
ATOM      7  C   UNL     1      80.081 -21.644  43.493  1.00  0.00     0.071 C 
ATOM      8  O   UNL     1      80.399 -22.659  42.818  1.00  0.00    -0.545 OA
ATOM      9  O   UNL     1      79.301 -21.810  44.632  1.00  0.00    -0.545 OA
ENDBRANCH   1   7
BRANCH   6  10
ATOM     10  O   UNL     1      81.805 -16.460  41.912  1.00  0.00    -0.508 OA
ATOM     11  H   UNL     1      81.141 -15.739  41.658  1.00  0.00     0.293 HD
ENDBRANCH   6  10
TORSDOF 2
ENDMDL
MODEL 5
REMARK VINA RESULT:    -4.346      1.058      4.555
REMARK INTER + INTRA:          -4.755
REMARK INTER:                  -4.720
REMARK INTRA:                  -0.035
REMARK UNBOUND:                -0.027
REMARK SMILES O=C([O-])c1ccc(O)cc1
REMARK SMILES IDX 4 1 5 2 10 3 6 4 9 5 7 6 2 7 1 8 3 9 8 10
REMARK H PARENT 8 11
REMARK Flexibility Score: inf
ROOT
ATOM      1  C   UNL     1      80.689 -19.255  43.187  1.00  0.00    -0.003 A 
ATOM      2  C   UNL     1      80.822 -20.432  42.429  1.00  0.00     0.014 A 
ATOM      3  C   UNL     1      80.052 -19.317  44.439  1.00  0.00     0.014 A 
ATOM      4  C   UNL     1      80.328 -21.646  42.916  1.00  0.00     0.047 A 
ATOM      5  C   UNL     1      79.560 -20.534  44.923  1.00  0.00     0.047 A 
ATOM      6  C   UNL     1      79.696 -21.700  44.164  1.00  0.00     0.115 A 
ENDROOT
BRANCH   1   7
ATOM      7  C   UNL     1      81.212 -17.971  42.669  1.00  0.00     0.071 C 
ATOM      8  O   UNL     1      80.760 -16.876  43.097  1.00  0.00    -0.545 OA
ATOM      9  O   UNL     1      82.211 -17.956  41.702  1.00  0.00    -0.545 OA
ENDBRANCH   1   7
BRANCH   6  10
ATOM     10  O   UNL     1      79.201 -22.905  44.659  1.00  0.00    -0.508 OA
ATOM     11  H   UNL     1      79.561 -23.314  45.513  1.00  0.00     0.293 HD
ENDBRANCH   6  10
TORSDOF 2
ENDMDL
MODEL 6
REMARK VINA RESULT:    -4.254     18.062     18.616
REMARK INTER + INTRA:          -4.654
REMARK INTER:                  -4.619
REMARK INTRA:                  -0.035
REMARK UNBOUND:                -0.027
REMARK SMILES O=C([O-])c1ccc(O)cc1
REMARK SMILES IDX 4 1 5 2 10 3 6 4 9 5 7 6 2 7 1 8 3 9 8 10
REMARK H PARENT 8 11
REMARK Flexibility Score: inf
ROOT
ATOM      1  C   UNL     1      64.330 -12.623  38.416  1.00  0.00    -0.003 A 
ATOM      2  C   UNL     1      65.037 -11.477  38.820  1.00  0.00     0.014 A 
ATOM      3  C   UNL     1      63.245 -13.064  39.195  1.00  0.00     0.014 A 
ATOM      4  C   UNL     1      64.665 -10.787  39.978  1.00  0.00     0.047 A 
ATOM      5  C   UNL     1      62.875 -12.372  40.353  1.00  0.00     0.047 A 
ATOM      6  C   UNL     1      63.584 -11.233  40.747  1.00  0.00     0.115 A 
ENDROOT
BRANCH   1   7
ATOM      7  C   UNL     1      64.725 -13.351  37.190  1.00  0.00     0.071 C 
ATOM      8  O   UNL     1      65.436 -12.792  36.314  1.00  0.00    -0.545 OA
ATOM      9  O   UNL     1      64.315 -14.664  36.988  1.00  0.00    -0.545 OA
ENDBRANCH   1   7
BRANCH   6  10
ATOM     10  O   UNL     1      63.205 -10.554  41.903  1.00  0.00    -0.508 OA
ATOM     11  H   UNL     1      63.700 -10.680  42.778  1.00  0.00     0.293 HD
ENDBRANCH   6  10
TORSDOF 2
ENDMDL
MODEL 7
REMARK VINA RESULT:    -4.245      2.026      2.816
REMARK INTER + INTRA:          -4.644
REMARK INTER:                  -4.608
REMARK INTRA:                  -0.036
REMARK UNBOUND:                -0.027
REMARK SMILES O=C([O-])c1ccc(O)cc1
REMARK SMILES IDX 4 1 5 2 10 3 6 4 9 5 7 6 2 7 1 8 3 9 8 10
REMARK H PARENT 8 11
REMARK Flexibility Score: inf
ROOT
ATOM      1  C   UNL     1      80.426 -19.269  43.686  1.00  0.00    -0.003 A 
ATOM      2  C   UNL     1      80.498 -17.882  43.467  1.00  0.00     0.014 A 
ATOM      3  C   UNL     1      81.015 -20.139  42.751  1.00  0.00     0.014 A 
ATOM      4  C   UNL     1      81.147 -17.377  42.336  1.00  0.00     0.047 A 
ATOM      5  C   UNL     1      81.664 -19.629  41.621  1.00  0.00     0.047 A 
ATOM      6  C   UNL     1      81.730 -18.249  41.410  1.00  0.00     0.115 A 
ENDROOT
BRANCH   1   7
ATOM      7  C   UNL     1      79.740 -19.802  44.884  1.00  0.00     0.071 C 
ATOM      8  O   UNL     1      79.319 -19.024  45.780  1.00  0.00    -0.545 OA
ATOM      9  O   UNL     1      79.550 -21.171  45.037  1.00  0.00    -0.545 OA
ENDBRANCH   1   7
BRANCH   6  10
ATOM     10  O   UNL     1      82.379 -17.756  40.280  1.00  0.00    -0.508 OA
ATOM     11  H   UNL     1      82.022 -17.927  39.348  1.00  0.00     0.293 HD
ENDBRANCH   6  10
TORSDOF 2
ENDMDL
MODEL 8
REMARK VINA RESULT:    -4.242      1.972      3.913
REMARK INTER + INTRA:          -4.641
REMARK INTER:                  -4.605
REMARK INTRA:                  -0.036
REMARK UNBOUND:                -0.027
REMARK SMILES O=C([O-])c1ccc(O)cc1
REMARK SMILES IDX 4 1 5 2 10 3 6 4 9 5 7 6 2 7 1 8 3 9 8 10
REMARK H PARENT 8 11
REMARK Flexibility Score: inf
ROOT
ATOM      1  C   UNL     1      79.821 -20.304  44.510  1.00  0.00    -0.003 A 
ATOM      2  C   UNL     1      80.529 -19.980  43.340  1.00  0.00     0.014 A 
ATOM      3  C   UNL     1      79.474 -21.646  44.748  1.00  0.00     0.014 A 
ATOM      4  C   UNL     1      80.883 -20.979  42.427  1.00  0.00     0.047 A 
ATOM      5  C   UNL     1      79.830 -22.643  43.834  1.00  0.00     0.047 A 
ATOM      6  C   UNL     1      80.534 -22.312  42.672  1.00  0.00     0.115 A 
ENDROOT
BRANCH   1   7
ATOM      7  C   UNL     1      79.447 -19.245  45.475  1.00  0.00     0.071 C 
ATOM      8  O   UNL     1      78.694 -19.504  46.450  1.00  0.00    -0.545 OA
ATOM      9  O   UNL     1      79.924 -17.949  45.317  1.00  0.00    -0.545 OA
ENDBRANCH   1   7
BRANCH   6  10
ATOM     10  O   UNL     1      80.882 -23.315  41.770  1.00  0.00    -0.508 OA
ATOM     11  H   UNL     1      81.845 -23.602  41.642  1.00  0.00     0.293 HD
ENDBRANCH   6  10
TORSDOF 2
ENDMDL
MODEL 9
REMARK VINA RESULT:    -4.042     16.591     17.338
REMARK INTER + INTRA:          -4.424
REMARK INTER:                  -4.388
REMARK INTRA:                  -0.036
REMARK UNBOUND:                -0.027
REMARK SMILES O=C([O-])c1ccc(O)cc1
REMARK SMILES IDX 4 1 5 2 10 3 6 4 9 5 7 6 2 7 1 8 3 9 8 10
REMARK H PARENT 8 11
REMARK Flexibility Score: inf
ROOT
ATOM      1  C   UNL     1      68.152 -14.234  33.835  1.00  0.00    -0.003 A 
ATOM      2  C   UNL     1      66.763 -14.448  33.787  1.00  0.00     0.014 A 
ATOM      3  C   UNL     1      68.640 -12.916  33.833  1.00  0.00     0.014 A 
ATOM      4  C   UNL     1      65.881 -13.363  33.739  1.00  0.00     0.047 A 
ATOM      5  C   UNL     1      67.755 -11.833  33.785  1.00  0.00     0.047 A 
ATOM      6  C   UNL     1      66.376 -12.053  33.738  1.00  0.00     0.115 A 
ENDROOT
BRANCH   1   7
ATOM      7  C   UNL     1      69.083 -15.384  33.886  1.00  0.00     0.071 C 
ATOM      8  O   UNL     1      68.644 -16.564  33.877  1.00  0.00    -0.545 OA
ATOM      9  O   UNL     1      70.456 -15.176  33.945  1.00  0.00    -0.545 OA
ENDBRANCH   1   7
BRANCH   6  10
ATOM     10  O   UNL     1      65.506 -10.966  33.690  1.00  0.00    -0.508 OA
ATOM     11  H   UNL     1      64.733 -10.934  33.037  1.00  0.00     0.293 HD
ENDBRANCH   6  10
TORSDOF 2
ENDMDL
