MODEL 1
REMARK VINA RESULT:    -4.164      0.000      0.000
REMARK INTER + INTRA:         -11.703
REMARK INTER:                  -9.033
REMARK INTRA:                  -2.670
REMARK UNBOUND:                -2.670
REMARK SMILES CCCCCCCCCCCCCCCCCCCCCC(=O)[O-]
REMARK SMILES IDX 12 1 11 2 10 3 9 4 8 5 7 6 6 7 5 8 4 9 3 10 2 11 1 12 13 13
REMARK SMILES IDX 14 14 15 15 16 16 17 17 18 18 19 19 20 20 21 21 22 22 23 23
REMARK SMILES IDX 24 24
REMARK H PARENT
REMARK Flexibility Score: inf
ROOT
ATOM      1  C   UNL     1      -2.664  28.261   2.937  1.00  0.00     0.000 C 
ENDROOT
BRANCH   1   2
ATOM      2  C   UNL     1      -1.897  27.393   1.923  1.00  0.00     0.000 C 
BRANCH   2   3
ATOM      3  C   UNL     1      -2.478  25.982   1.700  1.00  0.00     0.000 C 
BRANCH   3   4
ATOM      4  C   UNL     1      -3.411  25.471   2.816  1.00  0.00    -0.000 C 
BRANCH   4   5
ATOM      5  C   UNL     1      -4.693  24.779   2.319  1.00  0.00    -0.000 C 
BRANCH   5   6
ATOM      6  C   UNL     1      -5.182  25.333   0.968  1.00  0.00    -0.000 C 
BRANCH   6   7
ATOM      7  C   UNL     1      -6.462  26.177   1.100  1.00  0.00    -0.000 C 
BRANCH   7   8
ATOM      8  C   UNL     1      -7.549  25.551   1.994  1.00  0.00    -0.000 C 
BRANCH   8   9
ATOM      9  C   UNL     1      -7.886  26.404   3.235  1.00  0.00    -0.000 C 
BRANCH   9  10
ATOM     10  C   UNL     1      -7.728  25.610   4.541  1.00  0.00    -0.000 C 
BRANCH  10  11
ATOM     11  C   UNL     1      -6.745  26.265   5.522  1.00  0.00    -0.003 C 
ATOM     12  C   UNL     1      -7.200  26.155   6.976  1.00  0.00     0.004 C 
ENDBRANCH  10  11
ENDBRANCH   9  10
ENDBRANCH   8   9
ENDBRANCH   7   8
ENDBRANCH   6   7
ENDBRANCH   5   6
ENDBRANCH   4   5
ENDBRANCH   3   4
ENDBRANCH   2   3
ENDBRANCH   1   2
BRANCH   1  13
ATOM     13  C   UNL     1      -1.828  29.441   3.462  1.00  0.00     0.000 C 
BRANCH  13  14
ATOM     14  C   UNL     1      -0.524  29.639   2.673  1.00  0.00     0.000 C 
BRANCH  14  15
ATOM     15  C   UNL     1      -0.551  30.908   1.802  1.00  0.00     0.000 C 
BRANCH  15  16
ATOM     16  C   UNL     1      -0.998  30.623   0.359  1.00  0.00     0.000 C 
BRANCH  16  17
ATOM     17  C   UNL     1      -2.157  31.526  -0.092  1.00  0.00     0.000 C 
BRANCH  17  18
ATOM     18  C   UNL     1      -3.500  30.999   0.428  1.00  0.00     0.000 C 
BRANCH  18  19
ATOM     19  C   UNL     1      -3.843  29.644  -0.209  1.00  0.00     0.000 C 
BRANCH  19  20
ATOM     20  C   UNL     1      -5.236  29.628  -0.865  1.00  0.00     0.006 C 
BRANCH  20  21
ATOM     21  C   UNL     1      -5.585  30.910  -1.635  1.00  0.00     0.053 C 
BRANCH  21  22
ATOM     22  C   UNL     1      -6.814  31.574  -1.095  1.00  0.00     0.041 C 
ATOM     23  O   UNL     1      -7.237  31.285   0.054  1.00  0.00    -0.550 OA
ATOM     24  O   UNL     1      -7.473  32.538  -1.851  1.00  0.00    -0.550 OA
ENDBRANCH  21  22
ENDBRANCH  20  21
ENDBRANCH  19  20
ENDBRANCH  18  19
ENDBRANCH  17  18
ENDBRANCH  16  17
ENDBRANCH  15  16
ENDBRANCH  14  15
ENDBRANCH  13  14
ENDBRANCH   1  13
TORSDOF 20
ENDMDL
MODEL 2
REMARK VINA RESULT:    -4.090      3.760      5.382
REMARK INTER + INTRA:         -11.542
REMARK INTER:                  -8.185
REMARK INTRA:                  -3.357
REMARK UNBOUND:                -2.670
REMARK SMILES CCCCCCCCCCCCCCCCCCCCCC(=O)[O-]
REMARK SMILES IDX 12 1 11 2 10 3 9 4 8 5 7 6 6 7 5 8 4 9 3 10 2 11 1 12 13 13
REMARK SMILES IDX 14 14 15 15 16 16 17 17 18 18 19 19 20 20 21 21 22 22 23 23
REMARK SMILES IDX 24 24
REMARK H PARENT
REMARK Flexibility Score: inf
ROOT
ATOM      1  C   UNL     1      -3.571  27.662   1.619  1.00  0.00     0.000 C 
ENDROOT
BRANCH   1   2
ATOM      2  C   UNL     1      -3.460  26.879   2.940  1.00  0.00     0.000 C 
BRANCH   2   3
ATOM      3  C   UNL     1      -3.476  25.344   2.792  1.00  0.00     0.000 C 
BRANCH   3   4
ATOM      4  C   UNL     1      -3.404  24.822   1.343  1.00  0.00    -0.000 C 
BRANCH   4   5
ATOM      5  C   UNL     1      -4.600  23.955   0.909  1.00  0.00    -0.000 C 
BRANCH   5   6
ATOM      6  C   UNL     1      -5.754  23.982   1.928  1.00  0.00    -0.000 C 
BRANCH   6   7
ATOM      7  C   UNL     1      -7.028  24.638   1.366  1.00  0.00    -0.000 C 
BRANCH   7   8
ATOM      8  C   UNL     1      -7.718  25.621   2.330  1.00  0.00    -0.000 C 
BRANCH   8   9
ATOM      9  C   UNL     1      -7.486  25.283   3.818  1.00  0.00    -0.000 C 
BRANCH   9  10
ATOM     10  C   UNL     1      -6.620  26.340   4.521  1.00  0.00    -0.000 C 
BRANCH  10  11
ATOM     11  C   UNL     1      -6.815  26.354   6.043  1.00  0.00    -0.003 C 
ATOM     12  C   UNL     1      -8.018  25.525   6.492  1.00  0.00     0.004 C 
ENDBRANCH  10  11
ENDBRANCH   9  10
ENDBRANCH   8   9
ENDBRANCH   7   8
ENDBRANCH   6   7
ENDBRANCH   5   6
ENDBRANCH   4   5
ENDBRANCH   3   4
ENDBRANCH   2   3
ENDBRANCH   1   2
BRANCH   1  13
ATOM     13  C   UNL     1      -5.022  28.039   1.272  1.00  0.00     0.000 C 
BRANCH  13  14
ATOM     14  C   UNL     1      -5.398  27.675  -0.172  1.00  0.00     0.000 C 
BRANCH  14  15
ATOM     15  C   UNL     1      -4.165  27.406  -1.052  1.00  0.00     0.000 C 
BRANCH  15  16
ATOM     16  C   UNL     1      -4.390  26.258  -2.049  1.00  0.00     0.000 C 
BRANCH  16  17
ATOM     17  C   UNL     1      -5.838  25.743  -2.043  1.00  0.00     0.000 C 
BRANCH  17  18
ATOM     18  C   UNL     1      -6.197  25.097  -3.387  1.00  0.00     0.000 C 
BRANCH  18  19
ATOM     19  C   UNL     1      -7.636  24.559  -3.371  1.00  0.00     0.000 C 
BRANCH  19  20
ATOM     20  C   UNL     1      -7.698  23.023  -3.279  1.00  0.00     0.006 C 
BRANCH  20  21
ATOM     21  C   UNL     1      -9.107  22.461  -3.041  1.00  0.00     0.053 C 
BRANCH  21  22
ATOM     22  C   UNL     1      -9.710  22.973  -1.770  1.00  0.00     0.041 C 
ATOM     23  O   UNL     1      -9.311  22.537  -0.659  1.00  0.00    -0.550 OA
ATOM     24  O   UNL     1     -10.691  23.958  -1.812  1.00  0.00    -0.550 OA
ENDBRANCH  21  22
ENDBRANCH  20  21
ENDBRANCH  19  20
ENDBRANCH  18  19
ENDBRANCH  17  18
ENDBRANCH  16  17
ENDBRANCH  15  16
ENDBRANCH  14  15
ENDBRANCH  13  14
ENDBRANCH   1  13
TORSDOF 20
ENDMDL
MODEL 3
REMARK VINA RESULT:    -4.089      3.226      5.607
REMARK INTER + INTRA:         -11.539
REMARK INTER:                  -8.875
REMARK INTRA:                  -2.664
REMARK UNBOUND:                -2.670
REMARK SMILES CCCCCCCCCCCCCCCCCCCCCC(=O)[O-]
REMARK SMILES IDX 12 1 11 2 10 3 9 4 8 5 7 6 6 7 5 8 4 9 3 10 2 11 1 12 13 13
REMARK SMILES IDX 14 14 15 15 16 16 17 17 18 18 19 19 20 20 21 21 22 22 23 23
REMARK SMILES IDX 24 24
REMARK H PARENT
REMARK Flexibility Score: inf
ROOT
ATOM      1  C   UNL     1      -3.523  21.681  -1.876  1.00  0.00     0.000 C 
ENDROOT
BRANCH   1   2
ATOM      2  C   UNL     1      -4.449  22.907  -1.980  1.00  0.00     0.000 C 
BRANCH   2   3
ATOM      3  C   UNL     1      -4.677  23.667  -0.657  1.00  0.00     0.000 C 
BRANCH   3   4
ATOM      4  C   UNL     1      -5.397  25.023  -0.793  1.00  0.00    -0.000 C 
BRANCH   4   5
ATOM      5  C   UNL     1      -5.804  25.675   0.541  1.00  0.00    -0.000 C 
BRANCH   5   6
ATOM      6  C   UNL     1      -5.547  24.759   1.752  1.00  0.00    -0.000 C 
BRANCH   6   7
ATOM      7  C   UNL     1      -6.840  24.389   2.501  1.00  0.00    -0.000 C 
BRANCH   7   8
ATOM      8  C   UNL     1      -7.847  25.545   2.644  1.00  0.00    -0.000 C 
BRANCH   8   9
ATOM      9  C   UNL     1      -7.975  26.070   4.090  1.00  0.00    -0.000 C 
BRANCH   9  10
ATOM     10  C   UNL     1      -6.603  26.317   4.737  1.00  0.00    -0.000 C 
BRANCH  10  11
ATOM     11  C   UNL     1      -6.686  26.496   6.259  1.00  0.00    -0.003 C 
ATOM     12  C   UNL     1      -7.685  25.543   6.912  1.00  0.00     0.004 C 
ENDBRANCH  10  11
ENDBRANCH   9  10
ENDBRANCH   8   9
ENDBRANCH   7   8
ENDBRANCH   6   7
ENDBRANCH   5   6
ENDBRANCH   4   5
ENDBRANCH   3   4
ENDBRANCH   2   3
ENDBRANCH   1   2
BRANCH   1  13
ATOM     13  C   UNL     1      -3.331  21.203  -0.427  1.00  0.00     0.000 C 
BRANCH  13  14
ATOM     14  C   UNL     1      -1.857  21.205   0.007  1.00  0.00     0.000 C 
BRANCH  14  15
ATOM     15  C   UNL     1      -1.030  22.278  -0.723  1.00  0.00     0.000 C 
BRANCH  15  16
ATOM     16  C   UNL     1      -0.764  23.514   0.151  1.00  0.00     0.000 C 
BRANCH  16  17
ATOM     17  C   UNL     1      -1.308  24.810  -0.471  1.00  0.00     0.000 C 
BRANCH  17  18
ATOM     18  C   UNL     1      -1.807  25.773   0.613  1.00  0.00     0.000 C 
BRANCH  18  19
ATOM     19  C   UNL     1      -2.368  27.060  -0.012  1.00  0.00     0.000 C 
BRANCH  19  20
ATOM     20  C   UNL     1      -2.216  28.285   0.909  1.00  0.00     0.006 C 
BRANCH  20  21
ATOM     21  C   UNL     1      -1.652  27.962   2.301  1.00  0.00     0.053 C 
BRANCH  21  22
ATOM     22  C   UNL     1      -2.669  28.164   3.381  1.00  0.00     0.041 C 
ATOM     23  O   UNL     1      -3.505  27.260   3.642  1.00  0.00    -0.550 OA
ATOM     24  O   UNL     1      -2.673  29.340   4.123  1.00  0.00    -0.550 OA
ENDBRANCH  21  22
ENDBRANCH  20  21
ENDBRANCH  19  20
ENDBRANCH  18  19
ENDBRANCH  17  18
ENDBRANCH  16  17
ENDBRANCH  15  16
ENDBRANCH  14  15
ENDBRANCH  13  14
ENDBRANCH   1  13
TORSDOF 20
ENDMDL
MODEL 4
REMARK VINA RESULT:    -4.081      1.538      3.072
REMARK INTER + INTRA:         -11.522
REMARK INTER:                  -8.510
REMARK INTRA:                  -3.012
REMARK UNBOUND:                -2.670
REMARK SMILES CCCCCCCCCCCCCCCCCCCCCC(=O)[O-]
REMARK SMILES IDX 12 1 11 2 10 3 9 4 8 5 7 6 6 7 5 8 4 9 3 10 2 11 1 12 13 13
REMARK SMILES IDX 14 14 15 15 16 16 17 17 18 18 19 19 20 20 21 21 22 22 23 23
REMARK SMILES IDX 24 24
REMARK H PARENT
REMARK Flexibility Score: inf
ROOT
ATOM      1  C   UNL     1      -3.416  29.841   1.676  1.00  0.00     0.000 C 
ENDROOT
BRANCH   1   2
ATOM      2  C   UNL     1      -2.591  29.641   2.960  1.00  0.00     0.000 C 
BRANCH   2   3
ATOM      3  C   UNL     1      -2.376  28.172   3.376  1.00  0.00     0.000 C 
BRANCH   3   4
ATOM      4  C   UNL     1      -3.628  27.277   3.298  1.00  0.00    -0.000 C 
BRANCH   4   5
ATOM      5  C   UNL     1      -3.343  25.790   3.020  1.00  0.00    -0.000 C 
BRANCH   5   6
ATOM      6  C   UNL     1      -3.708  25.373   1.582  1.00  0.00    -0.000 C 
BRANCH   6   7
ATOM      7  C   UNL     1      -4.825  24.315   1.536  1.00  0.00    -0.000 C 
BRANCH   7   8
ATOM      8  C   UNL     1      -5.891  24.560   0.452  1.00  0.00    -0.000 C 
BRANCH   8   9
ATOM      9  C   UNL     1      -7.259  24.988   1.025  1.00  0.00    -0.000 C 
BRANCH   9  10
ATOM     10  C   UNL     1      -7.350  24.748   2.540  1.00  0.00    -0.000 C 
BRANCH  10  11
ATOM     11  C   UNL     1      -7.773  26.003   3.317  1.00  0.00    -0.003 C 
ATOM     12  C   UNL     1      -6.956  26.212   4.590  1.00  0.00     0.004 C 
ENDBRANCH  10  11
ENDBRANCH   9  10
ENDBRANCH   8   9
ENDBRANCH   7   8
ENDBRANCH   6   7
ENDBRANCH   5   6
ENDBRANCH   4   5
ENDBRANCH   3   4
ENDBRANCH   2   3
ENDBRANCH   1   2
BRANCH   1  13
ATOM     13  C   UNL     1      -2.637  29.462   0.404  1.00  0.00     0.000 C 
BRANCH  13  14
ATOM     14  C   UNL     1      -3.348  28.382  -0.425  1.00  0.00     0.000 C 
BRANCH  14  15
ATOM     15  C   UNL     1      -4.879  28.445  -0.285  1.00  0.00     0.000 C 
BRANCH  15  16
ATOM     16  C   UNL     1      -5.605  28.183  -1.614  1.00  0.00     0.000 C 
BRANCH  16  17
ATOM     17  C   UNL     1      -4.842  28.739  -2.827  1.00  0.00     0.000 C 
BRANCH  17  18
ATOM     18  C   UNL     1      -5.410  30.096  -3.260  1.00  0.00     0.000 C 
BRANCH  18  19
ATOM     19  C   UNL     1      -4.805  31.237  -2.429  1.00  0.00     0.000 C 
BRANCH  19  20
ATOM     20  C   UNL     1      -5.789  32.401  -2.209  1.00  0.00     0.006 C 
BRANCH  20  21
ATOM     21  C   UNL     1      -7.161  31.975  -1.666  1.00  0.00     0.053 C 
BRANCH  21  22
ATOM     22  C   UNL     1      -7.116  31.665  -0.203  1.00  0.00     0.041 C 
ATOM     23  O   UNL     1      -6.023  31.705   0.420  1.00  0.00    -0.550 OA
ATOM     24  O   UNL     1      -8.288  31.363   0.482  1.00  0.00    -0.550 OA
ENDBRANCH  21  22
ENDBRANCH  20  21
ENDBRANCH  19  20
ENDBRANCH  18  19
ENDBRANCH  17  18
ENDBRANCH  16  17
ENDBRANCH  15  16
ENDBRANCH  14  15
ENDBRANCH  13  14
ENDBRANCH   1  13
TORSDOF 20
ENDMDL
MODEL 5
REMARK VINA RESULT:    -3.995      3.074      6.906
REMARK INTER + INTRA:         -11.336
REMARK INTER:                  -8.868
REMARK INTRA:                  -2.468
REMARK UNBOUND:                -2.670
REMARK SMILES CCCCCCCCCCCCCCCCCCCCCC(=O)[O-]
REMARK SMILES IDX 12 1 11 2 10 3 9 4 8 5 7 6 6 7 5 8 4 9 3 10 2 11 1 12 13 13
REMARK SMILES IDX 14 14 15 15 16 16 17 17 18 18 19 19 20 20 21 21 22 22 23 23
REMARK SMILES IDX 24 24
REMARK H PARENT
REMARK Flexibility Score: inf
ROOT
ATOM      1  C   UNL     1      -1.226  25.369  -0.292  1.00  0.00     0.000 C 
ENDROOT
BRANCH   1   2
ATOM      2  C   UNL     1      -1.545  26.445   0.762  1.00  0.00     0.000 C 
BRANCH   2   3
ATOM      3  C   UNL     1      -2.535  26.010   1.861  1.00  0.00     0.000 C 
BRANCH   3   4
ATOM      4  C   UNL     1      -3.244  27.161   2.601  1.00  0.00    -0.000 C 
BRANCH   4   5
ATOM      5  C   UNL     1      -2.992  28.560   2.011  1.00  0.00    -0.000 C 
BRANCH   5   6
ATOM      6  C   UNL     1      -4.162  29.059   1.143  1.00  0.00    -0.000 C 
BRANCH   6   7
ATOM      7  C   UNL     1      -3.745  30.173   0.167  1.00  0.00    -0.000 C 
BRANCH   7   8
ATOM      8  C   UNL     1      -4.619  31.439   0.233  1.00  0.00    -0.000 C 
BRANCH   8   9
ATOM      9  C   UNL     1      -6.133  31.140   0.200  1.00  0.00    -0.000 C 
BRANCH   9  10
ATOM     10  C   UNL     1      -6.674  31.064  -1.237  1.00  0.00    -0.000 C 
BRANCH  10  11
ATOM     11  C   UNL     1      -6.279  32.279  -2.087  1.00  0.00    -0.003 C 
ATOM     12  C   UNL     1      -7.218  33.468  -1.891  1.00  0.00     0.004 C 
ENDBRANCH  10  11
ENDBRANCH   9  10
ENDBRANCH   8   9
ENDBRANCH   7   8
ENDBRANCH   6   7
ENDBRANCH   5   6
ENDBRANCH   4   5
ENDBRANCH   3   4
ENDBRANCH   2   3
ENDBRANCH   1   2
BRANCH   1  13
ATOM     13  C   UNL     1      -0.717  24.058   0.333  1.00  0.00     0.000 C 
BRANCH  13  14
ATOM     14  C   UNL     1      -0.161  23.080  -0.714  1.00  0.00     0.000 C 
BRANCH  14  15
ATOM     15  C   UNL     1      -1.097  21.882  -0.956  1.00  0.00     0.000 C 
BRANCH  15  16
ATOM     16  C   UNL     1      -2.218  21.788   0.092  1.00  0.00     0.000 C 
BRANCH  16  17
ATOM     17  C   UNL     1      -3.601  22.123  -0.488  1.00  0.00     0.000 C 
BRANCH  17  18
ATOM     18  C   UNL     1      -4.289  23.222   0.330  1.00  0.00     0.000 C 
BRANCH  18  19
ATOM     19  C   UNL     1      -4.978  24.242  -0.589  1.00  0.00     0.000 C 
BRANCH  19  20
ATOM     20  C   UNL     1      -5.642  25.393   0.189  1.00  0.00     0.006 C 
BRANCH  20  21
ATOM     21  C   UNL     1      -6.198  24.988   1.563  1.00  0.00     0.053 C 
BRANCH  21  22
ATOM     22  C   UNL     1      -7.674  24.740   1.522  1.00  0.00     0.041 C 
ATOM     23  O   UNL     1      -8.142  23.819   0.802  1.00  0.00    -0.550 OA
ATOM     24  O   UNL     1      -8.530  25.504   2.306  1.00  0.00    -0.550 OA
ENDBRANCH  21  22
ENDBRANCH  20  21
ENDBRANCH  19  20
ENDBRANCH  18  19
ENDBRANCH  17  18
ENDBRANCH  16  17
ENDBRANCH  15  16
ENDBRANCH  14  15
ENDBRANCH  13  14
ENDBRANCH   1  13
TORSDOF 20
ENDMDL
MODEL 6
REMARK VINA RESULT:    -3.975      3.033      4.145
REMARK INTER + INTRA:         -11.292
REMARK INTER:                  -7.946
REMARK INTRA:                  -3.346
REMARK UNBOUND:                -2.670
REMARK SMILES CCCCCCCCCCCCCCCCCCCCCC(=O)[O-]
REMARK SMILES IDX 12 1 11 2 10 3 9 4 8 5 7 6 6 7 5 8 4 9 3 10 2 11 1 12 13 13
REMARK SMILES IDX 14 14 15 15 16 16 17 17 18 18 19 19 20 20 21 21 22 22 23 23
REMARK SMILES IDX 24 24
REMARK H PARENT
REMARK Flexibility Score: inf
ROOT
ATOM      1  C   UNL     1      -3.167  25.501   2.483  1.00  0.00     0.000 C 
ENDROOT
BRANCH   1   2
ATOM      2  C   UNL     1      -2.380  25.421   1.162  1.00  0.00     0.000 C 
BRANCH   2   3
ATOM      3  C   UNL     1      -3.004  24.512   0.084  1.00  0.00     0.000 C 
BRANCH   3   4
ATOM      4  C   UNL     1      -4.344  23.857   0.471  1.00  0.00    -0.000 C 
BRANCH   4   5
ATOM      5  C   UNL     1      -5.595  24.576  -0.067  1.00  0.00    -0.000 C 
BRANCH   5   6
ATOM      6  C   UNL     1      -6.869  24.222   0.722  1.00  0.00    -0.000 C 
BRANCH   6   7
ATOM      7  C   UNL     1      -6.747  24.543   2.223  1.00  0.00    -0.000 C 
BRANCH   7   8
ATOM      8  C   UNL     1      -7.430  25.854   2.653  1.00  0.00    -0.000 C 
BRANCH   8   9
ATOM      9  C   UNL     1      -7.605  25.981   4.181  1.00  0.00    -0.000 C 
BRANCH   9  10
ATOM     10  C   UNL     1      -6.294  26.366   4.882  1.00  0.00    -0.000 C 
BRANCH  10  11
ATOM     11  C   UNL     1      -6.459  26.545   6.397  1.00  0.00    -0.003 C 
ATOM     12  C   UNL     1      -7.469  25.571   7.000  1.00  0.00     0.004 C 
ENDBRANCH  10  11
ENDBRANCH   9  10
ENDBRANCH   8   9
ENDBRANCH   7   8
ENDBRANCH   6   7
ENDBRANCH   5   6
ENDBRANCH   4   5
ENDBRANCH   3   4
ENDBRANCH   2   3
ENDBRANCH   1   2
BRANCH   1  13
ATOM     13  C   UNL     1      -3.423  26.949   2.934  1.00  0.00     0.000 C 
BRANCH  13  14
ATOM     14  C   UNL     1      -3.527  27.928   1.754  1.00  0.00     0.000 C 
BRANCH  14  15
ATOM     15  C   UNL     1      -4.984  28.186   1.330  1.00  0.00     0.000 C 
BRANCH  15  16
ATOM     16  C   UNL     1      -5.229  27.879  -0.156  1.00  0.00     0.000 C 
BRANCH  16  17
ATOM     17  C   UNL     1      -3.954  28.000  -1.005  1.00  0.00     0.000 C 
BRANCH  17  18
ATOM     18  C   UNL     1      -3.785  29.424  -1.545  1.00  0.00     0.000 C 
BRANCH  18  19
ATOM     19  C   UNL     1      -2.377  29.962  -1.249  1.00  0.00     0.000 C 
BRANCH  19  20
ATOM     20  C   UNL     1      -1.304  28.857  -1.252  1.00  0.00     0.006 C 
BRANCH  20  21
ATOM     21  C   UNL     1      -0.460  28.793   0.030  1.00  0.00     0.053 C 
BRANCH  21  22
ATOM     22  C   UNL     1       0.553  29.894   0.092  1.00  0.00     0.041 C 
ATOM     23  O   UNL     1       1.029  30.378  -0.967  1.00  0.00    -0.550 OA
ATOM     24  O   UNL     1       0.946  30.409   1.323  1.00  0.00    -0.550 OA
ENDBRANCH  21  22
ENDBRANCH  20  21
ENDBRANCH  19  20
ENDBRANCH  18  19
ENDBRANCH  17  18
ENDBRANCH  16  17
ENDBRANCH  15  16
ENDBRANCH  14  15
ENDBRANCH  13  14
ENDBRANCH   1  13
TORSDOF 20
ENDMDL
MODEL 7
REMARK VINA RESULT:    -3.897      2.204      4.397
REMARK INTER + INTRA:         -11.123
REMARK INTER:                  -7.780
REMARK INTRA:                  -3.344
REMARK UNBOUND:                -2.670
REMARK SMILES CCCCCCCCCCCCCCCCCCCCCC(=O)[O-]
REMARK SMILES IDX 12 1 11 2 10 3 9 4 8 5 7 6 6 7 5 8 4 9 3 10 2 11 1 12 13 13
REMARK SMILES IDX 14 14 15 15 16 16 17 17 18 18 19 19 20 20 21 21 22 22 23 23
REMARK SMILES IDX 24 24
REMARK H PARENT
REMARK Flexibility Score: inf
ROOT
ATOM      1  C   UNL     1      -2.554  27.086   2.687  1.00  0.00     0.000 C 
ENDROOT
BRANCH   1   2
ATOM      2  C   UNL     1      -3.964  26.495   2.870  1.00  0.00     0.000 C 
BRANCH   2   3
ATOM      3  C   UNL     1      -4.160  25.081   2.287  1.00  0.00     0.000 C 
BRANCH   3   4
ATOM      4  C   UNL     1      -5.048  25.006   1.029  1.00  0.00    -0.000 C 
BRANCH   4   5
ATOM      5  C   UNL     1      -4.500  25.761  -0.195  1.00  0.00    -0.000 C 
BRANCH   5   6
ATOM      6  C   UNL     1      -3.674  24.858  -1.130  1.00  0.00    -0.000 C 
BRANCH   6   7
ATOM      7  C   UNL     1      -2.245  25.383  -1.353  1.00  0.00    -0.000 C 
BRANCH   7   8
ATOM      8  C   UNL     1      -1.324  25.267  -0.124  1.00  0.00    -0.000 C 
BRANCH   8   9
ATOM      9  C   UNL     1      -1.143  23.816   0.371  1.00  0.00    -0.000 C 
BRANCH   9  10
ATOM     10  C   UNL     1      -0.749  22.863  -0.768  1.00  0.00    -0.000 C 
BRANCH  10  11
ATOM     11  C   UNL     1      -1.394  21.477  -0.634  1.00  0.00    -0.003 C 
ATOM     12  C   UNL     1      -2.821  21.539  -0.094  1.00  0.00     0.004 C 
ENDBRANCH  10  11
ENDBRANCH   9  10
ENDBRANCH   8   9
ENDBRANCH   7   8
ENDBRANCH   6   7
ENDBRANCH   5   6
ENDBRANCH   4   5
ENDBRANCH   3   4
ENDBRANCH   2   3
ENDBRANCH   1   2
BRANCH   1  13
ATOM     13  C   UNL     1      -2.355  28.399   3.463  1.00  0.00     0.000 C 
BRANCH  13  14
ATOM     14  C   UNL     1      -1.285  29.303   2.832  1.00  0.00     0.000 C 
BRANCH  14  15
ATOM     15  C   UNL     1      -0.924  28.876   1.398  1.00  0.00     0.000 C 
BRANCH  15  16
ATOM     16  C   UNL     1      -1.570  29.776   0.334  1.00  0.00     0.000 C 
BRANCH  16  17
ATOM     17  C   UNL     1      -2.681  29.062  -0.452  1.00  0.00     0.000 C 
BRANCH  17  18
ATOM     18  C   UNL     1      -4.059  29.351   0.156  1.00  0.00     0.000 C 
BRANCH  18  19
ATOM     19  C   UNL     1      -4.088  30.736   0.819  1.00  0.00     0.000 C 
BRANCH  19  20
ATOM     20  C   UNL     1      -4.692  31.820  -0.093  1.00  0.00     0.006 C 
BRANCH  20  21
ATOM     21  C   UNL     1      -6.174  31.605  -0.433  1.00  0.00     0.053 C 
BRANCH  21  22
ATOM     22  C   UNL     1      -6.517  32.107  -1.801  1.00  0.00     0.041 C 
ATOM     23  O   UNL     1      -7.396  32.995  -1.949  1.00  0.00    -0.550 OA
ATOM     24  O   UNL     1      -5.839  31.616  -2.912  1.00  0.00    -0.550 OA
ENDBRANCH  21  22
ENDBRANCH  20  21
ENDBRANCH  19  20
ENDBRANCH  18  19
ENDBRANCH  17  18
ENDBRANCH  16  17
ENDBRANCH  15  16
ENDBRANCH  14  15
ENDBRANCH  13  14
ENDBRANCH   1  13
TORSDOF 20
ENDMDL
MODEL 8
REMARK VINA RESULT:    -3.895      2.648      4.975
REMARK INTER + INTRA:         -11.119
REMARK INTER:                  -7.510
REMARK INTRA:                  -3.609
REMARK UNBOUND:                -2.670
REMARK SMILES CCCCCCCCCCCCCCCCCCCCCC(=O)[O-]
REMARK SMILES IDX 12 1 11 2 10 3 9 4 8 5 7 6 6 7 5 8 4 9 3 10 2 11 1 12 13 13
REMARK SMILES IDX 14 14 15 15 16 16 17 17 18 18 19 19 20 20 21 21 22 22 23 23
REMARK SMILES IDX 24 24
REMARK H PARENT
REMARK Flexibility Score: inf
ROOT
ATOM      1  C   UNL     1      -1.147  26.952   0.702  1.00  0.00     0.000 C 
ENDROOT
BRANCH   1   2
ATOM      2  C   UNL     1      -1.870  27.646   1.871  1.00  0.00     0.000 C 
BRANCH   2   3
ATOM      3  C   UNL     1      -3.028  26.841   2.493  1.00  0.00     0.000 C 
BRANCH   3   4
ATOM      4  C   UNL     1      -3.184  25.400   1.969  1.00  0.00    -0.000 C 
BRANCH   4   5
ATOM      5  C   UNL     1      -4.599  24.810   2.111  1.00  0.00    -0.000 C 
BRANCH   5   6
ATOM      6  C   UNL     1      -4.934  23.796   1.000  1.00  0.00    -0.000 C 
BRANCH   6   7
ATOM      7  C   UNL     1      -3.757  23.560   0.037  1.00  0.00    -0.000 C 
BRANCH   7   8
ATOM      8  C   UNL     1      -3.400  22.079  -0.183  1.00  0.00    -0.000 C 
BRANCH   8   9
ATOM      9  C   UNL     1      -1.903  21.771   0.034  1.00  0.00    -0.000 C 
BRANCH   9  10
ATOM     10  C   UNL     1      -1.048  23.048   0.045  1.00  0.00    -0.000 C 
BRANCH  10  11
ATOM     11  C   UNL     1       0.064  23.029  -1.013  1.00  0.00    -0.003 C 
ATOM     12  C   UNL     1      -0.442  23.390  -2.408  1.00  0.00     0.004 C 
ENDBRANCH  10  11
ENDBRANCH   9  10
ENDBRANCH   8   9
ENDBRANCH   7   8
ENDBRANCH   6   7
ENDBRANCH   5   6
ENDBRANCH   4   5
ENDBRANCH   3   4
ENDBRANCH   2   3
ENDBRANCH   1   2
BRANCH   1  13
ATOM     13  C   UNL     1      -0.785  27.924  -0.434  1.00  0.00     0.000 C 
BRANCH  13  14
ATOM     14  C   UNL     1      -1.646  27.716  -1.689  1.00  0.00     0.000 C 
BRANCH  14  15
ATOM     15  C   UNL     1      -2.507  26.443  -1.607  1.00  0.00     0.000 C 
BRANCH  15  16
ATOM     16  C   UNL     1      -4.013  26.746  -1.655  1.00  0.00     0.000 C 
BRANCH  16  17
ATOM     17  C   UNL     1      -4.322  28.246  -1.528  1.00  0.00     0.000 C 
BRANCH  17  18
ATOM     18  C   UNL     1      -4.875  28.578  -0.137  1.00  0.00     0.000 C 
BRANCH  18  19
ATOM     19  C   UNL     1      -4.320  29.918   0.369  1.00  0.00     0.000 C 
BRANCH  19  20
ATOM     20  C   UNL     1      -5.401  31.010   0.472  1.00  0.00     0.006 C 
BRANCH  20  21
ATOM     21  C   UNL     1      -5.378  32.031  -0.676  1.00  0.00     0.053 C 
BRANCH  21  22
ATOM     22  C   UNL     1      -6.487  31.802  -1.655  1.00  0.00     0.041 C 
ATOM     23  O   UNL     1      -6.349  32.142  -2.859  1.00  0.00    -0.550 OA
ATOM     24  O   UNL     1      -7.662  31.181  -1.244  1.00  0.00    -0.550 OA
ENDBRANCH  21  22
ENDBRANCH  20  21
ENDBRANCH  19  20
ENDBRANCH  18  19
ENDBRANCH  17  18
ENDBRANCH  16  17
ENDBRANCH  15  16
ENDBRANCH  14  15
ENDBRANCH  13  14
ENDBRANCH   1  13
TORSDOF 20
ENDMDL
MODEL 9
REMARK VINA RESULT:    -3.874      3.641      6.425
REMARK INTER + INTRA:         -11.073
REMARK INTER:                  -7.583
REMARK INTRA:                  -3.490
REMARK UNBOUND:                -2.670
REMARK SMILES CCCCCCCCCCCCCCCCCCCCCC(=O)[O-]
REMARK SMILES IDX 12 1 11 2 10 3 9 4 8 5 7 6 6 7 5 8 4 9 3 10 2 11 1 12 13 13
REMARK SMILES IDX 14 14 15 15 16 16 17 17 18 18 19 19 20 20 21 21 22 22 23 23
REMARK SMILES IDX 24 24
REMARK H PARENT
REMARK Flexibility Score: inf
ROOT
ATOM      1  C   UNL     1      -3.369  28.426  -1.848  1.00  0.00     0.000 C 
ENDROOT
BRANCH   1   2
ATOM      2  C   UNL     1      -3.893  27.056  -1.379  1.00  0.00     0.000 C 
BRANCH   2   3
ATOM      3  C   UNL     1      -2.869  25.906  -1.448  1.00  0.00     0.000 C 
BRANCH   3   4
ATOM      4  C   UNL     1      -1.585  26.215  -2.243  1.00  0.00    -0.000 C 
BRANCH   4   5
ATOM      5  C   UNL     1      -0.357  26.557  -1.381  1.00  0.00    -0.000 C 
BRANCH   5   6
ATOM      6  C   UNL     1       0.742  25.481  -1.458  1.00  0.00    -0.000 C 
BRANCH   6   7
ATOM      7  C   UNL     1       0.355  24.183  -0.727  1.00  0.00    -0.000 C 
BRANCH   7   8
ATOM      8  C   UNL     1       0.815  22.893  -1.431  1.00  0.00    -0.000 C 
BRANCH   8   9
ATOM      9  C   UNL     1      -0.291  21.821  -1.529  1.00  0.00    -0.000 C 
BRANCH   9  10
ATOM     10  C   UNL     1      -1.696  22.427  -1.387  1.00  0.00    -0.000 C 
BRANCH  10  11
ATOM     11  C   UNL     1      -2.483  21.838  -0.208  1.00  0.00    -0.003 C 
ATOM     12  C   UNL     1      -3.791  22.580   0.059  1.00  0.00     0.004 C 
ENDBRANCH  10  11
ENDBRANCH   9  10
ENDBRANCH   8   9
ENDBRANCH   7   8
ENDBRANCH   6   7
ENDBRANCH   5   6
ENDBRANCH   4   5
ENDBRANCH   3   4
ENDBRANCH   2   3
ENDBRANCH   1   2
BRANCH   1  13
ATOM     13  C   UNL     1      -2.815  29.277  -0.692  1.00  0.00     0.000 C 
BRANCH  13  14
ATOM     14  C   UNL     1      -3.734  29.274   0.539  1.00  0.00     0.000 C 
BRANCH  14  15
ATOM     15  C   UNL     1      -2.964  29.016   1.847  1.00  0.00     0.000 C 
BRANCH  15  16
ATOM     16  C   UNL     1      -1.995  27.829   1.738  1.00  0.00     0.000 C 
BRANCH  16  17
ATOM     17  C   UNL     1      -2.628  26.502   2.184  1.00  0.00     0.000 C 
BRANCH  17  18
ATOM     18  C   UNL     1      -3.519  26.704   3.416  1.00  0.00     0.000 C 
BRANCH  18  19
ATOM     19  C   UNL     1      -4.964  26.271   3.126  1.00  0.00     0.000 C 
BRANCH  19  20
ATOM     20  C   UNL     1      -5.125  25.622   1.739  1.00  0.00     0.006 C 
BRANCH  20  21
ATOM     21  C   UNL     1      -6.458  25.939   1.044  1.00  0.00     0.053 C 
BRANCH  21  22
ATOM     22  C   UNL     1      -7.496  24.894   1.312  1.00  0.00     0.041 C 
ATOM     23  O   UNL     1      -7.194  23.674   1.263  1.00  0.00    -0.550 OA
ATOM     24  O   UNL     1      -8.791  25.270   1.651  1.00  0.00    -0.550 OA
ENDBRANCH  21  22
ENDBRANCH  20  21
ENDBRANCH  19  20
ENDBRANCH  18  19
ENDBRANCH  17  18
ENDBRANCH  16  17
ENDBRANCH  15  16
ENDBRANCH  14  15
ENDBRANCH  13  14
ENDBRANCH   1  13
TORSDOF 20
ENDMDL
