MODEL 1
REMARK VINA RESULT:    -4.209      0.000      0.000
REMARK INTER + INTRA:          -5.041
REMARK INTER:                  -4.824
REMARK INTRA:                  -0.216
REMARK UNBOUND:                -0.216
REMARK SMILES CC=Cc1ccc(O)c(OC)c1
REMARK SMILES IDX 4 1 12 2 9 3 7 4 6 5 5 6 3 7 1 8 2 9 10 10 11 11 8 12
REMARK H PARENT 8 13
REMARK Flexibility Score: inf
ROOT
ATOM      1  C   UNL     1      -0.777 -25.684 -46.910  1.00  0.00    -0.022 A 
ATOM      2  C   UNL     1      -0.521 -24.496 -46.208  1.00  0.00     0.058 A 
ATOM      3  C   UNL     1       0.796 -24.145 -45.848  1.00  0.00     0.161 A 
ATOM      4  C   UNL     1       1.858 -24.990 -46.218  1.00  0.00     0.157 A 
ATOM      5  C   UNL     1       1.604 -26.158 -46.942  1.00  0.00     0.051 A 
ATOM      6  C   UNL     1       0.297 -26.501 -47.295  1.00  0.00     0.012 A 
ENDROOT
BRANCH   1   7
ATOM      7  C   UNL     1      -2.165 -26.007 -47.296  1.00  0.00     0.003 C 
ATOM      8  C   UNL     1      -2.734 -27.124 -45.122  1.00  0.00     0.035 C 
ATOM      9  C   UNL     1      -3.035 -26.666 -46.518  1.00  0.00    -0.030 C 
ENDBRANCH   1   7
BRANCH   3  10
ATOM     10  O   UNL     1       1.082 -22.973 -45.130  1.00  0.00    -0.493 OA
ATOM     11  C   UNL     1       0.106 -22.165 -44.479  1.00  0.00     0.278 C 
ENDBRANCH   3  10
BRANCH   4  12
ATOM     12  O   UNL     1       3.176 -24.682 -45.880  1.00  0.00    -0.504 OA
ATOM     13  H   UNL     1       3.546 -24.839 -44.950  1.00  0.00     0.293 HD
ENDBRANCH   4  12
TORSDOF 3
ENDMDL
MODEL 2
REMARK VINA RESULT:    -4.134     14.208     16.129
REMARK INTER + INTRA:          -4.954
REMARK INTER:                  -4.759
REMARK INTRA:                  -0.195
REMARK UNBOUND:                -0.216
REMARK SMILES CC=Cc1ccc(O)c(OC)c1
REMARK SMILES IDX 4 1 12 2 9 3 7 4 6 5 5 6 3 7 1 8 2 9 10 10 11 11 8 12
REMARK H PARENT 8 13
REMARK Flexibility Score: inf
ROOT
ATOM      1  C   UNL     1      -0.628  -9.710 -40.554  1.00  0.00    -0.022 A 
ATOM      2  C   UNL     1       0.413  -9.528 -41.475  1.00  0.00     0.058 A 
ATOM      3  C   UNL     1       1.256 -10.601 -41.828  1.00  0.00     0.161 A 
ATOM      4  C   UNL     1       1.029 -11.868 -41.259  1.00  0.00     0.157 A 
ATOM      5  C   UNL     1      -0.028 -12.054 -40.363  1.00  0.00     0.051 A 
ATOM      6  C   UNL     1      -0.858 -10.986 -40.018  1.00  0.00     0.012 A 
ENDROOT
BRANCH   1   7
ATOM      7  C   UNL     1      -1.510  -8.570 -40.229  1.00  0.00     0.003 C 
ATOM      8  C   UNL     1      -0.435  -8.098 -38.011  1.00  0.00     0.035 C 
ATOM      9  C   UNL     1      -1.447  -7.862 -39.093  1.00  0.00    -0.030 C 
ENDBRANCH   1   7
BRANCH   3  10
ATOM     10  O   UNL     1       2.318 -10.445 -42.732  1.00  0.00    -0.493 OA
ATOM     11  C   UNL     1       2.236 -10.709 -44.130  1.00  0.00     0.278 C 
ENDBRANCH   3  10
BRANCH   4  12
ATOM     12  O   UNL     1       1.840 -12.957 -41.578  1.00  0.00    -0.504 OA
ATOM     13  H   UNL     1       2.640 -13.219 -41.013  1.00  0.00     0.293 HD
ENDBRANCH   4  12
TORSDOF 3
ENDMDL
MODEL 3
REMARK VINA RESULT:    -4.126     13.609     15.607
REMARK INTER + INTRA:          -4.945
REMARK INTER:                  -4.814
REMARK INTRA:                  -0.132
REMARK UNBOUND:                -0.216
REMARK SMILES CC=Cc1ccc(O)c(OC)c1
REMARK SMILES IDX 4 1 12 2 9 3 7 4 6 5 5 6 3 7 1 8 2 9 10 10 11 11 8 12
REMARK H PARENT 8 13
REMARK Flexibility Score: inf
ROOT
ATOM      1  C   UNL     1      -0.534  -9.839 -42.279  1.00  0.00    -0.022 A 
ATOM      2  C   UNL     1      -0.546 -11.031 -41.539  1.00  0.00     0.058 A 
ATOM      3  C   UNL     1       0.660 -11.681 -41.205  1.00  0.00     0.161 A 
ATOM      4  C   UNL     1       1.882 -11.109 -41.604  1.00  0.00     0.157 A 
ATOM      5  C   UNL     1       1.892  -9.906 -42.315  1.00  0.00     0.051 A 
ATOM      6  C   UNL     1       0.695  -9.268 -42.644  1.00  0.00     0.012 A 
ENDROOT
BRANCH   1   7
ATOM      7  C   UNL     1      -1.814  -9.170 -42.587  1.00  0.00     0.003 C 
ATOM      8  C   UNL     1      -2.140  -8.259 -40.272  1.00  0.00     0.035 C 
ATOM      9  C   UNL     1      -2.546  -8.485 -41.698  1.00  0.00    -0.030 C 
ENDBRANCH   1   7
BRANCH   3  10
ATOM     10  O   UNL     1       0.679 -12.884 -40.482  1.00  0.00    -0.493 OA
ATOM     11  C   UNL     1      -0.418 -13.393 -39.729  1.00  0.00     0.278 C 
ENDBRANCH   3  10
BRANCH   4  12
ATOM     12  O   UNL     1       3.097 -11.720 -41.297  1.00  0.00    -0.504 OA
ATOM     13  H   UNL     1       3.518 -12.420 -41.896  1.00  0.00     0.293 HD
ENDBRANCH   4  12
TORSDOF 3
ENDMDL
MODEL 4
REMARK VINA RESULT:    -4.024      1.873      3.799
REMARK INTER + INTRA:          -4.829
REMARK INTER:                  -4.613
REMARK INTRA:                  -0.215
REMARK UNBOUND:                -0.216
REMARK SMILES CC=Cc1ccc(O)c(OC)c1
REMARK SMILES IDX 4 1 12 2 9 3 7 4 6 5 5 6 3 7 1 8 2 9 10 10 11 11 8 12
REMARK H PARENT 8 13
REMARK Flexibility Score: inf
ROOT
ATOM      1  C   UNL     1       0.486 -23.631 -45.454  1.00  0.00    -0.022 A 
ATOM      2  C   UNL     1      -0.395 -24.522 -46.084  1.00  0.00     0.058 A 
ATOM      3  C   UNL     1       0.096 -25.638 -46.791  1.00  0.00     0.161 A 
ATOM      4  C   UNL     1       1.484 -25.862 -46.843  1.00  0.00     0.157 A 
ATOM      5  C   UNL     1       2.359 -24.989 -46.189  1.00  0.00     0.051 A 
ATOM      6  C   UNL     1       1.866 -23.885 -45.491  1.00  0.00     0.012 A 
ENDROOT
BRANCH   1   7
ATOM      7  C   UNL     1      -0.064 -22.487 -44.697  1.00  0.00     0.003 C 
ATOM      8  C   UNL     1      -0.209 -23.725 -42.519  1.00  0.00     0.035 C 
ATOM      9  C   UNL     1      -0.396 -22.526 -43.399  1.00  0.00    -0.030 C 
ENDBRANCH   1   7
BRANCH   3  10
ATOM     10  O   UNL     1      -0.760 -26.536 -47.448  1.00  0.00    -0.493 OA
ATOM     11  C   UNL     1      -2.173 -26.581 -47.273  1.00  0.00     0.278 C 
ENDBRANCH   3  10
BRANCH   4  12
ATOM     12  O   UNL     1       2.013 -26.952 -47.533  1.00  0.00    -0.504 OA
ATOM     13  H   UNL     1       1.809 -27.123 -48.511  1.00  0.00     0.293 HD
ENDBRANCH   4  12
TORSDOF 3
ENDMDL
MODEL 5
REMARK VINA RESULT:    -4.021     14.851     16.760
REMARK INTER + INTRA:          -4.825
REMARK INTER:                  -4.600
REMARK INTRA:                  -0.225
REMARK UNBOUND:                -0.216
REMARK SMILES CC=Cc1ccc(O)c(OC)c1
REMARK SMILES IDX 4 1 12 2 9 3 7 4 6 5 5 6 3 7 1 8 2 9 10 10 11 11 8 12
REMARK H PARENT 8 13
REMARK Flexibility Score: inf
ROOT
ATOM      1  C   UNL     1      -1.191  -8.938 -39.974  1.00  0.00    -0.022 A 
ATOM      2  C   UNL     1      -0.041  -9.418 -40.617  1.00  0.00     0.058 A 
ATOM      3  C   UNL     1      -0.127 -10.471 -41.551  1.00  0.00     0.161 A 
ATOM      4  C   UNL     1      -1.386 -11.024 -41.847  1.00  0.00     0.157 A 
ATOM      5  C   UNL     1      -2.535 -10.524 -41.227  1.00  0.00     0.051 A 
ATOM      6  C   UNL     1      -2.442  -9.482 -40.302  1.00  0.00     0.012 A 
ENDROOT
BRANCH   1   7
ATOM      7  C   UNL     1      -1.067  -7.815 -39.022  1.00  0.00     0.003 C 
ATOM      8  C   UNL     1      -0.604  -9.274 -37.033  1.00  0.00     0.035 C 
ATOM      9  C   UNL     1      -0.829  -7.955 -37.710  1.00  0.00    -0.030 C 
ENDBRANCH   1   7
BRANCH   3  10
ATOM     10  O   UNL     1       1.008 -10.985 -42.197  1.00  0.00    -0.493 OA
ATOM     11  C   UNL     1       2.337 -10.513 -41.997  1.00  0.00     0.278 C 
ENDBRANCH   3  10
BRANCH   4  12
ATOM     12  O   UNL     1      -1.517 -12.068 -42.763  1.00  0.00    -0.504 OA
ATOM     13  H   UNL     1      -0.766 -12.337 -43.388  1.00  0.00     0.293 HD
ENDBRANCH   4  12
TORSDOF 3
ENDMDL
MODEL 6
REMARK VINA RESULT:    -3.974     14.093     15.760
REMARK INTER + INTRA:          -4.771
REMARK INTER:                  -4.575
REMARK INTRA:                  -0.196
REMARK UNBOUND:                -0.216
REMARK SMILES CC=Cc1ccc(O)c(OC)c1
REMARK SMILES IDX 4 1 12 2 9 3 7 4 6 5 5 6 3 7 1 8 2 9 10 10 11 11 8 12
REMARK H PARENT 8 13
REMARK Flexibility Score: inf
ROOT
ATOM      1  C   UNL     1      -0.552  -9.811 -40.492  1.00  0.00    -0.022 A 
ATOM      2  C   UNL     1       0.494  -9.623 -41.408  1.00  0.00     0.058 A 
ATOM      3  C   UNL     1       1.310 -10.705 -41.798  1.00  0.00     0.161 A 
ATOM      4  C   UNL     1       1.050 -11.984 -41.274  1.00  0.00     0.157 A 
ATOM      5  C   UNL     1      -0.011 -12.175 -40.384  1.00  0.00     0.051 A 
ATOM      6  C   UNL     1      -0.814 -11.099 -40.001  1.00  0.00     0.012 A 
ENDROOT
BRANCH   1   7
ATOM      7  C   UNL     1      -1.404  -8.661 -40.127  1.00  0.00     0.003 C 
ATOM      8  C   UNL     1      -2.946  -8.908 -42.091  1.00  0.00     0.035 C 
ATOM      9  C   UNL     1      -2.456  -8.238 -40.842  1.00  0.00    -0.030 C 
ENDBRANCH   1   7
BRANCH   3  10
ATOM     10  O   UNL     1       2.375 -10.544 -42.698  1.00  0.00    -0.493 OA
ATOM     11  C   UNL     1       2.287 -10.761 -44.103  1.00  0.00     0.278 C 
ENDBRANCH   3  10
BRANCH   4  12
ATOM     12  O   UNL     1       1.834 -13.082 -41.631  1.00  0.00    -0.504 OA
ATOM     13  H   UNL     1       1.439 -13.912 -42.056  1.00  0.00     0.293 HD
ENDBRANCH   4  12
TORSDOF 3
ENDMDL
MODEL 7
REMARK VINA RESULT:    -3.910     16.221     18.279
REMARK INTER + INTRA:          -4.697
REMARK INTER:                  -4.454
REMARK INTRA:                  -0.243
REMARK UNBOUND:                -0.216
REMARK SMILES CC=Cc1ccc(O)c(OC)c1
REMARK SMILES IDX 4 1 12 2 9 3 7 4 6 5 5 6 3 7 1 8 2 9 10 10 11 11 8 12
REMARK H PARENT 8 13
REMARK Flexibility Score: inf
ROOT
ATOM      1  C   UNL     1      -1.080  -9.300 -39.274  1.00  0.00    -0.022 A 
ATOM      2  C   UNL     1      -0.810  -9.948 -38.060  1.00  0.00     0.058 A 
ATOM      3  C   UNL     1      -0.599  -9.206 -36.881  1.00  0.00     0.161 A 
ATOM      4  C   UNL     1      -0.682  -7.802 -36.929  1.00  0.00     0.157 A 
ATOM      5  C   UNL     1      -0.980  -7.159 -38.134  1.00  0.00     0.051 A 
ATOM      6  C   UNL     1      -1.187  -7.901 -39.299  1.00  0.00     0.012 A 
ENDROOT
BRANCH   1   7
ATOM      7  C   UNL     1      -1.324 -10.111 -40.485  1.00  0.00     0.003 C 
ATOM      8  C   UNL     1       1.001  -9.843 -41.390  1.00  0.00     0.035 C 
ATOM      9  C   UNL     1      -0.413 -10.339 -41.441  1.00  0.00    -0.030 C 
ENDBRANCH   1   7
BRANCH   3  10
ATOM     10  O   UNL     1      -0.309  -9.825 -35.655  1.00  0.00    -0.493 OA
ATOM     11  C   UNL     1      -1.288 -10.331 -34.752  1.00  0.00     0.278 C 
ENDBRANCH   3  10
BRANCH   4  12
ATOM     12  O   UNL     1      -0.478  -7.028 -35.787  1.00  0.00    -0.504 OA
ATOM     13  H   UNL     1      -0.920  -6.125 -35.659  1.00  0.00     0.293 HD
ENDBRANCH   4  12
TORSDOF 3
ENDMDL
MODEL 8
REMARK VINA RESULT:    -3.871     15.568     16.930
REMARK INTER + INTRA:          -4.653
REMARK INTER:                  -4.431
REMARK INTRA:                  -0.223
REMARK UNBOUND:                -0.216
REMARK SMILES CC=Cc1ccc(O)c(OC)c1
REMARK SMILES IDX 4 1 12 2 9 3 7 4 6 5 5 6 3 7 1 8 2 9 10 10 11 11 8 12
REMARK H PARENT 8 13
REMARK Flexibility Score: inf
ROOT
ATOM      1  C   UNL     1      -2.453  -8.735 -42.098  1.00  0.00    -0.022 A 
ATOM      2  C   UNL     1      -1.221  -9.404 -42.130  1.00  0.00     0.058 A 
ATOM      3  C   UNL     1      -0.381  -9.418 -40.998  1.00  0.00     0.161 A 
ATOM      4  C   UNL     1      -0.801  -8.767 -39.824  1.00  0.00     0.157 A 
ATOM      5  C   UNL     1      -2.042  -8.125 -39.784  1.00  0.00     0.051 A 
ATOM      6  C   UNL     1      -2.869  -8.115 -40.909  1.00  0.00     0.012 A 
ENDROOT
BRANCH   1   7
ATOM      7  C   UNL     1      -3.321  -8.765 -43.293  1.00  0.00     0.003 C 
ATOM      8  C   UNL     1      -4.607 -10.794 -42.568  1.00  0.00     0.035 C 
ATOM      9  C   UNL     1      -4.265  -9.688 -43.521  1.00  0.00    -0.030 C 
ENDBRANCH   1   7
BRANCH   3  10
ATOM     10  O   UNL     1       0.866 -10.064 -41.006  1.00  0.00    -0.493 OA
ATOM     11  C   UNL     1       1.868  -9.876 -42.001  1.00  0.00     0.278 C 
ENDBRANCH   3  10
BRANCH   4  12
ATOM     12  O   UNL     1       0.000  -8.753 -38.682  1.00  0.00    -0.504 OA
ATOM     13  H   UNL     1       0.651  -9.500 -38.469  1.00  0.00     0.293 HD
ENDBRANCH   4  12
TORSDOF 3
ENDMDL
MODEL 9
REMARK VINA RESULT:    -3.814     15.188     16.710
REMARK INTER + INTRA:          -4.588
REMARK INTER:                  -4.379
REMARK INTRA:                  -0.209
REMARK UNBOUND:                -0.216
REMARK SMILES CC=Cc1ccc(O)c(OC)c1
REMARK SMILES IDX 4 1 12 2 9 3 7 4 6 5 5 6 3 7 1 8 2 9 10 10 11 11 8 12
REMARK H PARENT 8 13
REMARK Flexibility Score: inf
ROOT
ATOM      1  C   UNL     1      -0.327 -10.039 -41.033  1.00  0.00    -0.022 A 
ATOM      2  C   UNL     1      -0.375  -9.227 -39.890  1.00  0.00     0.058 A 
ATOM      3  C   UNL     1      -0.921  -9.714 -38.685  1.00  0.00     0.161 A 
ATOM      4  C   UNL     1      -1.403 -11.035 -38.634  1.00  0.00     0.157 A 
ATOM      5  C   UNL     1      -1.328 -11.852 -39.766  1.00  0.00     0.051 A 
ATOM      6  C   UNL     1      -0.786 -11.363 -40.956  1.00  0.00     0.012 A 
ENDROOT
BRANCH   1   7
ATOM      7  C   UNL     1       0.278  -9.506 -42.270  1.00  0.00     0.003 C 
ATOM      8  C   UNL     1       2.559 -10.445 -41.811  1.00  0.00     0.035 C 
ATOM      9  C   UNL     1       1.564  -9.662 -42.614  1.00  0.00    -0.030 C 
ENDBRANCH   1   7
BRANCH   3  10
ATOM     10  O   UNL     1      -0.999  -8.919 -37.531  1.00  0.00    -0.493 OA
ATOM     11  C   UNL     1      -0.432  -7.618 -37.404  1.00  0.00     0.278 C 
ENDBRANCH   3  10
BRANCH   4  12
ATOM     12  O   UNL     1      -1.954 -11.556 -37.464  1.00  0.00    -0.504 OA
ATOM     13  H   UNL     1      -2.525 -12.392 -37.461  1.00  0.00     0.293 HD
ENDBRANCH   4  12
TORSDOF 3
ENDMDL
