MODEL 1
REMARK VINA RESULT:    -3.620      0.000      0.000
REMARK INTER + INTRA:          -7.741
REMARK INTER:                  -6.371
REMARK INTRA:                  -1.369
REMARK UNBOUND:                -1.369
REMARK SMILES CCCCCCC=CCCCCCCCC(=O)[O-]
REMARK SMILES IDX 10 1 11 2 12 3 13 4 14 5 15 6 16 7 17 8 18 9 9 10 8 11 7 12
REMARK SMILES IDX 6 13 5 14 4 15 3 16 2 17 1 18
REMARK H PARENT
REMARK Flexibility Score: inf
ROOT
ATOM      1  C   UNL     1       1.673   5.164   5.005  1.00  0.00     0.004 C 
ENDROOT
BRANCH   1   2
ATOM      2  C   UNL     1       1.026   3.846   5.467  1.00  0.00     0.000 C 
BRANCH   2   3
ATOM      3  C   UNL     1       1.265   3.481   6.946  1.00  0.00     0.000 C 
BRANCH   3   4
ATOM      4  C   UNL     1       0.730   2.102   7.372  1.00  0.00     0.000 C 
BRANCH   4   5
ATOM      5  C   UNL     1      -0.683   2.171   7.976  1.00  0.00     0.006 C 
BRANCH   5   6
ATOM      6  C   UNL     1      -1.621   1.115   7.375  1.00  0.00     0.053 C 
BRANCH   6   7
ATOM      7  C   UNL     1      -1.557   1.106   5.878  1.00  0.00     0.041 C 
ATOM      8  O   UNL     1      -2.069   2.048   5.218  1.00  0.00    -0.550 OA
ATOM      9  O   UNL     1      -0.964   0.042   5.212  1.00  0.00    -0.550 OA
ENDBRANCH   6   7
ENDBRANCH   5   6
ENDBRANCH   4   5
ENDBRANCH   3   4
ENDBRANCH   2   3
ENDBRANCH   1   2
BRANCH   1  10
ATOM     10  C   UNL     1       2.976   5.482   5.754  1.00  0.00     0.027 C 
BRANCH  10  11
ATOM     11  C   UNL     1       3.002   6.916   6.208  1.00  0.00    -0.031 C 
ATOM     12  C   UNL     1       1.889   7.664   6.237  1.00  0.00    -0.031 C 
BRANCH  12  13
ATOM     13  C   UNL     1       1.918   9.098   6.692  1.00  0.00     0.027 C 
BRANCH  13  14
ATOM     14  C   UNL     1       1.164  10.005   5.708  1.00  0.00     0.004 C 
BRANCH  14  15
ATOM     15  C   UNL     1      -0.339  10.115   6.026  1.00  0.00     0.000 C 
BRANCH  15  16
ATOM     16  C   UNL     1      -1.275   9.651   4.896  1.00  0.00    -0.000 C 
BRANCH  16  17
ATOM     17  C   UNL     1      -0.521   9.047   3.703  1.00  0.00    -0.003 C 
ATOM     18  C   UNL     1      -0.775   7.546   3.594  1.00  0.00     0.004 C 
ENDBRANCH  16  17
ENDBRANCH  15  16
ENDBRANCH  14  15
ENDBRANCH  13  14
ENDBRANCH  12  13
ENDBRANCH  10  11
ENDBRANCH   1  10
TORSDOF 13
ENDMDL
MODEL 2
REMARK VINA RESULT:    -3.599      3.361      5.745
REMARK INTER + INTRA:          -7.703
REMARK INTER:                  -6.622
REMARK INTRA:                  -1.080
REMARK UNBOUND:                -1.369
REMARK SMILES CCCCCCC=CCCCCCCCC(=O)[O-]
REMARK SMILES IDX 10 1 11 2 12 3 13 4 14 5 15 6 16 7 17 8 18 9 9 10 8 11 7 12
REMARK SMILES IDX 6 13 5 14 4 15 3 16 2 17 1 18
REMARK H PARENT
REMARK Flexibility Score: inf
ROOT
ATOM      1  C   UNL     1       0.478   9.867   6.137  1.00  0.00     0.004 C 
ENDROOT
BRANCH   1   2
ATOM      2  C   UNL     1       1.944   9.789   6.599  1.00  0.00     0.000 C 
BRANCH   2   3
ATOM      3  C   UNL     1       2.491   8.363   6.810  1.00  0.00     0.000 C 
BRANCH   3   4
ATOM      4  C   UNL     1       3.478   7.877   5.734  1.00  0.00     0.000 C 
BRANCH   4   5
ATOM      5  C   UNL     1       3.416   6.356   5.511  1.00  0.00     0.006 C 
BRANCH   5   6
ATOM      6  C   UNL     1       2.023   5.784   5.807  1.00  0.00     0.053 C 
BRANCH   6   7
ATOM      7  C   UNL     1       1.319   5.365   4.552  1.00  0.00     0.041 C 
ATOM      8  O   UNL     1       0.807   4.218   4.467  1.00  0.00    -0.550 OA
ATOM      9  O   UNL     1       1.258   6.228   3.465  1.00  0.00    -0.550 OA
ENDBRANCH   6   7
ENDBRANCH   5   6
ENDBRANCH   4   5
ENDBRANCH   3   4
ENDBRANCH   2   3
ENDBRANCH   1   2
BRANCH   1  10
ATOM     10  C   UNL     1       0.277   9.355   4.703  1.00  0.00     0.027 C 
BRANCH  10  11
ATOM     11  C   UNL     1      -1.184   9.274   4.357  1.00  0.00    -0.031 C 
ATOM     12  C   UNL     1      -2.107   9.967   5.040  1.00  0.00    -0.031 C 
BRANCH  12  13
ATOM     13  C   UNL     1      -3.568   9.886   4.692  1.00  0.00     0.027 C 
BRANCH  13  14
ATOM     14  C   UNL     1      -3.989   8.436   4.408  1.00  0.00     0.004 C 
BRANCH  14  15
ATOM     15  C   UNL     1      -4.990   8.320   3.243  1.00  0.00     0.000 C 
BRANCH  15  16
ATOM     16  C   UNL     1      -5.654   9.644   2.826  1.00  0.00    -0.000 C 
BRANCH  16  17
ATOM     17  C   UNL     1      -7.187   9.562   2.796  1.00  0.00    -0.003 C 
ATOM     18  C   UNL     1      -7.711   9.587   1.363  1.00  0.00     0.004 C 
ENDBRANCH  16  17
ENDBRANCH  15  16
ENDBRANCH  14  15
ENDBRANCH  13  14
ENDBRANCH  12  13
ENDBRANCH  10  11
ENDBRANCH   1  10
TORSDOF 13
ENDMDL
MODEL 3
REMARK VINA RESULT:    -3.596     13.512     14.916
REMARK INTER + INTRA:          -7.697
REMARK INTER:                  -6.810
REMARK INTRA:                  -0.887
REMARK UNBOUND:                -1.369
REMARK SMILES CCCCCCC=CCCCCCCCC(=O)[O-]
REMARK SMILES IDX 10 1 11 2 12 3 13 4 14 5 15 6 16 7 17 8 18 9 9 10 8 11 7 12
REMARK SMILES IDX 6 13 5 14 4 15 3 16 2 17 1 18
REMARK H PARENT
REMARK Flexibility Score: inf
ROOT
ATOM      1  C   UNL     1       0.779  -3.272  -4.444  1.00  0.00     0.004 C 
ENDROOT
BRANCH   1   2
ATOM      2  C   UNL     1       2.307  -3.416  -4.333  1.00  0.00     0.000 C 
BRANCH   2   3
ATOM      3  C   UNL     1       3.092  -2.089  -4.308  1.00  0.00     0.000 C 
BRANCH   3   4
ATOM      4  C   UNL     1       4.430  -2.108  -5.070  1.00  0.00     0.000 C 
BRANCH   4   5
ATOM      5  C   UNL     1       4.267  -1.808  -6.570  1.00  0.00     0.006 C 
BRANCH   5   6
ATOM      6  C   UNL     1       5.362  -0.870  -7.095  1.00  0.00     0.053 C 
BRANCH   6   7
ATOM      7  C   UNL     1       4.850   0.524  -7.290  1.00  0.00     0.041 C 
ATOM      8  O   UNL     1       5.657   1.481  -7.422  1.00  0.00    -0.550 OA
ATOM      9  O   UNL     1       3.483   0.772  -7.290  1.00  0.00    -0.550 OA
ENDBRANCH   6   7
ENDBRANCH   5   6
ENDBRANCH   4   5
ENDBRANCH   3   4
ENDBRANCH   2   3
ENDBRANCH   1   2
BRANCH   1  10
ATOM     10  C   UNL     1       0.356  -2.094  -5.334  1.00  0.00     0.027 C 
BRANCH  10  11
ATOM     11  C   UNL     1      -1.104  -1.778  -5.155  1.00  0.00    -0.031 C 
ATOM     12  C   UNL     1      -2.044  -2.731  -5.236  1.00  0.00    -0.031 C 
BRANCH  12  13
ATOM     13  C   UNL     1      -3.503  -2.413  -5.057  1.00  0.00     0.027 C 
BRANCH  13  14
ATOM     14  C   UNL     1      -3.725  -0.901  -4.896  1.00  0.00     0.004 C 
BRANCH  14  15
ATOM     15  C   UNL     1      -5.011  -0.408  -5.583  1.00  0.00     0.000 C 
BRANCH  15  16
ATOM     16  C   UNL     1      -5.609  -1.382  -6.614  1.00  0.00    -0.000 C 
BRANCH  16  17
ATOM     17  C   UNL     1      -6.132  -0.675  -7.873  1.00  0.00    -0.003 C 
ATOM     18  C   UNL     1      -5.888   0.830  -7.801  1.00  0.00     0.004 C 
ENDBRANCH  16  17
ENDBRANCH  15  16
ENDBRANCH  14  15
ENDBRANCH  13  14
ENDBRANCH  12  13
ENDBRANCH  10  11
ENDBRANCH   1  10
TORSDOF 13
ENDMDL
MODEL 4
REMARK VINA RESULT:    -3.521     13.459     15.223
REMARK INTER + INTRA:          -7.566
REMARK INTER:                  -6.710
REMARK INTRA:                  -0.857
REMARK UNBOUND:                -1.369
REMARK SMILES CCCCCCC=CCCCCCCCC(=O)[O-]
REMARK SMILES IDX 10 1 11 2 12 3 13 4 14 5 15 6 16 7 17 8 18 9 9 10 8 11 7 12
REMARK SMILES IDX 6 13 5 14 4 15 3 16 2 17 1 18
REMARK H PARENT
REMARK Flexibility Score: inf
ROOT
ATOM      1  C   UNL     1       3.275  -1.916  -6.131  1.00  0.00     0.004 C 
ENDROOT
BRANCH   1   2
ATOM      2  C   UNL     1       4.202  -2.149  -7.338  1.00  0.00     0.000 C 
BRANCH   2   3
ATOM      3  C   UNL     1       5.628  -2.619  -6.989  1.00  0.00     0.000 C 
BRANCH   3   4
ATOM      4  C   UNL     1       6.757  -1.687  -7.464  1.00  0.00     0.000 C 
BRANCH   4   5
ATOM      5  C   UNL     1       6.234  -0.349  -8.015  1.00  0.00     0.006 C 
BRANCH   5   6
ATOM      6  C   UNL     1       6.452   0.807  -7.030  1.00  0.00     0.053 C 
BRANCH   6   7
ATOM      7  C   UNL     1       5.163   1.259  -6.414  1.00  0.00     0.041 C 
ATOM      8  O   UNL     1       4.110   1.290  -7.103  1.00  0.00    -0.550 OA
ATOM      9  O   UNL     1       5.133   1.679  -5.090  1.00  0.00    -0.550 OA
ENDBRANCH   6   7
ENDBRANCH   5   6
ENDBRANCH   4   5
ENDBRANCH   3   4
ENDBRANCH   2   3
ENDBRANCH   1   2
BRANCH   1  10
ATOM     10  C   UNL     1       1.805  -1.731  -6.536  1.00  0.00     0.027 C 
BRANCH  10  11
ATOM     11  C   UNL     1       0.882  -2.288  -5.488  1.00  0.00    -0.031 C 
ATOM     12  C   UNL     1      -0.420  -1.964  -5.454  1.00  0.00    -0.031 C 
BRANCH  12  13
ATOM     13  C   UNL     1      -1.342  -2.522  -4.406  1.00  0.00     0.027 C 
BRANCH  13  14
ATOM     14  C   UNL     1      -2.650  -3.029  -5.032  1.00  0.00     0.004 C 
BRANCH  14  15
ATOM     15  C   UNL     1      -3.841  -2.976  -4.058  1.00  0.00     0.000 C 
BRANCH  15  16
ATOM     16  C   UNL     1      -5.136  -2.389  -4.648  1.00  0.00    -0.000 C 
BRANCH  16  17
ATOM     17  C   UNL     1      -4.884  -1.488  -5.866  1.00  0.00    -0.003 C 
ATOM     18  C   UNL     1      -4.900  -0.014  -5.471  1.00  0.00     0.004 C 
ENDBRANCH  16  17
ENDBRANCH  15  16
ENDBRANCH  14  15
ENDBRANCH  13  14
ENDBRANCH  12  13
ENDBRANCH  10  11
ENDBRANCH   1  10
TORSDOF 13
ENDMDL
MODEL 5
REMARK VINA RESULT:    -3.515     15.653     17.701
REMARK INTER + INTRA:          -7.556
REMARK INTER:                  -5.496
REMARK INTRA:                  -2.060
REMARK UNBOUND:                -1.369
REMARK SMILES CCCCCCC=CCCCCCCCC(=O)[O-]
REMARK SMILES IDX 10 1 11 2 12 3 13 4 14 5 15 6 16 7 17 8 18 9 9 10 8 11 7 12
REMARK SMILES IDX 6 13 5 14 4 15 3 16 2 17 1 18
REMARK H PARENT
REMARK Flexibility Score: inf
ROOT
ATOM      1  C   UNL     1      -9.813  -5.473  -0.226  1.00  0.00     0.004 C 
ENDROOT
BRANCH   1   2
ATOM      2  C   UNL     1     -10.054  -5.594  -1.742  1.00  0.00     0.000 C 
BRANCH   2   3
ATOM      3  C   UNL     1      -8.925  -5.035  -2.632  1.00  0.00     0.000 C 
BRANCH   3   4
ATOM      4  C   UNL     1      -8.241  -6.069  -3.544  1.00  0.00     0.000 C 
BRANCH   4   5
ATOM      5  C   UNL     1      -8.879  -7.466  -3.446  1.00  0.00     0.006 C 
BRANCH   5   6
ATOM      6  C   UNL     1      -7.873  -8.530  -2.989  1.00  0.00     0.053 C 
BRANCH   6   7
ATOM      7  C   UNL     1      -6.822  -8.781  -4.028  1.00  0.00     0.041 C 
ATOM      8  O   UNL     1      -5.617  -8.508  -3.787  1.00  0.00    -0.550 OA
ATOM      9  O   UNL     1      -7.178  -9.284  -5.273  1.00  0.00    -0.550 OA
ENDBRANCH   6   7
ENDBRANCH   5   6
ENDBRANCH   4   5
ENDBRANCH   3   4
ENDBRANCH   2   3
ENDBRANCH   1   2
BRANCH   1  10
ATOM     10  C   UNL     1      -8.322  -5.447   0.140  1.00  0.00     0.027 C 
BRANCH  10  11
ATOM     11  C   UNL     1      -7.810  -6.832   0.421  1.00  0.00    -0.031 C 
ATOM     12  C   UNL     1      -8.641  -7.841   0.726  1.00  0.00    -0.031 C 
BRANCH  12  13
ATOM     13  C   UNL     1      -8.126  -9.226   1.007  1.00  0.00     0.027 C 
BRANCH  13  14
ATOM     14  C   UNL     1      -8.325  -9.602   2.483  1.00  0.00     0.004 C 
BRANCH  14  15
ATOM     15  C   UNL     1      -9.452  -8.799   3.159  1.00  0.00     0.000 C 
BRANCH  15  16
ATOM     16  C   UNL     1      -9.075  -8.163   4.508  1.00  0.00    -0.000 C 
BRANCH  16  17
ATOM     17  C   UNL     1      -9.097  -6.628   4.474  1.00  0.00    -0.003 C 
ATOM     18  C   UNL     1     -10.121  -6.115   3.465  1.00  0.00     0.004 C 
ENDBRANCH  16  17
ENDBRANCH  15  16
ENDBRANCH  14  15
ENDBRANCH  13  14
ENDBRANCH  12  13
ENDBRANCH  10  11
ENDBRANCH   1  10
TORSDOF 13
ENDMDL
MODEL 6
REMARK VINA RESULT:    -3.487      3.149      5.942
REMARK INTER + INTRA:          -7.506
REMARK INTER:                  -5.859
REMARK INTRA:                  -1.647
REMARK UNBOUND:                -1.369
REMARK SMILES CCCCCCC=CCCCCCCCC(=O)[O-]
REMARK SMILES IDX 10 1 11 2 12 3 13 4 14 5 15 6 16 7 17 8 18 9 9 10 8 11 7 12
REMARK SMILES IDX 6 13 5 14 4 15 3 16 2 17 1 18
REMARK H PARENT
REMARK Flexibility Score: inf
ROOT
ATOM      1  C   UNL     1      -2.159   9.766   3.880  1.00  0.00     0.004 C 
ENDROOT
BRANCH   1   2
ATOM      2  C   UNL     1      -3.445   9.473   4.675  1.00  0.00     0.000 C 
BRANCH   2   3
ATOM      3  C   UNL     1      -4.116   8.121   4.362  1.00  0.00     0.000 C 
BRANCH   3   4
ATOM      4  C   UNL     1      -4.979   8.100   3.087  1.00  0.00     0.000 C 
BRANCH   4   5
ATOM      5  C   UNL     1      -4.808   6.806   2.272  1.00  0.00     0.006 C 
BRANCH   5   6
ATOM      6  C   UNL     1      -3.699   5.909   2.837  1.00  0.00     0.053 C 
BRANCH   6   7
ATOM      7  C   UNL     1      -3.936   4.466   2.511  1.00  0.00     0.041 C 
ATOM      8  O   UNL     1      -4.675   3.763   3.249  1.00  0.00    -0.550 OA
ATOM      9  O   UNL     1      -3.314   3.888   1.411  1.00  0.00    -0.550 OA
ENDBRANCH   6   7
ENDBRANCH   5   6
ENDBRANCH   4   5
ENDBRANCH   3   4
ENDBRANCH   2   3
ENDBRANCH   1   2
BRANCH   1  10
ATOM     10  C   UNL     1      -0.883   9.466   4.680  1.00  0.00     0.027 C 
BRANCH  10  11
ATOM     11  C   UNL     1      -0.032   8.445   3.977  1.00  0.00    -0.031 C 
ATOM     12  C   UNL     1      -0.405   7.159   3.888  1.00  0.00    -0.031 C 
BRANCH  12  13
ATOM     13  C   UNL     1       0.448   6.140   3.184  1.00  0.00     0.027 C 
BRANCH  13  14
ATOM     14  C   UNL     1       1.102   5.178   4.188  1.00  0.00     0.004 C 
BRANCH  14  15
ATOM     15  C   UNL     1       2.492   5.650   4.653  1.00  0.00     0.000 C 
BRANCH  15  16
ATOM     16  C   UNL     1       2.523   6.291   6.052  1.00  0.00    -0.000 C 
BRANCH  16  17
ATOM     17  C   UNL     1       3.027   7.741   6.036  1.00  0.00    -0.003 C 
ATOM     18  C   UNL     1       2.209   8.618   6.981  1.00  0.00     0.004 C 
ENDBRANCH  16  17
ENDBRANCH  15  16
ENDBRANCH  14  15
ENDBRANCH  13  14
ENDBRANCH  12  13
ENDBRANCH  10  11
ENDBRANCH   1  10
TORSDOF 13
ENDMDL
MODEL 7
REMARK VINA RESULT:    -3.481      3.689      6.265
REMARK INTER + INTRA:          -7.495
REMARK INTER:                  -6.129
REMARK INTRA:                  -1.366
REMARK UNBOUND:                -1.369
REMARK SMILES CCCCCCC=CCCCCCCCC(=O)[O-]
REMARK SMILES IDX 10 1 11 2 12 3 13 4 14 5 15 6 16 7 17 8 18 9 9 10 8 11 7 12
REMARK SMILES IDX 6 13 5 14 4 15 3 16 2 17 1 18
REMARK H PARENT
REMARK Flexibility Score: inf
ROOT
ATOM      1  C   UNL     1       1.221  10.056   5.696  1.00  0.00     0.004 C 
ENDROOT
BRANCH   1   2
ATOM      2  C   UNL     1      -0.315   9.967   5.722  1.00  0.00     0.000 C 
BRANCH   2   3
ATOM      3  C   UNL     1      -0.950   9.232   4.524  1.00  0.00     0.000 C 
BRANCH   3   4
ATOM      4  C   UNL     1      -2.216   9.894   3.949  1.00  0.00     0.000 C 
BRANCH   4   5
ATOM      5  C   UNL     1      -3.495   9.490   4.703  1.00  0.00     0.006 C 
BRANCH   5   6
ATOM      6  C   UNL     1      -4.146   8.236   4.106  1.00  0.00     0.053 C 
BRANCH   6   7
ATOM      7  C   UNL     1      -5.329   8.580   3.252  1.00  0.00     0.041 C 
ATOM      8  O   UNL     1      -5.768   9.760   3.226  1.00  0.00    -0.550 OA
ATOM      9  O   UNL     1      -5.966   7.592   2.513  1.00  0.00    -0.550 OA
ENDBRANCH   6   7
ENDBRANCH   5   6
ENDBRANCH   4   5
ENDBRANCH   3   4
ENDBRANCH   2   3
ENDBRANCH   1   2
BRANCH   1  10
ATOM     10  C   UNL     1       1.869   9.562   6.998  1.00  0.00     0.027 C 
BRANCH  10  11
ATOM     11  C   UNL     1       2.929   8.532   6.718  1.00  0.00    -0.031 C 
ATOM     12  C   UNL     1       2.828   7.684   5.684  1.00  0.00    -0.031 C 
BRANCH  12  13
ATOM     13  C   UNL     1       3.890   6.655   5.406  1.00  0.00     0.027 C 
BRANCH  13  14
ATOM     14  C   UNL     1       3.273   5.262   5.210  1.00  0.00     0.004 C 
BRANCH  14  15
ATOM     15  C   UNL     1       1.763   5.227   5.513  1.00  0.00     0.000 C 
BRANCH  15  16
ATOM     16  C   UNL     1       0.874   4.816   4.325  1.00  0.00    -0.000 C 
BRANCH  16  17
ATOM     17  C   UNL     1       0.176   6.009   3.658  1.00  0.00    -0.003 C 
ATOM     18  C   UNL     1       1.032   6.589   2.535  1.00  0.00     0.004 C 
ENDBRANCH  16  17
ENDBRANCH  15  16
ENDBRANCH  14  15
ENDBRANCH  13  14
ENDBRANCH  12  13
ENDBRANCH  10  11
ENDBRANCH   1  10
TORSDOF 13
ENDMDL
MODEL 8
REMARK VINA RESULT:    -3.445      3.537      6.259
REMARK INTER + INTRA:          -7.433
REMARK INTER:                  -5.734
REMARK INTRA:                  -1.699
REMARK UNBOUND:                -1.369
REMARK SMILES CCCCCCC=CCCCCCCCC(=O)[O-]
REMARK SMILES IDX 10 1 11 2 12 3 13 4 14 5 15 6 16 7 17 8 18 9 9 10 8 11 7 12
REMARK SMILES IDX 6 13 5 14 4 15 3 16 2 17 1 18
REMARK H PARENT
REMARK Flexibility Score: inf
ROOT
ATOM      1  C   UNL     1      -1.568   8.773   4.328  1.00  0.00     0.004 C 
ENDROOT
BRANCH   1   2
ATOM      2  C   UNL     1      -2.266  10.036   4.864  1.00  0.00     0.000 C 
BRANCH   2   3
ATOM      3  C   UNL     1      -3.798  10.064   4.688  1.00  0.00     0.000 C 
BRANCH   3   4
ATOM      4  C   UNL     1      -4.291   9.874   3.242  1.00  0.00     0.000 C 
BRANCH   4   5
ATOM      5  C   UNL     1      -5.574   9.029   3.155  1.00  0.00     0.006 C 
BRANCH   5   6
ATOM      6  C   UNL     1      -5.410   7.823   2.222  1.00  0.00     0.053 C 
BRANCH   6   7
ATOM      7  C   UNL     1      -4.272   6.945   2.646  1.00  0.00     0.041 C 
ATOM      8  O   UNL     1      -3.305   6.741   1.865  1.00  0.00    -0.550 OA
ATOM      9  O   UNL     1      -4.294   6.326   3.889  1.00  0.00    -0.550 OA
ENDBRANCH   6   7
ENDBRANCH   5   6
ENDBRANCH   4   5
ENDBRANCH   3   4
ENDBRANCH   2   3
ENDBRANCH   1   2
BRANCH   1  10
ATOM     10  C   UNL     1      -0.752   9.039   3.054  1.00  0.00     0.027 C 
BRANCH  10  11
ATOM     11  C   UNL     1       0.675   9.379   3.387  1.00  0.00    -0.031 C 
ATOM     12  C   UNL     1       1.125   9.362   4.650  1.00  0.00    -0.031 C 
BRANCH  12  13
ATOM     13  C   UNL     1       2.553   9.702   4.980  1.00  0.00     0.027 C 
BRANCH  13  14
ATOM     14  C   UNL     1       3.266   8.513   5.641  1.00  0.00     0.004 C 
BRANCH  14  15
ATOM     15  C   UNL     1       2.290   7.505   6.273  1.00  0.00     0.000 C 
BRANCH  15  16
ATOM     16  C   UNL     1       2.394   6.071   5.723  1.00  0.00    -0.000 C 
BRANCH  16  17
ATOM     17  C   UNL     1       1.337   5.762   4.653  1.00  0.00    -0.003 C 
ATOM     18  C   UNL     1       1.934   5.845   3.250  1.00  0.00     0.004 C 
ENDBRANCH  16  17
ENDBRANCH  15  16
ENDBRANCH  14  15
ENDBRANCH  13  14
ENDBRANCH  12  13
ENDBRANCH  10  11
ENDBRANCH   1  10
TORSDOF 13
ENDMDL
MODEL 9
REMARK VINA RESULT:    -3.410      9.609     12.205
REMARK INTER + INTRA:          -7.371
REMARK INTER:                  -5.240
REMARK INTRA:                  -2.131
REMARK UNBOUND:                -1.369
REMARK SMILES CCCCCCC=CCCCCCCCC(=O)[O-]
REMARK SMILES IDX 10 1 11 2 12 3 13 4 14 5 15 6 16 7 17 8 18 9 9 10 8 11 7 12
REMARK SMILES IDX 6 13 5 14 4 15 3 16 2 17 1 18
REMARK H PARENT
REMARK Flexibility Score: inf
ROOT
ATOM      1  C   UNL     1      -8.423  -4.098  10.691  1.00  0.00     0.004 C 
ENDROOT
BRANCH   1   2
ATOM      2  C   UNL     1      -9.336  -3.969   9.458  1.00  0.00     0.000 C 
BRANCH   2   3
ATOM      3  C   UNL     1      -8.659  -4.277   8.107  1.00  0.00     0.000 C 
BRANCH   3   4
ATOM      4  C   UNL     1      -8.220  -3.042   7.301  1.00  0.00     0.000 C 
BRANCH   4   5
ATOM      5  C   UNL     1      -8.580  -1.717   7.995  1.00  0.00     0.006 C 
BRANCH   5   6
ATOM      6  C   UNL     1      -7.336  -0.961   8.480  1.00  0.00     0.053 C 
BRANCH   6   7
ATOM      7  C   UNL     1      -7.041   0.229   7.619  1.00  0.00     0.041 C 
ATOM      8  O   UNL     1      -5.885   0.398   7.150  1.00  0.00    -0.550 OA
ATOM      9  O   UNL     1      -8.032   1.167   7.363  1.00  0.00    -0.550 OA
ENDBRANCH   6   7
ENDBRANCH   5   6
ENDBRANCH   4   5
ENDBRANCH   3   4
ENDBRANCH   2   3
ENDBRANCH   1   2
BRANCH   1  10
ATOM     10  C   UNL     1      -8.958  -3.331  11.910  1.00  0.00     0.027 C 
BRANCH  10  11
ATOM     11  C   UNL     1      -8.662  -1.861  11.797  1.00  0.00    -0.031 C 
ATOM     12  C   UNL     1      -9.630  -0.966  11.547  1.00  0.00    -0.031 C 
BRANCH  12  13
ATOM     13  C   UNL     1      -9.331   0.504  11.435  1.00  0.00     0.027 C 
BRANCH  13  14
ATOM     14  C   UNL     1      -7.998   0.851  12.114  1.00  0.00     0.004 C 
BRANCH  14  15
ATOM     15  C   UNL     1      -6.960   1.429  11.134  1.00  0.00     0.000 C 
BRANCH  15  16
ATOM     16  C   UNL     1      -5.497   1.078  11.459  1.00  0.00    -0.000 C 
BRANCH  16  17
ATOM     17  C   UNL     1      -5.345  -0.298  12.124  1.00  0.00    -0.003 C 
ATOM     18  C   UNL     1      -4.983  -1.368  11.097  1.00  0.00     0.004 C 
ENDBRANCH  16  17
ENDBRANCH  15  16
ENDBRANCH  14  15
ENDBRANCH  13  14
ENDBRANCH  12  13
ENDBRANCH  10  11
ENDBRANCH   1  10
TORSDOF 13
ENDMDL
