MODEL 1
REMARK VINA RESULT:    -5.032      0.000      0.000
REMARK INTER + INTRA:          -7.109
REMARK INTER:                  -6.797
REMARK INTRA:                  -0.312
REMARK UNBOUND:                -0.312
REMARK SMILES CCCCCCCC(=O)[O-]
REMARK SMILES IDX 5 1 6 2 7 3 8 4 9 5 10 6 4 7 3 8 2 9 1 10
REMARK H PARENT
REMARK Flexibility Score: inf
ROOT
ATOM      1  C   UNL     1       2.455   5.581  19.592  1.00  0.00     0.000 C 
ENDROOT
BRANCH   1   2
ATOM      2  C   UNL     1       2.770   4.355  18.721  1.00  0.00     0.006 C 
BRANCH   2   3
ATOM      3  C   UNL     1       2.710   4.676  17.222  1.00  0.00     0.053 C 
BRANCH   3   4
ATOM      4  C   UNL     1       3.368   3.612  16.398  1.00  0.00     0.041 C 
ATOM      5  O   UNL     1       3.383   2.419  16.799  1.00  0.00    -0.550 OA
ATOM      6  O   UNL     1       3.935   3.932  15.171  1.00  0.00    -0.550 OA
ENDBRANCH   3   4
ENDBRANCH   2   3
ENDBRANCH   1   2
BRANCH   1   7
ATOM      7  C   UNL     1       2.032   6.775  18.725  1.00  0.00     0.000 C 
BRANCH   7   8
ATOM      8  C   UNL     1       2.095   8.110  19.484  1.00  0.00    -0.000 C 
BRANCH   8   9
ATOM      9  C   UNL     1       2.459   9.293  18.574  1.00  0.00    -0.003 C 
ATOM     10  C   UNL     1       3.295   8.832  17.383  1.00  0.00     0.004 C 
ENDBRANCH   8   9
ENDBRANCH   7   8
ENDBRANCH   1   7
TORSDOF 6
ENDMDL
MODEL 2
REMARK VINA RESULT:    -4.794      1.894      2.477
REMARK INTER + INTRA:          -6.787
REMARK INTER:                  -6.540
REMARK INTRA:                  -0.247
REMARK UNBOUND:                -0.312
REMARK SMILES CCCCCCCC(=O)[O-]
REMARK SMILES IDX 5 1 6 2 7 3 8 4 9 5 10 6 4 7 3 8 2 9 1 10
REMARK H PARENT
REMARK Flexibility Score: inf
ROOT
ATOM      1  C   UNL     1       2.385   6.724  18.093  1.00  0.00     0.000 C 
ENDROOT
BRANCH   1   2
ATOM      2  C   UNL     1       2.524   5.194  18.129  1.00  0.00     0.006 C 
BRANCH   2   3
ATOM      3  C   UNL     1       2.725   4.663  19.554  1.00  0.00     0.053 C 
BRANCH   3   4
ATOM      4  C   UNL     1       2.581   3.173  19.618  1.00  0.00     0.041 C 
ATOM      5  O   UNL     1       1.541   2.657  20.107  1.00  0.00    -0.550 OA
ATOM      6  O   UNL     1       3.580   2.354  19.108  1.00  0.00    -0.550 OA
ENDBRANCH   3   4
ENDBRANCH   2   3
ENDBRANCH   1   2
BRANCH   1   7
ATOM      7  C   UNL     1       2.184   7.290  19.506  1.00  0.00     0.000 C 
BRANCH   7   8
ATOM      8  C   UNL     1       1.875   8.796  19.503  1.00  0.00    -0.000 C 
BRANCH   8   9
ATOM      9  C   UNL     1       2.746   9.577  18.507  1.00  0.00    -0.003 C 
ATOM     10  C   UNL     1       3.855  10.338  19.228  1.00  0.00     0.004 C 
ENDBRANCH   8   9
ENDBRANCH   7   8
ENDBRANCH   1   7
TORSDOF 6
ENDMDL
MODEL 3
REMARK VINA RESULT:    -4.704      1.381      2.389
REMARK INTER + INTRA:          -6.666
REMARK INTER:                  -6.332
REMARK INTRA:                  -0.334
REMARK UNBOUND:                -0.312
REMARK SMILES CCCCCCCC(=O)[O-]
REMARK SMILES IDX 5 1 6 2 7 3 8 4 9 5 10 6 4 7 3 8 2 9 1 10
REMARK H PARENT
REMARK Flexibility Score: inf
ROOT
ATOM      1  C   UNL     1       2.078   7.867  19.475  1.00  0.00     0.000 C 
ENDROOT
BRANCH   1   2
ATOM      2  C   UNL     1       2.115   6.557  18.673  1.00  0.00     0.006 C 
BRANCH   2   3
ATOM      3  C   UNL     1       2.526   5.358  19.538  1.00  0.00     0.053 C 
BRANCH   3   4
ATOM      4  C   UNL     1       2.688   4.112  18.722  1.00  0.00     0.041 C 
ATOM      5  O   UNL     1       2.479   2.984  19.241  1.00  0.00    -0.550 OA
ATOM      6  O   UNL     1       3.036   4.198  17.381  1.00  0.00    -0.550 OA
ENDBRANCH   3   4
ENDBRANCH   2   3
ENDBRANCH   1   2
BRANCH   1   7
ATOM      7  C   UNL     1       2.228   9.082  18.546  1.00  0.00     0.000 C 
BRANCH   7   8
ATOM      8  C   UNL     1       3.653   9.232  17.993  1.00  0.00    -0.000 C 
BRANCH   8   9
ATOM      9  C   UNL     1       3.718   9.060  16.467  1.00  0.00    -0.003 C 
ATOM     10  C   UNL     1       4.486   7.796  16.090  1.00  0.00     0.004 C 
ENDBRANCH   8   9
ENDBRANCH   7   8
ENDBRANCH   1   7
TORSDOF 6
ENDMDL
MODEL 4
REMARK VINA RESULT:    -4.663      2.975      5.093
REMARK INTER + INTRA:          -6.611
REMARK INTER:                  -6.363
REMARK INTRA:                  -0.248
REMARK UNBOUND:                -0.312
REMARK SMILES CCCCCCCC(=O)[O-]
REMARK SMILES IDX 5 1 6 2 7 3 8 4 9 5 10 6 4 7 3 8 2 9 1 10
REMARK H PARENT
REMARK Flexibility Score: inf
ROOT
ATOM      1  C   UNL     1       2.450   5.569  19.612  1.00  0.00     0.000 C 
ENDROOT
BRANCH   1   2
ATOM      2  C   UNL     1       1.957   6.746  18.756  1.00  0.00     0.006 C 
BRANCH   2   3
ATOM      3  C   UNL     1       2.053   8.085  19.500  1.00  0.00     0.053 C 
BRANCH   3   4
ATOM      4  C   UNL     1       2.784   9.117  18.696  1.00  0.00     0.041 C 
ATOM      5  O   UNL     1       3.174  10.183  19.240  1.00  0.00    -0.550 OA
ATOM      6  O   UNL     1       3.064   8.886  17.356  1.00  0.00    -0.550 OA
ENDBRANCH   3   4
ENDBRANCH   2   3
ENDBRANCH   1   2
BRANCH   1   7
ATOM      7  C   UNL     1       2.823   4.368  18.729  1.00  0.00     0.000 C 
BRANCH   7   8
ATOM      8  C   UNL     1       2.626   4.650  17.232  1.00  0.00    -0.000 C 
BRANCH   8   9
ATOM      9  C   UNL     1       3.448   3.710  16.338  1.00  0.00    -0.003 C 
ATOM     10  C   UNL     1       3.577   2.326  16.970  1.00  0.00     0.004 C 
ENDBRANCH   8   9
ENDBRANCH   7   8
ENDBRANCH   1   7
TORSDOF 6
ENDMDL
MODEL 5
REMARK VINA RESULT:    -4.603      3.914      4.982
REMARK INTER + INTRA:          -6.530
REMARK INTER:                  -6.631
REMARK INTRA:                   0.101
REMARK UNBOUND:                -0.312
REMARK SMILES CCCCCCCC(=O)[O-]
REMARK SMILES IDX 5 1 6 2 7 3 8 4 9 5 10 6 4 7 3 8 2 9 1 10
REMARK H PARENT
REMARK Flexibility Score: inf
ROOT
ATOM      1  C   UNL     1       5.336   7.923  15.841  1.00  0.00     0.000 C 
ENDROOT
BRANCH   1   2
ATOM      2  C   UNL     1       4.932   6.784  14.892  1.00  0.00     0.006 C 
BRANCH   2   3
ATOM      3  C   UNL     1       5.344   7.063  13.441  1.00  0.00     0.053 C 
BRANCH   3   4
ATOM      4  C   UNL     1       6.226   8.270  13.335  1.00  0.00     0.041 C 
ATOM      5  O   UNL     1       5.742   9.378  12.985  1.00  0.00    -0.550 OA
ATOM      6  O   UNL     1       7.574   8.177  13.654  1.00  0.00    -0.550 OA
ENDBRANCH   3   4
ENDBRANCH   2   3
ENDBRANCH   1   2
BRANCH   1   7
ATOM      7  C   UNL     1       4.119   8.782  16.215  1.00  0.00     0.000 C 
BRANCH   7   8
ATOM      8  C   UNL     1       3.293   8.171  17.358  1.00  0.00    -0.000 C 
BRANCH   8   9
ATOM      9  C   UNL     1       2.518   9.229  18.159  1.00  0.00    -0.003 C 
ATOM     10  C   UNL     1       2.091   8.683  19.519  1.00  0.00     0.004 C 
ENDBRANCH   8   9
ENDBRANCH   7   8
ENDBRANCH   1   7
TORSDOF 6
ENDMDL
MODEL 6
REMARK VINA RESULT:    -4.445      2.909      4.173
REMARK INTER + INTRA:          -6.316
REMARK INTER:                  -6.062
REMARK INTRA:                  -0.254
REMARK UNBOUND:                -0.312
REMARK SMILES CCCCCCCC(=O)[O-]
REMARK SMILES IDX 5 1 6 2 7 3 8 4 9 5 10 6 4 7 3 8 2 9 1 10
REMARK H PARENT
REMARK Flexibility Score: inf
ROOT
ATOM      1  C   UNL     1       3.364   2.961  17.599  1.00  0.00     0.000 C 
ENDROOT
BRANCH   1   2
ATOM      2  C   UNL     1       4.139   1.677  17.264  1.00  0.00     0.006 C 
BRANCH   2   3
ATOM      3  C   UNL     1       4.527   0.887  18.520  1.00  0.00     0.053 C 
BRANCH   3   4
ATOM      4  C   UNL     1       4.989  -0.499  18.186  1.00  0.00     0.041 C 
ATOM      5  O   UNL     1       4.466  -1.127  17.229  1.00  0.00    -0.550 OA
ATOM      6  O   UNL     1       6.020  -1.082  18.910  1.00  0.00    -0.550 OA
ENDBRANCH   3   4
ENDBRANCH   2   3
ENDBRANCH   1   2
BRANCH   1   7
ATOM      7  C   UNL     1       3.080   3.051  19.106  1.00  0.00     0.000 C 
BRANCH   7   8
ATOM      8  C   UNL     1       2.660   4.462  19.545  1.00  0.00    -0.000 C 
BRANCH   8   9
ATOM      9  C   UNL     1       2.172   5.327  18.372  1.00  0.00    -0.003 C 
ATOM     10  C   UNL     1       2.163   6.806  18.748  1.00  0.00     0.004 C 
ENDBRANCH   8   9
ENDBRANCH   7   8
ENDBRANCH   1   7
TORSDOF 6
ENDMDL
MODEL 7
REMARK VINA RESULT:    -4.380      2.428      3.783
REMARK INTER + INTRA:          -6.228
REMARK INTER:                  -5.977
REMARK INTRA:                  -0.251
REMARK UNBOUND:                -0.312
REMARK SMILES CCCCCCCC(=O)[O-]
REMARK SMILES IDX 5 1 6 2 7 3 8 4 9 5 10 6 4 7 3 8 2 9 1 10
REMARK H PARENT
REMARK Flexibility Score: inf
ROOT
ATOM      1  C   UNL     1       3.590   2.449  16.780  1.00  0.00     0.000 C 
ENDROOT
BRANCH   1   2
ATOM      2  C   UNL     1       3.068   2.476  15.335  1.00  0.00     0.006 C 
BRANCH   2   3
ATOM      3  C   UNL     1       3.006   3.900  14.767  1.00  0.00     0.053 C 
BRANCH   3   4
ATOM      4  C   UNL     1       4.088   4.144  13.759  1.00  0.00     0.041 C 
ATOM      5  O   UNL     1       4.486   3.208  13.017  1.00  0.00    -0.550 OA
ATOM      6  O   UNL     1       4.633   5.414  13.617  1.00  0.00    -0.550 OA
ENDBRANCH   3   4
ENDBRANCH   2   3
ENDBRANCH   1   2
BRANCH   1   7
ATOM      7  C   UNL     1       3.000   3.606  17.599  1.00  0.00     0.000 C 
BRANCH   7   8
ATOM      8  C   UNL     1       3.046   3.345  19.112  1.00  0.00    -0.000 C 
BRANCH   8   9
ATOM      9  C   UNL     1       2.705   4.594  19.940  1.00  0.00    -0.003 C 
ATOM     10  C   UNL     1       2.271   5.747  19.039  1.00  0.00     0.004 C 
ENDBRANCH   8   9
ENDBRANCH   7   8
ENDBRANCH   1   7
TORSDOF 6
ENDMDL
MODEL 8
REMARK VINA RESULT:    -4.377      2.930      4.796
REMARK INTER + INTRA:          -6.224
REMARK INTER:                  -5.910
REMARK INTRA:                  -0.314
REMARK UNBOUND:                -0.312
REMARK SMILES CCCCCCCC(=O)[O-]
REMARK SMILES IDX 5 1 6 2 7 3 8 4 9 5 10 6 4 7 3 8 2 9 1 10
REMARK H PARENT
REMARK Flexibility Score: inf
ROOT
ATOM      1  C   UNL     1       2.894   3.821  14.942  1.00  0.00     0.000 C 
ENDROOT
BRANCH   1   2
ATOM      2  C   UNL     1       3.361   3.724  16.403  1.00  0.00     0.006 C 
BRANCH   2   3
ATOM      3  C   UNL     1       2.744   4.818  17.284  1.00  0.00     0.053 C 
BRANCH   3   4
ATOM      4  C   UNL     1       2.518   4.342  18.687  1.00  0.00     0.041 C 
ATOM      5  O   UNL     1       2.182   3.148  18.904  1.00  0.00    -0.550 OA
ATOM      6  O   UNL     1       2.710   5.207  19.755  1.00  0.00    -0.550 OA
ENDBRANCH   3   4
ENDBRANCH   2   3
ENDBRANCH   1   2
BRANCH   1   7
ATOM      7  C   UNL     1       4.091   3.797  13.981  1.00  0.00     0.000 C 
BRANCH   7   8
ATOM      8  C   UNL     1       3.989   4.864  12.881  1.00  0.00    -0.000 C 
BRANCH   8   9
ATOM      9  C   UNL     1       5.131   5.890  12.942  1.00  0.00    -0.003 C 
ATOM     10  C   UNL     1       5.187   6.567  14.309  1.00  0.00     0.004 C 
ENDBRANCH   8   9
ENDBRANCH   7   8
ENDBRANCH   1   7
TORSDOF 6
ENDMDL
MODEL 9
REMARK VINA RESULT:    -3.730      3.392      4.737
REMARK INTER + INTRA:          -5.350
REMARK INTER:                  -5.112
REMARK INTRA:                  -0.238
REMARK UNBOUND:                -0.312
REMARK SMILES CCCCCCCC(=O)[O-]
REMARK SMILES IDX 5 1 6 2 7 3 8 4 9 5 10 6 4 7 3 8 2 9 1 10
REMARK H PARENT
REMARK Flexibility Score: inf
ROOT
ATOM      1  C   UNL     1       4.034   4.638  13.047  1.00  0.00     0.000 C 
ENDROOT
BRANCH   1   2
ATOM      2  C   UNL     1       4.196   4.064  14.464  1.00  0.00     0.006 C 
BRANCH   2   3
ATOM      3  C   UNL     1       2.851   3.904  15.184  1.00  0.00     0.053 C 
BRANCH   3   4
ATOM      4  C   UNL     1       3.012   3.921  16.673  1.00  0.00     0.041 C 
ATOM      5  O   UNL     1       3.379   2.882  17.283  1.00  0.00    -0.550 OA
ATOM      6  O   UNL     1       2.788   5.092  17.384  1.00  0.00    -0.550 OA
ENDBRANCH   3   4
ENDBRANCH   2   3
ENDBRANCH   1   2
BRANCH   1   7
ATOM      7  C   UNL     1       4.868   5.916  12.875  1.00  0.00     0.000 C 
BRANCH   7   8
ATOM      8  C   UNL     1       5.259   6.553  14.217  1.00  0.00    -0.000 C 
BRANCH   8   9
ATOM      9  C   UNL     1       6.317   7.657  14.063  1.00  0.00    -0.003 C 
ATOM     10  C   UNL     1       5.796   8.799  13.197  1.00  0.00     0.004 C 
ENDBRANCH   8   9
ENDBRANCH   7   8
ENDBRANCH   1   7
TORSDOF 6
ENDMDL
