MODEL 1
REMARK VINA RESULT:    -1.624      0.000      0.000
REMARK INTER + INTRA:          -1.624
REMARK INTER:                  -1.624
REMARK INTRA:                   0.000
REMARK UNBOUND:                 0.000
REMARK SMILES CC(=O)[O-]
REMARK SMILES IDX 1 1 2 2 3 3 4 4
REMARK H PARENT
REMARK Flexibility Score: inf
ROOT
ATOM      1  C   UNL     1      12.084  -0.982  22.510  1.00  0.00     0.063 C 
ATOM      2  C   UNL     1      13.174  -1.447  21.604  1.00  0.00     0.038 C 
ATOM      3  O   UNL     1      13.999  -2.312  22.001  1.00  0.00    -0.550 OA
ATOM      4  O   UNL     1      13.249  -0.969  20.303  1.00  0.00    -0.550 OA
ENDROOT
TORSDOF 0
ENDMDL
MODEL 2
REMARK VINA RESULT:    -1.614      1.431      2.080
REMARK INTER + INTRA:          -1.614
REMARK INTER:                  -1.614
REMARK INTRA:                   0.000
REMARK UNBOUND:                 0.000
REMARK SMILES CC(=O)[O-]
REMARK SMILES IDX 1 1 2 2 3 3 4 4
REMARK H PARENT
REMARK Flexibility Score: inf
ROOT
ATOM      1  C   UNL     1      12.983  -0.876  20.168  1.00  0.00     0.063 C 
ATOM      2  C   UNL     1      12.982  -1.289  21.601  1.00  0.00     0.038 C 
ATOM      3  O   UNL     1      12.080  -0.876  22.378  1.00  0.00    -0.550 OA
ATOM      4  O   UNL     1      13.943  -2.175  22.070  1.00  0.00    -0.550 OA
ENDROOT
TORSDOF 0
ENDMDL
MODEL 3
REMARK VINA RESULT:    -1.609      1.365      2.046
REMARK INTER + INTRA:          -1.609
REMARK INTER:                  -1.609
REMARK INTRA:                   0.000
REMARK UNBOUND:                 0.000
REMARK SMILES CC(=O)[O-]
REMARK SMILES IDX 1 1 2 2 3 3 4 4
REMARK H PARENT
REMARK Flexibility Score: inf
ROOT
ATOM      1  C   UNL     1      13.961  -2.760  22.008  1.00  0.00     0.063 C 
ATOM      2  C   UNL     1      13.197  -1.569  21.537  1.00  0.00     0.038 C 
ATOM      3  O   UNL     1      13.253  -1.220  20.328  1.00  0.00    -0.550 OA
ATOM      4  O   UNL     1      12.379  -0.875  22.418  1.00  0.00    -0.550 OA
ENDROOT
TORSDOF 0
ENDMDL
MODEL 4
REMARK VINA RESULT:    -1.545     24.393     24.552
REMARK INTER + INTRA:          -1.545
REMARK INTER:                  -1.545
REMARK INTRA:                   0.000
REMARK UNBOUND:                 0.000
REMARK SMILES CC(=O)[O-]
REMARK SMILES IDX 1 1 2 2 3 3 4 4
REMARK H PARENT
REMARK Flexibility Score: inf
ROOT
ATOM      1  C   UNL     1      -2.732 -20.909  20.584  1.00  0.00     0.063 C 
ATOM      2  C   UNL     1      -2.191 -20.414  19.286  1.00  0.00     0.038 C 
ATOM      3  O   UNL     1      -2.963 -19.901  18.433  1.00  0.00    -0.550 OA
ATOM      4  O   UNL     1      -0.826 -20.468  19.036  1.00  0.00    -0.550 OA
ENDROOT
TORSDOF 0
ENDMDL
MODEL 5
REMARK VINA RESULT:    -1.541     18.487     18.589
REMARK INTER + INTRA:          -1.541
REMARK INTER:                  -1.541
REMARK INTRA:                   0.000
REMARK UNBOUND:                 0.000
REMARK SMILES CC(=O)[O-]
REMARK SMILES IDX 1 1 2 2 3 3 4 4
REMARK H PARENT
REMARK Flexibility Score: inf
ROOT
ATOM      1  C   UNL     1       7.992 -19.321  18.195  1.00  0.00     0.063 C 
ATOM      2  C   UNL     1       9.293 -19.348  18.923  1.00  0.00     0.038 C 
ATOM      3  O   UNL     1       9.313 -19.425  20.180  1.00  0.00    -0.550 OA
ATOM      4  O   UNL     1      10.487 -19.344  18.214  1.00  0.00    -0.550 OA
ENDROOT
TORSDOF 0
ENDMDL
MODEL 6
REMARK VINA RESULT:    -1.538     18.488     18.616
REMARK INTER + INTRA:          -1.538
REMARK INTER:                  -1.538
REMARK INTRA:                   0.000
REMARK UNBOUND:                 0.000
REMARK SMILES CC(=O)[O-]
REMARK SMILES IDX 1 1 2 2 3 3 4 4
REMARK H PARENT
REMARK Flexibility Score: inf
ROOT
ATOM      1  C   UNL     1       8.049 -19.344  18.197  1.00  0.00     0.063 C 
ATOM      2  C   UNL     1       9.374 -19.375  18.882  1.00  0.00     0.038 C 
ATOM      3  O   UNL     1      10.436 -19.337  18.206  1.00  0.00    -0.550 OA
ATOM      4  O   UNL     1       9.440 -19.391  20.268  1.00  0.00    -0.550 OA
ENDROOT
TORSDOF 0
ENDMDL
MODEL 7
REMARK VINA RESULT:    -1.532     27.538     28.048
REMARK INTER + INTRA:          -1.532
REMARK INTER:                  -1.532
REMARK INTRA:                   0.000
REMARK UNBOUND:                 0.000
REMARK SMILES CC(=O)[O-]
REMARK SMILES IDX 1 1 2 2 3 3 4 4
REMARK H PARENT
REMARK Flexibility Score: inf
ROOT
ATOM      1  C   UNL     1      -3.728 -18.911  33.705  1.00  0.00     0.063 C 
ATOM      2  C   UNL     1      -3.338 -20.104  34.510  1.00  0.00     0.038 C 
ATOM      3  O   UNL     1      -4.077 -21.125  34.526  1.00  0.00    -0.550 OA
ATOM      4  O   UNL     1      -2.133 -20.115  35.199  1.00  0.00    -0.550 OA
ENDROOT
TORSDOF 0
ENDMDL
MODEL 8
REMARK VINA RESULT:    -1.528     18.765     19.053
REMARK INTER + INTRA:          -1.528
REMARK INTER:                  -1.528
REMARK INTRA:                   0.000
REMARK UNBOUND:                 0.000
REMARK SMILES CC(=O)[O-]
REMARK SMILES IDX 1 1 2 2 3 3 4 4
REMARK H PARENT
REMARK Flexibility Score: inf
ROOT
ATOM      1  C   UNL     1       9.984 -19.173  18.600  1.00  0.00     0.063 C 
ATOM      2  C   UNL     1       8.574 -19.659  18.574  1.00  0.00     0.038 C 
ATOM      3  O   UNL     1       8.247 -20.685  19.226  1.00  0.00    -0.550 OA
ATOM      4  O   UNL     1       7.607 -18.949  17.875  1.00  0.00    -0.550 OA
ENDROOT
TORSDOF 0
ENDMDL
MODEL 9
REMARK VINA RESULT:    -1.471     23.616     23.757
REMARK INTER + INTRA:          -1.471
REMARK INTER:                  -1.471
REMARK INTRA:                   0.000
REMARK UNBOUND:                 0.000
REMARK SMILES CC(=O)[O-]
REMARK SMILES IDX 1 1 2 2 3 3 4 4
REMARK H PARENT
REMARK Flexibility Score: inf
ROOT
ATOM      1  C   UNL     1      -0.595 -19.259  18.049  1.00  0.00     0.063 C 
ATOM      2  C   UNL     1      -1.067 -20.258  19.050  1.00  0.00     0.038 C 
ATOM      3  O   UNL     1      -0.241 -20.839  19.802  1.00  0.00    -0.550 OA
ATOM      4  O   UNL     1      -2.425 -20.510  19.194  1.00  0.00    -0.550 OA
ENDROOT
TORSDOF 0
ENDMDL
