MODEL 1
REMARK VINA RESULT:    -4.908      0.000      0.000
REMARK INTER + INTRA:         -11.905
REMARK INTER:                  -8.494
REMARK INTRA:                  -3.411
REMARK UNBOUND:                -3.411
REMARK SMILES OC[C@@H]1O[C@H](O)[C@H](O)[C@H](O)[C@@H]1O[C@H]1O[C@@H](CO)[C@@H](O[C@@H]2O[C@H](CO)[C@@H](O)[C@@H](O)[C@H]2O)[C@@H](O)[C@H]1O
REMARK SMILES IDX 18 1 15 2 14 3 13 4 33 5 31 6 19 7 20 8 22 9 25 10 21 11
REMARK SMILES IDX 27 12 29 13 23 14 24 15 26 17 28 19 30 21 16 23 17 24 32 26
REMARK SMILES IDX 34 28 12 30 11 31 3 32 9 33 4 34 7 35 5 36 2 37 1 38 10 40
REMARK SMILES IDX 8 42 6 44
REMARK H PARENT 24 16 26 18 28 20 30 22 17 25 32 27 34 29 1 39 10 41 8 43 6 45
REMARK Flexibility Score: inf
ROOT
ATOM      1  C   UNL     1      10.654  39.516  25.265  1.00  0.00     0.184 C 
ATOM      2  C   UNL     1       9.793  40.532  26.071  1.00  0.00     0.178 C 
ATOM      3  O   UNL     1       9.515  41.727  25.330  1.00  0.00    -0.341 OA
ATOM      4  C   UNL     1       8.912  41.512  24.053  1.00  0.00     0.282 C 
ATOM      5  C   UNL     1       9.786  40.552  23.189  1.00  0.00     0.202 C 
ATOM      6  C   UNL     1      10.019  39.223  23.901  1.00  0.00     0.180 C 
ENDROOT
BRANCH   1   7
ATOM      7  O   UNL     1      10.809  38.317  26.005  1.00  0.00    -0.341 OA
BRANCH   7   8
ATOM      8  C   UNL     1      11.900  37.524  25.546  1.00  0.00     0.282 C 
ATOM      9  C   UNL     1      11.015  35.395  26.224  1.00  0.00     0.178 C 
ATOM     10  C   UNL     1      12.039  35.273  27.377  1.00  0.00     0.177 C 
ATOM     11  O   UNL     1      11.452  36.230  25.156  1.00  0.00    -0.341 OA
ATOM     12  C   UNL     1      12.529  36.655  27.832  1.00  0.00     0.179 C 
ATOM     13  C   UNL     1      13.004  37.473  26.622  1.00  0.00     0.202 C 
BRANCH   9  14
ATOM     14  C   UNL     1       9.594  35.737  26.716  1.00  0.00     0.191 C 
BRANCH  14  15
ATOM     15  O   UNL     1       8.779  36.118  25.641  1.00  0.00    -0.394 OA
ATOM     16  H   UNL     1       9.372  36.506  24.951  1.00  0.00     0.210 HD
ENDBRANCH  14  15
ENDBRANCH   9  14
BRANCH  10  17
ATOM     17  O   UNL     1      13.125  34.487  26.944  1.00  0.00    -0.387 OA
ATOM     18  H   UNL     1      13.803  35.109  26.570  1.00  0.00     0.211 HD
ENDBRANCH  10  17
BRANCH  12  19
ATOM     19  O   UNL     1      13.580  36.528  28.756  1.00  0.00    -0.387 OA
ATOM     20  H   UNL     1      14.221  35.884  28.360  1.00  0.00     0.211 HD
ENDBRANCH  12  19
BRANCH  13  21
ATOM     21  O   UNL     1      14.179  36.912  26.087  1.00  0.00    -0.385 OA
ATOM     22  H   UNL     1      14.798  36.753  26.846  1.00  0.00     0.211 HD
ENDBRANCH  13  21
ENDBRANCH   7   8
ENDBRANCH   1   7
BRANCH   2  23
ATOM     23  C   UNL     1       8.542  39.905  26.766  1.00  0.00     0.191 C 
BRANCH  23  24
ATOM     24  O   UNL     1       7.580  40.849  27.174  1.00  0.00    -0.394 OA
ATOM     25  H   UNL     1       6.776  40.793  26.593  1.00  0.00     0.210 HD
ENDBRANCH  23  24
ENDBRANCH   2  23
BRANCH   6  26
ATOM     26  O   UNL     1       8.823  38.514  24.068  1.00  0.00    -0.387 OA
ATOM     27  H   UNL     1       8.707  37.941  23.262  1.00  0.00     0.211 HD
ENDBRANCH   6  26
BRANCH   5  28
ATOM     28  O   UNL     1       9.270  40.335  21.905  1.00  0.00    -0.385 OA
ATOM     29  H   UNL     1       8.310  40.582  21.927  1.00  0.00     0.211 HD
ENDBRANCH   5  28
BRANCH   4  30
ATOM     30  O   UNL     1       7.552  41.134  24.247  1.00  0.00    -0.341 OA
BRANCH  30  31
ATOM     31  C   UNL     1       6.546  42.074  23.873  1.00  0.00     0.184 C 
ATOM     32  C   UNL     1       5.540  42.465  25.010  1.00  0.00     0.178 C 
ATOM     33  C   UNL     1       5.688  41.394  22.776  1.00  0.00     0.180 C 
ATOM     34  O   UNL     1       5.062  41.341  25.724  1.00  0.00    -0.342 OA
ATOM     35  C   UNL     1       4.538  40.532  23.384  1.00  0.00     0.201 C 
ATOM     36  C   UNL     1       4.734  40.221  24.899  1.00  0.00     0.279 C 
BRANCH  32  37
ATOM     37  C   UNL     1       6.038  43.529  26.006  1.00  0.00     0.191 C 
BRANCH  37  38
ATOM     38  O   UNL     1       7.432  43.664  25.890  1.00  0.00    -0.394 OA
ATOM     39  H   UNL     1       7.848  43.207  26.670  1.00  0.00     0.210 HD
ENDBRANCH  37  38
ENDBRANCH  32  37
BRANCH  33  40
ATOM     40  O   UNL     1       6.503  40.612  21.935  1.00  0.00    -0.387 OA
ATOM     41  H   UNL     1       7.444  40.779  22.207  1.00  0.00     0.211 HD
ENDBRANCH  33  40
BRANCH  35  42
ATOM     42  O   UNL     1       4.386  39.331  22.668  1.00  0.00    -0.385 OA
ATOM     43  H   UNL     1       3.483  38.972  22.886  1.00  0.00     0.211 HD
ENDBRANCH  35  42
BRANCH  36  44
ATOM     44  O   UNL     1       5.694  39.216  25.069  1.00  0.00    -0.366 OA
ATOM     45  H   UNL     1       6.581  39.658  25.006  1.00  0.00     0.213 HD
ENDBRANCH  36  44
ENDBRANCH  30  31
ENDBRANCH   4  30
TORSDOF 18
ENDMDL
MODEL 2
REMARK VINA RESULT:    -4.836     13.992     17.881
REMARK INTER + INTRA:         -11.780
REMARK INTER:                  -8.704
REMARK INTRA:                  -3.076
REMARK UNBOUND:                -3.411
REMARK SMILES OC[C@@H]1O[C@H](O)[C@H](O)[C@H](O)[C@@H]1O[C@H]1O[C@@H](CO)[C@@H](O[C@@H]2O[C@H](CO)[C@@H](O)[C@@H](O)[C@H]2O)[C@@H](O)[C@H]1O
REMARK SMILES IDX 18 1 15 2 14 3 13 4 33 5 31 6 19 7 20 8 22 9 25 10 21 11
REMARK SMILES IDX 27 12 29 13 23 14 24 15 26 17 28 19 30 21 16 23 17 24 32 26
REMARK SMILES IDX 34 28 12 30 11 31 3 32 9 33 4 34 7 35 5 36 2 37 1 38 10 40
REMARK SMILES IDX 8 42 6 44
REMARK H PARENT 24 16 26 18 28 20 30 22 17 25 32 27 34 29 1 39 10 41 8 43 6 45
REMARK Flexibility Score: inf
ROOT
ATOM      1  C   UNL     1      19.735  46.209  36.280  1.00  0.00     0.184 C 
ATOM      2  C   UNL     1      19.160  45.296  35.158  1.00  0.00     0.178 C 
ATOM      3  O   UNL     1      20.176  44.803  34.275  1.00  0.00    -0.341 OA
ATOM      4  C   UNL     1      21.254  44.127  34.924  1.00  0.00     0.282 C 
ATOM      5  C   UNL     1      21.902  45.041  36.009  1.00  0.00     0.202 C 
ATOM      6  C   UNL     1      20.869  45.504  37.032  1.00  0.00     0.180 C 
ENDROOT
BRANCH   1   7
ATOM      7  O   UNL     1      18.704  46.580  37.179  1.00  0.00    -0.341 OA
BRANCH   7   8
ATOM      8  C   UNL     1      19.113  47.587  38.100  1.00  0.00     0.282 C 
ATOM      9  C   UNL     1      18.260  46.529  40.083  1.00  0.00     0.178 C 
ATOM     10  C   UNL     1      17.115  47.560  40.208  1.00  0.00     0.177 C 
ATOM     11  O   UNL     1      19.396  47.017  39.375  1.00  0.00    -0.341 OA
ATOM     12  C   UNL     1      16.775  48.181  38.845  1.00  0.00     0.179 C 
ATOM     13  C   UNL     1      18.051  48.703  38.169  1.00  0.00     0.202 C 
BRANCH   9  14
ATOM     14  C   UNL     1      17.779  45.154  39.576  1.00  0.00     0.191 C 
BRANCH  14  15
ATOM     15  O   UNL     1      17.212  44.414  40.622  1.00  0.00    -0.394 OA
ATOM     16  H   UNL     1      16.249  44.641  40.650  1.00  0.00     0.210 HD
ENDBRANCH  14  15
ENDBRANCH   9  14
BRANCH  10  17
ATOM     17  O   UNL     1      17.499  48.563  41.120  1.00  0.00    -0.387 OA
ATOM     18  H   UNL     1      17.305  49.437  40.689  1.00  0.00     0.211 HD
ENDBRANCH  10  17
BRANCH  12  19
ATOM     19  O   UNL     1      15.857  49.235  38.997  1.00  0.00    -0.387 OA
ATOM     20  H   UNL     1      15.646  49.552  38.082  1.00  0.00     0.211 HD
ENDBRANCH  12  19
BRANCH  13  21
ATOM     21  O   UNL     1      18.555  49.812  38.873  1.00  0.00    -0.385 OA
ATOM     22  H   UNL     1      19.208  50.265  38.277  1.00  0.00     0.211 HD
ENDBRANCH  13  21
ENDBRANCH   7   8
ENDBRANCH   1   7
BRANCH   2  23
ATOM     23  C   UNL     1      18.169  44.200  35.667  1.00  0.00     0.191 C 
BRANCH  23  24
ATOM     24  O   UNL     1      17.932  43.167  34.740  1.00  0.00    -0.394 OA
ATOM     25  H   UNL     1      18.393  42.335  35.027  1.00  0.00     0.210 HD
ENDBRANCH  23  24
ENDBRANCH   2  23
BRANCH   6  26
ATOM     26  O   UNL     1      20.363  44.428  37.771  1.00  0.00    -0.387 OA
ATOM     27  H   UNL     1      21.056  43.714  37.761  1.00  0.00     0.211 HD
ENDBRANCH   6  26
BRANCH   5  28
ATOM     28  O   UNL     1      22.997  44.450  36.652  1.00  0.00    -0.385 OA
ATOM     29  H   UNL     1      22.644  43.933  37.421  1.00  0.00     0.211 HD
ENDBRANCH   5  28
BRANCH   4  30
ATOM     30  O   UNL     1      20.798  42.849  35.357  1.00  0.00    -0.341 OA
BRANCH  30  31
ATOM     31  C   UNL     1      21.436  41.697  34.806  1.00  0.00     0.184 C 
ATOM     32  C   UNL     1      20.495  40.727  34.012  1.00  0.00     0.178 C 
ATOM     33  C   UNL     1      21.970  40.869  36.003  1.00  0.00     0.180 C 
ATOM     34  O   UNL     1      19.285  40.462  34.696  1.00  0.00    -0.342 OA
ATOM     35  C   UNL     1      20.890  39.896  36.569  1.00  0.00     0.201 C 
ATOM     36  C   UNL     1      19.444  40.238  36.098  1.00  0.00     0.279 C 
BRANCH  32  37
ATOM     37  C   UNL     1      20.182  41.139  32.562  1.00  0.00     0.191 C 
BRANCH  37  38
ATOM     38  O   UNL     1      19.589  42.413  32.553  1.00  0.00    -0.394 OA
ATOM     39  H   UNL     1      19.987  42.939  33.298  1.00  0.00     0.210 HD
ENDBRANCH  37  38
ENDBRANCH  32  37
BRANCH  33  40
ATOM     40  O   UNL     1      22.446  41.726  37.014  1.00  0.00    -0.387 OA
ATOM     41  H   UNL     1      23.068  41.192  37.577  1.00  0.00     0.211 HD
ENDBRANCH  33  40
BRANCH  35  42
ATOM     42  O   UNL     1      20.939  39.865  37.974  1.00  0.00    -0.385 OA
ATOM     43  H   UNL     1      20.019  40.057  38.303  1.00  0.00     0.211 HD
ENDBRANCH  35  42
BRANCH  36  44
ATOM     44  O   UNL     1      18.949  41.338  36.808  1.00  0.00    -0.366 OA
ATOM     45  H   UNL     1      17.988  41.155  36.980  1.00  0.00     0.213 HD
ENDBRANCH  36  44
ENDBRANCH  30  31
ENDBRANCH   4  30
TORSDOF 18
ENDMDL
MODEL 3
REMARK VINA RESULT:    -4.710      9.706     13.243
REMARK INTER + INTRA:         -11.563
REMARK INTER:                  -8.514
REMARK INTRA:                  -3.049
REMARK UNBOUND:                -3.411
REMARK SMILES OC[C@@H]1O[C@H](O)[C@H](O)[C@H](O)[C@@H]1O[C@H]1O[C@@H](CO)[C@@H](O[C@@H]2O[C@H](CO)[C@@H](O)[C@@H](O)[C@H]2O)[C@@H](O)[C@H]1O
REMARK SMILES IDX 18 1 15 2 14 3 13 4 33 5 31 6 19 7 20 8 22 9 25 10 21 11
REMARK SMILES IDX 27 12 29 13 23 14 24 15 26 17 28 19 30 21 16 23 17 24 32 26
REMARK SMILES IDX 34 28 12 30 11 31 3 32 9 33 4 34 7 35 5 36 2 37 1 38 10 40
REMARK SMILES IDX 8 42 6 44
REMARK H PARENT 24 16 26 18 28 20 30 22 17 25 32 27 34 29 1 39 10 41 8 43 6 45
REMARK Flexibility Score: inf
ROOT
ATOM      1  C   UNL     1      14.821  47.349  24.568  1.00  0.00     0.184 C 
ATOM      2  C   UNL     1      15.509  46.150  25.282  1.00  0.00     0.178 C 
ATOM      3  O   UNL     1      15.671  45.016  24.421  1.00  0.00    -0.341 OA
ATOM      4  C   UNL     1      16.355  45.288  23.197  1.00  0.00     0.282 C 
ATOM      5  C   UNL     1      15.650  46.441  22.419  1.00  0.00     0.202 C 
ATOM      6  C   UNL     1      15.550  47.704  23.268  1.00  0.00     0.180 C 
ENDROOT
BRANCH   1   7
ATOM      7  O   UNL     1      14.782  48.471  25.434  1.00  0.00    -0.341 OA
BRANCH   7   8
ATOM      8  C   UNL     1      13.634  49.289  25.223  1.00  0.00     0.282 C 
ATOM      9  C   UNL     1      14.552  51.315  26.134  1.00  0.00     0.178 C 
ATOM     10  C   UNL     1      13.658  51.221  27.392  1.00  0.00     0.177 C 
ATOM     11  O   UNL     1      14.016  50.642  24.998  1.00  0.00    -0.341 OA
ATOM     12  C   UNL     1      13.243  49.770  27.671  1.00  0.00     0.179 C 
ATOM     13  C   UNL     1      12.653  49.135  26.403  1.00  0.00     0.202 C 
BRANCH   9  14
ATOM     14  C   UNL     1      16.023  50.948  26.413  1.00  0.00     0.191 C 
BRANCH  14  15
ATOM     15  O   UNL     1      16.716  50.738  25.213  1.00  0.00    -0.394 OA
ATOM     16  H   UNL     1      16.862  51.627  24.803  1.00  0.00     0.210 HD
ENDBRANCH  14  15
ENDBRANCH   9  14
BRANCH  10  17
ATOM     17  O   UNL     1      12.518  52.028  27.206  1.00  0.00    -0.387 OA
ATOM     18  H   UNL     1      12.061  52.093  28.085  1.00  0.00     0.211 HD
ENDBRANCH  10  17
BRANCH  12  19
ATOM     19  O   UNL     1      12.296  49.716  28.709  1.00  0.00    -0.387 OA
ATOM     20  H   UNL     1      11.495  49.273  28.330  1.00  0.00     0.211 HD
ENDBRANCH  12  19
BRANCH  13  21
ATOM     21  O   UNL     1      11.418  49.732  26.090  1.00  0.00    -0.385 OA
ATOM     22  H   UNL     1      10.787  48.999  25.867  1.00  0.00     0.211 HD
ENDBRANCH  13  21
ENDBRANCH   7   8
ENDBRANCH   1   7
BRANCH   2  23
ATOM     23  C   UNL     1      16.795  46.532  26.084  1.00  0.00     0.191 C 
BRANCH  23  24
ATOM     24  O   UNL     1      16.552  47.369  27.190  1.00  0.00    -0.394 OA
ATOM     25  H   UNL     1      16.179  48.239  26.888  1.00  0.00     0.210 HD
ENDBRANCH  23  24
ENDBRANCH   2  23
BRANCH   6  26
ATOM     26  O   UNL     1      16.816  48.230  23.553  1.00  0.00    -0.387 OA
ATOM     27  H   UNL     1      16.798  49.192  23.298  1.00  0.00     0.211 HD
ENDBRANCH   6  26
BRANCH   5  28
ATOM     28  O   UNL     1      16.248  46.727  21.185  1.00  0.00    -0.385 OA
ATOM     29  H   UNL     1      16.942  46.036  21.026  1.00  0.00     0.211 HD
ENDBRANCH   5  28
BRANCH   4  30
ATOM     30  O   UNL     1      17.741  45.464  23.477  1.00  0.00    -0.341 OA
BRANCH  30  31
ATOM     31  C   UNL     1      18.587  44.319  23.374  1.00  0.00     0.184 C 
ATOM     32  C   UNL     1      19.409  43.977  24.664  1.00  0.00     0.178 C 
ATOM     33  C   UNL     1      19.640  44.640  22.283  1.00  0.00     0.180 C 
ATOM     34  O   UNL     1      20.025  45.117  25.234  1.00  0.00    -0.342 OA
ATOM     35  C   UNL     1      20.874  45.394  22.867  1.00  0.00     0.201 C 
ATOM     36  C   UNL     1      20.616  46.000  24.280  1.00  0.00     0.279 C 
BRANCH  32  37
ATOM     37  C   UNL     1      18.648  43.207  25.758  1.00  0.00     0.191 C 
BRANCH  37  38
ATOM     38  O   UNL     1      17.395  42.805  25.264  1.00  0.00    -0.394 OA
ATOM     39  H   UNL     1      16.922  42.319  25.992  1.00  0.00     0.210 HD
ENDBRANCH  37  38
ENDBRANCH  32  37
BRANCH  33  40
ATOM     40  O   UNL     1      19.051  45.382  21.241  1.00  0.00    -0.387 OA
ATOM     41  H   UNL     1      18.837  46.280  21.611  1.00  0.00     0.211 HD
ENDBRANCH  33  40
BRANCH  35  42
ATOM     42  O   UNL     1      21.299  46.405  21.986  1.00  0.00    -0.385 OA
ATOM     43  H   UNL     1      20.768  46.307  21.149  1.00  0.00     0.211 HD
ENDBRANCH  35  42
BRANCH  36  44
ATOM     44  O   UNL     1      19.845  47.164  24.176  1.00  0.00    -0.366 OA
ATOM     45  H   UNL     1      20.047  47.559  23.288  1.00  0.00     0.213 HD
ENDBRANCH  36  44
ENDBRANCH  30  31
ENDBRANCH   4  30
TORSDOF 18
ENDMDL
MODEL 4
REMARK VINA RESULT:    -4.614      1.702      7.718
REMARK INTER + INTRA:         -11.396
REMARK INTER:                  -7.884
REMARK INTRA:                  -3.512
REMARK UNBOUND:                -3.411
REMARK SMILES OC[C@@H]1O[C@H](O)[C@H](O)[C@H](O)[C@@H]1O[C@H]1O[C@@H](CO)[C@@H](O[C@@H]2O[C@H](CO)[C@@H](O)[C@@H](O)[C@H]2O)[C@@H](O)[C@H]1O
REMARK SMILES IDX 18 1 15 2 14 3 13 4 33 5 31 6 19 7 20 8 22 9 25 10 21 11
REMARK SMILES IDX 27 12 29 13 23 14 24 15 26 17 28 19 30 21 16 23 17 24 32 26
REMARK SMILES IDX 34 28 12 30 11 31 3 32 9 33 4 34 7 35 5 36 2 37 1 38 10 40
REMARK SMILES IDX 8 42 6 44
REMARK H PARENT 24 16 26 18 28 20 30 22 17 25 32 27 34 29 1 39 10 41 8 43 6 45
REMARK Flexibility Score: inf
ROOT
ATOM      1  C   UNL     1       7.948  38.384  26.613  1.00  0.00     0.184 C 
ATOM      2  C   UNL     1       9.122  38.621  27.608  1.00  0.00     0.178 C 
ATOM      3  O   UNL     1       9.342  37.502  28.475  1.00  0.00    -0.341 OA
ATOM      4  C   UNL     1       9.539  36.256  27.805  1.00  0.00     0.282 C 
ATOM      5  C   UNL     1       8.345  35.952  26.850  1.00  0.00     0.202 C 
ATOM      6  C   UNL     1       8.142  37.076  25.840  1.00  0.00     0.180 C 
ENDROOT
BRANCH   1   7
ATOM      7  O   UNL     1       7.845  39.477  25.716  1.00  0.00    -0.341 OA
BRANCH   7   8
ATOM      8  C   UNL     1       6.786  39.319  24.776  1.00  0.00     0.282 C 
ATOM      9  C   UNL     1       7.936  40.253  22.884  1.00  0.00     0.178 C 
ATOM     10  C   UNL     1       7.069  41.534  22.918  1.00  0.00     0.177 C 
ATOM     11  O   UNL     1       7.303  39.117  23.465  1.00  0.00    -0.341 OA
ATOM     12  C   UNL     1       6.510  41.788  24.325  1.00  0.00     0.179 C 
ATOM     13  C   UNL     1       5.823  40.522  24.858  1.00  0.00     0.202 C 
BRANCH   9  14
ATOM     14  C   UNL     1       9.367  40.482  23.412  1.00  0.00     0.191 C 
BRANCH  14  15
ATOM     15  O   UNL     1      10.076  39.274  23.453  1.00  0.00    -0.394 OA
ATOM     16  H   UNL     1      11.026  39.490  23.275  1.00  0.00     0.210 HD
ENDBRANCH  14  15
ENDBRANCH   9  14
BRANCH  10  17
ATOM     17  O   UNL     1       6.017  41.399  21.990  1.00  0.00    -0.387 OA
ATOM     18  H   UNL     1       6.228  41.995  21.224  1.00  0.00     0.211 HD
ENDBRANCH  10  17
BRANCH  12  19
ATOM     19  O   UNL     1       5.589  42.850  24.306  1.00  0.00    -0.387 OA
ATOM     20  H   UNL     1       4.719  42.458  24.041  1.00  0.00     0.211 HD
ENDBRANCH  12  19
BRANCH  13  21
ATOM     21  O   UNL     1       4.651  40.259  24.125  1.00  0.00    -0.385 OA
ATOM     22  H   UNL     1       4.151  39.556  24.617  1.00  0.00     0.211 HD
ENDBRANCH  13  21
ENDBRANCH   7   8
ENDBRANCH   1   7
BRANCH   2  23
ATOM     23  C   UNL     1      10.421  39.182  26.946  1.00  0.00     0.191 C 
BRANCH  23  24
ATOM     24  O   UNL     1      11.580  39.014  27.727  1.00  0.00    -0.394 OA
ATOM     25  H   UNL     1      11.709  38.055  27.950  1.00  0.00     0.210 HD
ENDBRANCH  23  24
ENDBRANCH   2  23
BRANCH   6  26
ATOM     26  O   UNL     1       9.234  37.187  24.971  1.00  0.00    -0.387 OA
ATOM     27  H   UNL     1       8.889  37.553  24.111  1.00  0.00     0.211 HD
ENDBRANCH   6  26
BRANCH   5  28
ATOM     28  O   UNL     1       8.457  34.719  26.195  1.00  0.00    -0.385 OA
ATOM     29  H   UNL     1       7.592  34.247  26.302  1.00  0.00     0.211 HD
ENDBRANCH   5  28
BRANCH   4  30
ATOM     30  O   UNL     1      10.839  36.253  27.221  1.00  0.00    -0.341 OA
BRANCH  30  31
ATOM     31  C   UNL     1      11.709  35.170  27.551  1.00  0.00     0.184 C 
ATOM     32  C   UNL     1      13.050  35.580  28.252  1.00  0.00     0.178 C 
ATOM     33  C   UNL     1      12.125  34.510  26.212  1.00  0.00     0.180 C 
ATOM     34  O   UNL     1      13.683  36.674  27.617  1.00  0.00    -0.342 OA
ATOM     35  C   UNL     1      13.369  35.207  25.579  1.00  0.00     0.201 C 
ATOM     36  C   UNL     1      13.669  36.610  26.190  1.00  0.00     0.279 C 
BRANCH  32  37
ATOM     37  C   UNL     1      12.958  35.850  29.765  1.00  0.00     0.191 C 
BRANCH  37  38
ATOM     38  O   UNL     1      12.091  36.933  29.996  1.00  0.00    -0.394 OA
ATOM     39  H   UNL     1      11.739  36.849  30.922  1.00  0.00     0.210 HD
ENDBRANCH  37  38
ENDBRANCH  32  37
BRANCH  33  40
ATOM     40  O   UNL     1      11.043  34.512  25.310  1.00  0.00    -0.387 OA
ATOM     41  H   UNL     1      10.772  33.564  25.182  1.00  0.00     0.211 HD
ENDBRANCH  33  40
BRANCH  35  42
ATOM     42  O   UNL     1      13.221  35.316  24.185  1.00  0.00    -0.385 OA
ATOM     43  H   UNL     1      14.088  35.644  23.823  1.00  0.00     0.211 HD
ENDBRANCH  35  42
BRANCH  36  44
ATOM     44  O   UNL     1      12.773  37.560  25.686  1.00  0.00    -0.366 OA
ATOM     45  H   UNL     1      12.650  38.240  26.399  1.00  0.00     0.213 HD
ENDBRANCH  36  44
ENDBRANCH  30  31
ENDBRANCH   4  30
TORSDOF 18
ENDMDL
MODEL 5
REMARK VINA RESULT:    -4.580      1.946      7.748
REMARK INTER + INTRA:         -11.338
REMARK INTER:                  -7.780
REMARK INTRA:                  -3.558
REMARK UNBOUND:                -3.411
REMARK SMILES OC[C@@H]1O[C@H](O)[C@H](O)[C@H](O)[C@@H]1O[C@H]1O[C@@H](CO)[C@@H](O[C@@H]2O[C@H](CO)[C@@H](O)[C@@H](O)[C@H]2O)[C@@H](O)[C@H]1O
REMARK SMILES IDX 18 1 15 2 14 3 13 4 33 5 31 6 19 7 20 8 22 9 25 10 21 11
REMARK SMILES IDX 27 12 29 13 23 14 24 15 26 17 28 19 30 21 16 23 17 24 32 26
REMARK SMILES IDX 34 28 12 30 11 31 3 32 9 33 4 34 7 35 5 36 2 37 1 38 10 40
REMARK SMILES IDX 8 42 6 44
REMARK H PARENT 24 16 26 18 28 20 30 22 17 25 32 27 34 29 1 39 10 41 8 43 6 45
REMARK Flexibility Score: inf
ROOT
ATOM      1  C   UNL     1       8.992  38.246  25.712  1.00  0.00     0.184 C 
ATOM      2  C   UNL     1       9.462  38.700  27.125  1.00  0.00     0.178 C 
ATOM      3  O   UNL     1       9.919  37.606  27.930  1.00  0.00    -0.341 OA
ATOM      4  C   UNL     1      10.941  36.808  27.330  1.00  0.00     0.282 C 
ATOM      5  C   UNL     1      10.475  36.276  25.940  1.00  0.00     0.202 C 
ATOM      6  C   UNL     1      10.078  37.421  25.013  1.00  0.00     0.180 C 
ENDROOT
BRANCH   1   7
ATOM      7  O   UNL     1       8.652  39.377  24.928  1.00  0.00    -0.341 OA
BRANCH   7   8
ATOM      8  C   UNL     1       7.476  39.173  24.149  1.00  0.00     0.282 C 
ATOM      9  C   UNL     1       8.106  40.574  22.301  1.00  0.00     0.178 C 
ATOM     10  C   UNL     1       7.074  41.656  22.696  1.00  0.00     0.177 C 
ATOM     11  O   UNL     1       7.771  39.268  22.759  1.00  0.00    -0.341 OA
ATOM     12  C   UNL     1       6.748  41.591  24.195  1.00  0.00     0.179 C 
ATOM     13  C   UNL     1       6.372  40.155  24.592  1.00  0.00     0.202 C 
BRANCH   9  14
ATOM     14  C   UNL     1       9.557  40.976  22.634  1.00  0.00     0.191 C 
BRANCH  14  15
ATOM     15  O   UNL     1      10.433  39.910  22.391  1.00  0.00    -0.394 OA
ATOM     16  H   UNL     1      11.297  40.303  22.111  1.00  0.00     0.210 HD
ENDBRANCH  14  15
ENDBRANCH   9  14
BRANCH  10  17
ATOM     17  O   UNL     1       5.904  41.474  21.932  1.00  0.00    -0.387 OA
ATOM     18  H   UNL     1       6.177  41.481  20.977  1.00  0.00     0.211 HD
ENDBRANCH  10  17
BRANCH  12  19
ATOM     19  O   UNL     1       5.688  42.458  24.509  1.00  0.00    -0.387 OA
ATOM     20  H   UNL     1       6.102  43.285  24.864  1.00  0.00     0.211 HD
ENDBRANCH  12  19
BRANCH  13  21
ATOM     21  O   UNL     1       5.141  39.797  24.013  1.00  0.00    -0.385 OA
ATOM     22  H   UNL     1       5.150  38.812  23.893  1.00  0.00     0.211 HD
ENDBRANCH  13  21
ENDBRANCH   7   8
ENDBRANCH   1   7
BRANCH   2  23
ATOM     23  C   UNL     1      10.423  39.933  27.116  1.00  0.00     0.191 C 
BRANCH  23  24
ATOM     24  O   UNL     1      11.059  40.171  28.350  1.00  0.00    -0.394 OA
ATOM     25  H   UNL     1      10.716  39.545  29.040  1.00  0.00     0.210 HD
ENDBRANCH  23  24
ENDBRANCH   2  23
BRANCH   6  26
ATOM     26  O   UNL     1      11.176  38.232  24.701  1.00  0.00    -0.387 OA
ATOM     27  H   UNL     1      11.129  38.426  23.725  1.00  0.00     0.211 HD
ENDBRANCH   6  26
BRANCH   5  28
ATOM     28  O   UNL     1      11.418  35.448  25.317  1.00  0.00    -0.385 OA
ATOM     29  H   UNL     1      12.285  35.588  25.778  1.00  0.00     0.211 HD
ENDBRANCH   5  28
BRANCH   4  30
ATOM     30  O   UNL     1      12.165  37.536  27.356  1.00  0.00    -0.341 OA
BRANCH  30  31
ATOM     31  C   UNL     1      13.236  37.001  28.133  1.00  0.00     0.184 C 
ATOM     32  C   UNL     1      13.682  37.881  29.352  1.00  0.00     0.178 C 
ATOM     33  C   UNL     1      14.470  36.928  27.199  1.00  0.00     0.180 C 
ATOM     34  O   UNL     1      13.823  39.248  29.012  1.00  0.00    -0.342 OA
ATOM     35  C   UNL     1      15.267  38.270  27.179  1.00  0.00     0.201 C 
ATOM     36  C   UNL     1      14.463  39.474  27.756  1.00  0.00     0.279 C 
BRANCH  32  37
ATOM     37  C   UNL     1      12.817  37.756  30.619  1.00  0.00     0.191 C 
BRANCH  37  38
ATOM     38  O   UNL     1      11.524  38.240  30.354  1.00  0.00    -0.394 OA
ATOM     39  H   UNL     1      11.004  37.506  29.930  1.00  0.00     0.210 HD
ENDBRANCH  37  38
ENDBRANCH  32  37
BRANCH  33  40
ATOM     40  O   UNL     1      14.076  36.565  25.897  1.00  0.00    -0.387 OA
ATOM     41  H   UNL     1      14.901  36.533  25.343  1.00  0.00     0.211 HD
ENDBRANCH  33  40
BRANCH  35  42
ATOM     42  O   UNL     1      15.702  38.568  25.875  1.00  0.00    -0.385 OA
ATOM     43  H   UNL     1      16.422  37.917  25.651  1.00  0.00     0.211 HD
ENDBRANCH  35  42
BRANCH  36  44
ATOM     44  O   UNL     1      13.520  39.921  26.822  1.00  0.00    -0.366 OA
ATOM     45  H   UNL     1      12.881  40.497  27.318  1.00  0.00     0.213 HD
ENDBRANCH  36  44
ENDBRANCH  30  31
ENDBRANCH   4  30
TORSDOF 18
ENDMDL
MODEL 6
REMARK VINA RESULT:    -4.525     10.772     14.582
REMARK INTER + INTRA:         -11.242
REMARK INTER:                  -8.439
REMARK INTRA:                  -2.803
REMARK UNBOUND:                -3.411
REMARK SMILES OC[C@@H]1O[C@H](O)[C@H](O)[C@H](O)[C@@H]1O[C@H]1O[C@@H](CO)[C@@H](O[C@@H]2O[C@H](CO)[C@@H](O)[C@@H](O)[C@H]2O)[C@@H](O)[C@H]1O
REMARK SMILES IDX 18 1 15 2 14 3 13 4 33 5 31 6 19 7 20 8 22 9 25 10 21 11
REMARK SMILES IDX 27 12 29 13 23 14 24 15 26 17 28 19 30 21 16 23 17 24 32 26
REMARK SMILES IDX 34 28 12 30 11 31 3 32 9 33 4 34 7 35 5 36 2 37 1 38 10 40
REMARK SMILES IDX 8 42 6 44
REMARK H PARENT 24 16 26 18 28 20 30 22 17 25 32 27 34 29 1 39 10 41 8 43 6 45
REMARK Flexibility Score: inf
ROOT
ATOM      1  C   UNL     1       8.496  42.454  37.549  1.00  0.00     0.184 C 
ATOM      2  C   UNL     1       9.528  41.555  36.808  1.00  0.00     0.178 C 
ATOM      3  O   UNL     1      10.689  41.281  37.602  1.00  0.00    -0.341 OA
ATOM      4  C   UNL     1      10.415  40.721  38.888  1.00  0.00     0.282 C 
ATOM      5  C   UNL     1       9.437  41.634  39.687  1.00  0.00     0.202 C 
ATOM      6  C   UNL     1       8.140  41.866  38.918  1.00  0.00     0.180 C 
ENDROOT
BRANCH   1   7
ATOM      7  O   UNL     1       7.329  42.604  36.758  1.00  0.00    -0.341 OA
BRANCH   7   8
ATOM      8  C   UNL     1       6.340  43.416  37.386  1.00  0.00     0.282 C 
ATOM      9  C   UNL     1       4.957  43.738  35.447  1.00  0.00     0.178 C 
ATOM     10  C   UNL     1       5.392  45.216  35.312  1.00  0.00     0.177 C 
ATOM     11  O   UNL     1       5.069  43.226  36.771  1.00  0.00    -0.341 OA
ATOM     12  C   UNL     1       6.768  45.449  35.951  1.00  0.00     0.179 C 
ATOM     13  C   UNL     1       6.788  44.892  37.382  1.00  0.00     0.202 C 
BRANCH   9  14
ATOM     14  C   UNL     1       5.604  42.821  34.389  1.00  0.00     0.191 C 
BRANCH  14  15
ATOM     15  O   UNL     1       5.439  41.474  34.736  1.00  0.00    -0.394 OA
ATOM     16  H   UNL     1       6.150  41.253  35.389  1.00  0.00     0.210 HD
ENDBRANCH  14  15
ENDBRANCH   9  14
BRANCH  10  17
ATOM     17  O   UNL     1       4.423  46.036  35.923  1.00  0.00    -0.387 OA
ATOM     18  H   UNL     1       4.803  46.338  36.790  1.00  0.00     0.211 HD
ENDBRANCH  10  17
BRANCH  12  19
ATOM     19  O   UNL     1       7.075  46.821  35.976  1.00  0.00    -0.387 OA
ATOM     20  H   UNL     1       7.587  46.975  36.810  1.00  0.00     0.211 HD
ENDBRANCH  12  19
BRANCH  13  21
ATOM     21  O   UNL     1       5.950  45.657  38.214  1.00  0.00    -0.385 OA
ATOM     22  H   UNL     1       6.313  46.581  38.224  1.00  0.00     0.211 HD
ENDBRANCH  13  21
ENDBRANCH   7   8
ENDBRANCH   1   7
BRANCH   2  23
ATOM     23  C   UNL     1       8.908  40.293  36.127  1.00  0.00     0.191 C 
BRANCH  23  24
ATOM     24  O   UNL     1       8.224  40.567  34.928  1.00  0.00    -0.394 OA
ATOM     25  H   UNL     1       7.748  39.755  34.609  1.00  0.00     0.210 HD
ENDBRANCH  23  24
ENDBRANCH   2  23
BRANCH   6  26
ATOM     26  O   UNL     1       7.420  40.676  38.760  1.00  0.00    -0.387 OA
ATOM     27  H   UNL     1       6.963  40.493  39.625  1.00  0.00     0.211 HD
ENDBRANCH   6  26
BRANCH   5  28
ATOM     28  O   UNL     1       9.163  41.161  40.977  1.00  0.00    -0.385 OA
ATOM     29  H   UNL     1       8.537  40.398  40.885  1.00  0.00     0.211 HD
ENDBRANCH   5  28
BRANCH   4  30
ATOM     30  O   UNL     1      10.024  39.361  38.720  1.00  0.00    -0.341 OA
BRANCH  30  31
ATOM     31  C   UNL     1      11.054  38.374  38.704  1.00  0.00     0.184 C 
ATOM     32  C   UNL     1      11.103  37.480  37.417  1.00  0.00     0.178 C 
ATOM     33  C   UNL     1      10.757  37.401  39.873  1.00  0.00     0.180 C 
ATOM     34  O   UNL     1       9.826  37.007  37.034  1.00  0.00    -0.342 OA
ATOM     35  C   UNL     1       9.776  36.264  39.452  1.00  0.00     0.201 C 
ATOM     36  C   UNL     1       9.016  36.563  38.124  1.00  0.00     0.279 C 
BRANCH  32  37
ATOM     37  C   UNL     1      11.804  38.104  36.196  1.00  0.00     0.191 C 
BRANCH  37  38
ATOM     38  O   UNL     1      12.575  39.204  36.609  1.00  0.00    -0.394 OA
ATOM     39  H   UNL     1      11.950  39.933  36.870  1.00  0.00     0.210 HD
ENDBRANCH  37  38
ENDBRANCH  32  37
BRANCH  33  40
ATOM     40  O   UNL     1      10.250  38.110  40.979  1.00  0.00    -0.387 OA
ATOM     41  H   UNL     1       9.631  37.496  41.458  1.00  0.00     0.211 HD
ENDBRANCH  33  40
BRANCH  35  42
ATOM     42  O   UNL     1       8.853  36.000  40.480  1.00  0.00    -0.385 OA
ATOM     43  H   UNL     1       8.223  35.308  40.137  1.00  0.00     0.211 HD
ENDBRANCH  35  42
BRANCH  36  44
ATOM     44  O   UNL     1       7.987  37.485  38.350  1.00  0.00    -0.366 OA
ATOM     45  H   UNL     1       8.178  37.913  39.226  1.00  0.00     0.213 HD
ENDBRANCH  36  44
ENDBRANCH  30  31
ENDBRANCH   4  30
TORSDOF 18
ENDMDL
MODEL 7
REMARK VINA RESULT:    -4.503      9.334     11.298
REMARK INTER + INTRA:         -11.204
REMARK INTER:                  -7.634
REMARK INTRA:                  -3.570
REMARK UNBOUND:                -3.411
REMARK SMILES OC[C@@H]1O[C@H](O)[C@H](O)[C@H](O)[C@@H]1O[C@H]1O[C@@H](CO)[C@@H](O[C@@H]2O[C@H](CO)[C@@H](O)[C@@H](O)[C@H]2O)[C@@H](O)[C@H]1O
REMARK SMILES IDX 18 1 15 2 14 3 13 4 33 5 31 6 19 7 20 8 22 9 25 10 21 11
REMARK SMILES IDX 27 12 29 13 23 14 24 15 26 17 28 19 30 21 16 23 17 24 32 26
REMARK SMILES IDX 34 28 12 30 11 31 3 32 9 33 4 34 7 35 5 36 2 37 1 38 10 40
REMARK SMILES IDX 8 42 6 44
REMARK H PARENT 24 16 26 18 28 20 30 22 17 25 32 27 34 29 1 39 10 41 8 43 6 45
REMARK Flexibility Score: inf
ROOT
ATOM      1  C   UNL     1      16.420  48.824  25.464  1.00  0.00     0.184 C 
ATOM      2  C   UNL     1      16.059  48.373  26.909  1.00  0.00     0.178 C 
ATOM      3  O   UNL     1      15.569  49.451  27.715  1.00  0.00    -0.341 OA
ATOM      4  C   UNL     1      14.462  50.161  27.155  1.00  0.00     0.282 C 
ATOM      5  C   UNL     1      14.814  50.690  25.731  1.00  0.00     0.202 C 
ATOM      6  C   UNL     1      15.243  49.554  24.808  1.00  0.00     0.180 C 
ENDROOT
BRANCH   1   7
ATOM      7  O   UNL     1      16.799  47.701  24.686  1.00  0.00    -0.341 OA
BRANCH   7   8
ATOM      8  C   UNL     1      17.964  47.943  23.902  1.00  0.00     0.282 C 
ATOM      9  C   UNL     1      17.370  46.522  22.056  1.00  0.00     0.178 C 
ATOM     10  C   UNL     1      18.438  45.474  22.447  1.00  0.00     0.177 C 
ATOM     11  O   UNL     1      17.665  47.838  22.513  1.00  0.00    -0.341 OA
ATOM     12  C   UNL     1      18.770  45.550  23.944  1.00  0.00     0.179 C 
ATOM     13  C   UNL     1      19.101  46.997  24.339  1.00  0.00     0.202 C 
BRANCH   9  14
ATOM     14  C   UNL     1      15.935  46.073  22.397  1.00  0.00     0.191 C 
BRANCH  14  15
ATOM     15  O   UNL     1      15.025  47.115  22.174  1.00  0.00    -0.394 OA
ATOM     16  H   UNL     1      14.984  47.259  21.195  1.00  0.00     0.210 HD
ENDBRANCH  14  15
ENDBRANCH   9  14
BRANCH  10  17
ATOM     17  O   UNL     1      19.598  45.693  21.677  1.00  0.00    -0.387 OA
ATOM     18  H   UNL     1      20.232  46.205  22.246  1.00  0.00     0.211 HD
ENDBRANCH  10  17
BRANCH  12  19
ATOM     19  O   UNL     1      19.859  44.717  24.252  1.00  0.00    -0.387 OA
ATOM     20  H   UNL     1      20.466  44.754  23.470  1.00  0.00     0.211 HD
ENDBRANCH  12  19
BRANCH  13  21
ATOM     21  O   UNL     1      20.317  47.395  23.754  1.00  0.00    -0.385 OA
ATOM     22  H   UNL     1      21.045  47.085  24.353  1.00  0.00     0.211 HD
ENDBRANCH  13  21
ENDBRANCH   7   8
ENDBRANCH   1   7
BRANCH   2  23
ATOM     23  C   UNL     1      15.191  47.076  26.979  1.00  0.00     0.191 C 
BRANCH  23  24
ATOM     24  O   UNL     1      14.628  46.831  28.246  1.00  0.00    -0.394 OA
ATOM     25  H   UNL     1      15.326  46.511  28.877  1.00  0.00     0.210 HD
ENDBRANCH  23  24
ENDBRANCH   2  23
BRANCH   6  26
ATOM     26  O   UNL     1      14.191  48.659  24.574  1.00  0.00    -0.387 OA
ATOM     27  H   UNL     1      13.426  49.192  24.224  1.00  0.00     0.211 HD
ENDBRANCH   6  26
BRANCH   5  28
ATOM     28  O   UNL     1      13.783  51.434  25.144  1.00  0.00    -0.385 OA
ATOM     29  H   UNL     1      12.929  51.113  25.533  1.00  0.00     0.211 HD
ENDBRANCH   5  28
BRANCH   4  30
ATOM     30  O   UNL     1      13.297  49.349  27.264  1.00  0.00    -0.341 OA
BRANCH  30  31
ATOM     31  C   UNL     1      12.237  49.822  28.094  1.00  0.00     0.184 C 
ATOM     32  C   UNL     1      11.908  48.922  29.335  1.00  0.00     0.178 C 
ATOM     33  C   UNL     1      10.953  49.815  27.225  1.00  0.00     0.180 C 
ATOM     34  O   UNL     1      11.833  47.548  29.006  1.00  0.00    -0.342 OA
ATOM     35  C   UNL     1      10.240  48.428  27.247  1.00  0.00     0.201 C 
ATOM     36  C   UNL     1      11.144  47.277  27.784  1.00  0.00     0.279 C 
BRANCH  32  37
ATOM     37  C   UNL     1      12.827  49.105  30.556  1.00  0.00     0.191 C 
BRANCH  37  38
ATOM     38  O   UNL     1      14.141  48.743  30.212  1.00  0.00    -0.394 OA
ATOM     39  H   UNL     1      14.697  49.569  30.219  1.00  0.00     0.210 HD
ENDBRANCH  37  38
ENDBRANCH  32  37
BRANCH  33  40
ATOM     40  O   UNL     1      11.258  50.195  25.904  1.00  0.00    -0.387 OA
ATOM     41  H   UNL     1      10.850  51.090  25.759  1.00  0.00     0.211 HD
ENDBRANCH  33  40
BRANCH  35  42
ATOM     42  O   UNL     1       9.757  48.097  25.968  1.00  0.00    -0.385 OA
ATOM     43  H   UNL     1       9.072  47.385  26.089  1.00  0.00     0.211 HD
ENDBRANCH  35  42
BRANCH  36  44
ATOM     44  O   UNL     1      12.063  46.884  26.804  1.00  0.00    -0.366 OA
ATOM     45  H   UNL     1      12.837  47.503  26.877  1.00  0.00     0.213 HD
ENDBRANCH  36  44
ENDBRANCH  30  31
ENDBRANCH   4  30
TORSDOF 18
ENDMDL
MODEL 8
REMARK VINA RESULT:    -4.444      8.490     12.877
REMARK INTER + INTRA:         -11.102
REMARK INTER:                  -7.412
REMARK INTRA:                  -3.690
REMARK UNBOUND:                -3.411
REMARK SMILES OC[C@@H]1O[C@H](O)[C@H](O)[C@H](O)[C@@H]1O[C@H]1O[C@@H](CO)[C@@H](O[C@@H]2O[C@H](CO)[C@@H](O)[C@@H](O)[C@H]2O)[C@@H](O)[C@H]1O
REMARK SMILES IDX 18 1 15 2 14 3 13 4 33 5 31 6 19 7 20 8 22 9 25 10 21 11
REMARK SMILES IDX 27 12 29 13 23 14 24 15 26 17 28 19 30 21 16 23 17 24 32 26
REMARK SMILES IDX 34 28 12 30 11 31 3 32 9 33 4 34 7 35 5 36 2 37 1 38 10 40
REMARK SMILES IDX 8 42 6 44
REMARK H PARENT 24 16 26 18 28 20 30 22 17 25 32 27 34 29 1 39 10 41 8 43 6 45
REMARK Flexibility Score: inf
ROOT
ATOM      1  C   UNL     1      18.835  39.797  31.750  1.00  0.00     0.184 C 
ATOM      2  C   UNL     1      19.058  41.327  31.927  1.00  0.00     0.178 C 
ATOM      3  O   UNL     1      20.396  41.645  32.330  1.00  0.00    -0.341 OA
ATOM      4  C   UNL     1      21.417  41.117  31.481  1.00  0.00     0.282 C 
ATOM      5  C   UNL     1      21.267  39.572  31.338  1.00  0.00     0.202 C 
ATOM      6  C   UNL     1      19.886  39.195  30.810  1.00  0.00     0.180 C 
ENDROOT
BRANCH   1   7
ATOM      7  O   UNL     1      17.531  39.551  31.253  1.00  0.00    -0.341 OA
BRANCH   7   8
ATOM      8  C   UNL     1      17.254  38.163  31.095  1.00  0.00     0.282 C 
ATOM      9  C   UNL     1      15.745  38.377  29.237  1.00  0.00     0.178 C 
ATOM     10  C   UNL     1      14.522  38.027  30.117  1.00  0.00     0.177 C 
ATOM     11  O   UNL     1      16.975  37.857  29.732  1.00  0.00    -0.341 OA
ATOM     12  C   UNL     1      14.787  38.362  31.592  1.00  0.00     0.179 C 
ATOM     13  C   UNL     1      16.115  37.739  32.046  1.00  0.00     0.202 C 
BRANCH   9  14
ATOM     14  C   UNL     1      15.822  39.876  28.883  1.00  0.00     0.191 C 
BRANCH  14  15
ATOM     15  O   UNL     1      17.056  40.181  28.294  1.00  0.00    -0.394 OA
ATOM     16  H   UNL     1      16.996  41.110  27.957  1.00  0.00     0.210 HD
ENDBRANCH  14  15
ENDBRANCH   9  14
BRANCH  10  17
ATOM     17  O   UNL     1      14.229  36.657  29.971  1.00  0.00    -0.387 OA
ATOM     18  H   UNL     1      14.818  36.165  30.603  1.00  0.00     0.211 HD
ENDBRANCH  10  17
BRANCH  12  19
ATOM     19  O   UNL     1      13.743  37.884  32.402  1.00  0.00    -0.387 OA
ATOM     20  H   UNL     1      13.995  38.100  33.336  1.00  0.00     0.211 HD
ENDBRANCH  12  19
BRANCH  13  21
ATOM     21  O   UNL     1      16.008  36.337  32.083  1.00  0.00    -0.385 OA
ATOM     22  H   UNL     1      15.686  36.045  31.190  1.00  0.00     0.211 HD
ENDBRANCH  13  21
ENDBRANCH   7   8
ENDBRANCH   1   7
BRANCH   2  23
ATOM     23  C   UNL     1      18.524  42.195  30.742  1.00  0.00     0.191 C 
BRANCH  23  24
ATOM     24  O   UNL     1      18.964  43.532  30.769  1.00  0.00    -0.394 OA
ATOM     25  H   UNL     1      19.824  43.621  30.280  1.00  0.00     0.210 HD
ENDBRANCH  23  24
ENDBRANCH   2  23
BRANCH   6  26
ATOM     26  O   UNL     1      19.691  39.665  29.505  1.00  0.00    -0.387 OA
ATOM     27  H   UNL     1      19.385  38.891  28.958  1.00  0.00     0.211 HD
ENDBRANCH   6  26
BRANCH   5  28
ATOM     28  O   UNL     1      22.267  38.986  30.552  1.00  0.00    -0.385 OA
ATOM     29  H   UNL     1      22.144  39.316  29.624  1.00  0.00     0.211 HD
ENDBRANCH   5  28
BRANCH   4  30
ATOM     30  O   UNL     1      21.441  41.870  30.272  1.00  0.00    -0.341 OA
BRANCH  30  31
ATOM     31  C   UNL     1      22.605  42.651  30.002  1.00  0.00     0.184 C 
ATOM     32  C   UNL     1      22.368  44.199  29.924  1.00  0.00     0.178 C 
ATOM     33  C   UNL     1      23.103  42.235  28.595  1.00  0.00     0.180 C 
ATOM     34  O   UNL     1      21.235  44.536  29.145  1.00  0.00    -0.342 OA
ATOM     35  C   UNL     1      22.399  43.046  27.463  1.00  0.00     0.201 C 
ATOM     36  C   UNL     1      21.109  43.780  27.939  1.00  0.00     0.279 C 
BRANCH  32  37
ATOM     37  C   UNL     1      22.295  44.933  31.275  1.00  0.00     0.191 C 
BRANCH  37  38
ATOM     38  O   UNL     1      21.185  44.471  32.002  1.00  0.00    -0.394 OA
ATOM     39  H   UNL     1      21.481  43.691  32.546  1.00  0.00     0.210 HD
ENDBRANCH  37  38
ENDBRANCH  32  37
BRANCH  33  40
ATOM     40  O   UNL     1      22.921  40.852  28.402  1.00  0.00    -0.387 OA
ATOM     41  H   UNL     1      22.515  40.495  29.236  1.00  0.00     0.211 HD
ENDBRANCH  33  40
BRANCH  35  42
ATOM     42  O   UNL     1      22.098  42.213  26.371  1.00  0.00    -0.385 OA
ATOM     43  H   UNL     1      22.016  42.799  25.569  1.00  0.00     0.211 HD
ENDBRANCH  35  42
BRANCH  36  44
ATOM     44  O   UNL     1      20.051  42.871  28.064  1.00  0.00    -0.366 OA
ATOM     45  H   UNL     1      19.230  43.410  28.208  1.00  0.00     0.213 HD
ENDBRANCH  36  44
ENDBRANCH  30  31
ENDBRANCH   4  30
TORSDOF 18
ENDMDL
MODEL 9
REMARK VINA RESULT:    -4.436     10.344     12.610
REMARK INTER + INTRA:         -11.088
REMARK INTER:                  -7.594
REMARK INTRA:                  -3.494
REMARK UNBOUND:                -3.411
REMARK SMILES OC[C@@H]1O[C@H](O)[C@H](O)[C@H](O)[C@@H]1O[C@H]1O[C@@H](CO)[C@@H](O[C@@H]2O[C@H](CO)[C@@H](O)[C@@H](O)[C@H]2O)[C@@H](O)[C@H]1O
REMARK SMILES IDX 18 1 15 2 14 3 13 4 33 5 31 6 19 7 20 8 22 9 25 10 21 11
REMARK SMILES IDX 27 12 29 13 23 14 24 15 26 17 28 19 30 21 16 23 17 24 32 26
REMARK SMILES IDX 34 28 12 30 11 31 3 32 9 33 4 34 7 35 5 36 2 37 1 38 10 40
REMARK SMILES IDX 8 42 6 44
REMARK H PARENT 24 16 26 18 28 20 30 22 17 25 32 27 34 29 1 39 10 41 8 43 6 45
REMARK Flexibility Score: inf
ROOT
ATOM      1  C   UNL     1       7.086  40.663  36.490  1.00  0.00     0.184 C 
ATOM      2  C   UNL     1       7.401  41.478  35.202  1.00  0.00     0.178 C 
ATOM      3  O   UNL     1       6.217  41.890  34.508  1.00  0.00    -0.341 OA
ATOM      4  C   UNL     1       5.279  42.616  35.305  1.00  0.00     0.282 C 
ATOM      5  C   UNL     1       4.885  41.795  36.571  1.00  0.00     0.202 C 
ATOM      6  C   UNL     1       6.113  41.425  37.396  1.00  0.00     0.180 C 
ENDROOT
BRANCH   1   7
ATOM      7  O   UNL     1       8.286  40.374  37.187  1.00  0.00    -0.341 OA
BRANCH   7   8
ATOM      8  C   UNL     1       8.184  39.207  37.998  1.00  0.00     0.282 C 
ATOM      9  C   UNL     1       9.596  39.973  39.786  1.00  0.00     0.178 C 
ATOM     10  C   UNL     1      10.731  39.004  39.380  1.00  0.00     0.177 C 
ATOM     11  O   UNL     1       8.301  39.542  39.377  1.00  0.00    -0.341 OA
ATOM     12  C   UNL     1      10.641  38.637  37.891  1.00  0.00     0.179 C 
ATOM     13  C   UNL     1       9.222  38.159  37.549  1.00  0.00     0.202 C 
BRANCH   9  14
ATOM     14  C   UNL     1       9.891  41.438  39.406  1.00  0.00     0.191 C 
BRANCH  14  15
ATOM     15  O   UNL     1       8.781  42.251  39.673  1.00  0.00    -0.394 OA
ATOM     16  H   UNL     1       7.977  41.744  39.395  1.00  0.00     0.210 HD
ENDBRANCH  14  15
ENDBRANCH   9  14
BRANCH  10  17
ATOM     17  O   UNL     1      10.650  37.845  40.175  1.00  0.00    -0.387 OA
ATOM     18  H   UNL     1      10.061  37.204  39.696  1.00  0.00     0.211 HD
ENDBRANCH  10  17
BRANCH  12  19
ATOM     19  O   UNL     1      11.567  37.628  37.574  1.00  0.00    -0.387 OA
ATOM     20  H   UNL     1      12.419  37.887  38.009  1.00  0.00     0.211 HD
ENDBRANCH  12  19
BRANCH  13  21
ATOM     21  O   UNL     1       8.964  36.921  38.168  1.00  0.00    -0.385 OA
ATOM     22  H   UNL     1       9.144  36.215  37.494  1.00  0.00     0.211 HD
ENDBRANCH  13  21
ENDBRANCH   7   8
ENDBRANCH   1   7
BRANCH   2  23
ATOM     23  C   UNL     1       8.452  42.617  35.405  1.00  0.00     0.191 C 
BRANCH  23  24
ATOM     24  O   UNL     1       8.450  43.586  34.383  1.00  0.00    -0.394 OA
ATOM     25  H   UNL     1       8.418  43.147  33.493  1.00  0.00     0.210 HD
ENDBRANCH  23  24
ENDBRANCH   2  23
BRANCH   6  26
ATOM     26  O   UNL     1       6.737  42.562  37.925  1.00  0.00    -0.387 OA
ATOM     27  H   UNL     1       7.060  43.104  37.154  1.00  0.00     0.211 HD
ENDBRANCH   6  26
BRANCH   5  28
ATOM     28  O   UNL     1       3.932  42.435  37.373  1.00  0.00    -0.385 OA
ATOM     29  H   UNL     1       4.419  43.057  37.973  1.00  0.00     0.211 HD
ENDBRANCH   5  28
BRANCH   4  30
ATOM     30  O   UNL     1       5.787  43.928  35.528  1.00  0.00    -0.341 OA
BRANCH  30  31
ATOM     31  C   UNL     1       4.978  45.029  35.116  1.00  0.00     0.184 C 
ATOM     32  C   UNL     1       5.632  45.980  34.055  1.00  0.00     0.178 C 
ATOM     33  C   UNL     1       4.746  45.906  36.373  1.00  0.00     0.180 C 
ATOM     34  O   UNL     1       6.968  46.316  34.378  1.00  0.00    -0.342 OA
ATOM     35  C   UNL     1       5.896  46.939  36.584  1.00  0.00     0.201 C 
ATOM     36  C   UNL     1       7.178  46.613  35.760  1.00  0.00     0.279 C 
BRANCH  32  37
ATOM     37  C   UNL     1       5.566  45.498  32.595  1.00  0.00     0.191 C 
BRANCH  37  38
ATOM     38  O   UNL     1       6.243  44.273  32.473  1.00  0.00    -0.394 OA
ATOM     39  H   UNL     1       6.151  43.787  33.336  1.00  0.00     0.210 HD
ENDBRANCH  37  38
ENDBRANCH  32  37
BRANCH  33  40
ATOM     40  O   UNL     1       4.593  45.093  37.512  1.00  0.00    -0.387 OA
ATOM     41  H   UNL     1       4.332  44.189  37.190  1.00  0.00     0.211 HD
ENDBRANCH  33  40
BRANCH  35  42
ATOM     42  O   UNL     1       6.221  47.046  37.949  1.00  0.00    -0.385 OA
ATOM     43  H   UNL     1       5.781  47.871  38.290  1.00  0.00     0.211 HD
ENDBRANCH  35  42
BRANCH  36  44
ATOM     44  O   UNL     1       7.890  45.568  36.361  1.00  0.00    -0.366 OA
ATOM     45  H   UNL     1       8.520  45.987  37.003  1.00  0.00     0.213 HD
ENDBRANCH  36  44
ENDBRANCH  30  31
ENDBRANCH   4  30
TORSDOF 18
ENDMDL
