MODEL 1
REMARK VINA RESULT:    -4.428      0.000      0.000
REMARK INTER + INTRA:          -5.240
REMARK INTER:                  -5.075
REMARK INTRA:                  -0.164
REMARK UNBOUND:                -0.164
REMARK SMILES CC=Cc1ccc(O)c(OC)c1
REMARK SMILES IDX 4 1 12 2 9 3 7 4 6 5 5 6 3 7 1 8 2 9 10 10 11 11 8 12
REMARK H PARENT 8 13
REMARK Flexibility Score: inf
ROOT
ATOM      1  C   UNL     1      86.161  32.541  66.327  1.00  0.00    -0.022 A 
ATOM      2  C   UNL     1      85.256  32.049  65.366  1.00  0.00     0.058 A 
ATOM      3  C   UNL     1      83.986  31.575  65.752  1.00  0.00     0.161 A 
ATOM      4  C   UNL     1      83.630  31.585  67.107  1.00  0.00     0.157 A 
ATOM      5  C   UNL     1      84.534  32.057  68.066  1.00  0.00     0.051 A 
ATOM      6  C   UNL     1      85.790  32.526  67.680  1.00  0.00     0.012 A 
ENDROOT
BRANCH   1   7
ATOM      7  C   UNL     1      87.512  33.042  65.970  1.00  0.00     0.003 C 
ATOM      8  C   UNL     1      89.125  34.610  64.964  1.00  0.00     0.035 C 
ATOM      9  C   UNL     1      87.732  34.162  65.271  1.00  0.00    -0.030 C 
ENDBRANCH   1   7
BRANCH   3  10
ATOM     10  O   UNL     1      83.056  31.082  64.822  1.00  0.00    -0.493 OA
ATOM     11  C   UNL     1      83.111  29.787  64.235  1.00  0.00     0.278 C 
ENDBRANCH   3  10
BRANCH   4  12
ATOM     12  O   UNL     1      82.375  31.119  67.494  1.00  0.00    -0.504 OA
ATOM     13  H   UNL     1      81.607  31.053  66.837  1.00  0.00     0.293 HD
ENDBRANCH   4  12
TORSDOF 3
ENDMDL
MODEL 2
REMARK VINA RESULT:    -4.360      3.339      3.922
REMARK INTER + INTRA:          -5.161
REMARK INTER:                  -5.015
REMARK INTRA:                  -0.147
REMARK UNBOUND:                -0.164
REMARK SMILES CC=Cc1ccc(O)c(OC)c1
REMARK SMILES IDX 4 1 12 2 9 3 7 4 6 5 5 6 3 7 1 8 2 9 10 10 11 11 8 12
REMARK H PARENT 8 13
REMARK Flexibility Score: inf
ROOT
ATOM      1  C   UNL     1      87.792  30.147  65.377  1.00  0.00    -0.022 A 
ATOM      2  C   UNL     1      86.427  30.451  65.202  1.00  0.00     0.058 A 
ATOM      3  C   UNL     1      85.755  31.292  66.112  1.00  0.00     0.161 A 
ATOM      4  C   UNL     1      86.455  31.820  67.206  1.00  0.00     0.157 A 
ATOM      5  C   UNL     1      87.806  31.507  67.392  1.00  0.00     0.051 A 
ATOM      6  C   UNL     1      88.468  30.674  66.489  1.00  0.00     0.012 A 
ENDROOT
BRANCH   1   7
ATOM      7  C   UNL     1      88.539  29.259  64.452  1.00  0.00     0.003 C 
ATOM      8  C   UNL     1      89.124  27.112  63.394  1.00  0.00     0.035 C 
ATOM      9  C   UNL     1      88.343  27.938  64.365  1.00  0.00    -0.030 C 
ENDBRANCH   1   7
BRANCH   3  10
ATOM     10  O   UNL     1      84.398  31.620  65.967  1.00  0.00    -0.493 OA
ATOM     11  C   UNL     1      83.538  31.079  64.970  1.00  0.00     0.278 C 
ENDBRANCH   3  10
BRANCH   4  12
ATOM     12  O   UNL     1      85.796  32.654  68.107  1.00  0.00    -0.504 OA
ATOM     13  H   UNL     1      86.184  33.548  68.385  1.00  0.00     0.293 HD
ENDBRANCH   4  12
TORSDOF 3
ENDMDL
MODEL 3
REMARK VINA RESULT:    -4.248     14.648     16.270
REMARK INTER + INTRA:          -5.033
REMARK INTER:                  -4.847
REMARK INTRA:                  -0.187
REMARK UNBOUND:                -0.164
REMARK SMILES CC=Cc1ccc(O)c(OC)c1
REMARK SMILES IDX 4 1 12 2 9 3 7 4 6 5 5 6 3 7 1 8 2 9 10 10 11 11 8 12
REMARK H PARENT 8 13
REMARK Flexibility Score: inf
ROOT
ATOM      1  C   UNL     1      77.320  33.903  52.102  1.00  0.00    -0.022 A 
ATOM      2  C   UNL     1      78.429  34.749  51.904  1.00  0.00     0.058 A 
ATOM      3  C   UNL     1      79.743  34.245  51.993  1.00  0.00     0.161 A 
ATOM      4  C   UNL     1      79.941  32.890  52.291  1.00  0.00     0.157 A 
ATOM      5  C   UNL     1      78.842  32.051  52.506  1.00  0.00     0.051 A 
ATOM      6  C   UNL     1      77.543  32.554  52.417  1.00  0.00     0.012 A 
ENDROOT
BRANCH   1   7
ATOM      7  C   UNL     1      75.920  34.390  52.028  1.00  0.00     0.003 C 
ATOM      8  C   UNL     1      73.590  34.629  52.793  1.00  0.00     0.035 C 
ATOM      9  C   UNL     1      74.976  34.086  52.927  1.00  0.00    -0.030 C 
ENDBRANCH   1   7
BRANCH   3  10
ATOM     10  O   UNL     1      80.871  35.056  51.796  1.00  0.00    -0.493 OA
ATOM     11  C   UNL     1      81.258  36.124  52.655  1.00  0.00     0.278 C 
ENDBRANCH   3  10
BRANCH   4  12
ATOM     12  O   UNL     1      81.237  32.386  52.378  1.00  0.00    -0.504 OA
ATOM     13  H   UNL     1      81.969  32.883  52.872  1.00  0.00     0.293 HD
ENDBRANCH   4  12
TORSDOF 3
ENDMDL
MODEL 4
REMARK VINA RESULT:    -4.227      3.148      4.683
REMARK INTER + INTRA:          -5.009
REMARK INTER:                  -4.852
REMARK INTRA:                  -0.157
REMARK UNBOUND:                -0.164
REMARK SMILES CC=Cc1ccc(O)c(OC)c1
REMARK SMILES IDX 4 1 12 2 9 3 7 4 6 5 5 6 3 7 1 8 2 9 10 10 11 11 8 12
REMARK H PARENT 8 13
REMARK Flexibility Score: inf
ROOT
ATOM      1  C   UNL     1      85.752  28.824  64.803  1.00  0.00    -0.022 A 
ATOM      2  C   UNL     1      86.250  30.099  65.142  1.00  0.00     0.058 A 
ATOM      3  C   UNL     1      85.398  31.221  65.163  1.00  0.00     0.161 A 
ATOM      4  C   UNL     1      84.045  31.063  64.833  1.00  0.00     0.157 A 
ATOM      5  C   UNL     1      83.551  29.803  64.480  1.00  0.00     0.051 A 
ATOM      6  C   UNL     1      84.398  28.694  64.460  1.00  0.00     0.012 A 
ENDROOT
BRANCH   1   7
ATOM      7  C   UNL     1      86.613  27.616  64.758  1.00  0.00     0.003 C 
ATOM      8  C   UNL     1      88.745  26.391  64.596  1.00  0.00     0.035 C 
ATOM      9  C   UNL     1      87.943  27.653  64.617  1.00  0.00    -0.030 C 
ENDBRANCH   1   7
BRANCH   3  10
ATOM     10  O   UNL     1      85.857  32.504  65.499  1.00  0.00    -0.493 OA
ATOM     11  C   UNL     1      86.947  33.164  64.864  1.00  0.00     0.278 C 
ENDBRANCH   3  10
BRANCH   4  12
ATOM     12  O   UNL     1      83.197  32.169  64.855  1.00  0.00    -0.504 OA
ATOM     13  H   UNL     1      82.679  32.457  64.033  1.00  0.00     0.293 HD
ENDBRANCH   4  12
TORSDOF 3
ENDMDL
MODEL 5
REMARK VINA RESULT:    -4.187     15.497     16.947
REMARK INTER + INTRA:          -4.964
REMARK INTER:                  -4.789
REMARK INTRA:                  -0.174
REMARK UNBOUND:                -0.164
REMARK SMILES CC=Cc1ccc(O)c(OC)c1
REMARK SMILES IDX 4 1 12 2 9 3 7 4 6 5 5 6 3 7 1 8 2 9 10 10 11 11 8 12
REMARK H PARENT 8 13
REMARK Flexibility Score: inf
ROOT
ATOM      1  C   UNL     1      74.444  34.613  53.578  1.00  0.00    -0.022 A 
ATOM      2  C   UNL     1      75.237  33.527  53.155  1.00  0.00     0.058 A 
ATOM      3  C   UNL     1      76.385  33.740  52.366  1.00  0.00     0.161 A 
ATOM      4  C   UNL     1      76.729  35.046  51.991  1.00  0.00     0.157 A 
ATOM      5  C   UNL     1      75.934  36.125  52.395  1.00  0.00     0.051 A 
ATOM      6  C   UNL     1      74.798  35.909  53.177  1.00  0.00     0.012 A 
ENDROOT
BRANCH   1   7
ATOM      7  C   UNL     1      73.222  34.436  54.401  1.00  0.00     0.003 C 
ATOM      8  C   UNL     1      71.873  34.556  56.460  1.00  0.00     0.035 C 
ATOM      9  C   UNL     1      73.146  34.747  55.700  1.00  0.00    -0.030 C 
ENDBRANCH   1   7
BRANCH   3  10
ATOM     10  O   UNL     1      77.202  32.685  51.931  1.00  0.00    -0.493 OA
ATOM     11  C   UNL     1      78.208  32.063  52.723  1.00  0.00     0.278 C 
ENDBRANCH   3  10
BRANCH   4  12
ATOM     12  O   UNL     1      77.865  35.263  51.213  1.00  0.00    -0.504 OA
ATOM     13  H   UNL     1      78.772  34.901  51.483  1.00  0.00     0.293 HD
ENDBRANCH   4  12
TORSDOF 3
ENDMDL
MODEL 6
REMARK VINA RESULT:    -4.161      3.708      4.928
REMARK INTER + INTRA:          -4.933
REMARK INTER:                  -4.769
REMARK INTRA:                  -0.164
REMARK UNBOUND:                -0.164
REMARK SMILES CC=Cc1ccc(O)c(OC)c1
REMARK SMILES IDX 4 1 12 2 9 3 7 4 6 5 5 6 3 7 1 8 2 9 10 10 11 11 8 12
REMARK H PARENT 8 13
REMARK Flexibility Score: inf
ROOT
ATOM      1  C   UNL     1      88.223  29.805  64.780  1.00  0.00    -0.022 A 
ATOM      2  C   UNL     1      86.942  30.096  65.293  1.00  0.00     0.058 A 
ATOM      3  C   UNL     1      86.464  31.421  65.324  1.00  0.00     0.161 A 
ATOM      4  C   UNL     1      87.279  32.457  64.849  1.00  0.00     0.157 A 
ATOM      5  C   UNL     1      88.558  32.174  64.355  1.00  0.00     0.051 A 
ATOM      6  C   UNL     1      89.028  30.860  64.326  1.00  0.00     0.012 A 
ENDROOT
BRANCH   1   7
ATOM      7  C   UNL     1      88.772  28.427  64.737  1.00  0.00     0.003 C 
ATOM      8  C   UNL     1      88.695  25.998  64.328  1.00  0.00     0.035 C 
ATOM      9  C   UNL     1      88.066  27.354  64.361  1.00  0.00    -0.030 C 
ENDBRANCH   1   7
BRANCH   3  10
ATOM     10  O   UNL     1      85.193  31.748  65.822  1.00  0.00    -0.493 OA
ATOM     11  C   UNL     1      83.973  31.548  65.116  1.00  0.00     0.278 C 
ENDBRANCH   3  10
BRANCH   4  12
ATOM     12  O   UNL     1      86.811  33.770  64.874  1.00  0.00    -0.504 OA
ATOM     13  H   UNL     1      86.301  34.167  64.094  1.00  0.00     0.293 HD
ENDBRANCH   4  12
TORSDOF 3
ENDMDL
MODEL 7
REMARK VINA RESULT:    -3.965      2.617      3.405
REMARK INTER + INTRA:          -4.708
REMARK INTER:                  -4.555
REMARK INTRA:                  -0.154
REMARK UNBOUND:                -0.164
REMARK SMILES CC=Cc1ccc(O)c(OC)c1
REMARK SMILES IDX 4 1 12 2 9 3 7 4 6 5 5 6 3 7 1 8 2 9 10 10 11 11 8 12
REMARK H PARENT 8 13
REMARK Flexibility Score: inf
ROOT
ATOM      1  C   UNL     1      86.789  32.494  65.023  1.00  0.00    -0.022 A 
ATOM      2  C   UNL     1      87.597  31.345  65.142  1.00  0.00     0.058 A 
ATOM      3  C   UNL     1      87.029  30.057  65.076  1.00  0.00     0.161 A 
ATOM      4  C   UNL     1      85.645  29.924  64.901  1.00  0.00     0.157 A 
ATOM      5  C   UNL     1      84.837  31.063  64.800  1.00  0.00     0.051 A 
ATOM      6  C   UNL     1      85.404  32.337  64.866  1.00  0.00     0.012 A 
ENDROOT
BRANCH   1   7
ATOM      7  C   UNL     1      87.341  33.870  65.097  1.00  0.00     0.003 C 
ATOM      8  C   UNL     1      89.125  35.559  65.286  1.00  0.00     0.035 C 
ATOM      9  C   UNL     1      88.643  34.145  65.236  1.00  0.00    -0.030 C 
ENDBRANCH   1   7
BRANCH   3  10
ATOM     10  O   UNL     1      87.802  28.890  65.185  1.00  0.00    -0.493 OA
ATOM     11  C   UNL     1      89.011  28.653  64.471  1.00  0.00     0.278 C 
ENDBRANCH   3  10
BRANCH   4  12
ATOM     12  O   UNL     1      85.078  28.653  64.832  1.00  0.00    -0.504 OA
ATOM     13  H   UNL     1      85.636  27.815  64.946  1.00  0.00     0.293 HD
ENDBRANCH   4  12
TORSDOF 3
ENDMDL
MODEL 8
REMARK VINA RESULT:    -3.931      2.025      2.916
REMARK INTER + INTRA:          -4.670
REMARK INTER:                  -4.527
REMARK INTRA:                  -0.144
REMARK UNBOUND:                -0.164
REMARK SMILES CC=Cc1ccc(O)c(OC)c1
REMARK SMILES IDX 4 1 12 2 9 3 7 4 6 5 5 6 3 7 1 8 2 9 10 10 11 11 8 12
REMARK H PARENT 8 13
REMARK Flexibility Score: inf
ROOT
ATOM      1  C   UNL     1      87.844  32.101  65.432  1.00  0.00    -0.022 A 
ATOM      2  C   UNL     1      86.439  32.104  65.321  1.00  0.00     0.058 A 
ATOM      3  C   UNL     1      85.731  30.901  65.124  1.00  0.00     0.161 A 
ATOM      4  C   UNL     1      86.437  29.695  65.028  1.00  0.00     0.157 A 
ATOM      5  C   UNL     1      87.834  29.690  65.121  1.00  0.00     0.051 A 
ATOM      6  C   UNL     1      88.531  30.883  65.316  1.00  0.00     0.012 A 
ENDROOT
BRANCH   1   7
ATOM      7  C   UNL     1      88.633  33.342  65.630  1.00  0.00     0.003 C 
ATOM      8  C   UNL     1      89.125  35.744  65.386  1.00  0.00     0.035 C 
ATOM      9  C   UNL     1      88.285  34.534  65.130  1.00  0.00    -0.030 C 
ENDBRANCH   1   7
BRANCH   3  10
ATOM     10  O   UNL     1      84.332  30.865  65.015  1.00  0.00    -0.493 OA
ATOM     11  C   UNL     1      83.483  32.002  65.130  1.00  0.00     0.278 C 
ENDBRANCH   3  10
BRANCH   4  12
ATOM     12  O   UNL     1      85.742  28.502  64.836  1.00  0.00    -0.504 OA
ATOM     13  H   UNL     1      84.734  28.486  64.733  1.00  0.00     0.293 HD
ENDBRANCH   4  12
TORSDOF 3
ENDMDL
MODEL 9
REMARK VINA RESULT:    -3.516     14.952     17.034
REMARK INTER + INTRA:          -4.194
REMARK INTER:                  -4.047
REMARK INTRA:                  -0.147
REMARK UNBOUND:                -0.164
REMARK SMILES CC=Cc1ccc(O)c(OC)c1
REMARK SMILES IDX 4 1 12 2 9 3 7 4 6 5 5 6 3 7 1 8 2 9 10 10 11 11 8 12
REMARK H PARENT 8 13
REMARK Flexibility Score: inf
ROOT
ATOM      1  C   UNL     1      77.131  35.212  51.768  1.00  0.00    -0.022 A 
ATOM      2  C   UNL     1      78.107  34.272  52.154  1.00  0.00     0.058 A 
ATOM      3  C   UNL     1      79.377  34.263  51.545  1.00  0.00     0.161 A 
ATOM      4  C   UNL     1      79.664  35.196  50.539  1.00  0.00     0.157 A 
ATOM      5  C   UNL     1      78.692  36.120  50.141  1.00  0.00     0.051 A 
ATOM      6  C   UNL     1      77.434  36.125  50.746  1.00  0.00     0.012 A 
ENDROOT
BRANCH   1   7
ATOM      7  C   UNL     1      75.776  35.253  52.373  1.00  0.00     0.003 C 
ATOM      8  C   UNL     1      73.740  34.289  53.371  1.00  0.00     0.035 C 
ATOM      9  C   UNL     1      75.096  34.165  52.753  1.00  0.00    -0.030 C 
ENDBRANCH   1   7
BRANCH   3  10
ATOM     10  O   UNL     1      80.376  33.345  51.908  1.00  0.00    -0.493 OA
ATOM     11  C   UNL     1      80.126  32.024  52.376  1.00  0.00     0.278 C 
ENDBRANCH   3  10
BRANCH   4  12
ATOM     12  O   UNL     1      80.920  35.194  49.935  1.00  0.00    -0.504 OA
ATOM     13  H   UNL     1      81.512  36.016  49.938  1.00  0.00     0.293 HD
ENDBRANCH   4  12
TORSDOF 3
ENDMDL
