MODEL 1
REMARK VINA RESULT:    -5.291      0.000      0.000
REMARK INTER + INTRA:         -10.490
REMARK INTER:                  -9.777
REMARK INTRA:                  -0.713
REMARK UNBOUND:                -0.713
REMARK SMILES CCCCCCCCCCCCCCCCO
REMARK SMILES IDX 9 1 8 2 7 3 6 4 5 5 4 6 3 7 2 8 1 9 10 10 11 11 12 12 13 13
REMARK SMILES IDX 14 14 15 15 16 16 17 17
REMARK H PARENT 17 18
REMARK Flexibility Score: inf
ROOT
ATOM      1  C   UNL     1       5.973   4.287  14.233  1.00  0.00     0.000 C 
ENDROOT
BRANCH   1   2
ATOM      2  C   UNL     1       6.417   5.290  15.304  1.00  0.00    -0.000 C 
BRANCH   2   3
ATOM      3  C   UNL     1       6.855   6.616  14.671  1.00  0.00    -0.000 C 
BRANCH   3   4
ATOM      4  C   UNL     1       7.946   7.294  15.514  1.00  0.00    -0.000 C 
BRANCH   4   5
ATOM      5  C   UNL     1       8.194   6.575  16.850  1.00  0.00    -0.000 C 
BRANCH   5   6
ATOM      6  C   UNL     1       9.659   6.657  17.303  1.00  0.00    -0.000 C 
BRANCH   6   7
ATOM      7  C   UNL     1       9.776   6.463  18.820  1.00  0.00    -0.000 C 
BRANCH   7   8
ATOM      8  C   UNL     1       9.433   7.755  19.570  1.00  0.00    -0.003 C 
ATOM      9  C   UNL     1       9.333   7.511  21.072  1.00  0.00     0.004 C 
ENDBRANCH   7   8
ENDBRANCH   6   7
ENDBRANCH   5   6
ENDBRANCH   4   5
ENDBRANCH   3   4
ENDBRANCH   2   3
ENDBRANCH   1   2
BRANCH   1  10
ATOM     10  C   UNL     1       5.899   4.952  12.853  1.00  0.00     0.000 C 
BRANCH  10  11
ATOM     11  C   UNL     1       4.666   4.468  12.074  1.00  0.00     0.000 C 
BRANCH  11  12
ATOM     12  C   UNL     1       4.774   2.981  11.674  1.00  0.00     0.000 C 
BRANCH  12  13
ATOM     13  C   UNL     1       3.526   2.446  10.949  1.00  0.00     0.000 C 
BRANCH  13  14
ATOM     14  C   UNL     1       2.232   2.668  11.747  1.00  0.00     0.002 C 
BRANCH  14  15
ATOM     15  C   UNL     1       1.519   1.355  12.111  1.00  0.00     0.028 C 
BRANCH  15  16
ATOM     16  C   UNL     1       2.460   0.142  12.159  1.00  0.00     0.156 C 
BRANCH  16  17
ATOM     17  O   UNL     1       1.868  -0.933  12.836  1.00  0.00    -0.396 OA
ATOM     18  H   UNL     1       1.105  -0.561  13.351  1.00  0.00     0.210 HD
ENDBRANCH  16  17
ENDBRANCH  15  16
ENDBRANCH  14  15
ENDBRANCH  13  14
ENDBRANCH  12  13
ENDBRANCH  11  12
ENDBRANCH  10  11
ENDBRANCH   1  10
TORSDOF 15
ENDMDL
MODEL 2
REMARK VINA RESULT:    -5.248      3.530      9.405
REMARK INTER + INTRA:         -10.409
REMARK INTER:                  -9.631
REMARK INTRA:                  -0.778
REMARK UNBOUND:                -0.713
REMARK SMILES CCCCCCCCCCCCCCCCO
REMARK SMILES IDX 9 1 8 2 7 3 6 4 5 5 4 6 3 7 2 8 1 9 10 10 11 11 12 12 13 13
REMARK SMILES IDX 14 14 15 15 16 16 17 17
REMARK H PARENT 17 18
REMARK Flexibility Score: inf
ROOT
ATOM      1  C   UNL     1       6.029   4.808  14.821  1.00  0.00     0.000 C 
ENDROOT
BRANCH   1   2
ATOM      2  C   UNL     1       5.992   5.279  13.362  1.00  0.00    -0.000 C 
BRANCH   2   3
ATOM      3  C   UNL     1       4.799   4.671  12.616  1.00  0.00    -0.000 C 
BRANCH   3   4
ATOM      4  C   UNL     1       5.160   3.300  12.027  1.00  0.00    -0.000 C 
BRANCH   4   5
ATOM      5  C   UNL     1       4.653   3.121  10.586  1.00  0.00    -0.000 C 
BRANCH   5   6
ATOM      6  C   UNL     1       3.318   2.364  10.518  1.00  0.00    -0.000 C 
BRANCH   6   7
ATOM      7  C   UNL     1       3.161   1.421  11.718  1.00  0.00    -0.000 C 
BRANCH   7   8
ATOM      8  C   UNL     1       1.696   1.329  12.158  1.00  0.00    -0.003 C 
ATOM      9  C   UNL     1       0.895   2.529  11.660  1.00  0.00     0.004 C 
ENDBRANCH   7   8
ENDBRANCH   6   7
ENDBRANCH   5   6
ENDBRANCH   4   5
ENDBRANCH   3   4
ENDBRANCH   2   3
ENDBRANCH   1   2
BRANCH   1  10
ATOM     10  C   UNL     1       6.729   5.837  15.716  1.00  0.00     0.000 C 
BRANCH  10  11
ATOM     11  C   UNL     1       7.984   6.398  15.031  1.00  0.00     0.000 C 
BRANCH  11  12
ATOM     12  C   UNL     1       9.116   6.696  16.037  1.00  0.00     0.000 C 
BRANCH  12  13
ATOM     13  C   UNL     1       8.654   6.686  17.505  1.00  0.00     0.000 C 
BRANCH  13  14
ATOM     14  C   UNL     1       9.818   6.833  18.498  1.00  0.00     0.002 C 
BRANCH  14  15
ATOM     15  C   UNL     1       9.437   6.426  19.932  1.00  0.00     0.028 C 
BRANCH  15  16
ATOM     16  C   UNL     1       9.435   7.600  20.921  1.00  0.00     0.156 C 
BRANCH  16  17
ATOM     17  O   UNL     1       8.874   8.748  20.346  1.00  0.00    -0.396 OA
ATOM     18  H   UNL     1       9.627   9.280  19.977  1.00  0.00     0.210 HD
ENDBRANCH  16  17
ENDBRANCH  15  16
ENDBRANCH  14  15
ENDBRANCH  13  14
ENDBRANCH  12  13
ENDBRANCH  11  12
ENDBRANCH  10  11
ENDBRANCH   1  10
TORSDOF 15
ENDMDL
MODEL 3
REMARK VINA RESULT:    -4.972      3.590      9.550
REMARK INTER + INTRA:          -9.901
REMARK INTER:                  -9.310
REMARK INTRA:                  -0.591
REMARK UNBOUND:                -0.713
REMARK SMILES CCCCCCCCCCCCCCCCO
REMARK SMILES IDX 9 1 8 2 7 3 6 4 5 5 4 6 3 7 2 8 1 9 10 10 11 11 12 12 13 13
REMARK SMILES IDX 14 14 15 15 16 16 17 17
REMARK H PARENT 17 18
REMARK Flexibility Score: inf
ROOT
ATOM      1  C   UNL     1       6.191   5.729  13.602  1.00  0.00     0.000 C 
ENDROOT
BRANCH   1   2
ATOM      2  C   UNL     1       5.251   4.764  12.869  1.00  0.00    -0.000 C 
BRANCH   2   3
ATOM      3  C   UNL     1       5.692   4.563  11.414  1.00  0.00    -0.000 C 
BRANCH   3   4
ATOM      4  C   UNL     1       5.250   3.188  10.891  1.00  0.00    -0.000 C 
BRANCH   4   5
ATOM      5  C   UNL     1       4.234   2.500  11.819  1.00  0.00    -0.000 C 
BRANCH   5   6
ATOM      6  C   UNL     1       2.898   2.208  11.121  1.00  0.00    -0.000 C 
BRANCH   6   7
ATOM      7  C   UNL     1       1.871   1.648  12.114  1.00  0.00    -0.000 C 
BRANCH   7   8
ATOM      8  C   UNL     1       0.454   2.115  11.762  1.00  0.00    -0.003 C 
ATOM      9  C   UNL     1      -0.022   1.493  10.452  1.00  0.00     0.004 C 
ENDBRANCH   7   8
ENDBRANCH   6   7
ENDBRANCH   5   6
ENDBRANCH   4   5
ENDBRANCH   3   4
ENDBRANCH   2   3
ENDBRANCH   1   2
BRANCH   1  10
ATOM     10  C   UNL     1       6.459   5.254  15.035  1.00  0.00     0.000 C 
BRANCH  10  11
ATOM     11  C   UNL     1       7.101   6.369  15.873  1.00  0.00     0.000 C 
BRANCH  11  12
ATOM     12  C   UNL     1       8.516   6.735  15.375  1.00  0.00     0.000 C 
BRANCH  12  13
ATOM     13  C   UNL     1       9.601   6.614  16.459  1.00  0.00     0.000 C 
BRANCH  13  14
ATOM     14  C   UNL     1       9.025   6.630  17.884  1.00  0.00     0.002 C 
BRANCH  14  15
ATOM     15  C   UNL     1      10.037   7.119  18.934  1.00  0.00     0.028 C 
BRANCH  15  16
ATOM     16  C   UNL     1       9.402   7.433  20.296  1.00  0.00     0.156 C 
BRANCH  16  17
ATOM     17  O   UNL     1       8.999   8.774  20.373  1.00  0.00    -0.396 OA
ATOM     18  H   UNL     1       9.825   9.323  20.319  1.00  0.00     0.210 HD
ENDBRANCH  16  17
ENDBRANCH  15  16
ENDBRANCH  14  15
ENDBRANCH  13  14
ENDBRANCH  12  13
ENDBRANCH  11  12
ENDBRANCH  10  11
ENDBRANCH   1  10
TORSDOF 15
ENDMDL
MODEL 4
REMARK VINA RESULT:    -4.813      3.339      9.082
REMARK INTER + INTRA:          -9.605
REMARK INTER:                  -8.816
REMARK INTRA:                  -0.789
REMARK UNBOUND:                -0.713
REMARK SMILES CCCCCCCCCCCCCCCCO
REMARK SMILES IDX 9 1 8 2 7 3 6 4 5 5 4 6 3 7 2 8 1 9 10 10 11 11 12 12 13 13
REMARK SMILES IDX 14 14 15 15 16 16 17 17
REMARK H PARENT 17 18
REMARK Flexibility Score: inf
ROOT
ATOM      1  C   UNL     1       5.218   4.721  12.805  1.00  0.00     0.000 C 
ENDROOT
BRANCH   1   2
ATOM      2  C   UNL     1       6.059   4.835  11.528  1.00  0.00    -0.000 C 
BRANCH   2   3
ATOM      3  C   UNL     1       5.344   4.186  10.337  1.00  0.00    -0.000 C 
BRANCH   3   4
ATOM      4  C   UNL     1       4.785   2.806  10.717  1.00  0.00    -0.000 C 
BRANCH   4   5
ATOM      5  C   UNL     1       3.332   2.608  10.256  1.00  0.00    -0.000 C 
BRANCH   5   6
ATOM      6  C   UNL     1       2.389   2.241  11.412  1.00  0.00    -0.000 C 
BRANCH   6   7
ATOM      7  C   UNL     1       1.570   0.989  11.075  1.00  0.00    -0.000 C 
BRANCH   7   8
ATOM      8  C   UNL     1       1.847  -0.137  12.078  1.00  0.00    -0.003 C 
ATOM      9  C   UNL     1       3.326  -0.191  12.450  1.00  0.00     0.004 C 
ENDBRANCH   7   8
ENDBRANCH   6   7
ENDBRANCH   5   6
ENDBRANCH   4   5
ENDBRANCH   3   4
ENDBRANCH   2   3
ENDBRANCH   1   2
BRANCH   1  10
ATOM     10  C   UNL     1       6.015   4.053  13.932  1.00  0.00     0.000 C 
BRANCH  10  11
ATOM     11  C   UNL     1       6.097   4.966  15.164  1.00  0.00     0.000 C 
BRANCH  11  12
ATOM     12  C   UNL     1       6.767   6.320  14.845  1.00  0.00     0.000 C 
BRANCH  12  13
ATOM     13  C   UNL     1       8.222   6.418  15.336  1.00  0.00     0.000 C 
BRANCH  13  14
ATOM     14  C   UNL     1       8.339   7.056  16.730  1.00  0.00     0.002 C 
BRANCH  14  15
ATOM     15  C   UNL     1       9.534   6.521  17.536  1.00  0.00     0.028 C 
BRANCH  15  16
ATOM     16  C   UNL     1       9.363   6.667  19.055  1.00  0.00     0.156 C 
BRANCH  16  17
ATOM     17  O   UNL     1       9.159   8.006  19.416  1.00  0.00    -0.396 OA
ATOM     18  H   UNL     1       9.076   8.520  18.571  1.00  0.00     0.210 HD
ENDBRANCH  16  17
ENDBRANCH  15  16
ENDBRANCH  14  15
ENDBRANCH  13  14
ENDBRANCH  12  13
ENDBRANCH  11  12
ENDBRANCH  10  11
ENDBRANCH   1  10
TORSDOF 15
ENDMDL
MODEL 5
REMARK VINA RESULT:    -4.758      3.384      6.484
REMARK INTER + INTRA:          -9.505
REMARK INTER:                  -8.903
REMARK INTRA:                  -0.602
REMARK UNBOUND:                -0.713
REMARK SMILES CCCCCCCCCCCCCCCCO
REMARK SMILES IDX 9 1 8 2 7 3 6 4 5 5 4 6 3 7 2 8 1 9 10 10 11 11 12 12 13 13
REMARK SMILES IDX 14 14 15 15 16 16 17 17
REMARK H PARENT 17 18
REMARK Flexibility Score: inf
ROOT
ATOM      1  C   UNL     1       1.318   0.863  11.793  1.00  0.00     0.000 C 
ENDROOT
BRANCH   1   2
ATOM      2  C   UNL     1       2.832   1.095  11.865  1.00  0.00    -0.000 C 
BRANCH   2   3
ATOM      3  C   UNL     1       3.202   2.489  11.344  1.00  0.00    -0.000 C 
BRANCH   3   4
ATOM      4  C   UNL     1       4.723   2.700  11.372  1.00  0.00    -0.000 C 
BRANCH   4   5
ATOM      5  C   UNL     1       5.113   4.181  11.507  1.00  0.00    -0.000 C 
BRANCH   5   6
ATOM      6  C   UNL     1       4.861   4.733  12.918  1.00  0.00    -0.000 C 
BRANCH   6   7
ATOM      7  C   UNL     1       6.093   5.480  13.443  1.00  0.00    -0.000 C 
BRANCH   7   8
ATOM      8  C   UNL     1       6.314   5.198  14.934  1.00  0.00    -0.003 C 
ATOM      9  C   UNL     1       7.030   6.361  15.615  1.00  0.00     0.004 C 
ENDBRANCH   7   8
ENDBRANCH   6   7
ENDBRANCH   5   6
ENDBRANCH   4   5
ENDBRANCH   3   4
ENDBRANCH   2   3
ENDBRANCH   1   2
BRANCH   1  10
ATOM     10  C   UNL     1       0.705   1.593  10.592  1.00  0.00     0.000 C 
BRANCH  10  11
ATOM     11  C   UNL     1      -0.373   0.733   9.917  1.00  0.00     0.000 C 
BRANCH  11  12
ATOM     12  C   UNL     1      -0.162  -0.775  10.170  1.00  0.00     0.000 C 
BRANCH  12  13
ATOM     13  C   UNL     1      -1.472  -1.582  10.211  1.00  0.00     0.000 C 
BRANCH  13  14
ATOM     14  C   UNL     1      -1.343  -2.889  11.010  1.00  0.00     0.002 C 
BRANCH  14  15
ATOM     15  C   UNL     1      -2.695  -3.419  11.513  1.00  0.00     0.028 C 
BRANCH  15  16
ATOM     16  C   UNL     1      -2.564  -4.483  12.614  1.00  0.00     0.156 C 
BRANCH  16  17
ATOM     17  O   UNL     1      -2.983  -3.984  13.855  1.00  0.00    -0.396 OA
ATOM     18  H   UNL     1      -2.335  -3.277  14.112  1.00  0.00     0.210 HD
ENDBRANCH  16  17
ENDBRANCH  15  16
ENDBRANCH  14  15
ENDBRANCH  13  14
ENDBRANCH  12  13
ENDBRANCH  11  12
ENDBRANCH  10  11
ENDBRANCH   1  10
TORSDOF 15
ENDMDL
MODEL 6
REMARK VINA RESULT:    -4.642      3.954     10.897
REMARK INTER + INTRA:          -9.291
REMARK INTER:                  -8.575
REMARK INTRA:                  -0.716
REMARK UNBOUND:                -0.713
REMARK SMILES CCCCCCCCCCCCCCCCO
REMARK SMILES IDX 9 1 8 2 7 3 6 4 5 5 4 6 3 7 2 8 1 9 10 10 11 11 12 12 13 13
REMARK SMILES IDX 14 14 15 15 16 16 17 17
REMARK H PARENT 17 18
REMARK Flexibility Score: inf
ROOT
ATOM      1  C   UNL     1       2.134   0.399  12.001  1.00  0.00     0.000 C 
ENDROOT
BRANCH   1   2
ATOM      2  C   UNL     1       0.918   1.277  11.680  1.00  0.00    -0.000 C 
BRANCH   2   3
ATOM      3  C   UNL     1       0.458   1.075  10.232  1.00  0.00    -0.000 C 
BRANCH   3   4
ATOM      4  C   UNL     1      -0.050  -0.358  10.012  1.00  0.00    -0.000 C 
BRANCH   4   5
ATOM      5  C   UNL     1      -1.585  -0.442   9.965  1.00  0.00    -0.000 C 
BRANCH   5   6
ATOM      6  C   UNL     1      -2.103  -1.883  10.078  1.00  0.00    -0.000 C 
BRANCH   6   7
ATOM      7  C   UNL     1      -1.153  -2.744  10.920  1.00  0.00    -0.000 C 
BRANCH   7   8
ATOM      8  C   UNL     1      -1.886  -3.950  11.518  1.00  0.00    -0.003 C 
ATOM      9  C   UNL     1      -3.398  -3.801  11.377  1.00  0.00     0.004 C 
ENDBRANCH   7   8
ENDBRANCH   6   7
ENDBRANCH   5   6
ENDBRANCH   4   5
ENDBRANCH   3   4
ENDBRANCH   2   3
ENDBRANCH   1   2
BRANCH   1  10
ATOM     10  C   UNL     1       3.443   1.138  11.698  1.00  0.00     0.000 C 
BRANCH  10  11
ATOM     11  C   UNL     1       3.247   2.659  11.776  1.00  0.00     0.000 C 
BRANCH  11  12
ATOM     12  C   UNL     1       4.498   3.436  11.312  1.00  0.00     0.000 C 
BRANCH  12  13
ATOM     13  C   UNL     1       5.579   3.569  12.399  1.00  0.00     0.000 C 
BRANCH  13  14
ATOM     14  C   UNL     1       5.480   4.889  13.180  1.00  0.00     0.002 C 
BRANCH  14  15
ATOM     15  C   UNL     1       6.083   4.797  14.592  1.00  0.00     0.028 C 
BRANCH  15  16
ATOM     16  C   UNL     1       6.992   5.982  14.947  1.00  0.00     0.156 C 
BRANCH  16  17
ATOM     17  O   UNL     1       6.414   7.199  14.560  1.00  0.00    -0.396 OA
ATOM     18  H   UNL     1       5.665   6.977  13.947  1.00  0.00     0.210 HD
ENDBRANCH  16  17
ENDBRANCH  15  16
ENDBRANCH  14  15
ENDBRANCH  13  14
ENDBRANCH  12  13
ENDBRANCH  11  12
ENDBRANCH  10  11
ENDBRANCH   1  10
TORSDOF 15
ENDMDL
MODEL 7
REMARK VINA RESULT:    -4.594      3.155      5.596
REMARK INTER + INTRA:          -9.202
REMARK INTER:                  -8.310
REMARK INTRA:                  -0.891
REMARK UNBOUND:                -0.713
REMARK SMILES CCCCCCCCCCCCCCCCO
REMARK SMILES IDX 9 1 8 2 7 3 6 4 5 5 4 6 3 7 2 8 1 9 10 10 11 11 12 12 13 13
REMARK SMILES IDX 14 14 15 15 16 16 17 17
REMARK H PARENT 17 18
REMARK Flexibility Score: inf
ROOT
ATOM      1  C   UNL     1       2.989   1.468  11.590  1.00  0.00     0.000 C 
ENDROOT
BRANCH   1   2
ATOM      2  C   UNL     1       3.300   2.948  11.846  1.00  0.00    -0.000 C 
BRANCH   2   3
ATOM      3  C   UNL     1       4.535   3.396  11.056  1.00  0.00    -0.000 C 
BRANCH   3   4
ATOM      4  C   UNL     1       5.433   4.304  11.910  1.00  0.00    -0.000 C 
BRANCH   4   5
ATOM      5  C   UNL     1       5.972   3.595  13.163  1.00  0.00    -0.000 C 
BRANCH   5   6
ATOM      6  C   UNL     1       6.087   4.535  14.372  1.00  0.00    -0.000 C 
BRANCH   6   7
ATOM      7  C   UNL     1       6.068   6.004  13.929  1.00  0.00    -0.000 C 
BRANCH   7   8
ATOM      8  C   UNL     1       7.386   6.702  14.280  1.00  0.00    -0.003 C 
ATOM      9  C   UNL     1       7.918   7.504  13.096  1.00  0.00     0.004 C 
ENDBRANCH   7   8
ENDBRANCH   6   7
ENDBRANCH   5   6
ENDBRANCH   4   5
ENDBRANCH   3   4
ENDBRANCH   2   3
ENDBRANCH   1   2
BRANCH   1  10
ATOM     10  C   UNL     1       1.557   1.124  12.018  1.00  0.00     0.000 C 
BRANCH  10  11
ATOM     11  C   UNL     1       0.531   1.878  11.160  1.00  0.00     0.000 C 
BRANCH  11  12
ATOM     12  C   UNL     1      -0.232   0.940  10.200  1.00  0.00     0.000 C 
BRANCH  12  13
ATOM     13  C   UNL     1       0.087  -0.550  10.413  1.00  0.00     0.000 C 
BRANCH  13  14
ATOM     14  C   UNL     1      -1.033  -1.477   9.915  1.00  0.00     0.002 C 
BRANCH  14  15
ATOM     15  C   UNL     1      -2.426  -0.829   9.994  1.00  0.00     0.028 C 
BRANCH  15  16
ATOM     16  C   UNL     1      -3.472  -1.710  10.693  1.00  0.00     0.156 C 
BRANCH  16  17
ATOM     17  O   UNL     1      -2.900  -2.442  11.742  1.00  0.00    -0.396 OA
ATOM     18  H   UNL     1      -2.710  -1.796  12.472  1.00  0.00     0.210 HD
ENDBRANCH  16  17
ENDBRANCH  15  16
ENDBRANCH  14  15
ENDBRANCH  13  14
ENDBRANCH  12  13
ENDBRANCH  11  12
ENDBRANCH  10  11
ENDBRANCH   1  10
TORSDOF 15
ENDMDL
MODEL 8
REMARK VINA RESULT:    -4.477      4.479     11.381
REMARK INTER + INTRA:          -8.985
REMARK INTER:                  -8.576
REMARK INTRA:                  -0.409
REMARK UNBOUND:                -0.713
REMARK SMILES CCCCCCCCCCCCCCCCO
REMARK SMILES IDX 9 1 8 2 7 3 6 4 5 5 4 6 3 7 2 8 1 9 10 10 11 11 12 12 13 13
REMARK SMILES IDX 14 14 15 15 16 16 17 17
REMARK H PARENT 17 18
REMARK Flexibility Score: inf
ROOT
ATOM      1  C   UNL     1       1.358   1.491  12.088  1.00  0.00     0.000 C 
ENDROOT
BRANCH   1   2
ATOM      2  C   UNL     1       0.276   1.417  11.003  1.00  0.00    -0.000 C 
BRANCH   2   3
ATOM      3  C   UNL     1       0.353   0.091  10.237  1.00  0.00    -0.000 C 
BRANCH   3   4
ATOM      4  C   UNL     1      -1.051  -0.479   9.983  1.00  0.00    -0.000 C 
BRANCH   4   5
ATOM      5  C   UNL     1      -1.103  -2.009  10.127  1.00  0.00    -0.000 C 
BRANCH   5   6
ATOM      6  C   UNL     1      -2.362  -2.491  10.864  1.00  0.00    -0.000 C 
BRANCH   6   7
ATOM      7  C   UNL     1      -2.035  -3.656  11.806  1.00  0.00    -0.000 C 
BRANCH   7   8
ATOM      8  C   UNL     1      -3.076  -4.774  11.682  1.00  0.00    -0.003 C 
ATOM      9  C   UNL     1      -2.499  -6.116  12.122  1.00  0.00     0.004 C 
ENDBRANCH   7   8
ENDBRANCH   6   7
ENDBRANCH   5   6
ENDBRANCH   4   5
ENDBRANCH   3   4
ENDBRANCH   2   3
ENDBRANCH   1   2
BRANCH   1  10
ATOM     10  C   UNL     1       2.320   2.657  11.828  1.00  0.00     0.000 C 
BRANCH  10  11
ATOM     11  C   UNL     1       3.733   2.144  11.515  1.00  0.00     0.000 C 
BRANCH  11  12
ATOM     12  C   UNL     1       4.730   3.295  11.262  1.00  0.00     0.000 C 
BRANCH  12  13
ATOM     13  C   UNL     1       5.544   3.690  12.507  1.00  0.00     0.000 C 
BRANCH  13  14
ATOM     14  C   UNL     1       5.920   5.180  12.527  1.00  0.00     0.002 C 
BRANCH  14  15
ATOM     15  C   UNL     1       5.996   5.760  13.949  1.00  0.00     0.028 C 
BRANCH  15  16
ATOM     16  C   UNL     1       7.148   6.757  14.142  1.00  0.00     0.156 C 
BRANCH  16  17
ATOM     17  O   UNL     1       6.665   8.049  14.392  1.00  0.00    -0.396 OA
ATOM     18  H   UNL     1       5.675   7.979  14.441  1.00  0.00     0.210 HD
ENDBRANCH  16  17
ENDBRANCH  15  16
ENDBRANCH  14  15
ENDBRANCH  13  14
ENDBRANCH  12  13
ENDBRANCH  11  12
ENDBRANCH  10  11
ENDBRANCH   1  10
TORSDOF 15
ENDMDL
MODEL 9
REMARK VINA RESULT:    -4.452      3.352     10.022
REMARK INTER + INTRA:          -8.940
REMARK INTER:                  -8.292
REMARK INTRA:                  -0.648
REMARK UNBOUND:                -0.713
REMARK SMILES CCCCCCCCCCCCCCCCO
REMARK SMILES IDX 9 1 8 2 7 3 6 4 5 5 4 6 3 7 2 8 1 9 10 10 11 11 12 12 13 13
REMARK SMILES IDX 14 14 15 15 16 16 17 17
REMARK H PARENT 17 18
REMARK Flexibility Score: inf
ROOT
ATOM      1  C   UNL     1       4.381   2.245  11.568  1.00  0.00     0.000 C 
ENDROOT
BRANCH   1   2
ATOM      2  C   UNL     1       2.928   2.415  11.106  1.00  0.00    -0.000 C 
BRANCH   2   3
ATOM      3  C   UNL     1       1.948   1.893  12.162  1.00  0.00    -0.000 C 
BRANCH   3   4
ATOM      4  C   UNL     1       0.515   2.356  11.859  1.00  0.00    -0.000 C 
BRANCH   4   5
ATOM      5  C   UNL     1       0.226   2.438  10.351  1.00  0.00    -0.000 C 
BRANCH   5   6
ATOM      6  C   UNL     1      -0.746   1.349   9.875  1.00  0.00    -0.000 C 
BRANCH   6   7
ATOM      7  C   UNL     1      -0.231  -0.047  10.246  1.00  0.00    -0.000 C 
BRANCH   7   8
ATOM      8  C   UNL     1      -1.315  -1.109  10.032  1.00  0.00    -0.003 C 
ATOM      9  C   UNL     1      -0.724  -2.516  10.069  1.00  0.00     0.004 C 
ENDBRANCH   7   8
ENDBRANCH   6   7
ENDBRANCH   5   6
ENDBRANCH   4   5
ENDBRANCH   3   4
ENDBRANCH   2   3
ENDBRANCH   1   2
BRANCH   1  10
ATOM     10  C   UNL     1       5.270   3.364  11.015  1.00  0.00     0.000 C 
BRANCH  10  11
ATOM     11  C   UNL     1       5.269   4.581  11.951  1.00  0.00     0.000 C 
BRANCH  11  12
ATOM     12  C   UNL     1       5.965   4.285  13.297  1.00  0.00     0.000 C 
BRANCH  12  13
ATOM     13  C   UNL     1       6.062   5.511  14.223  1.00  0.00     0.000 C 
BRANCH  13  14
ATOM     14  C   UNL     1       7.117   6.527  13.758  1.00  0.00     0.002 C 
BRANCH  14  15
ATOM     15  C   UNL     1       7.433   7.592  14.822  1.00  0.00     0.028 C 
BRANCH  15  16
ATOM     16  C   UNL     1       7.760   7.001  16.201  1.00  0.00     0.156 C 
BRANCH  16  17
ATOM     17  O   UNL     1       9.042   6.435  16.221  1.00  0.00    -0.396 OA
ATOM     18  H   UNL     1       9.665   7.152  16.511  1.00  0.00     0.210 HD
ENDBRANCH  16  17
ENDBRANCH  15  16
ENDBRANCH  14  15
ENDBRANCH  13  14
ENDBRANCH  12  13
ENDBRANCH  11  12
ENDBRANCH  10  11
ENDBRANCH   1  10
TORSDOF 15
ENDMDL
