MODEL 1
REMARK VINA RESULT:    -4.358      0.000      0.000
REMARK INTER + INTRA:         -12.420
REMARK INTER:                  -9.454
REMARK INTRA:                  -2.965
REMARK UNBOUND:                -2.965
REMARK SMILES CCCCCCCCCCCCCCCCCCCCCC(=O)[O-]
REMARK SMILES IDX 12 1 11 2 10 3 9 4 8 5 7 6 6 7 5 8 4 9 3 10 2 11 1 12 13 13
REMARK SMILES IDX 14 14 15 15 16 16 17 17 18 18 19 19 20 20 21 21 22 22 23 23
REMARK SMILES IDX 24 24
REMARK H PARENT
REMARK Flexibility Score: inf
ROOT
ATOM      1  C   UNL     1      19.577  24.440  19.658  1.00  0.00     0.000 C 
ENDROOT
BRANCH   1   2
ATOM      2  C   UNL     1      19.840  24.558  21.172  1.00  0.00     0.000 C 
BRANCH   2   3
ATOM      3  C   UNL     1      19.112  23.495  22.024  1.00  0.00     0.000 C 
BRANCH   3   4
ATOM      4  C   UNL     1      18.312  22.504  21.161  1.00  0.00    -0.000 C 
BRANCH   4   5
ATOM      5  C   UNL     1      17.458  21.534  21.995  1.00  0.00    -0.000 C 
BRANCH   5   6
ATOM      6  C   UNL     1      17.613  20.044  21.630  1.00  0.00    -0.000 C 
BRANCH   6   7
ATOM      7  C   UNL     1      18.838  19.700  20.758  1.00  0.00    -0.000 C 
BRANCH   7   8
ATOM      8  C   UNL     1      18.768  18.338  20.046  1.00  0.00    -0.000 C 
BRANCH   8   9
ATOM      9  C   UNL     1      17.667  18.282  18.976  1.00  0.00    -0.000 C 
BRANCH   9  10
ATOM     10  C   UNL     1      18.011  19.110  17.726  1.00  0.00    -0.000 C 
BRANCH  10  11
ATOM     11  C   UNL     1      17.178  20.402  17.595  1.00  0.00    -0.003 C 
ATOM     12  C   UNL     1      18.048  21.659  17.570  1.00  0.00     0.004 C 
ENDBRANCH  10  11
ENDBRANCH   9  10
ENDBRANCH   8   9
ENDBRANCH   7   8
ENDBRANCH   6   7
ENDBRANCH   5   6
ENDBRANCH   4   5
ENDBRANCH   3   4
ENDBRANCH   2   3
ENDBRANCH   1   2
BRANCH   1  13
ATOM     13  C   UNL     1      20.714  24.941  18.752  1.00  0.00     0.000 C 
BRANCH  13  14
ATOM     14  C   UNL     1      21.390  23.814  17.953  1.00  0.00     0.000 C 
BRANCH  14  15
ATOM     15  C   UNL     1      21.373  22.466  18.698  1.00  0.00     0.000 C 
BRANCH  15  16
ATOM     16  C   UNL     1      22.415  22.331  19.827  1.00  0.00     0.000 C 
BRANCH  16  17
ATOM     17  C   UNL     1      21.986  21.439  21.008  1.00  0.00     0.000 C 
BRANCH  17  18
ATOM     18  C   UNL     1      23.018  20.380  21.431  1.00  0.00     0.000 C 
BRANCH  18  19
ATOM     19  C   UNL     1      22.446  18.954  21.419  1.00  0.00     0.000 C 
BRANCH  19  20
ATOM     20  C   UNL     1      23.566  17.915  21.263  1.00  0.00     0.006 C 
BRANCH  20  21
ATOM     21  C   UNL     1      24.916  18.562  20.922  1.00  0.00     0.053 C 
BRANCH  21  22
ATOM     22  C   UNL     1      25.641  17.806  19.853  1.00  0.00     0.041 C 
ATOM     23  O   UNL     1      25.028  17.407  18.828  1.00  0.00    -0.550 OA
ATOM     24  O   UNL     1      27.005  17.569  19.977  1.00  0.00    -0.550 OA
ENDBRANCH  21  22
ENDBRANCH  20  21
ENDBRANCH  19  20
ENDBRANCH  18  19
ENDBRANCH  17  18
ENDBRANCH  16  17
ENDBRANCH  15  16
ENDBRANCH  14  15
ENDBRANCH  13  14
ENDBRANCH   1  13
TORSDOF 20
ENDMDL
MODEL 2
REMARK VINA RESULT:    -4.290      1.587      2.870
REMARK INTER + INTRA:         -12.271
REMARK INTER:                  -9.747
REMARK INTRA:                  -2.524
REMARK UNBOUND:                -2.965
REMARK SMILES CCCCCCCCCCCCCCCCCCCCCC(=O)[O-]
REMARK SMILES IDX 12 1 11 2 10 3 9 4 8 5 7 6 6 7 5 8 4 9 3 10 2 11 1 12 13 13
REMARK SMILES IDX 14 14 15 15 16 16 17 17 18 18 19 19 20 20 21 21 22 22 23 23
REMARK SMILES IDX 24 24
REMARK H PARENT
REMARK Flexibility Score: inf
ROOT
ATOM      1  C   UNL     1      19.654  24.551  19.578  1.00  0.00     0.000 C 
ENDROOT
BRANCH   1   2
ATOM      2  C   UNL     1      19.867  24.626  21.102  1.00  0.00     0.000 C 
BRANCH   2   3
ATOM      3  C   UNL     1      19.149  23.513  21.897  1.00  0.00     0.000 C 
BRANCH   3   4
ATOM      4  C   UNL     1      18.384  22.544  20.979  1.00  0.00    -0.000 C 
BRANCH   4   5
ATOM      5  C   UNL     1      17.327  21.715  21.729  1.00  0.00    -0.000 C 
BRANCH   5   6
ATOM      6  C   UNL     1      17.552  20.190  21.706  1.00  0.00    -0.000 C 
BRANCH   6   7
ATOM      7  C   UNL     1      18.730  19.708  20.834  1.00  0.00    -0.000 C 
BRANCH   7   8
ATOM      8  C   UNL     1      18.778  18.190  20.587  1.00  0.00    -0.000 C 
BRANCH   8   9
ATOM      9  C   UNL     1      18.418  17.372  21.837  1.00  0.00    -0.000 C 
BRANCH   9  10
ATOM     10  C   UNL     1      19.625  17.136  22.760  1.00  0.00    -0.000 C 
BRANCH  10  11
ATOM     11  C   UNL     1      19.374  16.060  23.837  1.00  0.00    -0.003 C 
ATOM     12  C   UNL     1      18.754  16.639  25.110  1.00  0.00     0.004 C 
ENDBRANCH  10  11
ENDBRANCH   9  10
ENDBRANCH   8   9
ENDBRANCH   7   8
ENDBRANCH   6   7
ENDBRANCH   5   6
ENDBRANCH   4   5
ENDBRANCH   3   4
ENDBRANCH   2   3
ENDBRANCH   1   2
BRANCH   1  13
ATOM     13  C   UNL     1      20.900  24.836  18.724  1.00  0.00     0.000 C 
BRANCH  13  14
ATOM     14  C   UNL     1      21.361  23.619  17.903  1.00  0.00     0.000 C 
BRANCH  14  15
ATOM     15  C   UNL     1      21.394  22.322  18.733  1.00  0.00     0.000 C 
BRANCH  15  16
ATOM     16  C   UNL     1      22.455  22.291  19.852  1.00  0.00     0.000 C 
BRANCH  16  17
ATOM     17  C   UNL     1      22.028  21.550  21.135  1.00  0.00     0.000 C 
BRANCH  17  18
ATOM     18  C   UNL     1      22.988  20.438  21.593  1.00  0.00     0.000 C 
BRANCH  18  19
ATOM     19  C   UNL     1      22.390  19.032  21.431  1.00  0.00     0.000 C 
BRANCH  19  20
ATOM     20  C   UNL     1      23.471  18.021  21.023  1.00  0.00     0.006 C 
BRANCH  20  21
ATOM     21  C   UNL     1      24.821  18.694  20.739  1.00  0.00     0.053 C 
BRANCH  21  22
ATOM     22  C   UNL     1      25.758  17.778  20.016  1.00  0.00     0.041 C 
ATOM     23  O   UNL     1      27.004  17.906  20.149  1.00  0.00    -0.550 OA
ATOM     24  O   UNL     1      25.252  16.761  19.216  1.00  0.00    -0.550 OA
ENDBRANCH  21  22
ENDBRANCH  20  21
ENDBRANCH  19  20
ENDBRANCH  18  19
ENDBRANCH  17  18
ENDBRANCH  16  17
ENDBRANCH  15  16
ENDBRANCH  14  15
ENDBRANCH  13  14
ENDBRANCH   1  13
TORSDOF 20
ENDMDL
MODEL 3
REMARK VINA RESULT:    -4.246      3.062      5.569
REMARK INTER + INTRA:         -12.176
REMARK INTER:                  -9.381
REMARK INTRA:                  -2.795
REMARK UNBOUND:                -2.965
REMARK SMILES CCCCCCCCCCCCCCCCCCCCCC(=O)[O-]
REMARK SMILES IDX 12 1 11 2 10 3 9 4 8 5 7 6 6 7 5 8 4 9 3 10 2 11 1 12 13 13
REMARK SMILES IDX 14 14 15 15 16 16 17 17 18 18 19 19 20 20 21 21 22 22 23 23
REMARK SMILES IDX 24 24
REMARK H PARENT
REMARK Flexibility Score: inf
ROOT
ATOM      1  C   UNL     1      21.339  23.693  17.649  1.00  0.00     0.000 C 
ENDROOT
BRANCH   1   2
ATOM      2  C   UNL     1      20.577  24.888  18.254  1.00  0.00     0.000 C 
BRANCH   2   3
ATOM      3  C   UNL     1      20.788  25.068  19.774  1.00  0.00     0.000 C 
BRANCH   3   4
ATOM      4  C   UNL     1      19.730  24.319  20.602  1.00  0.00    -0.000 C 
BRANCH   4   5
ATOM      5  C   UNL     1      20.344  23.438  21.704  1.00  0.00    -0.000 C 
BRANCH   5   6
ATOM      6  C   UNL     1      21.671  22.748  21.329  1.00  0.00    -0.000 C 
BRANCH   6   7
ATOM      7  C   UNL     1      21.554  21.265  20.921  1.00  0.00    -0.000 C 
BRANCH   7   8
ATOM      8  C   UNL     1      22.702  20.364  21.409  1.00  0.00    -0.000 C 
BRANCH   8   9
ATOM      9  C   UNL     1      22.281  18.894  21.560  1.00  0.00    -0.000 C 
BRANCH   9  10
ATOM     10  C   UNL     1      23.358  17.914  21.064  1.00  0.00    -0.000 C 
BRANCH  10  11
ATOM     11  C   UNL     1      24.792  18.474  21.168  1.00  0.00    -0.003 C 
ATOM     12  C   UNL     1      25.647  18.123  19.949  1.00  0.00     0.004 C 
ENDBRANCH  10  11
ENDBRANCH   9  10
ENDBRANCH   8   9
ENDBRANCH   7   8
ENDBRANCH   6   7
ENDBRANCH   5   6
ENDBRANCH   4   5
ENDBRANCH   3   4
ENDBRANCH   2   3
ENDBRANCH   1   2
BRANCH   1  13
ATOM     13  C   UNL     1      20.526  22.395  17.513  1.00  0.00     0.000 C 
BRANCH  13  14
ATOM     14  C   UNL     1      19.036  22.644  17.228  1.00  0.00     0.000 C 
BRANCH  14  15
ATOM     15  C   UNL     1      18.114  21.985  18.271  1.00  0.00     0.000 C 
BRANCH  15  16
ATOM     16  C   UNL     1      18.685  20.716  18.937  1.00  0.00     0.000 C 
BRANCH  16  17
ATOM     17  C   UNL     1      18.134  20.414  20.345  1.00  0.00     0.000 C 
BRANCH  17  18
ATOM     18  C   UNL     1      18.526  19.039  20.913  1.00  0.00     0.000 C 
BRANCH  18  19
ATOM     19  C   UNL     1      17.708  18.654  22.156  1.00  0.00     0.000 C 
BRANCH  19  20
ATOM     20  C   UNL     1      18.054  17.231  22.621  1.00  0.00     0.006 C 
BRANCH  20  21
ATOM     21  C   UNL     1      19.385  17.176  23.382  1.00  0.00     0.053 C 
BRANCH  21  22
ATOM     22  C   UNL     1      19.194  16.760  24.807  1.00  0.00     0.041 C 
ATOM     23  O   UNL     1      19.848  17.319  25.727  1.00  0.00    -0.550 OA
ATOM     24  O   UNL     1      18.267  15.773  25.121  1.00  0.00    -0.550 OA
ENDBRANCH  21  22
ENDBRANCH  20  21
ENDBRANCH  19  20
ENDBRANCH  18  19
ENDBRANCH  17  18
ENDBRANCH  16  17
ENDBRANCH  15  16
ENDBRANCH  14  15
ENDBRANCH  13  14
ENDBRANCH   1  13
TORSDOF 20
ENDMDL
MODEL 4
REMARK VINA RESULT:    -4.236      3.152      5.885
REMARK INTER + INTRA:         -12.154
REMARK INTER:                  -9.812
REMARK INTRA:                  -2.342
REMARK UNBOUND:                -2.965
REMARK SMILES CCCCCCCCCCCCCCCCCCCCCC(=O)[O-]
REMARK SMILES IDX 12 1 11 2 10 3 9 4 8 5 7 6 6 7 5 8 4 9 3 10 2 11 1 12 13 13
REMARK SMILES IDX 14 14 15 15 16 16 17 17 18 18 19 19 20 20 21 21 22 22 23 23
REMARK SMILES IDX 24 24
REMARK H PARENT
REMARK Flexibility Score: inf
ROOT
ATOM      1  C   UNL     1      19.819  24.269  21.463  1.00  0.00     0.000 C 
ENDROOT
BRANCH   1   2
ATOM      2  C   UNL     1      19.510  24.629  19.996  1.00  0.00     0.000 C 
BRANCH   2   3
ATOM      3  C   UNL     1      20.740  25.102  19.190  1.00  0.00     0.000 C 
BRANCH   3   4
ATOM      4  C   UNL     1      21.110  24.123  18.063  1.00  0.00    -0.000 C 
BRANCH   4   5
ATOM      5  C   UNL     1      21.129  22.655  18.526  1.00  0.00    -0.000 C 
BRANCH   5   6
ATOM      6  C   UNL     1      22.185  22.320  19.599  1.00  0.00    -0.000 C 
BRANCH   6   7
ATOM      7  C   UNL     1      21.777  21.229  20.610  1.00  0.00    -0.000 C 
BRANCH   7   8
ATOM      8  C   UNL     1      22.948  20.552  21.343  1.00  0.00    -0.000 C 
BRANCH   8   9
ATOM      9  C   UNL     1      22.639  19.100  21.744  1.00  0.00    -0.000 C 
BRANCH   9  10
ATOM     10  C   UNL     1      23.654  18.098  21.169  1.00  0.00    -0.000 C 
BRANCH  10  11
ATOM     11  C   UNL     1      24.691  18.745  20.227  1.00  0.00    -0.003 C 
ATOM     12  C   UNL     1      26.078  18.113  20.362  1.00  0.00     0.004 C 
ENDBRANCH  10  11
ENDBRANCH   9  10
ENDBRANCH   8   9
ENDBRANCH   7   8
ENDBRANCH   6   7
ENDBRANCH   5   6
ENDBRANCH   4   5
ENDBRANCH   3   4
ENDBRANCH   2   3
ENDBRANCH   1   2
BRANCH   1  13
ATOM     13  C   UNL     1      18.987  23.114  22.045  1.00  0.00     0.000 C 
BRANCH  13  14
ATOM     14  C   UNL     1      18.163  22.368  20.982  1.00  0.00     0.000 C 
BRANCH  14  15
ATOM     15  C   UNL     1      17.144  21.392  21.599  1.00  0.00     0.000 C 
BRANCH  15  16
ATOM     16  C   UNL     1      17.220  19.946  21.068  1.00  0.00     0.000 C 
BRANCH  16  17
ATOM     17  C   UNL     1      17.973  18.956  21.978  1.00  0.00     0.000 C 
BRANCH  17  18
ATOM     18  C   UNL     1      19.042  18.107  21.269  1.00  0.00     0.000 C 
BRANCH  18  19
ATOM     19  C   UNL     1      19.122  16.673  21.814  1.00  0.00     0.000 C 
BRANCH  19  20
ATOM     20  C   UNL     1      20.311  16.517  22.774  1.00  0.00     0.006 C 
BRANCH  20  21
ATOM     21  C   UNL     1      19.914  15.820  24.083  1.00  0.00     0.053 C 
BRANCH  21  22
ATOM     22  C   UNL     1      19.227  16.758  25.025  1.00  0.00     0.041 C 
ATOM     23  O   UNL     1      19.895  17.439  25.848  1.00  0.00    -0.550 OA
ATOM     24  O   UNL     1      17.845  16.903  24.973  1.00  0.00    -0.550 OA
ENDBRANCH  21  22
ENDBRANCH  20  21
ENDBRANCH  19  20
ENDBRANCH  18  19
ENDBRANCH  17  18
ENDBRANCH  16  17
ENDBRANCH  15  16
ENDBRANCH  14  15
ENDBRANCH  13  14
ENDBRANCH   1  13
TORSDOF 20
ENDMDL
MODEL 5
REMARK VINA RESULT:    -4.146      1.613      3.408
REMARK INTER + INTRA:         -11.960
REMARK INTER:                  -8.833
REMARK INTRA:                  -3.127
REMARK UNBOUND:                -2.965
REMARK SMILES CCCCCCCCCCCCCCCCCCCCCC(=O)[O-]
REMARK SMILES IDX 12 1 11 2 10 3 9 4 8 5 7 6 6 7 5 8 4 9 3 10 2 11 1 12 13 13
REMARK SMILES IDX 14 14 15 15 16 16 17 17 18 18 19 19 20 20 21 21 22 22 23 23
REMARK SMILES IDX 24 24
REMARK H PARENT
REMARK Flexibility Score: inf
ROOT
ATOM      1  C   UNL     1      21.242  23.720  17.666  1.00  0.00     0.000 C 
ENDROOT
BRANCH   1   2
ATOM      2  C   UNL     1      20.485  22.379  17.742  1.00  0.00     0.000 C 
BRANCH   2   3
ATOM      3  C   UNL     1      19.141  22.369  16.980  1.00  0.00     0.000 C 
BRANCH   3   4
ATOM      4  C   UNL     1      17.964  21.964  17.883  1.00  0.00    -0.000 C 
BRANCH   4   5
ATOM      5  C   UNL     1      18.358  20.938  18.960  1.00  0.00    -0.000 C 
BRANCH   5   6
ATOM      6  C   UNL     1      17.503  20.972  20.243  1.00  0.00    -0.000 C 
BRANCH   6   7
ATOM      7  C   UNL     1      17.924  19.979  21.346  1.00  0.00    -0.000 C 
BRANCH   7   8
ATOM      8  C   UNL     1      19.042  19.001  20.947  1.00  0.00    -0.000 C 
BRANCH   8   9
ATOM      9  C   UNL     1      18.696  17.539  21.270  1.00  0.00    -0.000 C 
BRANCH   9  10
ATOM     10  C   UNL     1      19.943  16.647  21.397  1.00  0.00    -0.000 C 
BRANCH  10  11
ATOM     11  C   UNL     1      20.055  15.937  22.762  1.00  0.00    -0.003 C 
ATOM     12  C   UNL     1      19.532  16.797  23.913  1.00  0.00     0.004 C 
ENDBRANCH  10  11
ENDBRANCH   9  10
ENDBRANCH   8   9
ENDBRANCH   7   8
ENDBRANCH   6   7
ENDBRANCH   5   6
ENDBRANCH   4   5
ENDBRANCH   3   4
ENDBRANCH   2   3
ENDBRANCH   1   2
BRANCH   1  13
ATOM     13  C   UNL     1      20.516  24.921  18.291  1.00  0.00     0.000 C 
BRANCH  13  14
ATOM     14  C   UNL     1      20.688  25.002  19.818  1.00  0.00     0.000 C 
BRANCH  14  15
ATOM     15  C   UNL     1      19.576  24.257  20.580  1.00  0.00     0.000 C 
BRANCH  15  16
ATOM     16  C   UNL     1      20.063  23.110  21.489  1.00  0.00     0.000 C 
BRANCH  16  17
ATOM     17  C   UNL     1      21.562  22.772  21.366  1.00  0.00     0.000 C 
BRANCH  17  18
ATOM     18  C   UNL     1      21.868  21.374  20.802  1.00  0.00     0.000 C 
BRANCH  18  19
ATOM     19  C   UNL     1      22.860  20.586  21.670  1.00  0.00     0.000 C 
BRANCH  19  20
ATOM     20  C   UNL     1      22.651  19.073  21.506  1.00  0.00     0.006 C 
BRANCH  20  21
ATOM     21  C   UNL     1      23.976  18.299  21.512  1.00  0.00     0.053 C 
BRANCH  21  22
ATOM     22  C   UNL     1      24.432  17.966  20.125  1.00  0.00     0.041 C 
ATOM     23  O   UNL     1      25.297  18.679  19.551  1.00  0.00    -0.550 OA
ATOM     24  O   UNL     1      23.921  16.847  19.478  1.00  0.00    -0.550 OA
ENDBRANCH  21  22
ENDBRANCH  20  21
ENDBRANCH  19  20
ENDBRANCH  18  19
ENDBRANCH  17  18
ENDBRANCH  16  17
ENDBRANCH  15  16
ENDBRANCH  14  15
ENDBRANCH  13  14
ENDBRANCH   1  13
TORSDOF 20
ENDMDL
MODEL 6
REMARK VINA RESULT:    -4.124      1.364      3.323
REMARK INTER + INTRA:         -11.910
REMARK INTER:                  -8.937
REMARK INTRA:                  -2.974
REMARK UNBOUND:                -2.965
REMARK SMILES CCCCCCCCCCCCCCCCCCCCCC(=O)[O-]
REMARK SMILES IDX 12 1 11 2 10 3 9 4 8 5 7 6 6 7 5 8 4 9 3 10 2 11 1 12 13 13
REMARK SMILES IDX 14 14 15 15 16 16 17 17 18 18 19 19 20 20 21 21 22 22 23 23
REMARK SMILES IDX 24 24
REMARK H PARENT
REMARK Flexibility Score: inf
ROOT
ATOM      1  C   UNL     1      20.487  25.084  19.766  1.00  0.00     0.000 C 
ENDROOT
BRANCH   1   2
ATOM      2  C   UNL     1      20.427  24.954  18.231  1.00  0.00     0.000 C 
BRANCH   2   3
ATOM      3  C   UNL     1      21.365  23.871  17.652  1.00  0.00     0.000 C 
BRANCH   3   4
ATOM      4  C   UNL     1      20.677  22.500  17.547  1.00  0.00    -0.000 C 
BRANCH   4   5
ATOM      5  C   UNL     1      19.230  22.592  17.032  1.00  0.00    -0.000 C 
BRANCH   5   6
ATOM      6  C   UNL     1      18.174  21.898  17.916  1.00  0.00    -0.000 C 
BRANCH   6   7
ATOM      7  C   UNL     1      18.704  20.757  18.808  1.00  0.00    -0.000 C 
BRANCH   7   8
ATOM      8  C   UNL     1      18.180  20.763  20.254  1.00  0.00    -0.000 C 
BRANCH   8   9
ATOM      9  C   UNL     1      18.642  19.539  21.060  1.00  0.00    -0.000 C 
BRANCH   9  10
ATOM     10  C   UNL     1      18.870  18.300  20.177  1.00  0.00    -0.000 C 
BRANCH  10  11
ATOM     11  C   UNL     1      19.944  17.340  20.731  1.00  0.00    -0.003 C 
ATOM     12  C   UNL     1      19.860  17.182  22.250  1.00  0.00     0.004 C 
ENDBRANCH  10  11
ENDBRANCH   9  10
ENDBRANCH   8   9
ENDBRANCH   7   8
ENDBRANCH   6   7
ENDBRANCH   5   6
ENDBRANCH   4   5
ENDBRANCH   3   4
ENDBRANCH   2   3
ENDBRANCH   1   2
BRANCH   1  13
ATOM     13  C   UNL     1      19.652  24.055  20.546  1.00  0.00     0.000 C 
BRANCH  13  14
ATOM     14  C   UNL     1      20.445  23.359  21.665  1.00  0.00     0.000 C 
BRANCH  14  15
ATOM     15  C   UNL     1      21.786  22.783  21.171  1.00  0.00     0.000 C 
BRANCH  15  16
ATOM     16  C   UNL     1      21.793  21.259  20.934  1.00  0.00     0.000 C 
BRANCH  16  17
ATOM     17  C   UNL     1      22.876  20.483  21.710  1.00  0.00     0.000 C 
BRANCH  17  18
ATOM     18  C   UNL     1      22.995  18.993  21.343  1.00  0.00     0.000 C 
BRANCH  18  19
ATOM     19  C   UNL     1      24.454  18.525  21.221  1.00  0.00     0.000 C 
BRANCH  19  20
ATOM     20  C   UNL     1      24.895  18.486  19.750  1.00  0.00     0.006 C 
BRANCH  20  21
ATOM     21  C   UNL     1      25.896  17.355  19.474  1.00  0.00     0.053 C 
BRANCH  21  22
ATOM     22  C   UNL     1      25.419  16.445  18.385  1.00  0.00     0.041 C 
ATOM     23  O   UNL     1      26.008  16.421  17.272  1.00  0.00    -0.550 OA
ATOM     24  O   UNL     1      24.340  15.600  18.612  1.00  0.00    -0.550 OA
ENDBRANCH  21  22
ENDBRANCH  20  21
ENDBRANCH  19  20
ENDBRANCH  18  19
ENDBRANCH  17  18
ENDBRANCH  16  17
ENDBRANCH  15  16
ENDBRANCH  14  15
ENDBRANCH  13  14
ENDBRANCH   1  13
TORSDOF 20
ENDMDL
MODEL 7
REMARK VINA RESULT:    -4.101      3.257      5.082
REMARK INTER + INTRA:         -11.861
REMARK INTER:                  -9.056
REMARK INTRA:                  -2.805
REMARK UNBOUND:                -2.965
REMARK SMILES CCCCCCCCCCCCCCCCCCCCCC(=O)[O-]
REMARK SMILES IDX 12 1 11 2 10 3 9 4 8 5 7 6 6 7 5 8 4 9 3 10 2 11 1 12 13 13
REMARK SMILES IDX 14 14 15 15 16 16 17 17 18 18 19 19 20 20 21 21 22 22 23 23
REMARK SMILES IDX 24 24
REMARK H PARENT
REMARK Flexibility Score: inf
ROOT
ATOM      1  C   UNL     1      21.725  20.827  20.994  1.00  0.00     0.000 C 
ENDROOT
BRANCH   1   2
ATOM      2  C   UNL     1      21.898  22.340  20.753  1.00  0.00     0.000 C 
BRANCH   2   3
ATOM      3  C   UNL     1      21.077  23.230  21.712  1.00  0.00     0.000 C 
BRANCH   3   4
ATOM      4  C   UNL     1      19.649  23.479  21.198  1.00  0.00    -0.000 C 
BRANCH   4   5
ATOM      5  C   UNL     1      18.578  22.743  22.023  1.00  0.00    -0.000 C 
BRANCH   5   6
ATOM      6  C   UNL     1      17.712  21.743  21.230  1.00  0.00    -0.000 C 
BRANCH   6   7
ATOM      7  C   UNL     1      18.340  21.215  19.924  1.00  0.00    -0.000 C 
BRANCH   7   8
ATOM      8  C   UNL     1      17.500  21.449  18.657  1.00  0.00    -0.000 C 
BRANCH   8   9
ATOM      9  C   UNL     1      18.362  21.673  17.405  1.00  0.00    -0.000 C 
BRANCH   9  10
ATOM     10  C   UNL     1      19.686  22.390  17.717  1.00  0.00    -0.000 C 
BRANCH  10  11
ATOM     11  C   UNL     1      19.673  23.890  17.354  1.00  0.00    -0.003 C 
ATOM     12  C   UNL     1      20.828  24.658  17.999  1.00  0.00     0.004 C 
ENDBRANCH  10  11
ENDBRANCH   9  10
ENDBRANCH   8   9
ENDBRANCH   7   8
ENDBRANCH   6   7
ENDBRANCH   5   6
ENDBRANCH   4   5
ENDBRANCH   3   4
ENDBRANCH   2   3
ENDBRANCH   1   2
BRANCH   1  13
ATOM     13  C   UNL     1      22.881  20.145  21.744  1.00  0.00     0.000 C 
BRANCH  13  14
ATOM     14  C   UNL     1      23.825  19.364  20.816  1.00  0.00     0.000 C 
BRANCH  14  15
ATOM     15  C   UNL     1      24.044  17.911  21.279  1.00  0.00     0.000 C 
BRANCH  15  16
ATOM     16  C   UNL     1      23.786  16.837  20.203  1.00  0.00     0.000 C 
BRANCH  16  17
ATOM     17  C   UNL     1      22.317  16.391  20.065  1.00  0.00     0.000 C 
BRANCH  17  18
ATOM     18  C   UNL     1      21.502  16.431  21.369  1.00  0.00     0.000 C 
BRANCH  18  19
ATOM     19  C   UNL     1      20.316  17.406  21.300  1.00  0.00     0.000 C 
BRANCH  19  20
ATOM     20  C   UNL     1      19.292  17.103  22.404  1.00  0.00     0.006 C 
BRANCH  20  21
ATOM     21  C   UNL     1      19.949  16.514  23.660  1.00  0.00     0.053 C 
BRANCH  21  22
ATOM     22  C   UNL     1      19.228  16.923  24.907  1.00  0.00     0.041 C 
ATOM     23  O   UNL     1      19.859  17.439  25.868  1.00  0.00    -0.550 OA
ATOM     24  O   UNL     1      17.850  16.760  24.995  1.00  0.00    -0.550 OA
ENDBRANCH  21  22
ENDBRANCH  20  21
ENDBRANCH  19  20
ENDBRANCH  18  19
ENDBRANCH  17  18
ENDBRANCH  16  17
ENDBRANCH  15  16
ENDBRANCH  14  15
ENDBRANCH  13  14
ENDBRANCH   1  13
TORSDOF 20
ENDMDL
MODEL 8
REMARK VINA RESULT:    -4.072      2.452      5.363
REMARK INTER + INTRA:         -11.798
REMARK INTER:                  -9.136
REMARK INTRA:                  -2.662
REMARK UNBOUND:                -2.965
REMARK SMILES CCCCCCCCCCCCCCCCCCCCCC(=O)[O-]
REMARK SMILES IDX 12 1 11 2 10 3 9 4 8 5 7 6 6 7 5 8 4 9 3 10 2 11 1 12 13 13
REMARK SMILES IDX 14 14 15 15 16 16 17 17 18 18 19 19 20 20 21 21 22 22 23 23
REMARK SMILES IDX 24 24
REMARK H PARENT
REMARK Flexibility Score: inf
ROOT
ATOM      1  C   UNL     1      23.301  20.103  21.026  1.00  0.00     0.000 C 
ENDROOT
BRANCH   1   2
ATOM      2  C   UNL     1      21.969  20.862  21.195  1.00  0.00     0.000 C 
BRANCH   2   3
ATOM      3  C   UNL     1      22.085  22.391  21.004  1.00  0.00     0.000 C 
BRANCH   3   4
ATOM      4  C   UNL     1      22.142  22.790  19.520  1.00  0.00    -0.000 C 
BRANCH   4   5
ATOM      5  C   UNL     1      21.240  23.991  19.187  1.00  0.00    -0.000 C 
BRANCH   5   6
ATOM      6  C   UNL     1      21.015  24.245  17.683  1.00  0.00    -0.000 C 
BRANCH   6   7
ATOM      7  C   UNL     1      19.595  23.936  17.165  1.00  0.00    -0.000 C 
BRANCH   7   8
ATOM      8  C   UNL     1      19.226  22.443  17.129  1.00  0.00    -0.000 C 
BRANCH   8   9
ATOM      9  C   UNL     1      18.223  22.053  18.226  1.00  0.00    -0.000 C 
BRANCH   9  10
ATOM     10  C   UNL     1      18.811  21.057  19.241  1.00  0.00    -0.000 C 
BRANCH  10  11
ATOM     11  C   UNL     1      18.279  21.256  20.675  1.00  0.00    -0.003 C 
ATOM     12  C   UNL     1      18.372  22.710  21.138  1.00  0.00     0.004 C 
ENDBRANCH  10  11
ENDBRANCH   9  10
ENDBRANCH   8   9
ENDBRANCH   7   8
ENDBRANCH   6   7
ENDBRANCH   5   6
ENDBRANCH   4   5
ENDBRANCH   3   4
ENDBRANCH   2   3
ENDBRANCH   1   2
BRANCH   1  13
ATOM     13  C   UNL     1      23.271  18.623  21.442  1.00  0.00     0.000 C 
BRANCH  13  14
ATOM     14  C   UNL     1      24.655  17.955  21.393  1.00  0.00     0.000 C 
BRANCH  14  15
ATOM     15  C   UNL     1      25.468  18.364  20.150  1.00  0.00     0.000 C 
BRANCH  15  16
ATOM     16  C   UNL     1      26.185  17.205  19.429  1.00  0.00     0.000 C 
BRANCH  16  17
ATOM     17  C   UNL     1      25.378  16.542  18.295  1.00  0.00     0.000 C 
BRANCH  17  18
ATOM     18  C   UNL     1      24.428  15.419  18.746  1.00  0.00     0.000 C 
BRANCH  18  19
ATOM     19  C   UNL     1      22.973  15.890  18.886  1.00  0.00     0.000 C 
BRANCH  19  20
ATOM     20  C   UNL     1      22.289  15.211  20.082  1.00  0.00     0.006 C 
BRANCH  20  21
ATOM     21  C   UNL     1      20.927  15.839  20.407  1.00  0.00     0.053 C 
BRANCH  21  22
ATOM     22  C   UNL     1      20.762  16.081  21.875  1.00  0.00     0.041 C 
ATOM     23  O   UNL     1      21.253  15.278  22.712  1.00  0.00    -0.550 OA
ATOM     24  O   UNL     1      20.090  17.214  22.318  1.00  0.00    -0.550 OA
ENDBRANCH  21  22
ENDBRANCH  20  21
ENDBRANCH  19  20
ENDBRANCH  18  19
ENDBRANCH  17  18
ENDBRANCH  16  17
ENDBRANCH  15  16
ENDBRANCH  14  15
ENDBRANCH  13  14
ENDBRANCH   1  13
TORSDOF 20
ENDMDL
MODEL 9
REMARK VINA RESULT:    -4.027      2.826      5.605
REMARK INTER + INTRA:         -11.701
REMARK INTER:                  -9.046
REMARK INTRA:                  -2.655
REMARK UNBOUND:                -2.965
REMARK SMILES CCCCCCCCCCCCCCCCCCCCCC(=O)[O-]
REMARK SMILES IDX 12 1 11 2 10 3 9 4 8 5 7 6 6 7 5 8 4 9 3 10 2 11 1 12 13 13
REMARK SMILES IDX 14 14 15 15 16 16 17 17 18 18 19 19 20 20 21 21 22 22 23 23
REMARK SMILES IDX 24 24
REMARK H PARENT
REMARK Flexibility Score: inf
ROOT
ATOM      1  C   UNL     1      21.539  22.767  18.741  1.00  0.00     0.000 C 
ENDROOT
BRANCH   1   2
ATOM      2  C   UNL     1      22.506  22.384  19.879  1.00  0.00     0.000 C 
BRANCH   2   3
ATOM      3  C   UNL     1      21.872  21.496  20.973  1.00  0.00     0.000 C 
BRANCH   3   4
ATOM      4  C   UNL     1      22.903  20.568  21.639  1.00  0.00    -0.000 C 
BRANCH   4   5
ATOM      5  C   UNL     1      22.609  19.076  21.401  1.00  0.00    -0.000 C 
BRANCH   5   6
ATOM      6  C   UNL     1      23.848  18.159  21.380  1.00  0.00    -0.000 C 
BRANCH   6   7
ATOM      7  C   UNL     1      24.830  18.400  20.215  1.00  0.00    -0.000 C 
BRANCH   7   8
ATOM      8  C   UNL     1      25.043  17.195  19.282  1.00  0.00    -0.000 C 
BRANCH   8   9
ATOM      9  C   UNL     1      23.988  16.096  19.482  1.00  0.00    -0.000 C 
BRANCH   9  10
ATOM     10  C   UNL     1      23.283  15.705  18.172  1.00  0.00    -0.000 C 
BRANCH  10  11
ATOM     11  C   UNL     1      21.748  15.609  18.304  1.00  0.00    -0.003 C 
ATOM     12  C   UNL     1      21.250  16.065  19.676  1.00  0.00     0.004 C 
ENDBRANCH  10  11
ENDBRANCH   9  10
ENDBRANCH   8   9
ENDBRANCH   7   8
ENDBRANCH   6   7
ENDBRANCH   5   6
ENDBRANCH   4   5
ENDBRANCH   3   4
ENDBRANCH   2   3
ENDBRANCH   1   2
BRANCH   1  13
ATOM     13  C   UNL     1      21.008  24.209  18.788  1.00  0.00     0.000 C 
BRANCH  13  14
ATOM     14  C   UNL     1      19.556  24.300  19.287  1.00  0.00     0.000 C 
BRANCH  14  15
ATOM     15  C   UNL     1      19.455  24.284  20.824  1.00  0.00     0.000 C 
BRANCH  15  16
ATOM     16  C   UNL     1      18.740  23.053  21.418  1.00  0.00     0.000 C 
BRANCH  16  17
ATOM     17  C   UNL     1      18.226  22.034  20.383  1.00  0.00     0.000 C 
BRANCH  17  18
ATOM     18  C   UNL     1      17.910  20.638  20.947  1.00  0.00     0.000 C 
BRANCH  18  19
ATOM     19  C   UNL     1      18.887  19.561  20.452  1.00  0.00     0.000 C 
BRANCH  19  20
ATOM     20  C   UNL     1      18.508  18.180  21.006  1.00  0.00     0.006 C 
BRANCH  20  21
ATOM     21  C   UNL     1      17.939  18.261  22.429  1.00  0.00     0.053 C 
BRANCH  21  22
ATOM     22  C   UNL     1      18.696  17.388  23.381  1.00  0.00     0.041 C 
ATOM     23  O   UNL     1      18.247  17.166  24.536  1.00  0.00    -0.550 OA
ATOM     24  O   UNL     1      19.887  16.795  22.977  1.00  0.00    -0.550 OA
ENDBRANCH  21  22
ENDBRANCH  20  21
ENDBRANCH  19  20
ENDBRANCH  18  19
ENDBRANCH  17  18
ENDBRANCH  16  17
ENDBRANCH  15  16
ENDBRANCH  14  15
ENDBRANCH  13  14
ENDBRANCH   1  13
TORSDOF 20
ENDMDL
