MODEL 1
REMARK VINA RESULT:    -7.468      0.000      0.000
REMARK INTER + INTRA:         -14.183
REMARK INTER:                 -11.834
REMARK INTRA:                  -2.349
REMARK UNBOUND:                -2.349
REMARK SMILES C[C@H]1O[C@@H](O[C@@H]2[C@H](Oc3cc(O)c4c(c3)O[C@H](c3ccc(O)cc3)CC4=O)O[C@H](CO)[C@@H](O)[C@H]2O)[C@H](O)[C@H](O)[C@H]1O
REMARK SMILES IDX 6 1 34 2 32 3 29 4 28 5 7 6 5 7 4 8 1 9 2 10 40 11 3 12
REMARK SMILES IDX 38 13 36 14 41 15 39 17 37 19 35 21 8 23 9 24 10 25 15 26
REMARK SMILES IDX 11 27 14 28 13 29 16 30 26 31 17 32 27 33 25 34 12 35 18 37
REMARK SMILES IDX 19 38 24 39 20 40 23 41 21 42 22 43 33 45 30 47 31 48
REMARK H PARENT 41 16 39 18 37 20 35 22 12 36 22 44 33 46 31 49
REMARK Flexibility Score: inf
ROOT
ATOM      1  C   UNL     1     166.846 143.657 148.985  1.00  0.00     0.221 C 
ATOM      2  C   UNL     1     166.687 142.874 150.294  1.00  0.00     0.181 C 
ATOM      3  C   UNL     1     165.353 142.117 150.296  1.00  0.00     0.177 C 
ATOM      4  C   UNL     1     164.176 143.071 149.979  1.00  0.00     0.179 C 
ATOM      5  O   UNL     1     164.377 143.833 148.792  1.00  0.00    -0.332 OA
ATOM      6  C   UNL     1     165.607 144.549 148.754  1.00  0.00     0.339 C 
ENDROOT
BRANCH   1   7
ATOM      7  O   UNL     1     168.016 144.458 149.082  1.00  0.00    -0.337 OA
BRANCH   7   8
ATOM      8  C   UNL     1     168.966 144.190 148.056  1.00  0.00     0.282 C 
ATOM      9  C   UNL     1     170.220 145.643 150.519  1.00  0.00     0.041 C 
ATOM     10  C   UNL     1     170.795 145.305 149.132  1.00  0.00     0.150 C 
ATOM     11  C   UNL     1     170.739 146.482 148.122  1.00  0.00     0.174 C 
ATOM     12  O   UNL     1     170.273 144.084 148.608  1.00  0.00    -0.344 OA
ATOM     13  C   UNL     1     169.339 146.622 147.511  1.00  0.00     0.179 C 
ATOM     14  C   UNL     1     168.889 145.266 146.954  1.00  0.00     0.202 C 
BRANCH  11  15
ATOM     15  O   UNL     1     171.105 147.690 148.740  1.00  0.00    -0.388 OA
ATOM     16  H   UNL     1     170.335 148.308 148.634  1.00  0.00     0.211 HD
ENDBRANCH  11  15
BRANCH  13  17
ATOM     17  O   UNL     1     169.347 147.573 146.479  1.00  0.00    -0.387 OA
ATOM     18  H   UNL     1     168.677 148.265 146.721  1.00  0.00     0.211 HD
ENDBRANCH  13  17
BRANCH  14  19
ATOM     19  O   UNL     1     169.704 144.877 145.875  1.00  0.00    -0.385 OA
ATOM     20  H   UNL     1     170.329 145.627 145.697  1.00  0.00     0.211 HD
ENDBRANCH  14  19
ENDBRANCH   7   8
ENDBRANCH   1   7
BRANCH   2  21
ATOM     21  O   UNL     1     167.740 141.952 150.436  1.00  0.00    -0.387 OA
ATOM     22  H   UNL     1     167.539 141.187 149.839  1.00  0.00     0.211 HD
ENDBRANCH   2  21
BRANCH   6  23
ATOM     23  O   UNL     1     165.604 145.641 149.677  1.00  0.00    -0.462 OA
BRANCH  23  24
ATOM     24  C   UNL     1     165.483 146.996 149.333  1.00  0.00     0.130 A 
ATOM     25  C   UNL     1     164.495 147.748 149.969  1.00  0.00     0.093 A 
ATOM     26  C   UNL     1     166.309 147.615 148.384  1.00  0.00     0.094 A 
ATOM     27  C   UNL     1     164.312 149.104 149.675  1.00  0.00     0.133 A 
ATOM     28  C   UNL     1     166.186 148.981 148.122  1.00  0.00     0.138 A 
ATOM     29  C   UNL     1     165.196 149.750 148.770  1.00  0.00     0.102 A 
ATOM     30  O   UNL     1     167.061 149.571 147.202  1.00  0.00    -0.484 OA
ATOM     31  C   UNL     1     165.169 151.205 148.474  1.00  0.00     0.174 C 
ATOM     32  C   UNL     1     167.285 150.980 147.134  1.00  0.00     0.211 C 
ATOM     33  O   UNL     1     164.521 152.013 149.191  1.00  0.00    -0.294 OA
ATOM     34  C   UNL     1     165.960 151.748 147.317  1.00  0.00     0.131 C 
BRANCH  27  35
ATOM     35  O   UNL     1     163.230 149.746 150.280  1.00  0.00    -0.507 OA
ATOM     36  H   UNL     1     163.238 150.106 151.223  1.00  0.00     0.293 HD
ENDBRANCH  27  35
BRANCH  32  37
ATOM     37  C   UNL     1     168.407 151.354 148.092  1.00  0.00    -0.007 A 
ATOM     38  C   UNL     1     168.245 152.249 149.172  1.00  0.00     0.011 A 
ATOM     39  C   UNL     1     169.649 150.714 147.932  1.00  0.00     0.011 A 
ATOM     40  C   UNL     1     169.304 152.500 150.049  1.00  0.00     0.046 A 
ATOM     41  C   UNL     1     170.705 150.966 148.812  1.00  0.00     0.046 A 
ATOM     42  C   UNL     1     170.535 151.858 149.873  1.00  0.00     0.115 A 
BRANCH  42  43
ATOM     43  O   UNL     1     171.594 152.096 150.746  1.00  0.00    -0.508 OA
ATOM     44  H   UNL     1     172.158 151.337 151.112  1.00  0.00     0.293 HD
ENDBRANCH  42  43
ENDBRANCH  32  37
ENDBRANCH  23  24
ENDBRANCH   6  23
BRANCH   3  45
ATOM     45  O   UNL     1     165.398 141.089 149.338  1.00  0.00    -0.387 OA
ATOM     46  H   UNL     1     164.736 141.320 148.636  1.00  0.00     0.211 HD
ENDBRANCH   3  45
BRANCH   4  47
ATOM     47  C   UNL     1     163.748 143.932 151.188  1.00  0.00     0.191 C 
BRANCH  47  48
ATOM     48  O   UNL     1     163.279 143.121 152.231  1.00  0.00    -0.394 OA
ATOM     49  H   UNL     1     163.773 142.262 152.168  1.00  0.00     0.210 HD
ENDBRANCH  47  48
ENDBRANCH   4  47
TORSDOF 14
ENDMDL
MODEL 2
REMARK VINA RESULT:    -6.334      2.769      8.270
REMARK INTER + INTRA:         -12.386
REMARK INTER:                 -11.835
REMARK INTRA:                  -0.551
REMARK UNBOUND:                -2.349
REMARK SMILES C[C@H]1O[C@@H](O[C@@H]2[C@H](Oc3cc(O)c4c(c3)O[C@H](c3ccc(O)cc3)CC4=O)O[C@H](CO)[C@@H](O)[C@H]2O)[C@H](O)[C@H](O)[C@H]1O
REMARK SMILES IDX 6 1 34 2 32 3 29 4 28 5 7 6 5 7 4 8 1 9 2 10 40 11 3 12
REMARK SMILES IDX 38 13 36 14 41 15 39 17 37 19 35 21 8 23 9 24 10 25 15 26
REMARK SMILES IDX 11 27 14 28 13 29 16 30 26 31 17 32 27 33 25 34 12 35 18 37
REMARK SMILES IDX 19 38 24 39 20 40 23 41 21 42 22 43 33 45 30 47 31 48
REMARK H PARENT 41 16 39 18 37 20 35 22 12 36 22 44 33 46 31 49
REMARK Flexibility Score: inf
ROOT
ATOM      1  C   UNL     1     167.996 148.206 147.004  1.00  0.00     0.221 C 
ATOM      2  C   UNL     1     168.106 149.485 147.845  1.00  0.00     0.181 C 
ATOM      3  C   UNL     1     168.916 150.544 147.088  1.00  0.00     0.177 C 
ATOM      4  C   UNL     1     170.276 149.971 146.623  1.00  0.00     0.179 C 
ATOM      5  O   UNL     1     170.152 148.750 145.898  1.00  0.00    -0.332 OA
ATOM      6  C   UNL     1     169.404 147.742 146.569  1.00  0.00     0.339 C 
ENDROOT
BRANCH   1   7
ATOM      7  O   UNL     1     167.370 147.204 147.793  1.00  0.00    -0.337 OA
BRANCH   7   8
ATOM      8  C   UNL     1     165.949 147.253 147.740  1.00  0.00     0.282 C 
ATOM      9  C   UNL     1     167.029 146.467 150.562  1.00  0.00     0.041 C 
ATOM     10  C   UNL     1     165.602 146.487 149.985  1.00  0.00     0.150 C 
ATOM     11  C   UNL     1     165.103 145.104 149.491  1.00  0.00     0.174 C 
ATOM     12  O   UNL     1     165.416 147.531 149.030  1.00  0.00    -0.344 OA
ATOM     13  C   UNL     1     165.664 144.776 148.102  1.00  0.00     0.179 C 
ATOM     14  C   UNL     1     165.384 145.945 147.150  1.00  0.00     0.202 C 
BRANCH  11  15
ATOM     15  O   UNL     1     165.463 144.089 150.394  1.00  0.00    -0.388 OA
ATOM     16  H   UNL     1     164.658 143.899 150.944  1.00  0.00     0.211 HD
ENDBRANCH  11  15
BRANCH  13  17
ATOM     17  O   UNL     1     165.071 143.608 147.596  1.00  0.00    -0.387 OA
ATOM     18  H   UNL     1     164.116 143.822 147.426  1.00  0.00     0.211 HD
ENDBRANCH  13  17
BRANCH  14  19
ATOM     19  O   UNL     1     164.001 146.096 146.942  1.00  0.00    -0.385 OA
ATOM     20  H   UNL     1     163.883 146.495 146.041  1.00  0.00     0.211 HD
ENDBRANCH  14  19
ENDBRANCH   7   8
ENDBRANCH   1   7
BRANCH   2  21
ATOM     21  O   UNL     1     166.823 149.993 148.118  1.00  0.00    -0.387 OA
ATOM     22  H   UNL     1     166.885 150.495 148.971  1.00  0.00     0.211 HD
ENDBRANCH   2  21
BRANCH   6  23
ATOM     23  O   UNL     1     170.121 147.220 147.691  1.00  0.00    -0.462 OA
BRANCH  23  24
ATOM     24  C   UNL     1     169.883 145.979 148.301  1.00  0.00     0.130 A 
ATOM     25  C   UNL     1     169.132 145.036 147.598  1.00  0.00     0.093 A 
ATOM     26  C   UNL     1     170.365 145.656 149.578  1.00  0.00     0.094 A 
ATOM     27  C   UNL     1     168.851 143.779 148.144  1.00  0.00     0.133 A 
ATOM     28  C   UNL     1     170.150 144.385 150.114  1.00  0.00     0.138 A 
ATOM     29  C   UNL     1     169.402 143.422 149.403  1.00  0.00     0.102 A 
ATOM     30  O   UNL     1     170.689 144.086 151.372  1.00  0.00    -0.484 OA
ATOM     31  C   UNL     1     169.267 142.079 150.022  1.00  0.00     0.174 C 
ATOM     32  C   UNL     1     170.863 142.750 151.846  1.00  0.00     0.211 C 
ATOM     33  O   UNL     1     168.865 141.085 149.362  1.00  0.00    -0.294 OA
ATOM     34  C   UNL     1     169.652 141.876 151.461  1.00  0.00     0.131 C 
BRANCH  27  35
ATOM     35  O   UNL     1     168.003 142.943 147.413  1.00  0.00    -0.507 OA
ATOM     36  H   UNL     1     167.251 143.271 146.826  1.00  0.00     0.293 HD
ENDBRANCH  27  35
BRANCH  32  37
ATOM     37  C   UNL     1     172.223 142.235 151.397  1.00  0.00    -0.007 A 
ATOM     38  C   UNL     1     172.469 141.696 150.115  1.00  0.00     0.011 A 
ATOM     39  C   UNL     1     173.305 142.374 152.284  1.00  0.00     0.011 A 
ATOM     40  C   UNL     1     173.759 141.298 149.750  1.00  0.00     0.046 A 
ATOM     41  C   UNL     1     174.592 141.976 151.915  1.00  0.00     0.046 A 
ATOM     42  C   UNL     1     174.823 141.438 150.647  1.00  0.00     0.115 A 
BRANCH  42  43
ATOM     43  O   UNL     1     176.112 141.051 150.289  1.00  0.00    -0.508 OA
ATOM     44  H   UNL     1     176.689 141.629 149.687  1.00  0.00     0.293 HD
ENDBRANCH  42  43
ENDBRANCH  32  37
ENDBRANCH  23  24
ENDBRANCH   6  23
BRANCH   3  45
ATOM     45  O   UNL     1     168.182 150.984 145.972  1.00  0.00    -0.387 OA
ATOM     46  H   UNL     1     168.366 150.344 145.237  1.00  0.00     0.211 HD
ENDBRANCH   3  45
BRANCH   4  47
ATOM     47  C   UNL     1     171.326 149.901 147.753  1.00  0.00     0.191 C 
BRANCH  47  48
ATOM     48  O   UNL     1     171.115 150.924 148.688  1.00  0.00    -0.394 OA
ATOM     49  H   UNL     1     172.009 151.294 148.913  1.00  0.00     0.210 HD
ENDBRANCH  47  48
ENDBRANCH   4  47
TORSDOF 14
ENDMDL
MODEL 3
REMARK VINA RESULT:    -6.153      4.024      8.116
REMARK INTER + INTRA:         -12.098
REMARK INTER:                 -10.459
REMARK INTRA:                  -1.639
REMARK UNBOUND:                -2.349
REMARK SMILES C[C@H]1O[C@@H](O[C@@H]2[C@H](Oc3cc(O)c4c(c3)O[C@H](c3ccc(O)cc3)CC4=O)O[C@H](CO)[C@@H](O)[C@H]2O)[C@H](O)[C@H](O)[C@H]1O
REMARK SMILES IDX 6 1 34 2 32 3 29 4 28 5 7 6 5 7 4 8 1 9 2 10 40 11 3 12
REMARK SMILES IDX 38 13 36 14 41 15 39 17 37 19 35 21 8 23 9 24 10 25 15 26
REMARK SMILES IDX 11 27 14 28 13 29 16 30 26 31 17 32 27 33 25 34 12 35 18 37
REMARK SMILES IDX 19 38 24 39 20 40 23 41 21 42 22 43 33 45 30 47 31 48
REMARK H PARENT 41 16 39 18 37 20 35 22 12 36 22 44 33 46 31 49
REMARK Flexibility Score: inf
ROOT
ATOM      1  C   UNL     1     167.574 144.647 149.288  1.00  0.00     0.221 C 
ATOM      2  C   UNL     1     166.932 143.827 148.161  1.00  0.00     0.181 C 
ATOM      3  C   UNL     1     166.152 142.646 148.749  1.00  0.00     0.177 C 
ATOM      4  C   UNL     1     167.041 141.819 149.709  1.00  0.00     0.179 C 
ATOM      5  O   UNL     1     167.675 142.613 150.708  1.00  0.00    -0.332 OA
ATOM      6  C   UNL     1     168.409 143.722 150.199  1.00  0.00     0.339 C 
ENDROOT
BRANCH   1   7
ATOM      7  O   UNL     1     168.404 145.640 148.702  1.00  0.00    -0.337 OA
BRANCH   7   8
ATOM      8  C   UNL     1     167.853 146.951 148.778  1.00  0.00     0.282 C 
ATOM      9  C   UNL     1     168.759 146.183 145.890  1.00  0.00     0.041 C 
ATOM     10  C   UNL     1     168.272 147.516 146.487  1.00  0.00     0.150 C 
ATOM     11  C   UNL     1     169.418 148.485 146.882  1.00  0.00     0.174 C 
ATOM     12  O   UNL     1     167.306 147.330 147.520  1.00  0.00    -0.344 OA
ATOM     13  C   UNL     1     170.029 148.098 148.234  1.00  0.00     0.179 C 
ATOM     14  C   UNL     1     168.913 147.954 149.275  1.00  0.00     0.202 C 
BRANCH  11  15
ATOM     15  O   UNL     1     170.423 148.500 145.900  1.00  0.00    -0.388 OA
ATOM     16  H   UNL     1     170.971 147.683 146.040  1.00  0.00     0.211 HD
ENDBRANCH  11  15
BRANCH  13  17
ATOM     17  O   UNL     1     170.942 149.077 148.659  1.00  0.00    -0.387 OA
ATOM     18  H   UNL     1     171.626 148.613 149.208  1.00  0.00     0.211 HD
ENDBRANCH  13  17
BRANCH  14  19
ATOM     19  O   UNL     1     168.292 149.195 149.513  1.00  0.00    -0.385 OA
ATOM     20  H   UNL     1     168.364 149.375 150.487  1.00  0.00     0.211 HD
ENDBRANCH  14  19
ENDBRANCH   7   8
ENDBRANCH   1   7
BRANCH   2  21
ATOM     21  O   UNL     1     166.054 144.635 147.417  1.00  0.00    -0.387 OA
ATOM     22  H   UNL     1     166.225 144.446 146.459  1.00  0.00     0.211 HD
ENDBRANCH   2  21
BRANCH   6  23
ATOM     23  O   UNL     1     169.593 143.297 149.520  1.00  0.00    -0.462 OA
BRANCH  23  24
ATOM     24  C   UNL     1     170.753 142.806 150.139  1.00  0.00     0.130 A 
ATOM     25  C   UNL     1     171.857 142.524 149.333  1.00  0.00     0.093 A 
ATOM     26  C   UNL     1     170.843 142.591 151.522  1.00  0.00     0.094 A 
ATOM     27  C   UNL     1     173.046 142.029 149.878  1.00  0.00     0.133 A 
ATOM     28  C   UNL     1     172.041 142.158 152.094  1.00  0.00     0.138 A 
ATOM     29  C   UNL     1     173.164 141.882 151.286  1.00  0.00     0.102 A 
ATOM     30  O   UNL     1     172.104 142.001 153.484  1.00  0.00    -0.484 OA
ATOM     31  C   UNL     1     174.414 141.478 151.980  1.00  0.00     0.174 C 
ATOM     32  C   UNL     1     173.334 141.937 154.205  1.00  0.00     0.211 C 
ATOM     33  O   UNL     1     175.526 141.477 151.390  1.00  0.00    -0.294 OA
ATOM     34  C   UNL     1     174.372 141.095 153.433  1.00  0.00     0.131 C 
BRANCH  27  35
ATOM     35  O   UNL     1     174.058 141.674 148.982  1.00  0.00    -0.507 OA
ATOM     36  H   UNL     1     175.043 141.712 149.195  1.00  0.00     0.293 HD
ENDBRANCH  27  35
BRANCH  32  37
ATOM     37  C   UNL     1     173.769 143.348 154.577  1.00  0.00    -0.007 A 
ATOM     38  C   UNL     1     172.870 144.427 154.728  1.00  0.00     0.011 A 
ATOM     39  C   UNL     1     175.130 143.564 154.856  1.00  0.00     0.011 A 
ATOM     40  C   UNL     1     173.334 145.683 155.132  1.00  0.00     0.046 A 
ATOM     41  C   UNL     1     175.588 144.821 155.260  1.00  0.00     0.046 A 
ATOM     42  C   UNL     1     174.692 145.883 155.400  1.00  0.00     0.115 A 
BRANCH  42  43
ATOM     43  O   UNL     1     175.161 147.128 155.810  1.00  0.00    -0.508 OA
ATOM     44  H   UNL     1     176.078 147.236 156.230  1.00  0.00     0.293 HD
ENDBRANCH  42  43
ENDBRANCH  32  37
ENDBRANCH  23  24
ENDBRANCH   6  23
BRANCH   3  45
ATOM     45  O   UNL     1     165.028 143.127 149.443  1.00  0.00    -0.387 OA
ATOM     46  H   UNL     1     164.254 142.576 149.154  1.00  0.00     0.211 HD
ENDBRANCH   3  45
BRANCH   4  47
ATOM     47  C   UNL     1     168.017 140.875 148.974  1.00  0.00     0.191 C 
BRANCH  47  48
ATOM     48  O   UNL     1     167.887 141.013 147.584  1.00  0.00    -0.394 OA
ATOM     49  H   UNL     1     168.472 140.324 147.174  1.00  0.00     0.210 HD
ENDBRANCH  47  48
ENDBRANCH   4  47
TORSDOF 14
ENDMDL
MODEL 4
REMARK VINA RESULT:    -6.106      2.933      7.904
REMARK INTER + INTRA:         -12.024
REMARK INTER:                  -9.555
REMARK INTRA:                  -2.469
REMARK UNBOUND:                -2.349
REMARK SMILES C[C@H]1O[C@@H](O[C@@H]2[C@H](Oc3cc(O)c4c(c3)O[C@H](c3ccc(O)cc3)CC4=O)O[C@H](CO)[C@@H](O)[C@H]2O)[C@H](O)[C@H](O)[C@H]1O
REMARK SMILES IDX 6 1 34 2 32 3 29 4 28 5 7 6 5 7 4 8 1 9 2 10 40 11 3 12
REMARK SMILES IDX 38 13 36 14 41 15 39 17 37 19 35 21 8 23 9 24 10 25 15 26
REMARK SMILES IDX 11 27 14 28 13 29 16 30 26 31 17 32 27 33 25 34 12 35 18 37
REMARK SMILES IDX 19 38 24 39 20 40 23 41 21 42 22 43 33 45 30 47 31 48
REMARK H PARENT 41 16 39 18 37 20 35 22 12 36 22 44 33 46 31 49
REMARK Flexibility Score: inf
ROOT
ATOM      1  C   UNL     1     166.922 147.547 147.694  1.00  0.00     0.221 C 
ATOM      2  C   UNL     1     166.467 148.749 148.533  1.00  0.00     0.181 C 
ATOM      3  C   UNL     1     166.995 150.049 147.917  1.00  0.00     0.177 C 
ATOM      4  C   UNL     1     168.525 149.974 147.693  1.00  0.00     0.179 C 
ATOM      5  O   UNL     1     168.928 148.817 146.966  1.00  0.00    -0.332 OA
ATOM      6  C   UNL     1     168.454 147.588 147.507  1.00  0.00     0.339 C 
ENDROOT
BRANCH   1   7
ATOM      7  O   UNL     1     166.542 146.358 148.373  1.00  0.00    -0.337 OA
BRANCH   7   8
ATOM      8  C   UNL     1     165.981 145.374 147.510  1.00  0.00     0.282 C 
ATOM      9  C   UNL     1     165.205 144.944 150.505  1.00  0.00     0.041 C 
ATOM     10  C   UNL     1     164.986 144.069 149.258  1.00  0.00     0.150 C 
ATOM     11  C   UNL     1     166.038 142.942 149.086  1.00  0.00     0.174 C 
ATOM     12  O   UNL     1     164.788 144.843 148.076  1.00  0.00    -0.344 OA
ATOM     13  C   UNL     1     167.338 143.485 148.480  1.00  0.00     0.179 C 
ATOM     14  C   UNL     1     167.016 144.272 147.204  1.00  0.00     0.202 C 
BRANCH  11  15
ATOM     15  O   UNL     1     166.317 142.324 150.317  1.00  0.00    -0.388 OA
ATOM     16  H   UNL     1     165.479 142.359 150.850  1.00  0.00     0.211 HD
ENDBRANCH  11  15
BRANCH  13  17
ATOM     17  O   UNL     1     168.214 142.432 148.172  1.00  0.00    -0.387 OA
ATOM     18  H   UNL     1     169.136 142.787 148.270  1.00  0.00     0.211 HD
ENDBRANCH  13  17
BRANCH  14  19
ATOM     19  O   UNL     1     166.497 143.419 146.213  1.00  0.00    -0.385 OA
ATOM     20  H   UNL     1     167.191 142.734 146.025  1.00  0.00     0.211 HD
ENDBRANCH  14  19
ENDBRANCH   7   8
ENDBRANCH   1   7
BRANCH   2  21
ATOM     21  O   UNL     1     165.063 148.798 148.582  1.00  0.00    -0.387 OA
ATOM     22  H   UNL     1     164.794 148.524 149.496  1.00  0.00     0.211 HD
ENDBRANCH   2  21
BRANCH   6  23
ATOM     23  O   UNL     1     169.112 147.273 148.738  1.00  0.00    -0.462 OA
BRANCH  23  24
ATOM     24  C   UNL     1     169.849 146.106 148.989  1.00  0.00     0.130 A 
ATOM     25  C   UNL     1     170.784 145.703 148.035  1.00  0.00     0.093 A 
ATOM     26  C   UNL     1     169.683 145.337 150.150  1.00  0.00     0.094 A 
ATOM     27  C   UNL     1     171.554 144.549 148.214  1.00  0.00     0.133 A 
ATOM     28  C   UNL     1     170.485 144.217 150.378  1.00  0.00     0.138 A 
ATOM     29  C   UNL     1     171.441 143.812 149.423  1.00  0.00     0.102 A 
ATOM     30  O   UNL     1     170.320 143.505 151.572  1.00  0.00    -0.484 OA
ATOM     31  C   UNL     1     172.289 142.642 149.769  1.00  0.00     0.174 C 
ATOM     32  C   UNL     1     171.302 142.603 152.083  1.00  0.00     0.211 C 
ATOM     33  O   UNL     1     173.336 142.372 149.124  1.00  0.00    -0.294 OA
ATOM     34  C   UNL     1     171.922 141.773 150.939  1.00  0.00     0.131 C 
BRANCH  27  35
ATOM     35  O   UNL     1     172.384 144.167 147.158  1.00  0.00    -0.507 OA
ATOM     36  H   UNL     1     172.622 143.211 146.939  1.00  0.00     0.293 HD
ENDBRANCH  27  35
BRANCH  32  37
ATOM     37  C   UNL     1     172.286 143.375 152.950  1.00  0.00    -0.007 A 
ATOM     38  C   UNL     1     172.090 144.716 153.348  1.00  0.00     0.011 A 
ATOM     39  C   UNL     1     173.412 142.689 153.439  1.00  0.00     0.011 A 
ATOM     40  C   UNL     1     173.007 145.344 154.197  1.00  0.00     0.046 A 
ATOM     41  C   UNL     1     174.325 143.320 154.288  1.00  0.00     0.046 A 
ATOM     42  C   UNL     1     174.124 144.647 154.670  1.00  0.00     0.115 A 
BRANCH  42  43
ATOM     43  O   UNL     1     175.039 145.262 155.521  1.00  0.00    -0.508 OA
ATOM     44  H   UNL     1     175.237 144.888 156.443  1.00  0.00     0.293 HD
ENDBRANCH  42  43
ENDBRANCH  32  37
ENDBRANCH  23  24
ENDBRANCH   6  23
BRANCH   3  45
ATOM     45  O   UNL     1     166.349 150.282 146.691  1.00  0.00    -0.387 OA
ATOM     46  H   UNL     1     166.425 151.254 146.505  1.00  0.00     0.211 HD
ENDBRANCH   3  45
BRANCH   4  47
ATOM     47  C   UNL     1     169.342 150.194 148.985  1.00  0.00     0.191 C 
BRANCH  47  48
ATOM     48  O   UNL     1     170.678 149.811 148.796  1.00  0.00    -0.394 OA
ATOM     49  H   UNL     1     170.665 149.019 148.197  1.00  0.00     0.210 HD
ENDBRANCH  47  48
ENDBRANCH   4  47
TORSDOF 14
ENDMDL
MODEL 5
REMARK VINA RESULT:    -6.032      1.833      7.882
REMARK INTER + INTRA:         -11.908
REMARK INTER:                 -10.580
REMARK INTRA:                  -1.327
REMARK UNBOUND:                -2.349
REMARK SMILES C[C@H]1O[C@@H](O[C@@H]2[C@H](Oc3cc(O)c4c(c3)O[C@H](c3ccc(O)cc3)CC4=O)O[C@H](CO)[C@@H](O)[C@H]2O)[C@H](O)[C@H](O)[C@H]1O
REMARK SMILES IDX 6 1 34 2 32 3 29 4 28 5 7 6 5 7 4 8 1 9 2 10 40 11 3 12
REMARK SMILES IDX 38 13 36 14 41 15 39 17 37 19 35 21 8 23 9 24 10 25 15 26
REMARK SMILES IDX 11 27 14 28 13 29 16 30 26 31 17 32 27 33 25 34 12 35 18 37
REMARK SMILES IDX 19 38 24 39 20 40 23 41 21 42 22 43 33 45 30 47 31 48
REMARK H PARENT 41 16 39 18 37 20 35 22 12 36 22 44 33 46 31 49
REMARK Flexibility Score: inf
ROOT
ATOM      1  C   UNL     1     167.127 151.464 147.965  1.00  0.00     0.221 C 
ATOM      2  C   UNL     1     165.746 151.912 147.470  1.00  0.00     0.181 C 
ATOM      3  C   UNL     1     164.819 152.174 148.662  1.00  0.00     0.177 C 
ATOM      4  C   UNL     1     164.788 150.956 149.616  1.00  0.00     0.179 C 
ATOM      5  O   UNL     1     166.086 150.520 150.012  1.00  0.00    -0.332 OA
ATOM      6  C   UNL     1     166.975 150.268 148.929  1.00  0.00     0.339 C 
ENDROOT
BRANCH   1   7
ATOM      7  O   UNL     1     167.908 151.091 146.838  1.00  0.00    -0.337 OA
BRANCH   7   8
ATOM      8  C   UNL     1     169.081 151.882 146.679  1.00  0.00     0.282 C 
ATOM      9  C   UNL     1     169.638 148.821 146.412  1.00  0.00     0.041 C 
ATOM     10  C   UNL     1     170.589 150.029 146.483  1.00  0.00     0.150 C 
ATOM     11  C   UNL     1     171.174 150.289 147.897  1.00  0.00     0.174 C 
ATOM     12  O   UNL     1     170.034 151.195 145.876  1.00  0.00    -0.344 OA
ATOM     13  C   UNL     1     170.165 151.026 148.786  1.00  0.00     0.179 C 
ATOM     14  C   UNL     1     169.657 152.274 148.055  1.00  0.00     0.202 C 
BRANCH  11  15
ATOM     15  O   UNL     1     171.550 149.083 148.513  1.00  0.00    -0.388 OA
ATOM     16  H   UNL     1     172.054 148.561 147.835  1.00  0.00     0.211 HD
ENDBRANCH  11  15
BRANCH  13  17
ATOM     17  O   UNL     1     170.765 151.405 149.998  1.00  0.00    -0.387 OA
ATOM     18  H   UNL     1     171.704 151.653 149.788  1.00  0.00     0.211 HD
ENDBRANCH  13  17
BRANCH  14  19
ATOM     19  O   UNL     1     170.701 153.199 147.867  1.00  0.00    -0.385 OA
ATOM     20  H   UNL     1     170.368 154.081 148.179  1.00  0.00     0.211 HD
ENDBRANCH  14  19
ENDBRANCH   7   8
ENDBRANCH   1   7
BRANCH   2  21
ATOM     21  O   UNL     1     165.865 153.090 146.710  1.00  0.00    -0.387 OA
ATOM     22  H   UNL     1     166.769 153.084 146.303  1.00  0.00     0.211 HD
ENDBRANCH   2  21
BRANCH   6  23
ATOM     23  O   UNL     1     166.598 149.094 148.206  1.00  0.00    -0.462 OA
BRANCH  23  24
ATOM     24  C   UNL     1     167.018 147.788 148.500  1.00  0.00     0.130 A 
ATOM     25  C   UNL     1     168.217 147.626 149.195  1.00  0.00     0.093 A 
ATOM     26  C   UNL     1     166.286 146.652 148.125  1.00  0.00     0.094 A 
ATOM     27  C   UNL     1     168.701 146.354 149.521  1.00  0.00     0.133 A 
ATOM     28  C   UNL     1     166.719 145.377 148.495  1.00  0.00     0.138 A 
ATOM     29  C   UNL     1     167.924 145.207 149.209  1.00  0.00     0.102 A 
ATOM     30  O   UNL     1     165.935 144.272 148.142  1.00  0.00    -0.484 OA
ATOM     31  C   UNL     1     168.283 143.822 149.610  1.00  0.00     0.174 C 
ATOM     32  C   UNL     1     166.061 142.995 148.769  1.00  0.00     0.211 C 
ATOM     33  O   UNL     1     169.175 143.594 150.469  1.00  0.00    -0.294 OA
ATOM     34  C   UNL     1     167.547 142.656 149.012  1.00  0.00     0.131 C 
BRANCH  27  35
ATOM     35  O   UNL     1     169.961 146.287 150.121  1.00  0.00    -0.507 OA
ATOM     36  H   UNL     1     170.759 145.821 149.717  1.00  0.00     0.293 HD
ENDBRANCH  27  35
BRANCH  32  37
ATOM     37  C   UNL     1     165.161 142.951 149.996  1.00  0.00    -0.007 A 
ATOM     38  C   UNL     1     164.559 144.094 150.564  1.00  0.00     0.011 A 
ATOM     39  C   UNL     1     164.858 141.691 150.543  1.00  0.00     0.011 A 
ATOM     40  C   UNL     1     163.694 143.971 151.656  1.00  0.00     0.046 A 
ATOM     41  C   UNL     1     163.992 141.572 151.633  1.00  0.00     0.046 A 
ATOM     42  C   UNL     1     163.407 142.710 152.191  1.00  0.00     0.115 A 
BRANCH  42  43
ATOM     43  O   UNL     1     162.541 142.577 153.274  1.00  0.00    -0.508 OA
ATOM     44  H   UNL     1     161.588 142.251 153.151  1.00  0.00     0.293 HD
ENDBRANCH  42  43
ENDBRANCH  32  37
ENDBRANCH  23  24
ENDBRANCH   6  23
BRANCH   3  45
ATOM     45  O   UNL     1     165.267 153.309 149.361  1.00  0.00    -0.387 OA
ATOM     46  H   UNL     1     165.294 153.063 150.322  1.00  0.00     0.211 HD
ENDBRANCH   3  45
BRANCH   4  47
ATOM     47  C   UNL     1     163.891 149.806 149.106  1.00  0.00     0.191 C 
BRANCH  47  48
ATOM     48  O   UNL     1     162.891 149.507 150.042  1.00  0.00    -0.394 OA
ATOM     49  H   UNL     1     163.292 148.878 150.697  1.00  0.00     0.210 HD
ENDBRANCH  47  48
ENDBRANCH   4  47
TORSDOF 14
ENDMDL
MODEL 6
REMARK VINA RESULT:    -5.994      1.871      7.962
REMARK INTER + INTRA:         -11.848
REMARK INTER:                 -13.230
REMARK INTRA:                   1.383
REMARK UNBOUND:                -2.349
REMARK SMILES C[C@H]1O[C@@H](O[C@@H]2[C@H](Oc3cc(O)c4c(c3)O[C@H](c3ccc(O)cc3)CC4=O)O[C@H](CO)[C@@H](O)[C@H]2O)[C@H](O)[C@H](O)[C@H]1O
REMARK SMILES IDX 6 1 34 2 32 3 29 4 28 5 7 6 5 7 4 8 1 9 2 10 40 11 3 12
REMARK SMILES IDX 38 13 36 14 41 15 39 17 37 19 35 21 8 23 9 24 10 25 15 26
REMARK SMILES IDX 11 27 14 28 13 29 16 30 26 31 17 32 27 33 25 34 12 35 18 37
REMARK SMILES IDX 19 38 24 39 20 40 23 41 21 42 22 43 33 45 30 47 31 48
REMARK H PARENT 41 16 39 18 37 20 35 22 12 36 22 44 33 46 31 49
REMARK Flexibility Score: inf
ROOT
ATOM      1  C   UNL     1     167.918 149.833 147.942  1.00  0.00     0.221 C 
ATOM      2  C   UNL     1     166.629 149.586 147.147  1.00  0.00     0.181 C 
ATOM      3  C   UNL     1     165.482 149.233 148.101  1.00  0.00     0.177 C 
ATOM      4  C   UNL     1     165.882 148.069 149.040  1.00  0.00     0.179 C 
ATOM      5  O   UNL     1     167.114 148.296 149.719  1.00  0.00    -0.332 OA
ATOM      6  C   UNL     1     168.203 148.628 148.865  1.00  0.00     0.339 C 
ENDROOT
BRANCH   1   7
ATOM      7  O   UNL     1     168.985 150.011 147.021  1.00  0.00    -0.337 OA
BRANCH   7   8
ATOM      8  C   UNL     1     169.324 151.377 146.812  1.00  0.00     0.282 C 
ATOM      9  C   UNL     1     171.501 149.821 148.422  1.00  0.00     0.041 C 
ATOM     10  C   UNL     1     171.344 151.319 148.102  1.00  0.00     0.150 C 
ATOM     11  C   UNL     1     170.697 152.143 149.246  1.00  0.00     0.174 C 
ATOM     12  O   UNL     1     170.738 151.543 146.830  1.00  0.00    -0.344 OA
ATOM     13  C   UNL     1     169.172 151.982 149.253  1.00  0.00     0.179 C 
ATOM     14  C   UNL     1     168.623 152.274 147.852  1.00  0.00     0.202 C 
BRANCH  11  15
ATOM     15  O   UNL     1     171.216 151.760 150.495  1.00  0.00    -0.388 OA
ATOM     16  H   UNL     1     170.507 151.943 151.166  1.00  0.00     0.211 HD
ENDBRANCH  11  15
BRANCH  13  17
ATOM     17  O   UNL     1     168.589 152.862 150.178  1.00  0.00    -0.387 OA
ATOM     18  H   UNL     1     169.126 153.697 150.156  1.00  0.00     0.211 HD
ENDBRANCH  13  17
BRANCH  14  19
ATOM     19  O   UNL     1     168.830 153.622 147.508  1.00  0.00    -0.385 OA
ATOM     20  H   UNL     1     168.180 153.844 146.791  1.00  0.00     0.211 HD
ENDBRANCH  14  19
ENDBRANCH   7   8
ENDBRANCH   1   7
BRANCH   2  21
ATOM     21  O   UNL     1     166.284 150.738 146.418  1.00  0.00    -0.387 OA
ATOM     22  H   UNL     1     165.319 150.668 146.202  1.00  0.00     0.211 HD
ENDBRANCH   2  21
BRANCH   6  23
ATOM     23  O   UNL     1     168.622 147.501 148.091  1.00  0.00    -0.462 OA
BRANCH  23  24
ATOM     24  C   UNL     1     168.729 146.185 148.564  1.00  0.00     0.130 A 
ATOM     25  C   UNL     1     169.715 145.907 149.512  1.00  0.00     0.093 A 
ATOM     26  C   UNL     1     167.892 145.149 148.125  1.00  0.00     0.094 A 
ATOM     27  C   UNL     1     169.885 144.617 150.027  1.00  0.00     0.133 A 
ATOM     28  C   UNL     1     168.002 143.869 148.673  1.00  0.00     0.138 A 
ATOM     29  C   UNL     1     168.989 143.585 149.640  1.00  0.00     0.102 A 
ATOM     30  O   UNL     1     167.115 142.875 148.242  1.00  0.00    -0.484 OA
ATOM     31  C   UNL     1     169.002 142.213 150.210  1.00  0.00     0.174 C 
ATOM     32  C   UNL     1     166.880 141.672 148.974  1.00  0.00     0.211 C 
ATOM     33  O   UNL     1     169.647 141.938 151.256  1.00  0.00    -0.294 OA
ATOM     34  C   UNL     1     168.199 141.124 149.556  1.00  0.00     0.131 C 
BRANCH  27  35
ATOM     35  O   UNL     1     170.965 144.413 150.888  1.00  0.00    -0.507 OA
ATOM     36  H   UNL     1     171.311 143.504 151.160  1.00  0.00     0.293 HD
ENDBRANCH  27  35
BRANCH  32  37
ATOM     37  C   UNL     1     165.760 141.910 149.978  1.00  0.00    -0.007 A 
ATOM     38  C   UNL     1     165.128 140.876 150.701  1.00  0.00     0.011 A 
ATOM     39  C   UNL     1     165.394 143.240 150.251  1.00  0.00     0.011 A 
ATOM     40  C   UNL     1     164.148 141.174 151.653  1.00  0.00     0.046 A 
ATOM     41  C   UNL     1     164.416 143.534 151.204  1.00  0.00     0.046 A 
ATOM     42  C   UNL     1     163.791 142.503 151.908  1.00  0.00     0.115 A 
BRANCH  42  43
ATOM     43  O   UNL     1     162.822 142.809 152.860  1.00  0.00    -0.508 OA
ATOM     44  H   UNL     1     161.854 142.532 152.737  1.00  0.00     0.293 HD
ENDBRANCH  42  43
ENDBRANCH  32  37
ENDBRANCH  23  24
ENDBRANCH   6  23
BRANCH   3  45
ATOM     45  O   UNL     1     165.146 150.363 148.866  1.00  0.00    -0.387 OA
ATOM     46  H   UNL     1     165.011 151.112 148.229  1.00  0.00     0.211 HD
ENDBRANCH   3  45
BRANCH   4  47
ATOM     47  C   UNL     1     165.810 146.685 148.359  1.00  0.00     0.191 C 
BRANCH  47  48
ATOM     48  O   UNL     1     164.757 146.643 147.433  1.00  0.00    -0.394 OA
ATOM     49  H   UNL     1     163.921 146.797 147.947  1.00  0.00     0.210 HD
ENDBRANCH  47  48
ENDBRANCH   4  47
TORSDOF 14
ENDMDL
MODEL 7
REMARK VINA RESULT:    -5.717      1.553      2.228
REMARK INTER + INTRA:         -11.408
REMARK INTER:                  -9.393
REMARK INTRA:                  -2.015
REMARK UNBOUND:                -2.349
REMARK SMILES C[C@H]1O[C@@H](O[C@@H]2[C@H](Oc3cc(O)c4c(c3)O[C@H](c3ccc(O)cc3)CC4=O)O[C@H](CO)[C@@H](O)[C@H]2O)[C@H](O)[C@H](O)[C@H]1O
REMARK SMILES IDX 6 1 34 2 32 3 29 4 28 5 7 6 5 7 4 8 1 9 2 10 40 11 3 12
REMARK SMILES IDX 38 13 36 14 41 15 39 17 37 19 35 21 8 23 9 24 10 25 15 26
REMARK SMILES IDX 11 27 14 28 13 29 16 30 26 31 17 32 27 33 25 34 12 35 18 37
REMARK SMILES IDX 19 38 24 39 20 40 23 41 21 42 22 43 33 45 30 47 31 48
REMARK H PARENT 41 16 39 18 37 20 35 22 12 36 22 44 33 46 31 49
REMARK Flexibility Score: inf
ROOT
ATOM      1  C   UNL     1     167.815 143.107 148.262  1.00  0.00     0.221 C 
ATOM      2  C   UNL     1     166.871 142.098 148.929  1.00  0.00     0.181 C 
ATOM      3  C   UNL     1     165.792 141.652 147.936  1.00  0.00     0.177 C 
ATOM      4  C   UNL     1     165.077 142.874 147.311  1.00  0.00     0.179 C 
ATOM      5  O   UNL     1     165.979 143.827 146.754  1.00  0.00    -0.332 OA
ATOM      6  C   UNL     1     166.997 144.263 147.648  1.00  0.00     0.339 C 
ENDROOT
BRANCH   1   7
ATOM      7  O   UNL     1     168.707 143.606 149.250  1.00  0.00    -0.337 OA
BRANCH   7   8
ATOM      8  C   UNL     1     169.890 144.178 148.702  1.00  0.00     0.282 C 
ATOM      9  C   UNL     1     170.469 142.262 151.098  1.00  0.00     0.041 C 
ATOM     10  C   UNL     1     171.384 143.218 150.311  1.00  0.00     0.150 C 
ATOM     11  C   UNL     1     171.605 144.590 151.001  1.00  0.00     0.174 C 
ATOM     12  O   UNL     1     171.006 143.328 148.940  1.00  0.00    -0.344 OA
ATOM     13  C   UNL     1     170.414 145.527 150.764  1.00  0.00     0.179 C 
ATOM     14  C   UNL     1     170.113 145.597 149.262  1.00  0.00     0.202 C 
BRANCH  11  15
ATOM     15  O   UNL     1     171.807 144.429 152.383  1.00  0.00    -0.388 OA
ATOM     16  H   UNL     1     172.778 144.560 152.546  1.00  0.00     0.211 HD
ENDBRANCH  11  15
BRANCH  13  17
ATOM     17  O   UNL     1     170.701 146.815 151.244  1.00  0.00    -0.387 OA
ATOM     18  H   UNL     1     170.079 146.984 152.000  1.00  0.00     0.211 HD
ENDBRANCH  13  17
BRANCH  14  19
ATOM     19  O   UNL     1     171.178 146.201 148.569  1.00  0.00    -0.385 OA
ATOM     20  H   UNL     1     171.139 147.174 148.765  1.00  0.00     0.211 HD
ENDBRANCH  14  19
ENDBRANCH   7   8
ENDBRANCH   1   7
BRANCH   2  21
ATOM     21  O   UNL     1     167.595 140.972 149.359  1.00  0.00    -0.387 OA
ATOM     22  H   UNL     1     167.394 140.847 150.322  1.00  0.00     0.211 HD
ENDBRANCH   2  21
BRANCH   6  23
ATOM     23  O   UNL     1     166.464 145.095 148.681  1.00  0.00    -0.462 OA
BRANCH  23  24
ATOM     24  C   UNL     1     166.212 146.471 148.568  1.00  0.00     0.130 A 
ATOM     25  C   UNL     1     165.188 147.016 149.343  1.00  0.00     0.093 A 
ATOM     26  C   UNL     1     166.943 147.310 147.713  1.00  0.00     0.094 A 
ATOM     27  C   UNL     1     164.876 148.378 149.281  1.00  0.00     0.133 A 
ATOM     28  C   UNL     1     166.690 148.682 147.684  1.00  0.00     0.138 A 
ATOM     29  C   UNL     1     165.664 149.241 148.474  1.00  0.00     0.102 A 
ATOM     30  O   UNL     1     167.474 149.492 146.852  1.00  0.00    -0.484 OA
ATOM     31  C   UNL     1     165.498 150.717 148.423  1.00  0.00     0.174 C 
ATOM     32  C   UNL     1     167.571 150.907 147.011  1.00  0.00     0.211 C 
ATOM     33  O   UNL     1     164.812 151.334 149.279  1.00  0.00    -0.294 OA
ATOM     34  C   UNL     1     166.192 151.510 147.352  1.00  0.00     0.131 C 
BRANCH  27  35
ATOM     35  O   UNL     1     163.767 148.811 150.011  1.00  0.00    -0.507 OA
ATOM     36  H   UNL     1     163.711 148.802 151.019  1.00  0.00     0.293 HD
ENDBRANCH  27  35
BRANCH  32  37
ATOM     37  C   UNL     1     168.693 151.224 147.990  1.00  0.00    -0.007 A 
ATOM     38  C   UNL     1     169.974 150.634 147.924  1.00  0.00     0.011 A 
ATOM     39  C   UNL     1     168.459 152.213 148.961  1.00  0.00     0.011 A 
ATOM     40  C   UNL     1     170.977 151.018 148.820  1.00  0.00     0.046 A 
ATOM     41  C   UNL     1     169.464 152.595 149.854  1.00  0.00     0.046 A 
ATOM     42  C   UNL     1     170.725 152.000 149.785  1.00  0.00     0.115 A 
BRANCH  42  43
ATOM     43  O   UNL     1     171.720 152.394 150.676  1.00  0.00    -0.508 OA
ATOM     44  H   UNL     1     171.944 153.373 150.819  1.00  0.00     0.293 HD
ENDBRANCH  42  43
ENDBRANCH  32  37
ENDBRANCH  23  24
ENDBRANCH   6  23
BRANCH   3  45
ATOM     45  O   UNL     1     166.382 140.880 146.920  1.00  0.00    -0.387 OA
ATOM     46  H   UNL     1     166.345 141.422 146.089  1.00  0.00     0.211 HD
ENDBRANCH   3  45
BRANCH   4  47
ATOM     47  C   UNL     1     164.026 143.510 148.247  1.00  0.00     0.191 C 
BRANCH  47  48
ATOM     48  O   UNL     1     164.317 143.218 149.588  1.00  0.00    -0.394 OA
ATOM     49  H   UNL     1     163.805 142.399 149.818  1.00  0.00     0.210 HD
ENDBRANCH  47  48
ENDBRANCH   4  47
TORSDOF 14
ENDMDL
MODEL 8
REMARK VINA RESULT:    -5.693      1.805      8.536
REMARK INTER + INTRA:         -11.370
REMARK INTER:                 -10.291
REMARK INTRA:                  -1.079
REMARK UNBOUND:                -2.349
REMARK SMILES C[C@H]1O[C@@H](O[C@@H]2[C@H](Oc3cc(O)c4c(c3)O[C@H](c3ccc(O)cc3)CC4=O)O[C@H](CO)[C@@H](O)[C@H]2O)[C@H](O)[C@H](O)[C@H]1O
REMARK SMILES IDX 6 1 34 2 32 3 29 4 28 5 7 6 5 7 4 8 1 9 2 10 40 11 3 12
REMARK SMILES IDX 38 13 36 14 41 15 39 17 37 19 35 21 8 23 9 24 10 25 15 26
REMARK SMILES IDX 11 27 14 28 13 29 16 30 26 31 17 32 27 33 25 34 12 35 18 37
REMARK SMILES IDX 19 38 24 39 20 40 23 41 21 42 22 43 33 45 30 47 31 48
REMARK H PARENT 41 16 39 18 37 20 35 22 12 36 22 44 33 46 31 49
REMARK Flexibility Score: inf
ROOT
ATOM      1  C   UNL     1     167.336 149.246 148.057  1.00  0.00     0.221 C 
ATOM      2  C   UNL     1     167.874 150.569 148.618  1.00  0.00     0.181 C 
ATOM      3  C   UNL     1     168.857 151.201 147.626  1.00  0.00     0.177 C 
ATOM      4  C   UNL     1     169.956 150.191 147.217  1.00  0.00     0.179 C 
ATOM      5  O   UNL     1     169.431 148.948 146.758  1.00  0.00    -0.332 OA
ATOM      6  C   UNL     1     168.513 148.331 147.654  1.00  0.00     0.339 C 
ENDROOT
BRANCH   1   7
ATOM      7  O   UNL     1     166.549 148.621 149.061  1.00  0.00    -0.337 OA
BRANCH   7   8
ATOM      8  C   UNL     1     165.665 147.631 148.546  1.00  0.00     0.282 C 
ATOM      9  C   UNL     1     164.161 150.076 149.776  1.00  0.00     0.041 C 
ATOM     10  C   UNL     1     163.651 148.718 149.262  1.00  0.00     0.150 C 
ATOM     11  C   UNL     1     163.421 147.667 150.380  1.00  0.00     0.174 C 
ATOM     12  O   UNL     1     164.426 148.223 148.170  1.00  0.00    -0.344 OA
ATOM     13  C   UNL     1     164.741 147.014 150.807  1.00  0.00     0.179 C 
ATOM     14  C   UNL     1     165.476 146.491 149.567  1.00  0.00     0.202 C 
BRANCH  11  15
ATOM     15  O   UNL     1     162.804 148.252 151.498  1.00  0.00    -0.388 OA
ATOM     16  H   UNL     1     161.942 148.633 151.182  1.00  0.00     0.211 HD
ENDBRANCH  11  15
BRANCH  13  17
ATOM     17  O   UNL     1     164.499 145.950 151.691  1.00  0.00    -0.387 OA
ATOM     18  H   UNL     1     163.821 145.367 151.260  1.00  0.00     0.211 HD
ENDBRANCH  13  17
BRANCH  14  19
ATOM     19  O   UNL     1     164.749 145.449 148.962  1.00  0.00    -0.385 OA
ATOM     20  H   UNL     1     165.219 145.219 148.118  1.00  0.00     0.211 HD
ENDBRANCH  14  19
ENDBRANCH   7   8
ENDBRANCH   1   7
BRANCH   2  21
ATOM     21  O   UNL     1     166.813 151.462 148.849  1.00  0.00    -0.387 OA
ATOM     22  H   UNL     1     167.108 152.353 148.530  1.00  0.00     0.211 HD
ENDBRANCH   2  21
BRANCH   6  23
ATOM     23  O   UNL     1     169.175 147.834 148.820  1.00  0.00    -0.462 OA
BRANCH  23  24
ATOM     24  C   UNL     1     169.300 146.481 149.169  1.00  0.00     0.130 A 
ATOM     25  C   UNL     1     170.219 146.143 150.163  1.00  0.00     0.093 A 
ATOM     26  C   UNL     1     168.547 145.466 148.560  1.00  0.00     0.094 A 
ATOM     27  C   UNL     1     170.402 144.814 150.561  1.00  0.00     0.133 A 
ATOM     28  C   UNL     1     168.668 144.142 148.986  1.00  0.00     0.138 A 
ATOM     29  C   UNL     1     169.586 143.795 150.000  1.00  0.00     0.102 A 
ATOM     30  O   UNL     1     167.863 143.167 148.386  1.00  0.00    -0.484 OA
ATOM     31  C   UNL     1     169.613 142.374 150.431  1.00  0.00     0.174 C 
ATOM     32  C   UNL     1     167.621 141.888 148.973  1.00  0.00     0.211 C 
ATOM     33  O   UNL     1     170.183 142.017 151.495  1.00  0.00    -0.294 OA
ATOM     34  C   UNL     1     168.913 141.330 149.607  1.00  0.00     0.131 C 
BRANCH  27  35
ATOM     35  O   UNL     1     171.418 144.560 151.486  1.00  0.00    -0.507 OA
ATOM     36  H   UNL     1     171.981 145.276 151.921  1.00  0.00     0.293 HD
ENDBRANCH  27  35
BRANCH  32  37
ATOM     37  C   UNL     1     166.416 141.983 149.898  1.00  0.00    -0.007 A 
ATOM     38  C   UNL     1     166.081 143.145 150.625  1.00  0.00     0.011 A 
ATOM     39  C   UNL     1     165.553 140.875 149.969  1.00  0.00     0.011 A 
ATOM     40  C   UNL     1     164.923 143.181 151.409  1.00  0.00     0.046 A 
ATOM     41  C   UNL     1     164.397 140.915 150.753  1.00  0.00     0.046 A 
ATOM     42  C   UNL     1     164.078 142.068 151.473  1.00  0.00     0.115 A 
BRANCH  42  43
ATOM     43  O   UNL     1     162.919 142.097 152.245  1.00  0.00    -0.508 OA
ATOM     44  H   UNL     1     162.768 142.816 152.944  1.00  0.00     0.293 HD
ENDBRANCH  42  43
ENDBRANCH  32  37
ENDBRANCH  23  24
ENDBRANCH   6  23
BRANCH   3  45
ATOM     45  O   UNL     1     168.157 151.626 146.483  1.00  0.00    -0.387 OA
ATOM     46  H   UNL     1     168.126 150.853 145.861  1.00  0.00     0.211 HD
ENDBRANCH   3  45
BRANCH   4  47
ATOM     47  C   UNL     1     171.060 150.026 148.285  1.00  0.00     0.191 C 
BRANCH  47  48
ATOM     48  O   UNL     1     170.923 150.994 149.291  1.00  0.00    -0.394 OA
ATOM     49  H   UNL     1     171.544 150.734 150.021  1.00  0.00     0.210 HD
ENDBRANCH  47  48
ENDBRANCH   4  47
TORSDOF 14
ENDMDL
MODEL 9
REMARK VINA RESULT:    -5.293      2.909      7.673
REMARK INTER + INTRA:         -10.736
REMARK INTER:                  -9.444
REMARK INTRA:                  -1.292
REMARK UNBOUND:                -2.349
REMARK SMILES C[C@H]1O[C@@H](O[C@@H]2[C@H](Oc3cc(O)c4c(c3)O[C@H](c3ccc(O)cc3)CC4=O)O[C@H](CO)[C@@H](O)[C@H]2O)[C@H](O)[C@H](O)[C@H]1O
REMARK SMILES IDX 6 1 34 2 32 3 29 4 28 5 7 6 5 7 4 8 1 9 2 10 40 11 3 12
REMARK SMILES IDX 38 13 36 14 41 15 39 17 37 19 35 21 8 23 9 24 10 25 15 26
REMARK SMILES IDX 11 27 14 28 13 29 16 30 26 31 17 32 27 33 25 34 12 35 18 37
REMARK SMILES IDX 19 38 24 39 20 40 23 41 21 42 22 43 33 45 30 47 31 48
REMARK H PARENT 41 16 39 18 37 20 35 22 12 36 22 44 33 46 31 49
REMARK Flexibility Score: inf
ROOT
ATOM      1  C   UNL     1     167.277 148.701 149.291  1.00  0.00     0.221 C 
ATOM      2  C   UNL     1     166.223 148.679 148.176  1.00  0.00     0.181 C 
ATOM      3  C   UNL     1     165.014 147.844 148.612  1.00  0.00     0.177 C 
ATOM      4  C   UNL     1     165.455 146.442 149.096  1.00  0.00     0.179 C 
ATOM      5  O   UNL     1     166.479 146.488 150.086  1.00  0.00    -0.332 OA
ATOM      6  C   UNL     1     167.619 147.257 149.717  1.00  0.00     0.339 C 
ENDROOT
BRANCH   1   7
ATOM      7  O   UNL     1     168.437 149.356 148.797  1.00  0.00    -0.337 OA
BRANCH   7   8
ATOM      8  C   UNL     1     168.256 150.756 148.613  1.00  0.00     0.282 C 
ATOM      9  C   UNL     1     170.122 149.482 146.458  1.00  0.00     0.041 C 
ATOM     10  C   UNL     1     169.772 150.949 146.766  1.00  0.00     0.150 C 
ATOM     11  C   UNL     1     170.826 151.677 147.641  1.00  0.00     0.174 C 
ATOM     12  O   UNL     1     168.436 151.101 147.244  1.00  0.00    -0.344 OA
ATOM     13  C   UNL     1     170.657 151.321 149.124  1.00  0.00     0.179 C 
ATOM     14  C   UNL     1     169.199 151.549 149.539  1.00  0.00     0.202 C 
BRANCH  11  15
ATOM     15  O   UNL     1     172.130 151.356 147.227  1.00  0.00    -0.388 OA
ATOM     16  H   UNL     1     172.750 151.828 147.843  1.00  0.00     0.211 HD
ENDBRANCH  11  15
BRANCH  13  17
ATOM     17  O   UNL     1     171.500 152.115 149.918  1.00  0.00    -0.387 OA
ATOM     18  H   UNL     1     171.933 151.508 150.573  1.00  0.00     0.211 HD
ENDBRANCH  13  17
BRANCH  14  19
ATOM     19  O   UNL     1     168.870 152.916 149.467  1.00  0.00    -0.385 OA
ATOM     20  H   UNL     1     169.210 153.251 148.596  1.00  0.00     0.211 HD
ENDBRANCH  14  19
ENDBRANCH   7   8
ENDBRANCH   1   7
BRANCH   2  21
ATOM     21  O   UNL     1     165.799 149.988 147.888  1.00  0.00    -0.387 OA
ATOM     22  H   UNL     1     166.296 150.595 148.494  1.00  0.00     0.211 HD
ENDBRANCH   2  21
BRANCH   6  23
ATOM     23  O   UNL     1     168.379 146.606 148.695  1.00  0.00    -0.462 OA
BRANCH  23  24
ATOM     24  C   UNL     1     169.339 145.606 148.908  1.00  0.00     0.130 A 
ATOM     25  C   UNL     1     170.364 145.471 147.971  1.00  0.00     0.093 A 
ATOM     26  C   UNL     1     169.306 144.745 150.015  1.00  0.00     0.094 A 
ATOM     27  C   UNL     1     171.355 144.494 148.115  1.00  0.00     0.133 A 
ATOM     28  C   UNL     1     170.320 143.805 150.210  1.00  0.00     0.138 A 
ATOM     29  C   UNL     1     171.367 143.672 149.273  1.00  0.00     0.102 A 
ATOM     30  O   UNL     1     170.276 142.997 151.352  1.00  0.00    -0.484 OA
ATOM     31  C   UNL     1     172.433 142.686 149.585  1.00  0.00     0.174 C 
ATOM     32  C   UNL     1     171.412 142.289 151.849  1.00  0.00     0.211 C 
ATOM     33  O   UNL     1     173.531 142.684 148.969  1.00  0.00    -0.294 OA
ATOM     34  C   UNL     1     172.225 141.684 150.686  1.00  0.00     0.131 C 
BRANCH  27  35
ATOM     35  O   UNL     1     172.277 144.365 147.073  1.00  0.00    -0.507 OA
ATOM     36  H   UNL     1     172.826 145.126 146.703  1.00  0.00     0.293 HD
ENDBRANCH  27  35
BRANCH  32  37
ATOM     37  C   UNL     1     172.186 143.192 152.800  1.00  0.00    -0.007 A 
ATOM     38  C   UNL     1     172.006 144.591 152.867  1.00  0.00     0.011 A 
ATOM     39  C   UNL     1     173.070 142.585 153.709  1.00  0.00     0.011 A 
ATOM     40  C   UNL     1     172.708 145.350 153.809  1.00  0.00     0.046 A 
ATOM     41  C   UNL     1     173.768 143.348 154.649  1.00  0.00     0.046 A 
ATOM     42  C   UNL     1     173.588 144.731 154.702  1.00  0.00     0.115 A 
BRANCH  42  43
ATOM     43  O   UNL     1     174.286 145.478 155.648  1.00  0.00    -0.508 OA
ATOM     44  H   UNL     1     175.248 145.760 155.494  1.00  0.00     0.293 HD
ENDBRANCH  42  43
ENDBRANCH  32  37
ENDBRANCH  23  24
ENDBRANCH   6  23
BRANCH   3  45
ATOM     45  O   UNL     1     164.335 148.509 149.649  1.00  0.00    -0.387 OA
ATOM     46  H   UNL     1     164.060 147.816 150.303  1.00  0.00     0.211 HD
ENDBRANCH   3  45
BRANCH   4  47
ATOM     47  C   UNL     1     165.774 145.470 147.939  1.00  0.00     0.191 C 
BRANCH  47  48
ATOM     48  O   UNL     1     166.209 144.233 148.437  1.00  0.00    -0.394 OA
ATOM     49  H   UNL     1     165.438 143.612 148.369  1.00  0.00     0.210 HD
ENDBRANCH  47  48
ENDBRANCH   4  47
TORSDOF 14
ENDMDL
