MODEL 1
REMARK VINA RESULT:    -4.304      0.000      0.000
REMARK INTER + INTRA:          -5.755
REMARK INTER:                  -5.562
REMARK INTRA:                  -0.193
REMARK UNBOUND:                -0.193
REMARK SMILES CCCCCCC(=O)[O-]
REMARK SMILES IDX 5 1 6 2 7 3 8 4 9 5 4 6 3 7 2 8 1 9
REMARK H PARENT
REMARK Flexibility Score: inf
ROOT
ATOM      1  C   UNL     1      17.246 117.489 293.386  1.00  0.00     0.006 C 
ENDROOT
BRANCH   1   2
ATOM      2  C   UNL     1      18.643 117.867 293.898  1.00  0.00     0.053 C 
BRANCH   2   3
ATOM      3  C   UNL     1      18.742 117.625 295.371  1.00  0.00     0.041 C 
ATOM      4  O   UNL     1      17.732 117.243 296.019  1.00  0.00    -0.550 OA
ATOM      5  O   UNL     1      19.962 117.772 296.019  1.00  0.00    -0.550 OA
ENDBRANCH   2   3
ENDBRANCH   1   2
BRANCH   1   6
ATOM      6  C   UNL     1      17.250 116.194 292.557  1.00  0.00     0.000 C 
BRANCH   6   7
ATOM      7  C   UNL     1      18.382 116.160 291.519  1.00  0.00    -0.000 C 
BRANCH   7   8
ATOM      8  C   UNL     1      17.913 115.493 290.220  1.00  0.00    -0.003 C 
ATOM      9  C   UNL     1      16.882 114.405 290.500  1.00  0.00     0.004 C 
ENDBRANCH   7   8
ENDBRANCH   6   7
ENDBRANCH   1   6
TORSDOF 5
ENDMDL
MODEL 2
REMARK VINA RESULT:    -4.284      0.987      1.081
REMARK INTER + INTRA:          -5.730
REMARK INTER:                  -5.589
REMARK INTRA:                  -0.141
REMARK UNBOUND:                -0.193
REMARK SMILES CCCCCCC(=O)[O-]
REMARK SMILES IDX 5 1 6 2 7 3 8 4 9 5 4 6 3 7 2 8 1 9
REMARK H PARENT
REMARK Flexibility Score: inf
ROOT
ATOM      1  C   UNL     1      17.534 117.412 293.504  1.00  0.00     0.006 C 
ENDROOT
BRANCH   1   2
ATOM      2  C   UNL     1      17.213 116.749 294.850  1.00  0.00     0.053 C 
BRANCH   2   3
ATOM      3  C   UNL     1      18.168 117.215 295.902  1.00  0.00     0.041 C 
ATOM      4  O   UNL     1      18.671 116.390 296.711  1.00  0.00    -0.550 OA
ATOM      5  O   UNL     1      18.543 118.551 295.959  1.00  0.00    -0.550 OA
ENDBRANCH   2   3
ENDBRANCH   1   2
BRANCH   1   6
ATOM      6  C   UNL     1      17.299 116.472 292.310  1.00  0.00     0.000 C 
BRANCH   6   7
ATOM      7  C   UNL     1      18.560 116.276 291.455  1.00  0.00    -0.000 C 
BRANCH   7   8
ATOM      8  C   UNL     1      18.403 115.072 290.517  1.00  0.00    -0.003 C 
ATOM      9  C   UNL     1      16.962 114.572 290.498  1.00  0.00     0.004 C 
ENDBRANCH   7   8
ENDBRANCH   6   7
ENDBRANCH   1   6
TORSDOF 5
ENDMDL
MODEL 3
REMARK VINA RESULT:    -4.095      1.851      2.240
REMARK INTER + INTRA:          -5.486
REMARK INTER:                  -5.369
REMARK INTRA:                  -0.116
REMARK UNBOUND:                -0.193
REMARK SMILES CCCCCCC(=O)[O-]
REMARK SMILES IDX 5 1 6 2 7 3 8 4 9 5 4 6 3 7 2 8 1 9
REMARK H PARENT
REMARK Flexibility Score: inf
ROOT
ATOM      1  C   UNL     1      17.649 117.908 293.895  1.00  0.00     0.006 C 
ENDROOT
BRANCH   1   2
ATOM      2  C   UNL     1      17.087 117.009 295.005  1.00  0.00     0.053 C 
BRANCH   2   3
ATOM      3  C   UNL     1      15.924 117.671 295.673  1.00  0.00     0.041 C 
ATOM      4  O   UNL     1      15.095 118.332 294.993  1.00  0.00    -0.550 OA
ATOM      5  O   UNL     1      15.727 117.517 297.039  1.00  0.00    -0.550 OA
ENDBRANCH   2   3
ENDBRANCH   1   2
BRANCH   1   6
ATOM      6  C   UNL     1      18.351 117.109 292.785  1.00  0.00     0.000 C 
BRANCH   6   7
ATOM      7  C   UNL     1      17.393 116.168 292.038  1.00  0.00    -0.000 C 
BRANCH   7   8
ATOM      8  C   UNL     1      18.043 115.631 290.756  1.00  0.00    -0.003 C 
ATOM      9  C   UNL     1      17.250 114.458 290.186  1.00  0.00     0.004 C 
ENDBRANCH   7   8
ENDBRANCH   6   7
ENDBRANCH   1   6
TORSDOF 5
ENDMDL
MODEL 4
REMARK VINA RESULT:    -4.063      3.110      5.045
REMARK INTER + INTRA:          -5.444
REMARK INTER:                  -5.273
REMARK INTRA:                  -0.171
REMARK UNBOUND:                -0.193
REMARK SMILES CCCCCCC(=O)[O-]
REMARK SMILES IDX 5 1 6 2 7 3 8 4 9 5 4 6 3 7 2 8 1 9
REMARK H PARENT
REMARK Flexibility Score: inf
ROOT
ATOM      1  C   UNL     1      17.932 116.966 292.763  1.00  0.00     0.006 C 
ENDROOT
BRANCH   1   2
ATOM      2  C   UNL     1      17.277 115.746 292.102  1.00  0.00     0.053 C 
BRANCH   2   3
ATOM      3  C   UNL     1      18.020 115.363 290.861  1.00  0.00     0.041 C 
ATOM      4  O   UNL     1      19.219 115.714 290.707  1.00  0.00    -0.550 OA
ATOM      5  O   UNL     1      17.404 114.575 289.897  1.00  0.00    -0.550 OA
ENDBRANCH   2   3
ENDBRANCH   1   2
BRANCH   1   6
ATOM      6  C   UNL     1      17.003 117.665 293.768  1.00  0.00     0.000 C 
BRANCH   6   7
ATOM      7  C   UNL     1      16.883 116.899 295.095  1.00  0.00    -0.000 C 
BRANCH   7   8
ATOM      8  C   UNL     1      17.730 117.563 296.188  1.00  0.00    -0.003 C 
ATOM      9  C   UNL     1      18.930 116.696 296.559  1.00  0.00     0.004 C 
ENDBRANCH   7   8
ENDBRANCH   6   7
ENDBRANCH   1   6
TORSDOF 5
ENDMDL
MODEL 5
REMARK VINA RESULT:    -4.052      1.001      1.654
REMARK INTER + INTRA:          -5.430
REMARK INTER:                  -5.313
REMARK INTRA:                  -0.117
REMARK UNBOUND:                -0.193
REMARK SMILES CCCCCCC(=O)[O-]
REMARK SMILES IDX 5 1 6 2 7 3 8 4 9 5 4 6 3 7 2 8 1 9
REMARK H PARENT
REMARK Flexibility Score: inf
ROOT
ATOM      1  C   UNL     1      18.527 117.902 293.950  1.00  0.00     0.006 C 
ENDROOT
BRANCH   1   2
ATOM      2  C   UNL     1      18.384 117.443 295.408  1.00  0.00     0.053 C 
BRANCH   2   3
ATOM      3  C   UNL     1      19.717 117.437 296.086  1.00  0.00     0.041 C 
ATOM      4  O   UNL     1      20.655 118.152 295.646  1.00  0.00    -0.550 OA
ATOM      5  O   UNL     1      19.909 116.680 297.234  1.00  0.00    -0.550 OA
ENDBRANCH   2   3
ENDBRANCH   1   2
BRANCH   1   6
ATOM      6  C   UNL     1      17.311 117.524 293.089  1.00  0.00     0.000 C 
BRANCH   6   7
ATOM      7  C   UNL     1      17.343 116.058 292.631  1.00  0.00    -0.000 C 
BRANCH   7   8
ATOM      8  C   UNL     1      18.087 115.919 291.296  1.00  0.00    -0.003 C 
ATOM      9  C   UNL     1      17.476 114.815 290.437  1.00  0.00     0.004 C 
ENDBRANCH   7   8
ENDBRANCH   6   7
ENDBRANCH   1   6
TORSDOF 5
ENDMDL
MODEL 6
REMARK VINA RESULT:    -3.847      1.648      1.975
REMARK INTER + INTRA:          -5.164
REMARK INTER:                  -5.038
REMARK INTRA:                  -0.127
REMARK UNBOUND:                -0.193
REMARK SMILES CCCCCCC(=O)[O-]
REMARK SMILES IDX 5 1 6 2 7 3 8 4 9 5 4 6 3 7 2 8 1 9
REMARK H PARENT
REMARK Flexibility Score: inf
ROOT
ATOM      1  C   UNL     1      17.978 117.325 294.307  1.00  0.00     0.006 C 
ENDROOT
BRANCH   1   2
ATOM      2  C   UNL     1      19.261 118.157 294.178  1.00  0.00     0.053 C 
BRANCH   2   3
ATOM      3  C   UNL     1      19.067 119.512 294.783  1.00  0.00     0.041 C 
ATOM      4  O   UNL     1      19.743 120.491 294.372  1.00  0.00    -0.550 OA
ATOM      5  O   UNL     1      18.106 119.703 295.767  1.00  0.00    -0.550 OA
ENDBRANCH   2   3
ENDBRANCH   1   2
BRANCH   1   6
ATOM      6  C   UNL     1      17.217 117.200 292.977  1.00  0.00     0.000 C 
BRANCH   6   7
ATOM      7  C   UNL     1      17.980 116.365 291.937  1.00  0.00    -0.000 C 
BRANCH   7   8
ATOM      8  C   UNL     1      17.169 115.128 291.528  1.00  0.00    -0.003 C 
ATOM      9  C   UNL     1      17.503 114.698 290.102  1.00  0.00     0.004 C 
ENDBRANCH   7   8
ENDBRANCH   6   7
ENDBRANCH   1   6
TORSDOF 5
ENDMDL
MODEL 7
REMARK VINA RESULT:    -3.758      3.101      5.076
REMARK INTER + INTRA:          -5.050
REMARK INTER:                  -4.921
REMARK INTRA:                  -0.129
REMARK UNBOUND:                -0.193
REMARK SMILES CCCCCCC(=O)[O-]
REMARK SMILES IDX 5 1 6 2 7 3 8 4 9 5 4 6 3 7 2 8 1 9
REMARK H PARENT
REMARK Flexibility Score: inf
ROOT
ATOM      1  C   UNL     1      17.243 116.453 292.816  1.00  0.00     0.006 C 
ENDROOT
BRANCH   1   2
ATOM      2  C   UNL     1      18.236 116.138 291.689  1.00  0.00     0.053 C 
BRANCH   2   3
ATOM      3  C   UNL     1      17.594 115.268 290.655  1.00  0.00     0.041 C 
ATOM      4  O   UNL     1      17.109 114.152 290.979  1.00  0.00    -0.550 OA
ATOM      5  O   UNL     1      17.486 115.711 289.344  1.00  0.00    -0.550 OA
ENDBRANCH   2   3
ENDBRANCH   1   2
BRANCH   1   6
ATOM      6  C   UNL     1      17.497 117.825 293.462  1.00  0.00     0.000 C 
BRANCH   6   7
ATOM      7  C   UNL     1      18.932 117.973 293.990  1.00  0.00    -0.000 C 
BRANCH   7   8
ATOM      8  C   UNL     1      18.980 117.765 295.509  1.00  0.00    -0.003 C 
ATOM      9  C   UNL     1      20.399 117.935 296.044  1.00  0.00     0.004 C 
ENDBRANCH   7   8
ENDBRANCH   6   7
ENDBRANCH   1   6
TORSDOF 5
ENDMDL
MODEL 8
REMARK VINA RESULT:    -3.697      3.374      4.959
REMARK INTER + INTRA:          -4.970
REMARK INTER:                  -4.880
REMARK INTRA:                  -0.090
REMARK UNBOUND:                -0.193
REMARK SMILES CCCCCCC(=O)[O-]
REMARK SMILES IDX 5 1 6 2 7 3 8 4 9 5 4 6 3 7 2 8 1 9
REMARK H PARENT
REMARK Flexibility Score: inf
ROOT
ATOM      1  C   UNL     1      18.037 116.927 292.848  1.00  0.00     0.006 C 
ENDROOT
BRANCH   1   2
ATOM      2  C   UNL     1      17.215 116.070 291.876  1.00  0.00     0.053 C 
BRANCH   2   3
ATOM      3  C   UNL     1      18.107 115.429 290.862  1.00  0.00     0.041 C 
ATOM      4  O   UNL     1      17.642 114.579 290.057  1.00  0.00    -0.550 OA
ATOM      5  O   UNL     1      19.441 115.806 290.771  1.00  0.00    -0.550 OA
ENDBRANCH   2   3
ENDBRANCH   1   2
BRANCH   1   6
ATOM      6  C   UNL     1      17.185 117.520 293.981  1.00  0.00     0.000 C 
BRANCH   6   7
ATOM      7  C   UNL     1      16.417 118.778 293.547  1.00  0.00    -0.000 C 
BRANCH   7   8
ATOM      8  C   UNL     1      15.731 119.442 294.747  1.00  0.00    -0.003 C 
ATOM      9  C   UNL     1      14.288 119.814 294.421  1.00  0.00     0.004 C 
ENDBRANCH   7   8
ENDBRANCH   6   7
ENDBRANCH   1   6
TORSDOF 5
ENDMDL
MODEL 9
REMARK VINA RESULT:    -3.571      6.792      7.408
REMARK INTER + INTRA:          -4.808
REMARK INTER:                  -4.660
REMARK INTRA:                  -0.148
REMARK UNBOUND:                -0.193
REMARK SMILES CCCCCCC(=O)[O-]
REMARK SMILES IDX 5 1 6 2 7 3 8 4 9 5 4 6 3 7 2 8 1 9
REMARK H PARENT
REMARK Flexibility Score: inf
ROOT
ATOM      1  C   UNL     1      25.281 117.865 290.782  1.00  0.00     0.006 C 
ENDROOT
BRANCH   1   2
ATOM      2  C   UNL     1      24.394 118.239 291.977  1.00  0.00     0.053 C 
BRANCH   2   3
ATOM      3  C   UNL     1      25.207 118.899 293.045  1.00  0.00     0.041 C 
ATOM      4  O   UNL     1      25.238 118.415 294.208  1.00  0.00    -0.550 OA
ATOM      5  O   UNL     1      25.971 120.019 292.745  1.00  0.00    -0.550 OA
ENDBRANCH   2   3
ENDBRANCH   1   2
BRANCH   1   6
ATOM      6  C   UNL     1      24.800 118.498 289.467  1.00  0.00     0.000 C 
BRANCH   6   7
ATOM      7  C   UNL     1      23.525 117.836 288.923  1.00  0.00    -0.000 C 
BRANCH   7   8
ATOM      8  C   UNL     1      23.190 118.362 287.522  1.00  0.00    -0.003 C 
ATOM      9  C   UNL     1      22.764 119.826 287.570  1.00  0.00     0.004 C 
ENDBRANCH   7   8
ENDBRANCH   6   7
ENDBRANCH   1   6
TORSDOF 5
ENDMDL
