MODEL 1
REMARK VINA RESULT:    -5.186      0.000      0.000
REMARK INTER + INTRA:          -6.359
REMARK INTER:                  -6.095
REMARK INTRA:                  -0.263
REMARK UNBOUND:                -0.263
REMARK SMILES O=c1cc(-c2ccc(O)c(O)c2)oc2cc(O)cc(O)c12
REMARK SMILES IDX 4 1 3 2 2 3 1 4 21 5 19 6 18 7 16 8 15 9 14 10 13 11 5 12
REMARK SMILES IDX 6 13 7 14 8 15 12 16 10 17 9 18 11 20 20 22 17 24
REMARK H PARENT 9 19 11 21 20 23 17 25
REMARK Flexibility Score: inf
ROOT
ATOM      1  C   UNL     1       8.714  11.986  61.351  1.00  0.00     0.138 A 
ATOM      2  C   UNL     1       9.543  13.051  61.729  1.00  0.00     0.100 A 
ATOM      3  C   UNL     1       8.992  14.165  62.365  1.00  0.00     0.197 A 
ATOM      4  O   UNL     1       9.770  15.078  62.741  1.00  0.00    -0.289 OA
ATOM      5  C   UNL     1       7.595  14.226  62.591  1.00  0.00     0.107 A 
ATOM      6  C   UNL     1       6.916  15.325  63.199  1.00  0.00     0.134 A 
ATOM      7  C   UNL     1       5.544  15.229  63.459  1.00  0.00     0.093 A 
ATOM      8  C   UNL     1       4.816  14.103  63.082  1.00  0.00     0.123 A 
ATOM      9  C   UNL     1       5.459  13.042  62.442  1.00  0.00     0.094 A 
ATOM     10  C   UNL     1       6.834  13.093  62.199  1.00  0.00     0.146 A 
ATOM     11  O   UNL     1       7.411  12.055  61.604  1.00  0.00    -0.456 OA
ENDROOT
BRANCH   1  12
ATOM     12  C   UNL     1       9.246  10.780  60.670  1.00  0.00     0.021 A 
ATOM     13  C   UNL     1       9.209  10.705  59.269  1.00  0.00     0.016 A 
ATOM     14  C   UNL     1       9.698   9.579  58.605  1.00  0.00     0.051 A 
ATOM     15  C   UNL     1      10.224   8.499  59.321  1.00  0.00     0.157 A 
ATOM     16  C   UNL     1       9.762   9.687  61.393  1.00  0.00     0.062 A 
ATOM     17  C   UNL     1      10.252   8.552  60.735  1.00  0.00     0.158 A 
BRANCH  15  18
ATOM     18  O   UNL     1      10.702   7.406  58.596  1.00  0.00    -0.504 OA
ATOM     19  H   UNL     1      11.650   7.064  58.650  1.00  0.00     0.293 HD
ENDBRANCH  15  18
BRANCH  17  20
ATOM     20  O   UNL     1      10.747   7.506  61.517  1.00  0.00    -0.504 OA
ATOM     21  H   UNL     1      10.582   7.415  62.508  1.00  0.00     0.293 HD
ENDBRANCH  17  20
ENDBRANCH   1  12
BRANCH   6  22
ATOM     22  O   UNL     1       7.533  16.533  63.544  1.00  0.00    -0.507 OA
ATOM     23  H   UNL     1       8.145  16.666  64.333  1.00  0.00     0.293 HD
ENDBRANCH   6  22
BRANCH   8  24
ATOM     24  O   UNL     1       3.448  14.048  63.343  1.00  0.00    -0.508 OA
ATOM     25  H   UNL     1       2.770  14.449  62.706  1.00  0.00     0.293 HD
ENDBRANCH   8  24
TORSDOF 5
ENDMDL
MODEL 2
REMARK VINA RESULT:    -5.011      1.727      7.289
REMARK INTER + INTRA:          -6.153
REMARK INTER:                  -5.873
REMARK INTRA:                  -0.279
REMARK UNBOUND:                -0.263
REMARK SMILES O=c1cc(-c2ccc(O)c(O)c2)oc2cc(O)cc(O)c12
REMARK SMILES IDX 4 1 3 2 2 3 1 4 21 5 19 6 18 7 16 8 15 9 14 10 13 11 5 12
REMARK SMILES IDX 6 13 7 14 8 15 12 16 10 17 9 18 11 20 20 22 17 24
REMARK H PARENT 9 19 11 21 20 23 17 25
REMARK Flexibility Score: inf
ROOT
ATOM      1  C   UNL     1       8.224  12.614  61.789  1.00  0.00     0.138 A 
ATOM      2  C   UNL     1       7.950  11.342  62.309  1.00  0.00     0.100 A 
ATOM      3  C   UNL     1       8.653  10.234  61.831  1.00  0.00     0.197 A 
ATOM      4  O   UNL     1       8.423   9.115  62.357  1.00  0.00    -0.289 OA
ATOM      5  C   UNL     1       9.610  10.399  60.802  1.00  0.00     0.107 A 
ATOM      6  C   UNL     1      10.363   9.338  60.212  1.00  0.00     0.134 A 
ATOM      7  C   UNL     1      11.354   9.637  59.268  1.00  0.00     0.093 A 
ATOM      8  C   UNL     1      11.579  10.947  58.850  1.00  0.00     0.123 A 
ATOM      9  C   UNL     1      10.815  11.987  59.382  1.00  0.00     0.094 A 
ATOM     10  C   UNL     1       9.843  11.725  60.351  1.00  0.00     0.146 A 
ATOM     11  O   UNL     1       9.150  12.746  60.846  1.00  0.00    -0.456 OA
ENDROOT
BRANCH   1  12
ATOM     12  C   UNL     1       7.505  13.825  62.258  1.00  0.00     0.021 A 
ATOM     13  C   UNL     1       8.227  15.001  62.513  1.00  0.00     0.016 A 
ATOM     14  C   UNL     1       7.575  16.152  62.960  1.00  0.00     0.051 A 
ATOM     15  C   UNL     1       6.193  16.153  63.172  1.00  0.00     0.157 A 
ATOM     16  C   UNL     1       6.115  13.820  62.486  1.00  0.00     0.062 A 
ATOM     17  C   UNL     1       5.454  14.969  62.937  1.00  0.00     0.158 A 
BRANCH  15  18
ATOM     18  O   UNL     1       5.602  17.338  63.614  1.00  0.00    -0.504 OA
ATOM     19  H   UNL     1       5.051  17.414  64.456  1.00  0.00     0.293 HD
ENDBRANCH  15  18
BRANCH  17  20
ATOM     20  O   UNL     1       4.075  14.890  63.143  1.00  0.00    -0.504 OA
ATOM     21  H   UNL     1       3.434  15.651  62.972  1.00  0.00     0.293 HD
ENDBRANCH  17  20
ENDBRANCH   1  12
BRANCH   6  22
ATOM     22  O   UNL     1      10.165   7.983  60.499  1.00  0.00    -0.507 OA
ATOM     23  H   UNL     1      10.717   7.226  60.129  1.00  0.00     0.293 HD
ENDBRANCH   6  22
BRANCH   8  24
ATOM     24  O   UNL     1      12.562  11.205  57.897  1.00  0.00    -0.508 OA
ATOM     25  H   UNL     1      13.479  10.778  57.951  1.00  0.00     0.293 HD
ENDBRANCH   8  24
TORSDOF 5
ENDMDL
MODEL 3
REMARK VINA RESULT:    -4.974      1.836      7.009
REMARK INTER + INTRA:          -6.110
REMARK INTER:                  -5.830
REMARK INTRA:                  -0.280
REMARK UNBOUND:                -0.263
REMARK SMILES O=c1cc(-c2ccc(O)c(O)c2)oc2cc(O)cc(O)c12
REMARK SMILES IDX 4 1 3 2 2 3 1 4 21 5 19 6 18 7 16 8 15 9 14 10 13 11 5 12
REMARK SMILES IDX 6 13 7 14 8 15 12 16 10 17 9 18 11 20 20 22 17 24
REMARK H PARENT 9 19 11 21 20 23 17 25
REMARK Flexibility Score: inf
ROOT
ATOM      1  C   UNL     1       9.123  12.188  61.304  1.00  0.00     0.138 A 
ATOM      2  C   UNL     1       9.943  12.552  60.228  1.00  0.00     0.100 A 
ATOM      3  C   UNL     1      10.890  11.648  59.743  1.00  0.00     0.197 A 
ATOM      4  O   UNL     1      11.571  11.984  58.741  1.00  0.00    -0.289 OA
ATOM      5  C   UNL     1      11.037  10.384  60.364  1.00  0.00     0.107 A 
ATOM      6  C   UNL     1      11.991   9.393  59.978  1.00  0.00     0.134 A 
ATOM      7  C   UNL     1      11.976   8.141  60.605  1.00  0.00     0.093 A 
ATOM      8  C   UNL     1      11.086   7.863  61.639  1.00  0.00     0.123 A 
ATOM      9  C   UNL     1      10.182   8.841  62.060  1.00  0.00     0.094 A 
ATOM     10  C   UNL     1      10.148  10.088  61.431  1.00  0.00     0.146 A 
ATOM     11  O   UNL     1       9.260  10.984  61.849  1.00  0.00    -0.456 OA
ENDROOT
BRANCH   1  12
ATOM     12  C   UNL     1       8.103  13.111  61.862  1.00  0.00     0.021 A 
ATOM     13  C   UNL     1       8.501  14.364  62.353  1.00  0.00     0.016 A 
ATOM     14  C   UNL     1       7.562  15.248  62.888  1.00  0.00     0.051 A 
ATOM     15  C   UNL     1       6.210  14.899  62.955  1.00  0.00     0.157 A 
ATOM     16  C   UNL     1       6.744  12.753  61.942  1.00  0.00     0.062 A 
ATOM     17  C   UNL     1       5.796  13.632  62.480  1.00  0.00     0.158 A 
BRANCH  15  18
ATOM     18  O   UNL     1       5.322  15.831  63.495  1.00  0.00    -0.504 OA
ATOM     19  H   UNL     1       5.563  16.482  64.229  1.00  0.00     0.293 HD
ENDBRANCH  15  18
BRANCH  17  20
ATOM     20  O   UNL     1       4.466  13.209  62.529  1.00  0.00    -0.504 OA
ATOM     21  H   UNL     1       3.766  13.614  63.133  1.00  0.00     0.293 HD
ENDBRANCH  17  20
ENDBRANCH   1  12
BRANCH   6  22
ATOM     22  O   UNL     1      12.980   9.594  59.009  1.00  0.00    -0.507 OA
ATOM     23  H   UNL     1      12.808   9.762  58.031  1.00  0.00     0.293 HD
ENDBRANCH   6  22
BRANCH   8  24
ATOM     24  O   UNL     1      11.111   6.611  62.251  1.00  0.00    -0.508 OA
ATOM     25  H   UNL     1      10.328   5.972  62.182  1.00  0.00     0.293 HD
ENDBRANCH   8  24
TORSDOF 5
ENDMDL
MODEL 4
REMARK VINA RESULT:    -4.958     13.624     16.554
REMARK INTER + INTRA:          -6.091
REMARK INTER:                  -5.794
REMARK INTRA:                  -0.297
REMARK UNBOUND:                -0.263
REMARK SMILES O=c1cc(-c2ccc(O)c(O)c2)oc2cc(O)cc(O)c12
REMARK SMILES IDX 4 1 3 2 2 3 1 4 21 5 19 6 18 7 16 8 15 9 14 10 13 11 5 12
REMARK SMILES IDX 6 13 7 14 8 15 12 16 10 17 9 18 11 20 20 22 17 24
REMARK H PARENT 9 19 11 21 20 23 17 25
REMARK Flexibility Score: inf
ROOT
ATOM      1  C   UNL     1       2.352  13.653  75.633  1.00  0.00     0.138 A 
ATOM      2  C   UNL     1       2.253  12.265  75.803  1.00  0.00     0.100 A 
ATOM      3  C   UNL     1       3.389  11.468  75.657  1.00  0.00     0.197 A 
ATOM      4  O   UNL     1       3.278  10.234  75.871  1.00  0.00    -0.289 OA
ATOM      5  C   UNL     1       4.625  12.062  75.306  1.00  0.00     0.107 A 
ATOM      6  C   UNL     1       5.843  11.346  75.097  1.00  0.00     0.134 A 
ATOM      7  C   UNL     1       7.025  12.053  74.848  1.00  0.00     0.093 A 
ATOM      8  C   UNL     1       7.025  13.442  74.743  1.00  0.00     0.123 A 
ATOM      9  C   UNL     1       5.832  14.151  74.895  1.00  0.00     0.094 A 
ATOM     10  C   UNL     1       4.642  13.476  75.178  1.00  0.00     0.146 A 
ATOM     11  O   UNL     1       3.531  14.189  75.334  1.00  0.00    -0.456 OA
ENDROOT
BRANCH   1  12
ATOM     12  C   UNL     1       1.176  14.548  75.772  1.00  0.00     0.021 A 
ATOM     13  C   UNL     1       1.354  15.938  75.697  1.00  0.00     0.016 A 
ATOM     14  C   UNL     1       0.265  16.801  75.830  1.00  0.00     0.051 A 
ATOM     15  C   UNL     1      -1.021  16.299  76.052  1.00  0.00     0.157 A 
ATOM     16  C   UNL     1      -0.116  14.041  76.010  1.00  0.00     0.062 A 
ATOM     17  C   UNL     1      -1.214  14.901  76.148  1.00  0.00     0.158 A 
BRANCH  15  18
ATOM     18  O   UNL     1      -2.068  17.215  76.170  1.00  0.00    -0.504 OA
ATOM     19  H   UNL     1      -2.165  17.867  76.935  1.00  0.00     0.293 HD
ENDBRANCH  15  18
BRANCH  17  20
ATOM     20  O   UNL     1      -2.465  14.328  76.384  1.00  0.00    -0.504 OA
ATOM     21  H   UNL     1      -2.611  13.346  76.571  1.00  0.00     0.293 HD
ENDBRANCH  17  20
ENDBRANCH   1  12
BRANCH   6  22
ATOM     22  O   UNL     1       5.942   9.950  75.101  1.00  0.00    -0.507 OA
ATOM     23  H   UNL     1       5.757   9.353  74.310  1.00  0.00     0.293 HD
ENDBRANCH   6  22
BRANCH   8  24
ATOM     24  O   UNL     1       8.219  14.112  74.478  1.00  0.00    -0.508 OA
ATOM     25  H   UNL     1       8.964  13.679  73.947  1.00  0.00     0.293 HD
ENDBRANCH   8  24
TORSDOF 5
ENDMDL
MODEL 5
REMARK VINA RESULT:    -4.930     13.282     15.041
REMARK INTER + INTRA:          -6.057
REMARK INTER:                  -5.790
REMARK INTRA:                  -0.267
REMARK UNBOUND:                -0.263
REMARK SMILES O=c1cc(-c2ccc(O)c(O)c2)oc2cc(O)cc(O)c12
REMARK SMILES IDX 4 1 3 2 2 3 1 4 21 5 19 6 18 7 16 8 15 9 14 10 13 11 5 12
REMARK SMILES IDX 6 13 7 14 8 15 12 16 10 17 9 18 11 20 20 22 17 24
REMARK H PARENT 9 19 11 21 20 23 17 25
REMARK Flexibility Score: inf
ROOT
ATOM      1  C   UNL     1       3.854  13.976  75.424  1.00  0.00     0.138 A 
ATOM      2  C   UNL     1       4.121  15.351  75.414  1.00  0.00     0.100 A 
ATOM      3  C   UNL     1       3.072  16.261  75.555  1.00  0.00     0.197 A 
ATOM      4  O   UNL     1       3.351  17.486  75.597  1.00  0.00    -0.289 OA
ATOM      5  C   UNL     1       1.742  15.788  75.672  1.00  0.00     0.107 A 
ATOM      6  C   UNL     1       0.589  16.621  75.787  1.00  0.00     0.134 A 
ATOM      7  C   UNL     1      -0.667  16.036  75.996  1.00  0.00     0.093 A 
ATOM      8  C   UNL     1      -0.819  14.652  76.035  1.00  0.00     0.123 A 
ATOM      9  C   UNL     1       0.294  13.826  75.874  1.00  0.00     0.094 A 
ATOM     10  C   UNL     1       1.565  14.379  75.699  1.00  0.00     0.146 A 
ATOM     11  O   UNL     1       2.601  13.557  75.567  1.00  0.00    -0.456 OA
ENDROOT
BRANCH   1  12
ATOM     12  C   UNL     1       4.931  12.965  75.274  1.00  0.00     0.021 A 
ATOM     13  C   UNL     1       4.949  12.138  74.141  1.00  0.00     0.016 A 
ATOM     14  C   UNL     1       5.947  11.176  73.980  1.00  0.00     0.051 A 
ATOM     15  C   UNL     1       6.942  11.010  74.948  1.00  0.00     0.157 A 
ATOM     16  C   UNL     1       5.924  12.790  76.257  1.00  0.00     0.062 A 
ATOM     17  C   UNL     1       6.928  11.824  76.105  1.00  0.00     0.158 A 
BRANCH  15  18
ATOM     18  O   UNL     1       7.915  10.035  74.723  1.00  0.00    -0.504 OA
ATOM     19  H   UNL     1       7.789   9.053  74.925  1.00  0.00     0.293 HD
ENDBRANCH  15  18
BRANCH  17  20
ATOM     20  O   UNL     1       7.879  11.705  77.121  1.00  0.00    -0.504 OA
ATOM     21  H   UNL     1       8.836  12.015  77.037  1.00  0.00     0.293 HD
ENDBRANCH  17  20
ENDBRANCH   1  12
BRANCH   6  22
ATOM     22  O   UNL     1       0.616  18.016  75.682  1.00  0.00    -0.507 OA
ATOM     23  H   UNL     1       1.096  18.534  74.963  1.00  0.00     0.293 HD
ENDBRANCH   6  22
BRANCH   8  24
ATOM     24  O   UNL     1      -2.087  14.105  76.229  1.00  0.00    -0.508 OA
ATOM     25  H   UNL     1      -2.622  13.722  75.460  1.00  0.00     0.293 HD
ENDBRANCH   8  24
TORSDOF 5
ENDMDL
MODEL 6
REMARK VINA RESULT:    -4.896      9.430     12.252
REMARK INTER + INTRA:          -6.018
REMARK INTER:                  -5.745
REMARK INTRA:                  -0.273
REMARK UNBOUND:                -0.263
REMARK SMILES O=c1cc(-c2ccc(O)c(O)c2)oc2cc(O)cc(O)c12
REMARK SMILES IDX 4 1 3 2 2 3 1 4 21 5 19 6 18 7 16 8 15 9 14 10 13 11 5 12
REMARK SMILES IDX 6 13 7 14 8 15 12 16 10 17 9 18 11 20 20 22 17 24
REMARK H PARENT 9 19 11 21 20 23 17 25
REMARK Flexibility Score: inf
ROOT
ATOM      1  C   UNL     1      -1.527   8.138  61.196  1.00  0.00     0.138 A 
ATOM      2  C   UNL     1      -2.376   7.062  60.908  1.00  0.00     0.100 A 
ATOM      3  C   UNL     1      -2.014   5.772  61.299  1.00  0.00     0.197 A 
ATOM      4  O   UNL     1      -2.824   4.836  61.075  1.00  0.00    -0.289 OA
ATOM      5  C   UNL     1      -0.777   5.555  61.952  1.00  0.00     0.107 A 
ATOM      6  C   UNL     1      -0.287   4.280  62.367  1.00  0.00     0.134 A 
ATOM      7  C   UNL     1       0.908   4.204  63.093  1.00  0.00     0.093 A 
ATOM      8  C   UNL     1       1.659   5.344  63.367  1.00  0.00     0.123 A 
ATOM      9  C   UNL     1       1.216   6.591  62.923  1.00  0.00     0.094 A 
ATOM     10  C   UNL     1       0.010   6.705  62.227  1.00  0.00     0.146 A 
ATOM     11  O   UNL     1      -0.385   7.913  61.838  1.00  0.00    -0.456 OA
ENDROOT
BRANCH   1  12
ATOM     12  C   UNL     1      -1.860   9.530  60.800  1.00  0.00     0.021 A 
ATOM     13  C   UNL     1      -2.988  10.154  61.354  1.00  0.00     0.016 A 
ATOM     14  C   UNL     1      -3.326  11.459  60.993  1.00  0.00     0.051 A 
ATOM     15  C   UNL     1      -2.554  12.167  60.067  1.00  0.00     0.157 A 
ATOM     16  C   UNL     1      -1.090  10.235  59.855  1.00  0.00     0.062 A 
ATOM     17  C   UNL     1      -1.424  11.545  59.485  1.00  0.00     0.158 A 
BRANCH  15  18
ATOM     18  O   UNL     1      -2.943  13.471  59.754  1.00  0.00    -0.504 OA
ATOM     19  H   UNL     1      -2.348  14.279  59.864  1.00  0.00     0.293 HD
ENDBRANCH  15  18
BRANCH  17  20
ATOM     20  O   UNL     1      -0.616  12.183  58.542  1.00  0.00    -0.504 OA
ATOM     21  H   UNL     1      -0.558  13.184  58.433  1.00  0.00     0.293 HD
ENDBRANCH  17  20
ENDBRANCH   1  12
BRANCH   6  22
ATOM     22  O   UNL     1      -0.918   3.066  62.076  1.00  0.00    -0.507 OA
ATOM     23  H   UNL     1      -0.464   2.255  61.687  1.00  0.00     0.293 HD
ENDBRANCH   6  22
BRANCH   8  24
ATOM     24  O   UNL     1       2.853   5.228  64.078  1.00  0.00    -0.508 OA
ATOM     25  H   UNL     1       3.120   5.907  64.780  1.00  0.00     0.293 HD
ENDBRANCH   8  24
TORSDOF 5
ENDMDL
MODEL 7
REMARK VINA RESULT:    -4.890     12.751     15.365
REMARK INTER + INTRA:          -6.011
REMARK INTER:                  -5.693
REMARK INTRA:                  -0.318
REMARK UNBOUND:                -0.263
REMARK SMILES O=c1cc(-c2ccc(O)c(O)c2)oc2cc(O)cc(O)c12
REMARK SMILES IDX 4 1 3 2 2 3 1 4 21 5 19 6 18 7 16 8 15 9 14 10 13 11 5 12
REMARK SMILES IDX 6 13 7 14 8 15 12 16 10 17 9 18 11 20 20 22 17 24
REMARK H PARENT 9 19 11 21 20 23 17 25
REMARK Flexibility Score: inf
ROOT
ATOM      1  C   UNL     1       3.918  14.374  75.011  1.00  0.00     0.138 A 
ATOM      2  C   UNL     1       4.551  15.586  74.705  1.00  0.00     0.100 A 
ATOM      3  C   UNL     1       5.898  15.590  74.338  1.00  0.00     0.197 A 
ATOM      4  O   UNL     1       6.421  16.687  74.016  1.00  0.00    -0.289 OA
ATOM      5  C   UNL     1       6.623  14.374  74.314  1.00  0.00     0.107 A 
ATOM      6  C   UNL     1       8.009  14.259  73.989  1.00  0.00     0.134 A 
ATOM      7  C   UNL     1       8.594  12.989  73.902  1.00  0.00     0.093 A 
ATOM      8  C   UNL     1       7.862  11.838  74.184  1.00  0.00     0.123 A 
ATOM      9  C   UNL     1       6.519  11.940  74.552  1.00  0.00     0.094 A 
ATOM     10  C   UNL     1       5.898  13.191  74.613  1.00  0.00     0.146 A 
ATOM     11  O   UNL     1       4.613  13.243  74.949  1.00  0.00    -0.456 OA
ENDROOT
BRANCH   1  12
ATOM     12  C   UNL     1       2.489  14.312  75.409  1.00  0.00     0.021 A 
ATOM     13  C   UNL     1       1.712  15.480  75.375  1.00  0.00     0.016 A 
ATOM     14  C   UNL     1       0.368  15.450  75.751  1.00  0.00     0.051 A 
ATOM     15  C   UNL     1      -0.228  14.259  76.178  1.00  0.00     0.157 A 
ATOM     16  C   UNL     1       1.895  13.115  75.854  1.00  0.00     0.062 A 
ATOM     17  C   UNL     1       0.548  13.077  76.236  1.00  0.00     0.158 A 
BRANCH  15  18
ATOM     18  O   UNL     1      -1.577  14.295  76.533  1.00  0.00    -0.504 OA
ATOM     19  H   UNL     1      -2.280  14.816  76.030  1.00  0.00     0.293 HD
ENDBRANCH  15  18
BRANCH  17  20
ATOM     20  O   UNL     1       0.026  11.855  76.667  1.00  0.00    -0.504 OA
ATOM     21  H   UNL     1      -0.275  11.119  76.046  1.00  0.00     0.293 HD
ENDBRANCH  17  20
ENDBRANCH   1  12
BRANCH   6  22
ATOM     22  O   UNL     1       8.854  15.351  73.766  1.00  0.00    -0.507 OA
ATOM     23  H   UNL     1       8.598  16.192  73.275  1.00  0.00     0.293 HD
ENDBRANCH   6  22
BRANCH   8  24
ATOM     24  O   UNL     1       8.482  10.592  74.103  1.00  0.00    -0.508 OA
ATOM     25  H   UNL     1       9.163  10.385  73.382  1.00  0.00     0.293 HD
ENDBRANCH   8  24
TORSDOF 5
ENDMDL
MODEL 8
REMARK VINA RESULT:    -4.854      1.550      6.717
REMARK INTER + INTRA:          -5.969
REMARK INTER:                  -5.655
REMARK INTRA:                  -0.313
REMARK UNBOUND:                -0.263
REMARK SMILES O=c1cc(-c2ccc(O)c(O)c2)oc2cc(O)cc(O)c12
REMARK SMILES IDX 4 1 3 2 2 3 1 4 21 5 19 6 18 7 16 8 15 9 14 10 13 11 5 12
REMARK SMILES IDX 6 13 7 14 8 15 12 16 10 17 9 18 11 20 20 22 17 24
REMARK H PARENT 9 19 11 21 20 23 17 25
REMARK Flexibility Score: inf
ROOT
ATOM      1  C   UNL     1       7.709  13.205  62.210  1.00  0.00     0.138 A 
ATOM      2  C   UNL     1       8.913  13.870  62.477  1.00  0.00     0.100 A 
ATOM      3  C   UNL     1      10.126  13.256  62.161  1.00  0.00     0.197 A 
ATOM      4  O   UNL     1      11.187  13.902  62.361  1.00  0.00    -0.289 OA
ATOM      5  C   UNL     1      10.132  11.953  61.606  1.00  0.00     0.107 A 
ATOM      6  C   UNL     1      11.308  11.214  61.275  1.00  0.00     0.134 A 
ATOM      7  C   UNL     1      11.187   9.972  60.640  1.00  0.00     0.093 A 
ATOM      8  C   UNL     1       9.936   9.417  60.377  1.00  0.00     0.123 A 
ATOM      9  C   UNL     1       8.779  10.107  60.742  1.00  0.00     0.094 A 
ATOM     10  C   UNL     1       8.867  11.364  61.345  1.00  0.00     0.146 A 
ATOM     11  O   UNL     1       7.741  11.996  61.660  1.00  0.00    -0.456 OA
ENDROOT
BRANCH   1  12
ATOM     12  C   UNL     1       6.391  13.809  62.528  1.00  0.00     0.021 A 
ATOM     13  C   UNL     1       6.303  15.190  62.762  1.00  0.00     0.016 A 
ATOM     14  C   UNL     1       5.076  15.781  63.069  1.00  0.00     0.051 A 
ATOM     15  C   UNL     1       3.914  15.009  63.161  1.00  0.00     0.157 A 
ATOM     16  C   UNL     1       5.224  13.027  62.635  1.00  0.00     0.062 A 
ATOM     17  C   UNL     1       3.990  13.612  62.946  1.00  0.00     0.158 A 
BRANCH  15  18
ATOM     18  O   UNL     1       2.718  15.662  63.465  1.00  0.00    -0.504 OA
ATOM     19  H   UNL     1       2.550  16.643  63.293  1.00  0.00     0.293 HD
ENDBRANCH  15  18
BRANCH  17  20
ATOM     20  O   UNL     1       2.875  12.775  63.036  1.00  0.00    -0.504 OA
ATOM     21  H   UNL     1       1.923  13.106  63.088  1.00  0.00     0.293 HD
ENDBRANCH  17  20
ENDBRANCH   1  12
BRANCH   6  22
ATOM     22  O   UNL     1      12.609  11.640  61.566  1.00  0.00    -0.507 OA
ATOM     23  H   UNL     1      13.379  11.635  60.916  1.00  0.00     0.293 HD
ENDBRANCH   6  22
BRANCH   8  24
ATOM     24  O   UNL     1       9.854   8.170  59.758  1.00  0.00    -0.508 OA
ATOM     25  H   UNL     1       9.592   8.079  58.784  1.00  0.00     0.293 HD
ENDBRANCH   8  24
TORSDOF 5
ENDMDL
MODEL 9
REMARK VINA RESULT:    -4.845     13.497     15.408
REMARK INTER + INTRA:          -5.958
REMARK INTER:                  -5.668
REMARK INTRA:                  -0.291
REMARK UNBOUND:                -0.263
REMARK SMILES O=c1cc(-c2ccc(O)c(O)c2)oc2cc(O)cc(O)c12
REMARK SMILES IDX 4 1 3 2 2 3 1 4 21 5 19 6 18 7 16 8 15 9 14 10 13 11 5 12
REMARK SMILES IDX 6 13 7 14 8 15 12 16 10 17 9 18 11 20 20 22 17 24
REMARK H PARENT 9 19 11 21 20 23 17 25
REMARK Flexibility Score: inf
ROOT
ATOM      1  C   UNL     1       2.863  12.739  75.439  1.00  0.00     0.138 A 
ATOM      2  C   UNL     1       1.709  11.947  75.518  1.00  0.00     0.100 A 
ATOM      3  C   UNL     1       0.462  12.556  75.668  1.00  0.00     0.197 A 
ATOM      4  O   UNL     1      -0.558  11.821  75.680  1.00  0.00    -0.289 OA
ATOM      5  C   UNL     1       0.375  13.966  75.773  1.00  0.00     0.107 A 
ATOM      6  C   UNL     1      -0.838  14.695  75.961  1.00  0.00     0.134 A 
ATOM      7  C   UNL     1      -0.809  16.095  75.952  1.00  0.00     0.093 A 
ATOM      8  C   UNL     1       0.391  16.791  75.820  1.00  0.00     0.123 A 
ATOM      9  C   UNL     1       1.590  16.088  75.686  1.00  0.00     0.094 A 
ATOM     10  C   UNL     1       1.590  14.691  75.656  1.00  0.00     0.146 A 
ATOM     11  O   UNL     1       2.751  14.061  75.508  1.00  0.00    -0.456 OA
ENDROOT
BRANCH   1  12
ATOM     12  C   UNL     1       4.214  12.144  75.283  1.00  0.00     0.021 A 
ATOM     13  C   UNL     1       4.417  11.128  74.337  1.00  0.00     0.016 A 
ATOM     14  C   UNL     1       5.677  10.549  74.176  1.00  0.00     0.051 A 
ATOM     15  C   UNL     1       6.758  10.961  74.960  1.00  0.00     0.157 A 
ATOM     16  C   UNL     1       5.299  12.551  76.085  1.00  0.00     0.062 A 
ATOM     17  C   UNL     1       6.565  11.972  75.932  1.00  0.00     0.158 A 
BRANCH  15  18
ATOM     18  O   UNL     1       7.992  10.346  74.745  1.00  0.00    -0.504 OA
ATOM     19  H   UNL     1       8.881  10.767  74.974  1.00  0.00     0.293 HD
ENDBRANCH  15  18
BRANCH  17  20
ATOM     20  O   UNL     1       7.594  12.424  76.762  1.00  0.00    -0.504 OA
ATOM     21  H   UNL     1       8.523  12.649  76.439  1.00  0.00     0.293 HD
ENDBRANCH  17  20
ENDBRANCH   1  12
BRANCH   6  22
ATOM     22  O   UNL     1      -2.084  14.099  76.182  1.00  0.00    -0.507 OA
ATOM     23  H   UNL     1      -2.974  14.521  75.970  1.00  0.00     0.293 HD
ENDBRANCH   6  22
BRANCH   8  24
ATOM     24  O   UNL     1       0.383  18.185  75.832  1.00  0.00    -0.508 OA
ATOM     25  H   UNL     1      -0.002  18.718  75.062  1.00  0.00     0.293 HD
ENDBRANCH   8  24
TORSDOF 5
ENDMDL
