MODEL 1
REMARK VINA RESULT:    -4.285      0.000      0.000
REMARK INTER + INTRA:          -4.956
REMARK INTER:                  -4.911
REMARK INTRA:                  -0.045
REMARK UNBOUND:                -0.045
REMARK SMILES O=C([O-])c1cc(O)c(O)c(O)c1
REMARK SMILES IDX 4 1 5 2 12 3 6 4 10 5 8 6 2 7 1 8 3 9 7 10 11 12 9 14
REMARK H PARENT 7 11 11 13 9 15
REMARK Flexibility Score: inf
ROOT
ATOM      1  C   UNL     1      34.898  10.477  22.464  1.00  0.00     0.005 A 
ATOM      2  C   UNL     1      33.909  10.981  23.321  1.00  0.00     0.060 A 
ATOM      3  C   UNL     1      34.535   9.545  21.477  1.00  0.00     0.060 A 
ATOM      4  C   UNL     1      32.578  10.563  23.194  1.00  0.00     0.162 A 
ATOM      5  C   UNL     1      33.209   9.120  21.341  1.00  0.00     0.162 A 
ATOM      6  C   UNL     1      32.217   9.634  22.210  1.00  0.00     0.200 A 
ENDROOT
BRANCH   1   7
ATOM      7  C   UNL     1      36.303  10.922  22.600  1.00  0.00     0.072 C 
ATOM      8  O   UNL     1      37.138  10.225  23.237  1.00  0.00    -0.545 OA
ATOM      9  O   UNL     1      36.722  12.118  22.029  1.00  0.00    -0.545 OA
ENDBRANCH   1   7
BRANCH   4  10
ATOM     10  O   UNL     1      31.601  11.070  24.051  1.00  0.00    -0.504 OA
ATOM     11  H   UNL     1      31.725  11.068  25.058  1.00  0.00     0.293 HD
ENDBRANCH   4  10
BRANCH   5  12
ATOM     12  O   UNL     1      32.924   8.191  20.336  1.00  0.00    -0.504 OA
ATOM     13  H   UNL     1      32.008   7.801  20.170  1.00  0.00     0.293 HD
ENDBRANCH   5  12
BRANCH   6  14
ATOM     14  O   UNL     1      30.876   9.252  22.128  1.00  0.00    -0.502 OA
ATOM     15  H   UNL     1      30.209   9.363  22.877  1.00  0.00     0.293 HD
ENDBRANCH   6  14
TORSDOF 4
ENDMDL
MODEL 2
REMARK VINA RESULT:    -3.707      1.670      4.719
REMARK INTER + INTRA:          -4.294
REMARK INTER:                  -4.247
REMARK INTRA:                  -0.047
REMARK UNBOUND:                -0.045
REMARK SMILES O=C([O-])c1cc(O)c(O)c(O)c1
REMARK SMILES IDX 4 1 5 2 12 3 6 4 10 5 8 6 2 7 1 8 3 9 7 10 11 12 9 14
REMARK H PARENT 7 11 11 13 9 15
REMARK Flexibility Score: inf
ROOT
ATOM      1  C   UNL     1      32.370   8.435  21.366  1.00  0.00     0.005 A 
ATOM      2  C   UNL     1      33.677   8.816  21.030  1.00  0.00     0.060 A 
ATOM      3  C   UNL     1      31.698   9.130  22.386  1.00  0.00     0.060 A 
ATOM      4  C   UNL     1      34.305   9.874  21.701  1.00  0.00     0.162 A 
ATOM      5  C   UNL     1      32.315  10.188  23.063  1.00  0.00     0.162 A 
ATOM      6  C   UNL     1      33.634  10.566  22.718  1.00  0.00     0.200 A 
ENDROOT
BRANCH   1   7
ATOM      7  C   UNL     1      31.711   7.317  20.655  1.00  0.00     0.072 C 
ATOM      8  O   UNL     1      31.572   7.346  19.403  1.00  0.00    -0.545 OA
ATOM      9  O   UNL     1      31.233   6.217  21.359  1.00  0.00    -0.545 OA
ENDBRANCH   1   7
BRANCH   4  10
ATOM     10  O   UNL     1      35.605  10.246  21.359  1.00  0.00    -0.504 OA
ATOM     11  H   UNL     1      35.789  11.025  20.738  1.00  0.00     0.293 HD
ENDBRANCH   4  10
BRANCH   5  12
ATOM     12  O   UNL     1      31.584  10.831  24.066  1.00  0.00    -0.504 OA
ATOM     13  H   UNL     1      31.170  11.746  23.966  1.00  0.00     0.293 HD
ENDBRANCH   5  12
BRANCH   6  14
ATOM     14  O   UNL     1      34.306  11.613  23.353  1.00  0.00    -0.502 OA
ATOM     15  H   UNL     1      35.033  12.164  22.921  1.00  0.00     0.293 HD
ENDBRANCH   6  14
TORSDOF 4
ENDMDL
MODEL 3
REMARK VINA RESULT:    -3.704      1.662      4.159
REMARK INTER + INTRA:          -4.290
REMARK INTER:                  -4.243
REMARK INTRA:                  -0.047
REMARK UNBOUND:                -0.045
REMARK SMILES O=C([O-])c1cc(O)c(O)c(O)c1
REMARK SMILES IDX 4 1 5 2 12 3 6 4 10 5 8 6 2 7 1 8 3 9 7 10 11 12 9 14
REMARK H PARENT 7 11 11 13 9 15
REMARK Flexibility Score: inf
ROOT
ATOM      1  C   UNL     1      32.345   8.415  21.362  1.00  0.00     0.005 A 
ATOM      2  C   UNL     1      31.654   9.111  22.366  1.00  0.00     0.060 A 
ATOM      3  C   UNL     1      33.657   8.803  21.044  1.00  0.00     0.060 A 
ATOM      4  C   UNL     1      32.264  10.176  23.042  1.00  0.00     0.162 A 
ATOM      5  C   UNL     1      34.276   9.866  21.712  1.00  0.00     0.162 A 
ATOM      6  C   UNL     1      33.572  10.561  22.723  1.00  0.00     0.200 A 
ENDROOT
BRANCH   1   7
ATOM      7  C   UNL     1      31.697   7.291  20.652  1.00  0.00     0.072 C 
ATOM      8  O   UNL     1      31.213   6.320  21.293  1.00  0.00    -0.545 OA
ATOM      9  O   UNL     1      31.615   7.287  19.264  1.00  0.00    -0.545 OA
ENDBRANCH   1   7
BRANCH   4  10
ATOM     10  O   UNL     1      31.569  10.861  24.038  1.00  0.00    -0.504 OA
ATOM     11  H   UNL     1      31.354  10.428  24.930  1.00  0.00     0.293 HD
ENDBRANCH   4  10
BRANCH   5  12
ATOM     12  O   UNL     1      35.583  10.194  21.340  1.00  0.00    -0.504 OA
ATOM     13  H   UNL     1      36.272  10.574  21.971  1.00  0.00     0.293 HD
ENDBRANCH   5  12
BRANCH   6  14
ATOM     14  O   UNL     1      34.132  11.630  23.428  1.00  0.00    -0.502 OA
ATOM     15  H   UNL     1      33.783  11.969  24.312  1.00  0.00     0.293 HD
ENDBRANCH   6  14
TORSDOF 4
ENDMDL
MODEL 4
REMARK VINA RESULT:    -3.607      1.566      3.159
REMARK INTER + INTRA:          -4.179
REMARK INTER:                  -4.127
REMARK INTRA:                  -0.052
REMARK UNBOUND:                -0.045
REMARK SMILES O=C([O-])c1cc(O)c(O)c(O)c1
REMARK SMILES IDX 4 1 5 2 12 3 6 4 10 5 8 6 2 7 1 8 3 9 7 10 11 12 9 14
REMARK H PARENT 7 11 11 13 9 15
REMARK Flexibility Score: inf
ROOT
ATOM      1  C   UNL     1      34.460   9.111  21.223  1.00  0.00     0.005 A 
ATOM      2  C   UNL     1      33.090   8.817  21.259  1.00  0.00     0.060 A 
ATOM      3  C   UNL     1      34.967  10.103  22.079  1.00  0.00     0.060 A 
ATOM      4  C   UNL     1      32.237   9.500  22.136  1.00  0.00     0.162 A 
ATOM      5  C   UNL     1      34.125  10.793  22.959  1.00  0.00     0.162 A 
ATOM      6  C   UNL     1      32.743  10.489  22.989  1.00  0.00     0.200 A 
ENDROOT
BRANCH   1   7
ATOM      7  C   UNL     1      35.357   8.386  20.295  1.00  0.00     0.072 C 
ATOM      8  O   UNL     1      34.972   7.331  19.725  1.00  0.00    -0.545 OA
ATOM      9  O   UNL     1      36.639   8.859  20.041  1.00  0.00    -0.545 OA
ENDBRANCH   1   7
BRANCH   4  10
ATOM     10  O   UNL     1      30.875   9.200  22.164  1.00  0.00    -0.504 OA
ATOM     11  H   UNL     1      30.170   9.926  22.107  1.00  0.00     0.293 HD
ENDBRANCH   4  10
BRANCH   5  12
ATOM     12  O   UNL     1      34.701  11.767  23.780  1.00  0.00    -0.504 OA
ATOM     13  H   UNL     1      35.630  12.141  23.647  1.00  0.00     0.293 HD
ENDBRANCH   5  12
BRANCH   6  14
ATOM     14  O   UNL     1      31.850  11.139  23.844  1.00  0.00    -0.502 OA
ATOM     15  H   UNL     1      31.296  10.672  24.546  1.00  0.00     0.293 HD
ENDBRANCH   6  14
TORSDOF 4
ENDMDL
MODEL 5
REMARK VINA RESULT:    -3.521      1.635      2.804
REMARK INTER + INTRA:          -4.080
REMARK INTER:                  -4.031
REMARK INTRA:                  -0.049
REMARK UNBOUND:                -0.045
REMARK SMILES O=C([O-])c1cc(O)c(O)c(O)c1
REMARK SMILES IDX 4 1 5 2 12 3 6 4 10 5 8 6 2 7 1 8 3 9 7 10 11 12 9 14
REMARK H PARENT 7 11 11 13 9 15
REMARK Flexibility Score: inf
ROOT
ATOM      1  C   UNL     1      34.388   9.228  21.002  1.00  0.00     0.005 A 
ATOM      2  C   UNL     1      34.910  10.172  21.898  1.00  0.00     0.060 A 
ATOM      3  C   UNL     1      33.035   8.865  21.106  1.00  0.00     0.060 A 
ATOM      4  C   UNL     1      34.094  10.747  22.881  1.00  0.00     0.162 A 
ATOM      5  C   UNL     1      32.210   9.432  22.084  1.00  0.00     0.162 A 
ATOM      6  C   UNL     1      32.745  10.384  22.984  1.00  0.00     0.200 A 
ENDROOT
BRANCH   1   7
ATOM      7  C   UNL     1      35.253   8.624  19.964  1.00  0.00     0.072 C 
ATOM      8  O   UNL     1      35.183   7.393  19.707  1.00  0.00    -0.545 OA
ATOM      9  O   UNL     1      36.159   9.408  19.258  1.00  0.00    -0.545 OA
ENDBRANCH   1   7
BRANCH   4  10
ATOM     10  O   UNL     1      34.623  11.686  23.767  1.00  0.00    -0.504 OA
ATOM     11  H   UNL     1      35.130  12.499  23.439  1.00  0.00     0.293 HD
ENDBRANCH   4  10
BRANCH   5  12
ATOM     12  O   UNL     1      30.875   9.021  22.126  1.00  0.00    -0.504 OA
ATOM     13  H   UNL     1      30.454   8.544  22.911  1.00  0.00     0.293 HD
ENDBRANCH   5  12
BRANCH   6  14
ATOM     14  O   UNL     1      31.977  10.988  23.983  1.00  0.00    -0.502 OA
ATOM     15  H   UNL     1      32.339  11.274  24.880  1.00  0.00     0.293 HD
ENDBRANCH   6  14
TORSDOF 4
ENDMDL
MODEL 6
REMARK VINA RESULT:    -3.345      1.866      2.997
REMARK INTER + INTRA:          -3.879
REMARK INTER:                  -3.833
REMARK INTRA:                  -0.046
REMARK UNBOUND:                -0.045
REMARK SMILES O=C([O-])c1cc(O)c(O)c(O)c1
REMARK SMILES IDX 4 1 5 2 12 3 6 4 10 5 8 6 2 7 1 8 3 9 7 10 11 12 9 14
REMARK H PARENT 7 11 11 13 9 15
REMARK Flexibility Score: inf
ROOT
ATOM      1  C   UNL     1      35.951  11.111  22.397  1.00  0.00     0.005 A 
ATOM      2  C   UNL     1      35.696  11.440  21.058  1.00  0.00     0.060 A 
ATOM      3  C   UNL     1      34.867  10.923  23.271  1.00  0.00     0.060 A 
ATOM      4  C   UNL     1      34.380  11.577  20.596  1.00  0.00     0.162 A 
ATOM      5  C   UNL     1      33.548  11.057  22.822  1.00  0.00     0.162 A 
ATOM      6  C   UNL     1      33.300  11.389  21.469  1.00  0.00     0.200 A 
ENDROOT
BRANCH   1   7
ATOM      7  C   UNL     1      37.343  10.967  22.879  1.00  0.00     0.072 C 
ATOM      8  O   UNL     1      38.119  11.959  22.906  1.00  0.00    -0.545 OA
ATOM      9  O   UNL     1      37.815   9.732  23.309  1.00  0.00    -0.545 OA
ENDBRANCH   1   7
BRANCH   4  10
ATOM     10  O   UNL     1      34.137  11.904  19.263  1.00  0.00    -0.504 OA
ATOM     11  H   UNL     1      33.343  11.525  18.759  1.00  0.00     0.293 HD
ENDBRANCH   4  10
BRANCH   5  12
ATOM     12  O   UNL     1      32.523  10.855  23.750  1.00  0.00    -0.504 OA
ATOM     13  H   UNL     1      32.381  11.427  24.570  1.00  0.00     0.293 HD
ENDBRANCH   5  12
BRANCH   6  14
ATOM     14  O   UNL     1      32.009  11.537  20.957  1.00  0.00    -0.502 OA
ATOM     15  H   UNL     1      31.796  11.998  20.084  1.00  0.00     0.293 HD
ENDBRANCH   6  14
TORSDOF 4
ENDMDL
MODEL 7
REMARK VINA RESULT:    -3.274      1.255      4.643
REMARK INTER + INTRA:          -3.797
REMARK INTER:                  -3.746
REMARK INTRA:                  -0.051
REMARK UNBOUND:                -0.045
REMARK SMILES O=C([O-])c1cc(O)c(O)c(O)c1
REMARK SMILES IDX 4 1 5 2 12 3 6 4 10 5 8 6 2 7 1 8 3 9 7 10 11 12 9 14
REMARK H PARENT 7 11 11 13 9 15
REMARK Flexibility Score: inf
ROOT
ATOM      1  C   UNL     1      33.349  10.233  22.425  1.00  0.00     0.005 A 
ATOM      2  C   UNL     1      33.648   9.336  21.389  1.00  0.00     0.060 A 
ATOM      3  C   UNL     1      34.383  11.012  22.971  1.00  0.00     0.060 A 
ATOM      4  C   UNL     1      34.957   9.219  20.904  1.00  0.00     0.162 A 
ATOM      5  C   UNL     1      35.695  10.904  22.495  1.00  0.00     0.162 A 
ATOM      6  C   UNL     1      35.987   9.996  21.450  1.00  0.00     0.200 A 
ENDROOT
BRANCH   1   7
ATOM      7  C   UNL     1      31.965  10.354  22.933  1.00  0.00     0.072 C 
ATOM      8  O   UNL     1      31.585  11.403  23.519  1.00  0.00    -0.545 OA
ATOM      9  O   UNL     1      31.061   9.309  22.773  1.00  0.00    -0.545 OA
ENDBRANCH   1   7
BRANCH   4  10
ATOM     10  O   UNL     1      35.244   8.324  19.874  1.00  0.00    -0.504 OA
ATOM     11  H   UNL     1      34.677   7.499  19.713  1.00  0.00     0.293 HD
ENDBRANCH   4  10
BRANCH   5  12
ATOM     12  O   UNL     1      36.669  11.711  23.088  1.00  0.00    -0.504 OA
ATOM     13  H   UNL     1      37.281  12.329  22.575  1.00  0.00     0.293 HD
ENDBRANCH   5  12
BRANCH   6  14
ATOM     14  O   UNL     1      37.274   9.840  20.929  1.00  0.00    -0.502 OA
ATOM     15  H   UNL     1      37.489   9.833  19.943  1.00  0.00     0.293 HD
ENDBRANCH   6  14
TORSDOF 4
ENDMDL
MODEL 8
REMARK VINA RESULT:    -3.110     14.986     16.097
REMARK INTER + INTRA:          -3.609
REMARK INTER:                  -3.559
REMARK INTRA:                  -0.051
REMARK UNBOUND:                -0.045
REMARK SMILES O=C([O-])c1cc(O)c(O)c(O)c1
REMARK SMILES IDX 4 1 5 2 12 3 6 4 10 5 8 6 2 7 1 8 3 9 7 10 11 12 9 14
REMARK H PARENT 7 11 11 13 9 15
REMARK Flexibility Score: inf
ROOT
ATOM      1  C   UNL     1      35.086  -5.658  23.999  1.00  0.00     0.005 A 
ATOM      2  C   UNL     1      34.408  -6.876  24.156  1.00  0.00     0.060 A 
ATOM      3  C   UNL     1      34.341  -4.470  23.907  1.00  0.00     0.060 A 
ATOM      4  C   UNL     1      33.009  -6.909  24.220  1.00  0.00     0.162 A 
ATOM      5  C   UNL     1      32.943  -4.490  23.969  1.00  0.00     0.162 A 
ATOM      6  C   UNL     1      32.267  -5.724  24.128  1.00  0.00     0.200 A 
ENDROOT
BRANCH   1   7
ATOM      7  C   UNL     1      36.564  -5.628  23.933  1.00  0.00     0.072 C 
ATOM      8  O   UNL     1      37.206  -6.615  23.485  1.00  0.00    -0.545 OA
ATOM      9  O   UNL     1      37.267  -4.509  24.366  1.00  0.00    -0.545 OA
ENDBRANCH   1   7
BRANCH   4  10
ATOM     10  O   UNL     1      32.344  -8.125  24.376  1.00  0.00    -0.504 OA
ATOM     11  H   UNL     1      32.591  -8.774  25.114  1.00  0.00     0.293 HD
ENDBRANCH   4  10
BRANCH   5  12
ATOM     12  O   UNL     1      32.271  -3.269  23.870  1.00  0.00    -0.504 OA
ATOM     13  H   UNL     1      32.718  -2.395  23.636  1.00  0.00     0.293 HD
ENDBRANCH   5  12
BRANCH   6  14
ATOM     14  O   UNL     1      30.875  -5.813  24.198  1.00  0.00    -0.502 OA
ATOM     15  H   UNL     1      30.329  -5.531  24.999  1.00  0.00     0.293 HD
ENDBRANCH   6  14
TORSDOF 4
ENDMDL
MODEL 9
REMARK VINA RESULT:    -2.476      0.108      2.609
REMARK INTER + INTRA:          -2.882
REMARK INTER:                  -2.838
REMARK INTRA:                  -0.045
REMARK UNBOUND:                -0.045
REMARK SMILES O=C([O-])c1cc(O)c(O)c(O)c1
REMARK SMILES IDX 4 1 5 2 12 3 6 4 10 5 8 6 2 7 1 8 3 9 7 10 11 12 9 14
REMARK H PARENT 7 11 11 13 9 15
REMARK Flexibility Score: inf
ROOT
ATOM      1  C   UNL     1      34.849  10.504  22.385  1.00  0.00     0.005 A 
ATOM      2  C   UNL     1      34.481   9.557  21.418  1.00  0.00     0.060 A 
ATOM      3  C   UNL     1      33.869  11.000  23.262  1.00  0.00     0.060 A 
ATOM      4  C   UNL     1      33.156   9.110  21.327  1.00  0.00     0.162 A 
ATOM      5  C   UNL     1      32.542  10.561  23.181  1.00  0.00     0.162 A 
ATOM      6  C   UNL     1      32.180   9.605  22.202  1.00  0.00     0.200 A 
ENDROOT
BRANCH   1   7
ATOM      7  C   UNL     1      36.250  10.973  22.478  1.00  0.00     0.072 C 
ATOM      8  O   UNL     1      36.622  12.008  21.864  1.00  0.00    -0.545 OA
ATOM      9  O   UNL     1      37.177  10.275  23.244  1.00  0.00    -0.545 OA
ENDBRANCH   1   7
BRANCH   4  10
ATOM     10  O   UNL     1      32.801   8.169  20.362  1.00  0.00    -0.504 OA
ATOM     11  H   UNL     1      31.835   8.026  20.090  1.00  0.00     0.293 HD
ENDBRANCH   4  10
BRANCH   5  12
ATOM     12  O   UNL     1      31.624  11.099  24.086  1.00  0.00    -0.504 OA
ATOM     13  H   UNL     1      31.618  10.896  25.075  1.00  0.00     0.293 HD
ENDBRANCH   5  12
BRANCH   6  14
ATOM     14  O   UNL     1      30.875   9.126  22.068  1.00  0.00    -0.502 OA
ATOM     15  H   UNL     1      30.239   9.411  21.338  1.00  0.00     0.293 HD
ENDBRANCH   6  14
TORSDOF 4
ENDMDL
