MODEL 1
REMARK VINA RESULT:    -3.139      0.000      0.000
REMARK INTER + INTRA:          -5.550
REMARK INTER:                  -4.790
REMARK INTRA:                  -0.760
REMARK UNBOUND:                -0.760
REMARK SMILES O=C([O-])CCCCCCCCC(=O)[O-]
REMARK SMILES IDX 7 1 6 2 5 3 4 4 2 5 1 6 3 7 8 8 9 9 10 10 11 11 12 12 13 13
REMARK SMILES IDX 14 14
REMARK H PARENT
REMARK Flexibility Score: inf
ROOT
ATOM      1  C   UNL     1      -2.404   9.105  38.643  1.00  0.00     0.000 C 
ENDROOT
BRANCH   1   2
ATOM      2  C   UNL     1      -1.447   8.701  39.773  1.00  0.00     0.000 C 
BRANCH   2   3
ATOM      3  C   UNL     1      -2.185   7.917  40.864  1.00  0.00     0.006 C 
BRANCH   3   4
ATOM      4  C   UNL     1      -3.550   7.433  40.366  1.00  0.00     0.053 C 
BRANCH   4   5
ATOM      5  C   UNL     1      -3.580   5.939  40.287  1.00  0.00     0.041 C 
ATOM      6  O   UNL     1      -4.636   5.343  39.948  1.00  0.00    -0.550 OA
ATOM      7  O   UNL     1      -2.427   5.207  40.539  1.00  0.00    -0.550 OA
ENDBRANCH   4   5
ENDBRANCH   3   4
ENDBRANCH   2   3
ENDBRANCH   1   2
BRANCH   1   8
ATOM      8  C   UNL     1      -1.798   8.897  37.243  1.00  0.00     0.000 C 
BRANCH   8   9
ATOM      9  C   UNL     1      -1.960   7.478  36.663  1.00  0.00     0.000 C 
BRANCH   9  10
ATOM     10  C   UNL     1      -0.644   6.737  36.369  1.00  0.00     0.006 C 
BRANCH  10  11
ATOM     11  C   UNL     1       0.594   7.518  36.829  1.00  0.00     0.053 C 
BRANCH  11  12
ATOM     12  C   UNL     1       1.471   6.652  37.678  1.00  0.00     0.041 C 
ATOM     13  O   UNL     1       2.072   5.669  37.171  1.00  0.00    -0.550 OA
ATOM     14  O   UNL     1       1.663   6.960  39.019  1.00  0.00    -0.550 OA
ENDBRANCH  11  12
ENDBRANCH  10  11
ENDBRANCH   9  10
ENDBRANCH   8   9
ENDBRANCH   1   8
TORSDOF 9
ENDMDL
MODEL 2
REMARK VINA RESULT:    -3.134      1.911      3.444
REMARK INTER + INTRA:          -5.543
REMARK INTER:                  -4.591
REMARK INTRA:                  -0.953
REMARK UNBOUND:                -0.760
REMARK SMILES O=C([O-])CCCCCCCCC(=O)[O-]
REMARK SMILES IDX 7 1 6 2 5 3 4 4 2 5 1 6 3 7 8 8 9 9 10 10 11 11 12 12 13 13
REMARK SMILES IDX 14 14
REMARK H PARENT
REMARK Flexibility Score: inf
ROOT
ATOM      1  C   UNL     1      -1.441   6.797  42.885  1.00  0.00     0.000 C 
ENDROOT
BRANCH   1   2
ATOM      2  C   UNL     1      -2.553   7.853  42.803  1.00  0.00     0.000 C 
BRANCH   2   3
ATOM      3  C   UNL     1      -3.849   7.245  42.255  1.00  0.00     0.006 C 
BRANCH   3   4
ATOM      4  C   UNL     1      -3.871   7.285  40.724  1.00  0.00     0.053 C 
BRANCH   4   5
ATOM      5  C   UNL     1      -3.753   5.904  40.161  1.00  0.00     0.041 C 
ATOM      6  O   UNL     1      -4.784   5.206  39.972  1.00  0.00    -0.550 OA
ATOM      7  O   UNL     1      -2.509   5.406  39.799  1.00  0.00    -0.550 OA
ENDBRANCH   4   5
ENDBRANCH   3   4
ENDBRANCH   2   3
ENDBRANCH   1   2
BRANCH   1   8
ATOM      8  C   UNL     1      -0.127   7.261  42.233  1.00  0.00     0.000 C 
BRANCH   8   9
ATOM      9  C   UNL     1      -0.106   8.734  41.778  1.00  0.00     0.000 C 
BRANCH   9  10
ATOM     10  C   UNL     1       0.213   8.954  40.288  1.00  0.00     0.006 C 
BRANCH  10  11
ATOM     11  C   UNL     1      -1.042   8.969  39.407  1.00  0.00     0.053 C 
BRANCH  11  12
ATOM     12  C   UNL     1      -0.845   8.102  38.203  1.00  0.00     0.041 C 
ATOM     13  O   UNL     1      -1.426   8.380  37.121  1.00  0.00    -0.550 OA
ATOM     14  O   UNL     1       0.018   7.016  38.264  1.00  0.00    -0.550 OA
ENDBRANCH  11  12
ENDBRANCH  10  11
ENDBRANCH   9  10
ENDBRANCH   8   9
ENDBRANCH   1   8
TORSDOF 9
ENDMDL
MODEL 3
REMARK VINA RESULT:    -3.118      1.625      4.481
REMARK INTER + INTRA:          -5.518
REMARK INTER:                  -4.398
REMARK INTRA:                  -1.120
REMARK UNBOUND:                -0.760
REMARK SMILES O=C([O-])CCCCCCCCC(=O)[O-]
REMARK SMILES IDX 7 1 6 2 5 3 4 4 2 5 1 6 3 7 8 8 9 9 10 10 11 11 12 12 13 13
REMARK SMILES IDX 14 14
REMARK H PARENT
REMARK Flexibility Score: inf
ROOT
ATOM      1  C   UNL     1      -2.006   9.125  37.182  1.00  0.00     0.000 C 
ENDROOT
BRANCH   1   2
ATOM      2  C   UNL     1      -0.519   8.745  37.221  1.00  0.00     0.000 C 
BRANCH   2   3
ATOM      3  C   UNL     1      -0.296   7.340  36.649  1.00  0.00     0.006 C 
BRANCH   3   4
ATOM      4  C   UNL     1       0.002   6.333  37.763  1.00  0.00     0.053 C 
BRANCH   4   5
ATOM      5  C   UNL     1      -1.187   5.460  38.012  1.00  0.00     0.041 C 
ATOM      6  O   UNL     1      -1.152   4.584  38.917  1.00  0.00    -0.550 OA
ATOM      7  O   UNL     1      -2.353   5.648  37.281  1.00  0.00    -0.550 OA
ENDBRANCH   4   5
ENDBRANCH   3   4
ENDBRANCH   2   3
ENDBRANCH   1   2
BRANCH   1   8
ATOM      8  C   UNL     1      -2.684   9.029  38.561  1.00  0.00     0.000 C 
BRANCH   8   9
ATOM      9  C   UNL     1      -1.726   8.800  39.747  1.00  0.00     0.000 C 
BRANCH   9  10
ATOM     10  C   UNL     1      -2.219   7.792  40.801  1.00  0.00     0.006 C 
BRANCH  10  11
ATOM     11  C   UNL     1      -3.704   7.443  40.641  1.00  0.00     0.053 C 
BRANCH  11  12
ATOM     12  C   UNL     1      -3.893   5.959  40.639  1.00  0.00     0.041 C 
ATOM     13  O   UNL     1      -4.647   5.418  39.787  1.00  0.00    -0.550 OA
ATOM     14  O   UNL     1      -3.200   5.168  41.546  1.00  0.00    -0.550 OA
ENDBRANCH  11  12
ENDBRANCH  10  11
ENDBRANCH   9  10
ENDBRANCH   8   9
ENDBRANCH   1   8
TORSDOF 9
ENDMDL
MODEL 4
REMARK VINA RESULT:    -3.108      2.214      4.622
REMARK INTER + INTRA:          -5.503
REMARK INTER:                  -4.639
REMARK INTRA:                  -0.864
REMARK UNBOUND:                -0.760
REMARK SMILES O=C([O-])CCCCCCCCC(=O)[O-]
REMARK SMILES IDX 7 1 6 2 5 3 4 4 2 5 1 6 3 7 8 8 9 9 10 10 11 11 12 12 13 13
REMARK SMILES IDX 14 14
REMARK H PARENT
REMARK Flexibility Score: inf
ROOT
ATOM      1  C   UNL     1      -1.575   8.316  40.020  1.00  0.00     0.000 C 
ENDROOT
BRANCH   1   2
ATOM      2  C   UNL     1      -2.254   9.008  38.829  1.00  0.00     0.000 C 
BRANCH   2   3
ATOM      3  C   UNL     1      -1.847   8.349  37.507  1.00  0.00     0.006 C 
BRANCH   3   4
ATOM      4  C   UNL     1      -1.273   6.948  37.743  1.00  0.00     0.053 C 
BRANCH   4   5
ATOM      5  C   UNL     1      -1.970   5.944  36.881  1.00  0.00     0.041 C 
ATOM      6  O   UNL     1      -2.164   6.183  35.660  1.00  0.00    -0.550 OA
ATOM      7  O   UNL     1      -2.359   4.722  37.414  1.00  0.00    -0.550 OA
ENDBRANCH   4   5
ENDBRANCH   3   4
ENDBRANCH   2   3
ENDBRANCH   1   2
BRANCH   1   8
ATOM      8  C   UNL     1      -2.564   7.950  41.142  1.00  0.00     0.000 C 
BRANCH   8   9
ATOM      9  C   UNL     1      -3.917   7.386  40.663  1.00  0.00     0.000 C 
BRANCH   9  10
ATOM     10  C   UNL     1      -3.936   5.870  40.399  1.00  0.00     0.006 C 
BRANCH  10  11
ATOM     11  C   UNL     1      -3.788   5.040  41.680  1.00  0.00     0.053 C 
BRANCH  11  12
ATOM     12  C   UNL     1      -2.418   4.443  41.760  1.00  0.00     0.041 C 
ATOM     13  O   UNL     1      -2.065   3.805  42.787  1.00  0.00    -0.550 OA
ATOM     14  O   UNL     1      -1.549   4.550  40.682  1.00  0.00    -0.550 OA
ENDBRANCH  11  12
ENDBRANCH  10  11
ENDBRANCH   9  10
ENDBRANCH   8   9
ENDBRANCH   1   8
TORSDOF 9
ENDMDL
MODEL 5
REMARK VINA RESULT:    -3.101      2.057      2.960
REMARK INTER + INTRA:          -5.492
REMARK INTER:                  -4.508
REMARK INTRA:                  -0.984
REMARK UNBOUND:                -0.760
REMARK SMILES O=C([O-])CCCCCCCCC(=O)[O-]
REMARK SMILES IDX 7 1 6 2 5 3 4 4 2 5 1 6 3 7 8 8 9 9 10 10 11 11 12 12 13 13
REMARK SMILES IDX 14 14
REMARK H PARENT
REMARK Flexibility Score: inf
ROOT
ATOM      1  C   UNL     1       0.645   7.358  40.669  1.00  0.00     0.000 C 
ENDROOT
BRANCH   1   2
ATOM      2  C   UNL     1      -0.863   7.074  40.646  1.00  0.00     0.000 C 
BRANCH   2   3
ATOM      3  C   UNL     1      -1.664   8.370  40.476  1.00  0.00     0.006 C 
BRANCH   3   4
ATOM      4  C   UNL     1      -3.039   8.090  39.862  1.00  0.00     0.053 C 
BRANCH   4   5
ATOM      5  C   UNL     1      -3.844   7.203  40.759  1.00  0.00     0.041 C 
ATOM      6  O   UNL     1      -4.165   7.593  41.913  1.00  0.00    -0.550 OA
ATOM      7  O   UNL     1      -4.282   5.967  40.303  1.00  0.00    -0.550 OA
ENDBRANCH   4   5
ENDBRANCH   3   4
ENDBRANCH   2   3
ENDBRANCH   1   2
BRANCH   1   8
ATOM      8  C   UNL     1       1.353   6.934  39.370  1.00  0.00     0.000 C 
BRANCH   8   9
ATOM      9  C   UNL     1       1.165   7.895  38.179  1.00  0.00     0.000 C 
BRANCH   9  10
ATOM     10  C   UNL     1       0.518   7.270  36.930  1.00  0.00     0.006 C 
BRANCH  10  11
ATOM     11  C   UNL     1      -0.965   7.634  36.783  1.00  0.00     0.053 C 
BRANCH  11  12
ATOM     12  C   UNL     1      -1.795   6.396  36.650  1.00  0.00     0.041 C 
ATOM     13  O   UNL     1      -2.373   6.135  35.562  1.00  0.00    -0.550 OA
ATOM     14  O   UNL     1      -1.891   5.506  37.713  1.00  0.00    -0.550 OA
ENDBRANCH  11  12
ENDBRANCH  10  11
ENDBRANCH   9  10
ENDBRANCH   8   9
ENDBRANCH   1   8
TORSDOF 9
ENDMDL
MODEL 6
REMARK VINA RESULT:    -3.081      2.051      2.421
REMARK INTER + INTRA:          -5.462
REMARK INTER:                  -4.518
REMARK INTRA:                  -0.944
REMARK UNBOUND:                -0.760
REMARK SMILES O=C([O-])CCCCCCCCC(=O)[O-]
REMARK SMILES IDX 7 1 6 2 5 3 4 4 2 5 1 6 3 7 8 8 9 9 10 10 11 11 12 12 13 13
REMARK SMILES IDX 14 14
REMARK H PARENT
REMARK Flexibility Score: inf
ROOT
ATOM      1  C   UNL     1      -0.753   8.701  38.449  1.00  0.00     0.000 C 
ENDROOT
BRANCH   1   2
ATOM      2  C   UNL     1      -2.191   8.869  38.959  1.00  0.00     0.000 C 
BRANCH   2   3
ATOM      3  C   UNL     1      -2.355   8.257  40.355  1.00  0.00     0.006 C 
BRANCH   3   4
ATOM      4  C   UNL     1      -3.710   7.556  40.494  1.00  0.00     0.053 C 
BRANCH   4   5
ATOM      5  C   UNL     1      -3.920   7.096  41.901  1.00  0.00     0.041 C 
ATOM      6  O   UNL     1      -3.727   5.890  42.209  1.00  0.00    -0.550 OA
ATOM      7  O   UNL     1      -4.280   8.008  42.885  1.00  0.00    -0.550 OA
ENDBRANCH   4   5
ENDBRANCH   3   4
ENDBRANCH   2   3
ENDBRANCH   1   2
BRANCH   1   8
ATOM      8  C   UNL     1      -0.689   8.161  37.009  1.00  0.00     0.000 C 
BRANCH   8   9
ATOM      9  C   UNL     1      -1.960   7.432  36.526  1.00  0.00     0.000 C 
BRANCH   9  10
ATOM     10  C   UNL     1      -1.861   5.897  36.494  1.00  0.00     0.006 C 
BRANCH  10  11
ATOM     11  C   UNL     1      -2.329   5.242  37.799  1.00  0.00     0.053 C 
BRANCH  11  12
ATOM     12  C   UNL     1      -1.157   4.733  38.577  1.00  0.00     0.041 C 
ATOM     13  O   UNL     1      -0.388   3.873  38.073  1.00  0.00    -0.550 OA
ATOM     14  O   UNL     1      -0.887   5.243  39.841  1.00  0.00    -0.550 OA
ENDBRANCH  11  12
ENDBRANCH  10  11
ENDBRANCH   9  10
ENDBRANCH   8   9
ENDBRANCH   1   8
TORSDOF 9
ENDMDL
MODEL 7
REMARK VINA RESULT:    -3.046      1.851      2.861
REMARK INTER + INTRA:          -5.408
REMARK INTER:                  -4.528
REMARK INTRA:                  -0.880
REMARK UNBOUND:                -0.760
REMARK SMILES O=C([O-])CCCCCCCCC(=O)[O-]
REMARK SMILES IDX 7 1 6 2 5 3 4 4 2 5 1 6 3 7 8 8 9 9 10 10 11 11 12 12 13 13
REMARK SMILES IDX 14 14
REMARK H PARENT
REMARK Flexibility Score: inf
ROOT
ATOM      1  C   UNL     1      -2.093   5.648  39.094  1.00  0.00     0.000 C 
ENDROOT
BRANCH   1   2
ATOM      2  C   UNL     1      -3.350   5.724  39.973  1.00  0.00     0.000 C 
BRANCH   2   3
ATOM      3  C   UNL     1      -3.669   7.175  40.351  1.00  0.00     0.006 C 
BRANCH   3   4
ATOM      4  C   UNL     1      -2.386   7.987  40.548  1.00  0.00     0.053 C 
BRANCH   4   5
ATOM      5  C   UNL     1      -1.975   7.978  41.987  1.00  0.00     0.041 C 
ATOM      6  O   UNL     1      -0.755   8.029  42.298  1.00  0.00    -0.550 OA
ATOM      7  O   UNL     1      -2.940   7.963  42.985  1.00  0.00    -0.550 OA
ENDBRANCH   4   5
ENDBRANCH   3   4
ENDBRANCH   2   3
ENDBRANCH   1   2
BRANCH   1   8
ATOM      8  C   UNL     1      -2.381   5.104  37.684  1.00  0.00     0.000 C 
BRANCH   8   9
ATOM      9  C   UNL     1      -1.987   6.044  36.527  1.00  0.00     0.000 C 
BRANCH   9  10
ATOM     10  C   UNL     1      -1.678   7.495  36.939  1.00  0.00     0.006 C 
BRANCH  10  11
ATOM     11  C   UNL     1      -0.278   7.950  36.508  1.00  0.00     0.053 C 
BRANCH  11  12
ATOM     12  C   UNL     1       0.757   7.419  37.450  1.00  0.00     0.041 C 
ATOM     13  O   UNL     1       0.863   7.897  38.610  1.00  0.00    -0.550 OA
ATOM     14  O   UNL     1       1.571   6.362  37.063  1.00  0.00    -0.550 OA
ENDBRANCH  11  12
ENDBRANCH  10  11
ENDBRANCH   9  10
ENDBRANCH   8   9
ENDBRANCH   1   8
TORSDOF 9
ENDMDL
MODEL 8
REMARK VINA RESULT:    -3.031      2.297      3.520
REMARK INTER + INTRA:          -5.385
REMARK INTER:                  -4.436
REMARK INTRA:                  -0.949
REMARK UNBOUND:                -0.760
REMARK SMILES O=C([O-])CCCCCCCCC(=O)[O-]
REMARK SMILES IDX 7 1 6 2 5 3 4 4 2 5 1 6 3 7 8 8 9 9 10 10 11 11 12 12 13 13
REMARK SMILES IDX 14 14
REMARK H PARENT
REMARK Flexibility Score: inf
ROOT
ATOM      1  C   UNL     1      -2.634   7.781  39.751  1.00  0.00     0.000 C 
ENDROOT
BRANCH   1   2
ATOM      2  C   UNL     1      -1.981   7.869  41.138  1.00  0.00     0.000 C 
BRANCH   2   3
ATOM      3  C   UNL     1      -0.557   8.429  41.041  1.00  0.00     0.006 C 
BRANCH   3   4
ATOM      4  C   UNL     1       0.457   7.311  40.779  1.00  0.00     0.053 C 
BRANCH   4   5
ATOM      5  C   UNL     1       1.087   7.479  39.433  1.00  0.00     0.041 C 
ATOM      6  O   UNL     1       1.333   6.471  38.718  1.00  0.00    -0.550 OA
ATOM      7  O   UNL     1       1.356   8.751  38.945  1.00  0.00    -0.550 OA
ENDBRANCH   4   5
ENDBRANCH   3   4
ENDBRANCH   2   3
ENDBRANCH   1   2
BRANCH   1   8
ATOM      8  C   UNL     1      -2.619   9.123  38.998  1.00  0.00     0.000 C 
BRANCH   8   9
ATOM      9  C   UNL     1      -2.019   9.070  37.578  1.00  0.00     0.000 C 
BRANCH   9  10
ATOM     10  C   UNL     1      -1.645   7.663  37.078  1.00  0.00     0.006 C 
BRANCH  10  11
ATOM     11  C   UNL     1      -0.539   7.683  36.016  1.00  0.00     0.053 C 
BRANCH  11  12
ATOM     12  C   UNL     1      -0.442   6.352  35.339  1.00  0.00     0.041 C 
ATOM     13  O   UNL     1       0.676   5.784  35.219  1.00  0.00    -0.550 OA
ATOM     14  O   UNL     1      -1.591   5.717  34.885  1.00  0.00    -0.550 OA
ENDBRANCH  11  12
ENDBRANCH  10  11
ENDBRANCH   9  10
ENDBRANCH   8   9
ENDBRANCH   1   8
TORSDOF 9
ENDMDL
MODEL 9
REMARK VINA RESULT:    -3.009      2.103      2.701
REMARK INTER + INTRA:          -5.351
REMARK INTER:                  -4.461
REMARK INTRA:                  -0.890
REMARK UNBOUND:                -0.760
REMARK SMILES O=C([O-])CCCCCCCCC(=O)[O-]
REMARK SMILES IDX 7 1 6 2 5 3 4 4 2 5 1 6 3 7 8 8 9 9 10 10 11 11 12 12 13 13
REMARK SMILES IDX 14 14
REMARK H PARENT
REMARK Flexibility Score: inf
ROOT
ATOM      1  C   UNL     1      -1.351   9.052  38.256  1.00  0.00     0.000 C 
ENDROOT
BRANCH   1   2
ATOM      2  C   UNL     1      -2.680   8.861  39.001  1.00  0.00     0.000 C 
BRANCH   2   3
ATOM      3  C   UNL     1      -2.482   8.032  40.275  1.00  0.00     0.006 C 
BRANCH   3   4
ATOM      4  C   UNL     1      -3.824   7.542  40.828  1.00  0.00     0.053 C 
BRANCH   4   5
ATOM      5  C   UNL     1      -3.849   6.048  40.898  1.00  0.00     0.041 C 
ATOM      6  O   UNL     1      -3.248   5.448  41.829  1.00  0.00    -0.550 OA
ATOM      7  O   UNL     1      -4.577   5.321  39.967  1.00  0.00    -0.550 OA
ENDBRANCH   4   5
ENDBRANCH   3   4
ENDBRANCH   2   3
ENDBRANCH   1   2
BRANCH   1   8
ATOM      8  C   UNL     1      -0.228   8.150  38.797  1.00  0.00     0.000 C 
BRANCH   8   9
ATOM      9  C   UNL     1       0.163   6.972  37.883  1.00  0.00     0.000 C 
BRANCH   9  10
ATOM     10  C   UNL     1      -0.338   5.592  38.344  1.00  0.00     0.006 C 
BRANCH  10  11
ATOM     11  C   UNL     1      -1.761   5.283  37.863  1.00  0.00     0.053 C 
BRANCH  11  12
ATOM     12  C   UNL     1      -1.810   5.250  36.368  1.00  0.00     0.041 C 
ATOM     13  O   UNL     1      -1.347   4.261  35.741  1.00  0.00    -0.550 OA
ATOM     14  O   UNL     1      -2.412   6.289  35.669  1.00  0.00    -0.550 OA
ENDBRANCH  11  12
ENDBRANCH  10  11
ENDBRANCH   9  10
ENDBRANCH   8   9
ENDBRANCH   1   8
TORSDOF 9
ENDMDL
