MODEL 1
REMARK VINA RESULT:    -3.612      0.000      0.000
REMARK INTER + INTRA:          -5.828
REMARK INTER:                  -5.091
REMARK INTRA:                  -0.738
REMARK UNBOUND:                -0.738
REMARK SMILES C=CCCCCCCC(=O)[O-]
REMARK SMILES IDX 6 1 7 2 8 3 9 4 10 5 11 6 5 7 4 8 3 9 2 10 1 11
REMARK H PARENT
REMARK Flexibility Score: inf
ROOT
ATOM      1  C   UNL     1      -0.843   8.938   4.666  1.00  0.00     0.000 C 
ENDROOT
BRANCH   1   2
ATOM      2  C   UNL     1      -0.354   8.201   3.409  1.00  0.00     0.006 C 
BRANCH   2   3
ATOM      3  C   UNL     1      -1.412   7.254   2.830  1.00  0.00     0.053 C 
BRANCH   3   4
ATOM      4  C   UNL     1      -0.829   5.893   2.607  1.00  0.00     0.041 C 
ATOM      5  O   UNL     1       0.110   5.480   3.336  1.00  0.00    -0.550 OA
ATOM      6  O   UNL     1      -1.290   5.102   1.563  1.00  0.00    -0.550 OA
ENDBRANCH   3   4
ENDBRANCH   2   3
ENDBRANCH   1   2
BRANCH   1   7
ATOM      7  C   UNL     1      -1.652   8.032   5.605  1.00  0.00     0.000 C 
BRANCH   7   8
ATOM      8  C   UNL     1      -0.855   7.705   6.873  1.00  0.00     0.004 C 
BRANCH   8   9
ATOM      9  C   UNL     1       0.030   6.469   6.664  1.00  0.00     0.027 C 
BRANCH   9  10
ATOM     10  C   UNL     1       1.484   6.801   6.859  1.00  0.00    -0.035 C 
ATOM     11  C   UNL     1       2.212   7.372   5.895  1.00  0.00     0.004 C 
ENDBRANCH   9  10
ENDBRANCH   8   9
ENDBRANCH   7   8
ENDBRANCH   1   7
TORSDOF 7
ENDMDL
MODEL 2
REMARK VINA RESULT:    -3.491      2.822      4.478
REMARK INTER + INTRA:          -5.657
REMARK INTER:                  -4.957
REMARK INTRA:                  -0.700
REMARK UNBOUND:                -0.738
REMARK SMILES C=CCCCCCCC(=O)[O-]
REMARK SMILES IDX 6 1 7 2 8 3 9 4 10 5 11 6 5 7 4 8 3 9 2 10 1 11
REMARK H PARENT
REMARK Flexibility Score: inf
ROOT
ATOM      1  C   UNL     1       0.615   6.623   5.951  1.00  0.00     0.000 C 
ENDROOT
BRANCH   1   2
ATOM      2  C   UNL     1       1.857   7.308   5.359  1.00  0.00     0.006 C 
BRANCH   2   3
ATOM      3  C   UNL     1       1.589   8.759   4.940  1.00  0.00     0.053 C 
BRANCH   3   4
ATOM      4  C   UNL     1       2.858   9.413   4.489  1.00  0.00     0.041 C 
ATOM      5  O   UNL     1       2.866  10.137   3.459  1.00  0.00    -0.550 OA
ATOM      6  O   UNL     1       4.041   9.186   5.180  1.00  0.00    -0.550 OA
ENDBRANCH   3   4
ENDBRANCH   2   3
ENDBRANCH   1   2
BRANCH   1   7
ATOM      7  C   UNL     1      -0.653   7.480   5.815  1.00  0.00     0.000 C 
BRANCH   7   8
ATOM      8  C   UNL     1      -1.669   6.811   4.881  1.00  0.00     0.004 C 
BRANCH   8   9
ATOM      9  C   UNL     1      -1.687   7.495   3.508  1.00  0.00     0.027 C 
BRANCH   9  10
ATOM     10  C   UNL     1      -0.952   6.677   2.482  1.00  0.00    -0.035 C 
ATOM     11  C   UNL     1      -0.751   5.365   2.639  1.00  0.00     0.004 C 
ENDBRANCH   9  10
ENDBRANCH   8   9
ENDBRANCH   7   8
ENDBRANCH   1   7
TORSDOF 7
ENDMDL
MODEL 3
REMARK VINA RESULT:    -3.478     14.133     15.456
REMARK INTER + INTRA:          -5.639
REMARK INTER:                  -5.191
REMARK INTRA:                  -0.448
REMARK UNBOUND:                -0.738
REMARK SMILES C=CCCCCCCC(=O)[O-]
REMARK SMILES IDX 6 1 7 2 8 3 9 4 10 5 11 6 5 7 4 8 3 9 2 10 1 11
REMARK H PARENT
REMARK Flexibility Score: inf
ROOT
ATOM      1  C   UNL     1       8.769  -5.828  -1.701  1.00  0.00     0.000 C 
ENDROOT
BRANCH   1   2
ATOM      2  C   UNL     1       8.519  -6.675  -0.443  1.00  0.00     0.006 C 
BRANCH   2   3
ATOM      3  C   UNL     1       7.139  -7.345  -0.447  1.00  0.00     0.053 C 
BRANCH   3   4
ATOM      4  C   UNL     1       6.425  -7.076   0.841  1.00  0.00     0.041 C 
ATOM      5  O   UNL     1       6.336  -7.976   1.716  1.00  0.00    -0.550 OA
ATOM      6  O   UNL     1       5.817  -5.846   1.054  1.00  0.00    -0.550 OA
ENDBRANCH   3   4
ENDBRANCH   2   3
ENDBRANCH   1   2
BRANCH   1   7
ATOM      7  C   UNL     1       8.782  -4.321  -1.405  1.00  0.00     0.000 C 
BRANCH   7   8
ATOM      8  C   UNL     1       8.772  -4.059   0.106  1.00  0.00     0.004 C 
BRANCH   8   9
ATOM      9  C   UNL     1       7.775  -2.951   0.466  1.00  0.00     0.027 C 
BRANCH   9  10
ATOM     10  C   UNL     1       7.863  -2.590   1.923  1.00  0.00    -0.035 C 
ATOM     11  C   UNL     1       6.868  -1.961   2.555  1.00  0.00     0.004 C 
ENDBRANCH   9  10
ENDBRANCH   8   9
ENDBRANCH   7   8
ENDBRANCH   1   7
TORSDOF 7
ENDMDL
MODEL 4
REMARK VINA RESULT:    -3.447      0.969      2.073
REMARK INTER + INTRA:          -5.596
REMARK INTER:                  -4.910
REMARK INTRA:                  -0.685
REMARK UNBOUND:                -0.738
REMARK SMILES C=CCCCCCCC(=O)[O-]
REMARK SMILES IDX 6 1 7 2 8 3 9 4 10 5 11 6 5 7 4 8 3 9 2 10 1 11
REMARK H PARENT
REMARK Flexibility Score: inf
ROOT
ATOM      1  C   UNL     1      -0.613   9.173   4.178  1.00  0.00     0.000 C 
ENDROOT
BRANCH   1   2
ATOM      2  C   UNL     1      -1.225   7.764   4.129  1.00  0.00     0.006 C 
BRANCH   2   3
ATOM      3  C   UNL     1      -1.353   7.225   2.698  1.00  0.00     0.053 C 
BRANCH   3   4
ATOM      4  C   UNL     1      -0.819   5.829   2.617  1.00  0.00     0.041 C 
ATOM      5  O   UNL     1      -1.333   4.999   1.824  1.00  0.00    -0.550 OA
ATOM      6  O   UNL     1       0.217   5.432   3.453  1.00  0.00    -0.550 OA
ENDBRANCH   3   4
ENDBRANCH   2   3
ENDBRANCH   1   2
BRANCH   1   7
ATOM      7  C   UNL     1       0.884   9.179   3.836  1.00  0.00     0.000 C 
BRANCH   7   8
ATOM      8  C   UNL     1       1.738   9.139   5.109  1.00  0.00     0.004 C 
BRANCH   8   9
ATOM      9  C   UNL     1       2.142   7.701   5.456  1.00  0.00     0.027 C 
BRANCH   9  10
ATOM     10  C   UNL     1       1.570   7.278   6.780  1.00  0.00    -0.035 C 
ATOM     11  C   UNL     1       0.751   6.228   6.891  1.00  0.00     0.004 C 
ENDBRANCH   9  10
ENDBRANCH   8   9
ENDBRANCH   7   8
ENDBRANCH   1   7
TORSDOF 7
ENDMDL
MODEL 5
REMARK VINA RESULT:    -3.388     12.074     13.235
REMARK INTER + INTRA:          -5.512
REMARK INTER:                  -5.041
REMARK INTRA:                  -0.471
REMARK UNBOUND:                -0.738
REMARK SMILES C=CCCCCCCC(=O)[O-]
REMARK SMILES IDX 6 1 7 2 8 3 9 4 10 5 11 6 5 7 4 8 3 9 2 10 1 11
REMARK H PARENT
REMARK Flexibility Score: inf
ROOT
ATOM      1  C   UNL     1       9.094  -2.947   1.272  1.00  0.00     0.000 C 
ENDROOT
BRANCH   1   2
ATOM      2  C   UNL     1       7.947  -3.547   0.444  1.00  0.00     0.006 C 
BRANCH   2   3
ATOM      3  C   UNL     1       7.944  -5.081   0.463  1.00  0.00     0.053 C 
BRANCH   3   4
ATOM      4  C   UNL     1       6.908  -5.588   1.417  1.00  0.00     0.041 C 
ATOM      5  O   UNL     1       5.785  -5.964   0.992  1.00  0.00    -0.550 OA
ATOM      6  O   UNL     1       7.168  -5.600   2.782  1.00  0.00    -0.550 OA
ENDBRANCH   3   4
ENDBRANCH   2   3
ENDBRANCH   1   2
BRANCH   1   7
ATOM      7  C   UNL     1       8.597  -2.213   2.526  1.00  0.00     0.000 C 
BRANCH   7   8
ATOM      8  C   UNL     1       7.078  -2.008   2.475  1.00  0.00     0.004 C 
BRANCH   8   9
ATOM      9  C   UNL     1       6.535  -1.570   3.841  1.00  0.00     0.027 C 
BRANCH   9  10
ATOM     10  C   UNL     1       6.878  -0.133   4.127  1.00  0.00    -0.035 C 
ATOM     11  C   UNL     1       6.740   0.394   5.347  1.00  0.00     0.004 C 
ENDBRANCH   9  10
ENDBRANCH   8   9
ENDBRANCH   7   8
ENDBRANCH   1   7
TORSDOF 7
ENDMDL
MODEL 6
REMARK VINA RESULT:    -3.379     13.921     15.275
REMARK INTER + INTRA:          -5.500
REMARK INTER:                  -4.974
REMARK INTRA:                  -0.525
REMARK UNBOUND:                -0.738
REMARK SMILES C=CCCCCCCC(=O)[O-]
REMARK SMILES IDX 6 1 7 2 8 3 9 4 10 5 11 6 5 7 4 8 3 9 2 10 1 11
REMARK H PARENT
REMARK Flexibility Score: inf
ROOT
ATOM      1  C   UNL     1       9.052  -5.700  -0.435  1.00  0.00     0.000 C 
ENDROOT
BRANCH   1   2
ATOM      2  C   UNL     1       8.032  -6.799  -0.774  1.00  0.00     0.006 C 
BRANCH   2   3
ATOM      3  C   UNL     1       7.495  -7.511   0.473  1.00  0.00     0.053 C 
BRANCH   3   4
ATOM      4  C   UNL     1       6.767  -6.543   1.354  1.00  0.00     0.041 C 
ATOM      5  O   UNL     1       5.728  -5.968   0.939  1.00  0.00    -0.550 OA
ATOM      6  O   UNL     1       7.265  -6.241   2.615  1.00  0.00    -0.550 OA
ENDBRANCH   3   4
ENDBRANCH   2   3
ENDBRANCH   1   2
BRANCH   1   7
ATOM      7  C   UNL     1       8.785  -4.392  -1.194  1.00  0.00     0.000 C 
BRANCH   7   8
ATOM      8  C   UNL     1       8.889  -3.183  -0.257  1.00  0.00     0.004 C 
BRANCH   8   9
ATOM      9  C   UNL     1       7.576  -2.962   0.504  1.00  0.00     0.027 C 
BRANCH   9  10
ATOM     10  C   UNL     1       7.831  -2.445   1.893  1.00  0.00    -0.035 C 
ATOM     11  C   UNL     1       6.842  -1.992   2.669  1.00  0.00     0.004 C 
ENDBRANCH   9  10
ENDBRANCH   8   9
ENDBRANCH   7   8
ENDBRANCH   1   7
TORSDOF 7
ENDMDL
MODEL 7
REMARK VINA RESULT:    -3.266      1.711      3.370
REMARK INTER + INTRA:          -5.340
REMARK INTER:                  -4.660
REMARK INTRA:                  -0.681
REMARK UNBOUND:                -0.738
REMARK SMILES C=CCCCCCCC(=O)[O-]
REMARK SMILES IDX 6 1 7 2 8 3 9 4 10 5 11 6 5 7 4 8 3 9 2 10 1 11
REMARK H PARENT
REMARK Flexibility Score: inf
ROOT
ATOM      1  C   UNL     1       0.706   8.347   5.014  1.00  0.00     0.000 C 
ENDROOT
BRANCH   1   2
ATOM      2  C   UNL     1       0.732   6.830   4.768  1.00  0.00     0.006 C 
BRANCH   2   3
ATOM      3  C   UNL     1      -0.635   6.277   4.343  1.00  0.00     0.053 C 
BRANCH   3   4
ATOM      4  C   UNL     1      -0.585   5.797   2.927  1.00  0.00     0.041 C 
ATOM      5  O   UNL     1      -1.206   6.418   2.025  1.00  0.00    -0.550 OA
ATOM      6  O   UNL     1       0.108   4.636   2.610  1.00  0.00    -0.550 OA
ENDBRANCH   3   4
ENDBRANCH   2   3
ENDBRANCH   1   2
BRANCH   1   7
ATOM      7  C   UNL     1       0.511   9.152   3.721  1.00  0.00     0.000 C 
BRANCH   7   8
ATOM      8  C   UNL     1      -0.704  10.081   3.832  1.00  0.00     0.004 C 
BRANCH   8   9
ATOM      9  C   UNL     1      -1.442   9.865   5.159  1.00  0.00     0.027 C 
BRANCH   9  10
ATOM     10  C   UNL     1      -2.912   9.643   4.935  1.00  0.00    -0.035 C 
ATOM     11  C   UNL     1      -3.453   8.421   4.970  1.00  0.00     0.004 C 
ENDBRANCH   9  10
ENDBRANCH   8   9
ENDBRANCH   7   8
ENDBRANCH   1   7
TORSDOF 7
ENDMDL
MODEL 8
REMARK VINA RESULT:    -3.224     15.292     16.356
REMARK INTER + INTRA:          -5.281
REMARK INTER:                  -4.957
REMARK INTRA:                  -0.324
REMARK UNBOUND:                -0.738
REMARK SMILES C=CCCCCCCC(=O)[O-]
REMARK SMILES IDX 6 1 7 2 8 3 9 4 10 5 11 6 5 7 4 8 3 9 2 10 1 11
REMARK H PARENT
REMARK Flexibility Score: inf
ROOT
ATOM      1  C   UNL     1      10.231   3.178  -7.281  1.00  0.00     0.000 C 
ENDROOT
BRANCH   1   2
ATOM      2  C   UNL     1      11.485   4.009  -6.967  1.00  0.00     0.006 C 
BRANCH   2   3
ATOM      3  C   UNL     1      11.842   3.999  -5.475  1.00  0.00     0.053 C 
BRANCH   3   4
ATOM      4  C   UNL     1      11.579   5.341  -4.867  1.00  0.00     0.041 C 
ATOM      5  O   UNL     1      11.469   6.358  -5.601  1.00  0.00    -0.550 OA
ATOM      6  O   UNL     1      11.504   5.476  -3.487  1.00  0.00    -0.550 OA
ENDBRANCH   3   4
ENDBRANCH   2   3
ENDBRANCH   1   2
BRANCH   1   7
ATOM      7  C   UNL     1      10.389   1.701  -6.891  1.00  0.00     0.000 C 
BRANCH   7   8
ATOM      8  C   UNL     1       9.078   1.140  -6.325  1.00  0.00     0.004 C 
BRANCH   8   9
ATOM      9  C   UNL     1       8.922  -0.346  -6.668  1.00  0.00     0.027 C 
BRANCH   9  10
ATOM     10  C   UNL     1       7.668  -0.594  -7.460  1.00  0.00    -0.035 C 
ATOM     11  C   UNL     1       6.809   0.390  -7.745  1.00  0.00     0.004 C 
ENDBRANCH   9  10
ENDBRANCH   8   9
ENDBRANCH   7   8
ENDBRANCH   1   7
TORSDOF 7
ENDMDL
MODEL 9
REMARK VINA RESULT:    -3.159      2.789      3.827
REMARK INTER + INTRA:          -5.189
REMARK INTER:                  -4.463
REMARK INTRA:                  -0.726
REMARK UNBOUND:                -0.738
REMARK SMILES C=CCCCCCCC(=O)[O-]
REMARK SMILES IDX 6 1 7 2 8 3 9 4 10 5 11 6 5 7 4 8 3 9 2 10 1 11
REMARK H PARENT
REMARK Flexibility Score: inf
ROOT
ATOM      1  C   UNL     1      -0.773  10.122   4.037  1.00  0.00     0.000 C 
ENDROOT
BRANCH   1   2
ATOM      2  C   UNL     1      -1.614   9.862   5.297  1.00  0.00     0.006 C 
BRANCH   2   3
ATOM      3  C   UNL     1      -2.995   9.276   4.976  1.00  0.00     0.053 C 
BRANCH   3   4
ATOM      4  C   UNL     1      -3.261   8.073   5.826  1.00  0.00     0.041 C 
ATOM      5  O   UNL     1      -2.347   7.590   6.544  1.00  0.00    -0.550 OA
ATOM      6  O   UNL     1      -4.505   7.457   5.789  1.00  0.00    -0.550 OA
ENDBRANCH   3   4
ENDBRANCH   2   3
ENDBRANCH   1   2
BRANCH   1   7
ATOM      7  C   UNL     1      -0.246   8.827   3.402  1.00  0.00     0.000 C 
BRANCH   7   8
ATOM      8  C   UNL     1       0.545   7.999   4.421  1.00  0.00     0.004 C 
BRANCH   8   9
ATOM      9  C   UNL     1       0.136   6.521   4.366  1.00  0.00     0.027 C 
BRANCH   9  10
ATOM     10  C   UNL     1      -0.775   6.251   3.201  1.00  0.00    -0.035 C 
ATOM     11  C   UNL     1      -0.655   5.150   2.453  1.00  0.00     0.004 C 
ENDBRANCH   9  10
ENDBRANCH   8   9
ENDBRANCH   7   8
ENDBRANCH   1   7
TORSDOF 7
ENDMDL
