MODEL 1
REMARK VINA RESULT:    -4.529      0.000      0.000
REMARK INTER + INTRA:          -4.927
REMARK INTER:                  -4.927
REMARK INTRA:                   0.000
REMARK UNBOUND:                 0.000
REMARK SMILES Cc1cc(O)c2c(c1)C(=O)c1cc(O)cc(O)c1C2=O
REMARK SMILES IDX 1 1 2 2 8 3 7 4 6 5 4 6 3 7 19 8 20 9 18 10 11 11 9 12 10 13
REMARK SMILES IDX 12 14 13 15 15 16 16 17 5 18 17 20 14 22
REMARK H PARENT 5 19 17 21 14 23
REMARK Flexibility Score: inf
ROOT
ATOM      1  C   UNL     1      -5.248  -9.132   5.876  1.00  0.00     0.044 C 
ATOM      2  C   UNL     1      -4.603  -7.795   6.097  1.00  0.00    -0.047 A 
ATOM      3  C   UNL     1      -3.213  -7.666   6.037  1.00  0.00     0.016 A 
ATOM      4  C   UNL     1      -2.601  -6.410   6.196  1.00  0.00     0.038 A 
ATOM      5  C   UNL     1      -3.396  -5.258   6.391  1.00  0.00     0.076 A 
ATOM      6  C   UNL     1      -4.804  -5.406   6.512  1.00  0.00     0.127 A 
ATOM      7  C   UNL     1      -5.390  -6.662   6.324  1.00  0.00     0.050 A 
ATOM      8  C   UNL     1      -2.725  -3.927   6.398  1.00  0.00     0.201 C 
ATOM      9  O   UNL     1      -3.386  -2.883   6.153  1.00  0.00    -0.288 OA
ATOM     10  C   UNL     1      -1.252  -3.834   6.580  1.00  0.00     0.076 A 
ATOM     11  C   UNL     1      -0.469  -5.001   6.445  1.00  0.00     0.041 A 
ATOM     12  C   UNL     1      -1.122  -6.298   6.166  1.00  0.00     0.194 C 
ATOM     13  O   UNL     1      -0.417  -7.317   5.919  1.00  0.00    -0.289 OA
ATOM     14  C   UNL     1       0.929  -4.921   6.575  1.00  0.00     0.059 A 
ATOM     15  C   UNL     1       1.548  -3.698   6.844  1.00  0.00     0.120 A 
ATOM     16  C   UNL     1       0.777  -2.545   6.985  1.00  0.00     0.093 A 
ATOM     17  C   UNL     1      -0.617  -2.601   6.858  1.00  0.00     0.131 A 
ENDROOT
BRANCH   6  18
ATOM     18  O   UNL     1      -5.656  -4.352   6.849  1.00  0.00    -0.507 OA
ATOM     19  H   UNL     1      -6.598  -4.478   7.192  1.00  0.00     0.293 HD
ENDBRANCH   6  18
BRANCH  17  20
ATOM     20  O   UNL     1      -1.366  -1.435   7.017  1.00  0.00    -0.507 OA
ATOM     21  H   UNL     1      -1.075  -0.554   6.607  1.00  0.00     0.293 HD
ENDBRANCH  17  20
BRANCH  15  22
ATOM     22  O   UNL     1       2.934  -3.616   6.974  1.00  0.00    -0.508 OA
ATOM     23  H   UNL     1       3.523  -3.328   6.201  1.00  0.00     0.293 HD
ENDBRANCH  15  22
TORSDOF 3
ENDMDL
MODEL 2
REMARK VINA RESULT:    -2.709     14.878     17.379
REMARK INTER + INTRA:          -2.946
REMARK INTER:                  -2.946
REMARK INTRA:                   0.000
REMARK UNBOUND:                 0.000
REMARK SMILES Cc1cc(O)c2c(c1)C(=O)c1cc(O)cc(O)c1C2=O
REMARK SMILES IDX 1 1 2 2 8 3 7 4 6 5 4 6 3 7 19 8 20 9 18 10 11 11 9 12 10 13
REMARK SMILES IDX 12 14 13 15 15 16 16 17 5 18 17 20 14 22
REMARK H PARENT 5 19 17 21 14 23
REMARK Flexibility Score: inf
ROOT
ATOM      1  C   UNL     1       8.622 -12.267   5.934  1.00  0.00     0.044 C 
ATOM      2  C   UNL     1       9.219 -13.431   6.668  1.00  0.00    -0.047 A 
ATOM      3  C   UNL     1       9.405 -13.369   8.052  1.00  0.00     0.016 A 
ATOM      4  C   UNL     1       9.920 -14.471   8.758  1.00  0.00     0.038 A 
ATOM      5  C   UNL     1      10.229 -15.667   8.069  1.00  0.00     0.076 A 
ATOM      6  C   UNL     1      10.094 -15.701   6.655  1.00  0.00     0.127 A 
ATOM      7  C   UNL     1       9.556 -14.601   5.981  1.00  0.00     0.050 A 
ATOM      8  C   UNL     1      10.622 -16.863   8.868  1.00  0.00     0.201 C 
ATOM      9  O   UNL     1      10.504 -18.018   8.379  1.00  0.00    -0.288 OA
ATOM     10  C   UNL     1      11.046 -16.708  10.285  1.00  0.00     0.076 A 
ATOM     11  C   UNL     1      10.792 -15.488  10.948  1.00  0.00     0.041 A 
ATOM     12  C   UNL     1      10.145 -14.375  10.220  1.00  0.00     0.194 C 
ATOM     13  O   UNL     1       9.801 -13.332  10.844  1.00  0.00    -0.289 OA
ATOM     14  C   UNL     1      11.151 -15.341  12.300  1.00  0.00     0.059 A 
ATOM     15  C   UNL     1      11.766 -16.390  12.989  1.00  0.00     0.120 A 
ATOM     16  C   UNL     1      12.027 -17.593  12.334  1.00  0.00     0.093 A 
ATOM     17  C   UNL     1      11.675 -17.762  10.988  1.00  0.00     0.131 A 
ENDROOT
BRANCH   6  18
ATOM     18  O   UNL     1      10.510 -16.783   5.876  1.00  0.00    -0.507 OA
ATOM     19  H   UNL     1       9.899 -17.534   5.586  1.00  0.00     0.293 HD
ENDBRANCH   6  18
BRANCH  17  20
ATOM     20  O   UNL     1      11.959 -18.971  10.353  1.00  0.00    -0.507 OA
ATOM     21  H   UNL     1      12.910 -19.254  10.148  1.00  0.00     0.293 HD
ENDBRANCH  17  20
BRANCH  15  22
ATOM     22  O   UNL     1      12.125 -16.247  14.328  1.00  0.00    -0.508 OA
ATOM     23  H   UNL     1      12.798 -15.550  14.625  1.00  0.00     0.293 HD
ENDBRANCH  15  22
TORSDOF 3
ENDMDL
MODEL 3
REMARK VINA RESULT:    -2.599     16.207     18.052
REMARK INTER + INTRA:          -2.827
REMARK INTER:                  -2.827
REMARK INTRA:                   0.000
REMARK UNBOUND:                 0.000
REMARK SMILES Cc1cc(O)c2c(c1)C(=O)c1cc(O)cc(O)c1C2=O
REMARK SMILES IDX 1 1 2 2 8 3 7 4 6 5 4 6 3 7 19 8 20 9 18 10 11 11 9 12 10 13
REMARK SMILES IDX 12 14 13 15 15 16 16 17 5 18 17 20 14 22
REMARK H PARENT 5 19 17 21 14 23
REMARK Flexibility Score: inf
ROOT
ATOM      1  C   UNL     1      10.210 -16.520   5.898  1.00  0.00     0.044 C 
ATOM      2  C   UNL     1      10.567 -16.620   7.352  1.00  0.00    -0.047 A 
ATOM      3  C   UNL     1      10.429 -15.509   8.189  1.00  0.00     0.016 A 
ATOM      4  C   UNL     1      10.716 -15.603   9.561  1.00  0.00     0.038 A 
ATOM      5  C   UNL     1      11.122 -16.840  10.114  1.00  0.00     0.076 A 
ATOM      6  C   UNL     1      11.319 -17.948   9.246  1.00  0.00     0.127 A 
ATOM      7  C   UNL     1      11.002 -17.835   7.889  1.00  0.00     0.050 A 
ATOM      8  C   UNL     1      11.266 -16.941  11.594  1.00  0.00     0.201 C 
ATOM      9  O   UNL     1      11.213 -18.066  12.159  1.00  0.00    -0.288 OA
ATOM     10  C   UNL     1      11.355 -15.710  12.422  1.00  0.00     0.076 A 
ATOM     11  C   UNL     1      11.008 -14.469  11.847  1.00  0.00     0.041 A 
ATOM     12  C   UNL     1      10.598 -14.404  10.427  1.00  0.00     0.194 C 
ATOM     13  O   UNL     1      10.165 -13.319   9.946  1.00  0.00    -0.289 OA
ATOM     14  C   UNL     1      11.049 -13.301  12.629  1.00  0.00     0.059 A 
ATOM     15  C   UNL     1      11.439 -13.359  13.970  1.00  0.00     0.120 A 
ATOM     16  C   UNL     1      11.792 -14.582  14.539  1.00  0.00     0.093 A 
ATOM     17  C   UNL     1      11.755 -15.758  13.778  1.00  0.00     0.131 A 
ENDROOT
BRANCH   6  18
ATOM     18  O   UNL     1      11.856 -19.164   9.674  1.00  0.00    -0.507 OA
ATOM     19  H   UNL     1      12.823 -19.429   9.542  1.00  0.00     0.293 HD
ENDBRANCH   6  18
BRANCH  17  20
ATOM     20  O   UNL     1      12.125 -16.967  14.369  1.00  0.00    -0.507 OA
ATOM     21  H   UNL     1      11.705 -17.846  14.090  1.00  0.00     0.293 HD
ENDBRANCH  17  20
BRANCH  15  22
ATOM     22  O   UNL     1      11.483 -12.203  14.748  1.00  0.00    -0.508 OA
ATOM     23  H   UNL     1      12.061 -11.412  14.490  1.00  0.00     0.293 HD
ENDBRANCH  15  22
TORSDOF 3
ENDMDL
MODEL 4
REMARK VINA RESULT:    -1.608     17.396     18.631
REMARK INTER + INTRA:          -1.749
REMARK INTER:                  -1.749
REMARK INTRA:                   0.000
REMARK UNBOUND:                 0.000
REMARK SMILES Cc1cc(O)c2c(c1)C(=O)c1cc(O)cc(O)c1C2=O
REMARK SMILES IDX 1 1 2 2 8 3 7 4 6 5 4 6 3 7 19 8 20 9 18 10 11 11 9 12 10 13
REMARK SMILES IDX 12 14 13 15 15 16 16 17 5 18 17 20 14 22
REMARK H PARENT 5 19 17 21 14 23
REMARK Flexibility Score: inf
ROOT
ATOM      1  C   UNL     1      -5.406  -7.840  18.793  1.00  0.00     0.044 C 
ATOM      2  C   UNL     1      -5.907  -8.479  20.054  1.00  0.00    -0.047 A 
ATOM      3  C   UNL     1      -5.512  -9.778  20.389  1.00  0.00     0.016 A 
ATOM      4  C   UNL     1      -5.938 -10.369  21.592  1.00  0.00     0.038 A 
ATOM      5  C   UNL     1      -6.750  -9.638  22.489  1.00  0.00     0.076 A 
ATOM      6  C   UNL     1      -7.196  -8.343  22.112  1.00  0.00     0.127 A 
ATOM      7  C   UNL     1      -6.738  -7.767  20.923  1.00  0.00     0.050 A 
ATOM      8  C   UNL     1      -7.051 -10.237  23.820  1.00  0.00     0.201 C 
ATOM      9  O   UNL     1      -7.395  -9.500  24.782  1.00  0.00    -0.288 OA
ATOM     10  C   UNL     1      -6.835 -11.689  24.053  1.00  0.00     0.076 A 
ATOM     11  C   UNL     1      -6.075 -12.428  23.120  1.00  0.00     0.041 A 
ATOM     12  C   UNL     1      -5.539 -11.761  21.913  1.00  0.00     0.194 C 
ATOM     13  O   UNL     1      -4.754 -12.386  21.146  1.00  0.00    -0.289 OA
ATOM     14  C   UNL     1      -5.829 -13.794  23.346  1.00  0.00     0.059 A 
ATOM     15  C   UNL     1      -6.339 -14.428  24.484  1.00  0.00     0.120 A 
ATOM     16  C   UNL     1      -7.097 -13.703  25.402  1.00  0.00     0.093 A 
ATOM     17  C   UNL     1      -7.352 -12.340  25.197  1.00  0.00     0.131 A 
ENDROOT
BRANCH   6  18
ATOM     18  O   UNL     1      -8.115  -7.605  22.863  1.00  0.00    -0.507 OA
ATOM     19  H   UNL     1      -8.351  -6.642  22.671  1.00  0.00     0.293 HD
ENDBRANCH   6  18
BRANCH  17  20
ATOM     20  O   UNL     1      -8.124 -11.642  26.125  1.00  0.00    -0.507 OA
ATOM     21  H   UNL     1      -8.770 -12.117  26.745  1.00  0.00     0.293 HD
ENDBRANCH  17  20
BRANCH  15  22
ATOM     22  O   UNL     1      -6.097 -15.782  24.710  1.00  0.00    -0.508 OA
ATOM     23  H   UNL     1      -6.573 -16.289  25.447  1.00  0.00     0.293 HD
ENDBRANCH  15  22
TORSDOF 3
ENDMDL
