MODEL 1
REMARK VINA RESULT:    -4.337      0.000      0.000
REMARK INTER + INTRA:          -6.900
REMARK INTER:                  -6.365
REMARK INTRA:                  -0.535
REMARK UNBOUND:                -0.535
REMARK SMILES C=C1C=C[C@H](C(C)C)CCC(C)=CCC1
REMARK SMILES IDX 3 1 4 2 5 3 9 4 10 5 11 6 12 7 13 8 6 10 7 11 8 12 2 13 1 14
REMARK SMILES IDX 15 15 14 16
REMARK H PARENT
REMARK Flexibility Score: 70.00
ROOT
ATOM      1  C   UNL     1     107.118 111.128 125.034  1.00  0.00    -0.001 C 
ATOM      2  C   UNL     1     106.792 111.217 126.332  1.00  0.00    -0.023 C 
ENDROOT
BRANCH   2   3
ATOM      3  C   UNL     1     106.373 110.061 127.216  1.00  0.00     0.014 C 
BRANCH   3   4
ATOM      4  C   UNL     1     107.502 109.726 128.220  1.00  0.00     0.012 C 
BRANCH   4   5
ATOM      5  C   UNL     1     107.870 108.231 128.250  1.00  0.00     0.031 C 
BRANCH   5   6
ATOM      6  C   UNL     1     109.217 107.952 127.606  1.00  0.00    -0.077 C 
ATOM      7  C   UNL     1     110.424 107.859 128.504  1.00  0.00     0.039 C 
ATOM      8  C   UNL     1     109.403 107.755 126.278  1.00  0.00    -0.028 CG0
ATOM      9  G   UNL     1     108.330 107.715 125.213  1.00  0.00     0.000 G0
ENDBRANCH   5   6
ENDBRANCH   4   5
ENDBRANCH   3   4
BRANCH   3  10
ATOM     10  C   UNL     1     105.005 110.377 127.893  1.00  0.00    -0.010 C 
ATOM     11  C   UNL     1     105.081 111.488 128.955  1.00  0.00     0.008 C 
ATOM     12  C   UNL     1     104.356 109.118 128.492  1.00  0.00     0.008 C 
ENDBRANCH   3  10
ENDBRANCH   2   3
BRANCH   1  13
ATOM     13  C   UNL     1     107.226 109.874 124.253  1.00  0.00    -0.055 C 
ATOM     14  C   UNL     1     106.199 109.543 123.465  1.00  0.00     0.012 C 
BRANCH  13  15
ATOM     15  C   UNL     1     108.448 108.969 124.275  1.00  0.00     0.039 C 
BRANCH  15  16
ATOM     16  C   UNL     1     108.333 107.723 125.187  1.00  0.00     0.032 CG0
ATOM     17  G   UNL     1     109.380 107.749 126.278  1.00  0.00     0.000 G0
ENDBRANCH  15  16
ENDBRANCH  13  15
ENDBRANCH   1  13
TORSDOF 1
ENDMDL
MODEL 2
REMARK VINA RESULT:    -4.250      4.830      7.096
REMARK INTER + INTRA:          -6.773
REMARK INTER:                  -6.224
REMARK INTRA:                  -0.549
REMARK UNBOUND:                -0.535
REMARK SMILES C=C1C=C[C@H](C(C)C)CCC(C)=CCC1
REMARK SMILES IDX 3 1 4 2 5 3 9 4 10 5 11 6 12 7 13 8 6 10 7 11 8 12 2 13 1 14
REMARK SMILES IDX 15 15 14 16
REMARK H PARENT
REMARK Flexibility Score: 70.00
ROOT
ATOM      1  C   UNL     1     108.638 104.599 127.121  1.00  0.00    -0.001 C 
ATOM      2  C   UNL     1     107.872 103.505 127.000  1.00  0.00    -0.023 C 
ENDROOT
BRANCH   2   3
ATOM      3  C   UNL     1     107.101 102.841 128.123  1.00  0.00     0.014 C 
BRANCH   3   4
ATOM      4  C   UNL     1     105.584 103.089 127.941  1.00  0.00     0.012 C 
BRANCH   4   5
ATOM      5  C   UNL     1     104.931 103.793 129.144  1.00  0.00     0.031 C 
BRANCH   5   6
ATOM      6  C   UNL     1     104.580 105.241 128.849  1.00  0.00    -0.077 C 
ATOM      7  C   UNL     1     103.219 105.534 128.272  1.00  0.00     0.039 C 
ATOM      8  C   UNL     1     105.401 106.292 129.094  1.00  0.00    -0.028 CG0
ATOM      9  G   UNL     1     106.764 106.238 129.746  1.00  0.00     0.000 G0
ENDBRANCH   5   6
ENDBRANCH   4   5
ENDBRANCH   3   4
BRANCH   3  10
ATOM     10  C   UNL     1     107.484 101.333 128.213  1.00  0.00    -0.010 C 
ATOM     11  C   UNL     1     107.482 100.611 126.854  1.00  0.00     0.008 C 
ATOM     12  C   UNL     1     106.598 100.574 129.215  1.00  0.00     0.008 C 
ENDBRANCH   3  10
ENDBRANCH   2   3
BRANCH   1  13
ATOM     13  C   UNL     1     108.792 105.417 128.347  1.00  0.00    -0.055 C 
ATOM     14  C   UNL     1     109.814 105.133 129.159  1.00  0.00     0.012 C 
BRANCH  13  15
ATOM     15  C   UNL     1     107.874 106.575 128.709  1.00  0.00     0.039 C 
BRANCH  15  16
ATOM     16  C   UNL     1     106.769 106.245 129.743  1.00  0.00     0.032 CG0
ATOM     17  G   UNL     1     105.397 106.305 129.110  1.00  0.00     0.000 G0
ENDBRANCH  15  16
ENDBRANCH  13  15
ENDBRANCH   1  13
TORSDOF 1
ENDMDL
MODEL 3
REMARK VINA RESULT:    -4.209      3.915      5.643
REMARK INTER + INTRA:          -6.713
REMARK INTER:                  -6.152
REMARK INTRA:                  -0.561
REMARK UNBOUND:                -0.535
REMARK SMILES C=C1C=C[C@H](C(C)C)CCC(C)=CCC1
REMARK SMILES IDX 3 1 4 2 5 3 9 4 10 5 11 6 12 7 13 8 6 10 7 11 8 12 2 13 1 14
REMARK SMILES IDX 15 15 14 16
REMARK H PARENT
REMARK Flexibility Score: 70.00
ROOT
ATOM      1  C   UNL     1     111.232 105.301 124.783  1.00  0.00    -0.001 C 
ATOM      2  C   UNL     1     111.406 105.716 126.047  1.00  0.00    -0.023 C 
ENDROOT
BRANCH   2   3
ATOM      3  C   UNL     1     110.300 106.110 127.004  1.00  0.00     0.014 C 
BRANCH   3   4
ATOM      4  C   UNL     1     109.832 104.873 127.808  1.00  0.00     0.012 C 
BRANCH   4   5
ATOM      5  C   UNL     1     108.310 104.646 127.751  1.00  0.00     0.031 C 
BRANCH   5   6
ATOM      6  C   UNL     1     107.948 103.235 127.321  1.00  0.00    -0.077 C 
ATOM      7  C   UNL     1     107.770 102.194 128.397  1.00  0.00     0.039 C 
ATOM      8  C   UNL     1     107.751 102.855 126.036  1.00  0.00    -0.028 CG0
ATOM      9  G   UNL     1     107.790 103.747 124.815  1.00  0.00     0.000 G0
ENDBRANCH   5   6
ENDBRANCH   4   5
ENDBRANCH   3   4
BRANCH   3  10
ATOM     10  C   UNL     1     110.767 107.299 127.898  1.00  0.00    -0.010 C 
ATOM     11  C   UNL     1     111.645 106.872 129.088  1.00  0.00     0.008 C 
ATOM     12  C   UNL     1     109.583 108.145 128.392  1.00  0.00     0.008 C 
ENDBRANCH   3  10
ENDBRANCH   2   3
BRANCH   1  13
ATOM     13  C   UNL     1     109.928 105.054 124.125  1.00  0.00    -0.055 C 
ATOM     14  C   UNL     1     109.376 106.062 123.444  1.00  0.00     0.012 C 
BRANCH  13  15
ATOM     15  C   UNL     1     109.208 103.715 124.155  1.00  0.00     0.039 C 
BRANCH  15  16
ATOM     16  C   UNL     1     107.800 103.734 124.800  1.00  0.00     0.032 CG0
ATOM     17  G   UNL     1     107.758 102.867 126.039  1.00  0.00     0.000 G0
ENDBRANCH  15  16
ENDBRANCH  13  15
ENDBRANCH   1  13
TORSDOF 1
ENDMDL
MODEL 4
REMARK VINA RESULT:    -4.183      2.974      5.507
REMARK INTER + INTRA:          -6.674
REMARK INTER:                  -6.109
REMARK INTRA:                  -0.565
REMARK UNBOUND:                -0.535
REMARK SMILES C=C1C=C[C@H](C(C)C)CCC(C)=CCC1
REMARK SMILES IDX 3 1 4 2 5 3 9 4 10 5 11 6 12 7 13 8 6 10 7 11 8 12 2 13 1 14
REMARK SMILES IDX 15 15 14 16
REMARK H PARENT
REMARK Flexibility Score: 70.00
ROOT
ATOM      1  C   UNL     1     108.279 108.676 127.293  1.00  0.00    -0.001 C 
ATOM      2  C   UNL     1     109.232 107.737 127.201  1.00  0.00    -0.023 C 
ENDROOT
BRANCH   2   3
ATOM      3  C   UNL     1     109.585 106.733 128.278  1.00  0.00     0.014 C 
BRANCH   3   4
ATOM      4  C   UNL     1     108.941 105.363 127.954  1.00  0.00     0.012 C 
BRANCH   4   5
ATOM      5  C   UNL     1     108.159 104.760 129.135  1.00  0.00     0.031 C 
BRANCH   5   6
ATOM      6  C   UNL     1     106.676 104.619 128.837  1.00  0.00    -0.077 C 
ATOM      7  C   UNL     1     106.183 103.292 128.320  1.00  0.00     0.039 C 
ATOM      8  C   UNL     1     105.761 105.600 129.030  1.00  0.00    -0.028 CG0
ATOM      9  G   UNL     1     106.017 106.970 129.619  1.00  0.00     0.000 G0
ENDBRANCH   5   6
ENDBRANCH   4   5
ENDBRANCH   3   4
BRANCH   3  10
ATOM     10  C   UNL     1     111.132 106.670 128.464  1.00  0.00    -0.010 C 
ATOM     11  C   UNL     1     111.630 105.347 129.069  1.00  0.00     0.008 C 
ATOM     12  C   UNL     1     111.660 107.859 129.284  1.00  0.00     0.008 C 
ENDBRANCH   3  10
ENDBRANCH   2   3
BRANCH   1  13
ATOM     13  C   UNL     1     107.330 108.839 128.420  1.00  0.00    -0.055 C 
ATOM     14  C   UNL     1     107.634 109.734 129.363  1.00  0.00     0.012 C 
BRANCH  13  15
ATOM     15  C   UNL     1     106.022 108.070 128.538  1.00  0.00     0.039 C 
BRANCH  15  16
ATOM     16  C   UNL     1     105.998 106.969 129.626  1.00  0.00     0.032 CG0
ATOM     17  G   UNL     1     105.760 105.606 129.016  1.00  0.00     0.000 G0
ENDBRANCH  15  16
ENDBRANCH  13  15
ENDBRANCH   1  13
TORSDOF 1
ENDMDL
MODEL 5
REMARK VINA RESULT:    -4.116      4.680      6.575
REMARK INTER + INTRA:          -6.576
REMARK INTER:                  -6.026
REMARK INTRA:                  -0.551
REMARK UNBOUND:                -0.535
REMARK SMILES C=C1C=C[C@H](C(C)C)CCC(C)=CCC1
REMARK SMILES IDX 3 1 4 2 5 3 9 4 10 5 11 6 12 7 13 8 6 10 7 11 8 12 2 13 1 14
REMARK SMILES IDX 15 15 14 16
REMARK H PARENT
REMARK Flexibility Score: 70.00
ROOT
ATOM      1  C   UNL     1     104.670 103.437 128.909  1.00  0.00    -0.001 C 
ATOM      2  C   UNL     1     105.823 102.752 128.957  1.00  0.00    -0.023 C 
ENDROOT
BRANCH   2   3
ATOM      3  C   UNL     1     106.977 102.904 127.988  1.00  0.00     0.014 C 
BRANCH   3   4
ATOM      4  C   UNL     1     107.911 104.048 128.455  1.00  0.00     0.012 C 
BRANCH   4   5
ATOM      5  C   UNL     1     108.144 105.124 127.379  1.00  0.00     0.031 C 
BRANCH   5   6
ATOM      6  C   UNL     1     107.954 106.532 127.916  1.00  0.00    -0.077 C 
ATOM      7  C   UNL     1     109.153 107.229 128.507  1.00  0.00     0.039 C 
ATOM      8  C   UNL     1     106.784 107.214 127.876  1.00  0.00    -0.028 CG0
ATOM      9  G   UNL     1     105.488 106.746 127.253  1.00  0.00     0.000 G0
ENDBRANCH   5   6
ENDBRANCH   4   5
ENDBRANCH   3   4
BRANCH   3  10
ATOM     10  C   UNL     1     107.703 101.537 127.805  1.00  0.00    -0.010 C 
ATOM     11  C   UNL     1     107.348 100.818 126.492  1.00  0.00     0.008 C 
ATOM     12  C   UNL     1     107.471 100.599 129.001  1.00  0.00     0.008 C 
ENDBRANCH   3  10
ENDBRANCH   2   3
BRANCH   1  13
ATOM     13  C   UNL     1     104.353 104.534 127.966  1.00  0.00    -0.055 C 
ATOM     14  C   UNL     1     103.795 104.207 126.797  1.00  0.00     0.012 C 
BRANCH  13  15
ATOM     15  C   UNL     1     104.597 106.004 128.270  1.00  0.00     0.039 C 
BRANCH  15  16
ATOM     16  C   UNL     1     105.480 106.755 127.243  1.00  0.00     0.032 CG0
ATOM     17  G   UNL     1     106.774 107.219 127.873  1.00  0.00     0.000 G0
ENDBRANCH  15  16
ENDBRANCH  13  15
ENDBRANCH   1  13
TORSDOF 1
ENDMDL
MODEL 6
REMARK VINA RESULT:    -4.113      4.294      6.458
REMARK INTER + INTRA:          -6.572
REMARK INTER:                  -5.950
REMARK INTRA:                  -0.622
REMARK UNBOUND:                -0.535
REMARK SMILES C=C1C=C[C@H](C(C)C)CCC(C)=CCC1
REMARK SMILES IDX 3 1 4 2 5 3 9 4 10 5 11 6 12 7 13 8 6 10 7 11 8 12 2 13 1 14
REMARK SMILES IDX 15 15 14 16
REMARK H PARENT
REMARK Flexibility Score: 70.00
ROOT
ATOM      1  C   UNL     1     103.837 104.441 127.654  1.00  0.00    -0.001 C 
ATOM      2  C   UNL     1     102.534 104.630 127.396  1.00  0.00    -0.023 C 
ENDROOT
BRANCH   2   3
ATOM      3  C   UNL     1     101.857 105.975 127.228  1.00  0.00     0.014 C 
BRANCH   3   4
ATOM      4  C   UNL     1     101.259 106.091 125.805  1.00  0.00     0.012 C 
BRANCH   4   5
ATOM      5  C   UNL     1     101.809 107.287 125.006  1.00  0.00     0.031 C 
BRANCH   5   6
ATOM      6  C   UNL     1     102.953 106.895 124.087  1.00  0.00    -0.077 C 
ATOM      7  C   UNL     1     102.624 106.549 122.657  1.00  0.00     0.039 C 
ATOM      8  C   UNL     1     104.255 106.859 124.461  1.00  0.00    -0.028 CG0
ATOM      9  G   UNL     1     104.818 107.250 125.810  1.00  0.00     0.000 G0
ENDBRANCH   5   6
ENDBRANCH   4   5
ENDBRANCH   3   4
BRANCH   3  10
ATOM     10  C   UNL     1     100.814 106.193 128.366  1.00  0.00    -0.010 C 
ATOM     11  C   UNL     1     101.275 107.189 129.445  1.00  0.00     0.008 C 
ATOM     12  C   UNL     1     100.389 104.867 129.017  1.00  0.00     0.008 C 
ENDBRANCH   3  10
ENDBRANCH   2   3
BRANCH   1  13
ATOM     13  C   UNL     1     104.870 105.501 127.721  1.00  0.00    -0.055 C 
ATOM     14  C   UNL     1     105.229 105.942 128.929  1.00  0.00     0.012 C 
BRANCH  13  15
ATOM     15  C   UNL     1     105.560 106.084 126.497  1.00  0.00     0.039 C 
BRANCH  15  16
ATOM     16  C   UNL     1     104.816 107.259 125.814  1.00  0.00     0.032 CG0
ATOM     17  G   UNL     1     104.271 106.846 124.465  1.00  0.00     0.000 G0
ENDBRANCH  15  16
ENDBRANCH  13  15
ENDBRANCH   1  13
TORSDOF 1
ENDMDL
MODEL 7
REMARK VINA RESULT:    -4.089      4.109      5.925
REMARK INTER + INTRA:          -6.537
REMARK INTER:                  -5.900
REMARK INTRA:                  -0.637
REMARK UNBOUND:                -0.535
REMARK SMILES C=C1C=C[C@H](C(C)C)CCC(C)=CCC1
REMARK SMILES IDX 3 1 4 2 5 3 9 4 10 5 11 6 12 7 13 8 6 10 7 11 8 12 2 13 1 14
REMARK SMILES IDX 15 15 14 16
REMARK H PARENT
REMARK Flexibility Score: 70.00
ROOT
ATOM      1  C   UNL     1     104.406 104.282 126.669  1.00  0.00    -0.001 C 
ATOM      2  C   UNL     1     103.353 105.109 126.600  1.00  0.00    -0.023 C 
ENDROOT
BRANCH   2   3
ATOM      3  C   UNL     1     102.751 105.867 127.766  1.00  0.00     0.014 C 
BRANCH   3   4
ATOM      4  C   UNL     1     103.183 107.352 127.710  1.00  0.00     0.012 C 
BRANCH   4   5
ATOM      5  C   UNL     1     103.852 107.843 129.006  1.00  0.00     0.031 C 
BRANCH   5   6
ATOM      6  C   UNL     1     105.319 108.186 128.809  1.00  0.00    -0.077 C 
ATOM      7  C   UNL     1     105.669 109.606 128.443  1.00  0.00     0.039 C 
ATOM      8  C   UNL     1     106.337 107.305 128.965  1.00  0.00    -0.028 CG0
ATOM      9  G   UNL     1     106.224 105.865 129.412  1.00  0.00     0.000 G0
ENDBRANCH   5   6
ENDBRANCH   4   5
ENDBRANCH   3   4
BRANCH   3  10
ATOM     10  C   UNL     1     101.206 105.664 127.793  1.00  0.00    -0.010 C 
ATOM     11  C   UNL     1     100.675 105.127 129.134  1.00  0.00     0.008 C 
ATOM     12  C   UNL     1     100.723 104.771 126.638  1.00  0.00     0.008 C 
ENDBRANCH   3  10
ENDBRANCH   2   3
BRANCH   1  13
ATOM     13  C   UNL     1     105.237 104.036 127.871  1.00  0.00    -0.055 C 
ATOM     14  C   UNL     1     104.915 102.996 128.645  1.00  0.00     0.012 C 
BRANCH  13  15
ATOM     15  C   UNL     1     106.447 104.877 128.246  1.00  0.00     0.039 C 
BRANCH  15  16
ATOM     16  C   UNL     1     106.233 105.854 129.429  1.00  0.00     0.032 CG0
ATOM     17  G   UNL     1     106.338 107.292 128.971  1.00  0.00     0.000 G0
ENDBRANCH  15  16
ENDBRANCH  13  15
ENDBRANCH   1  13
TORSDOF 1
ENDMDL
MODEL 8
REMARK VINA RESULT:    -4.089      2.175      3.483
REMARK INTER + INTRA:          -6.536
REMARK INTER:                  -5.953
REMARK INTRA:                  -0.583
REMARK UNBOUND:                -0.535
REMARK SMILES C=C1C=C[C@H](C(C)C)CCC(C)=CCC1
REMARK SMILES IDX 3 1 4 2 5 3 9 4 10 5 11 6 12 7 13 8 6 10 7 11 8 12 2 13 1 14
REMARK SMILES IDX 15 15 14 16
REMARK H PARENT
REMARK Flexibility Score: 70.00
ROOT
ATOM      1  C   UNL     1     104.560 107.993 127.081  1.00  0.00    -0.001 C 
ATOM      2  C   UNL     1     105.325 109.074 126.871  1.00  0.00    -0.023 C 
ENDROOT
BRANCH   2   3
ATOM      3  C   UNL     1     106.079 109.839 127.939  1.00  0.00     0.014 C 
BRANCH   3   4
ATOM      4  C   UNL     1     107.598 109.574 127.806  1.00  0.00     0.012 C 
BRANCH   4   5
ATOM      5  C   UNL     1     107.929 108.289 127.026  1.00  0.00     0.031 C 
BRANCH   5   6
ATOM      6  C   UNL     1     108.470 107.188 127.923  1.00  0.00    -0.077 C 
ATOM      7  C   UNL     1     109.843 107.373 128.516  1.00  0.00     0.039 C 
ATOM      8  C   UNL     1     107.789 106.062 128.245  1.00  0.00    -0.028 CG0
ATOM      9  G   UNL     1     106.375 105.715 127.838  1.00  0.00     0.000 G0
ENDBRANCH   5   6
ENDBRANCH   4   5
ENDBRANCH   3   4
BRANCH   3  10
ATOM     10  C   UNL     1     105.698 111.349 127.883  1.00  0.00    -0.010 C 
ATOM     11  C   UNL     1     104.956 111.849 129.135  1.00  0.00     0.008 C 
ATOM     12  C   UNL     1     104.892 111.692 126.619  1.00  0.00     0.008 C 
ENDBRANCH   3  10
ENDBRANCH   2   3
BRANCH   1  13
ATOM     13  C   UNL     1     104.392 107.288 128.373  1.00  0.00    -0.055 C 
ATOM     14  C   UNL     1     103.333 107.609 129.122  1.00  0.00     0.012 C 
BRANCH  13  15
ATOM     15  C   UNL     1     105.334 106.203 128.871  1.00  0.00     0.039 C 
BRANCH  15  16
ATOM     16  C   UNL     1     106.364 105.694 127.832  1.00  0.00     0.032 CG0
ATOM     17  G   UNL     1     107.774 106.061 128.239  1.00  0.00     0.000 G0
ENDBRANCH  15  16
ENDBRANCH  13  15
ENDBRANCH   1  13
TORSDOF 1
ENDMDL
MODEL 9
REMARK VINA RESULT:    -4.073      5.953      7.660
REMARK INTER + INTRA:          -6.513
REMARK INTER:                  -6.073
REMARK INTRA:                  -0.441
REMARK UNBOUND:                -0.535
REMARK SMILES C=C1C=C[C@H](C(C)C)CCC(C)=CCC1
REMARK SMILES IDX 3 1 4 2 5 3 9 4 10 5 11 6 12 7 13 8 6 10 7 11 8 12 2 13 1 14
REMARK SMILES IDX 15 15 14 16
REMARK H PARENT
REMARK Flexibility Score: 70.00
ROOT
ATOM      1  C   UNL     1     105.513 101.785 124.335  1.00  0.00    -0.001 C 
ATOM      2  C   UNL     1     106.023 101.507 125.544  1.00  0.00    -0.023 C 
ENDROOT
BRANCH   2   3
ATOM      3  C   UNL     1     106.297 102.519 126.638  1.00  0.00     0.014 C 
BRANCH   3   4
ATOM      4  C   UNL     1     105.003 102.788 127.444  1.00  0.00     0.012 C 
BRANCH   4   5
ATOM      5  C   UNL     1     104.681 104.286 127.601  1.00  0.00     0.031 C 
BRANCH   5   6
ATOM      6  C   UNL     1     103.221 104.598 127.322  1.00  0.00    -0.077 C 
ATOM      7  C   UNL     1     102.271 104.633 128.492  1.00  0.00     0.039 C 
ATOM      8  C   UNL     1     102.719 104.872 126.093  1.00  0.00    -0.028 CG0
ATOM      9  G   UNL     1     103.501 104.978 124.803  1.00  0.00     0.000 G0
ENDBRANCH   5   6
ENDBRANCH   4   5
ENDBRANCH   3   4
BRANCH   3  10
ATOM     10  C   UNL     1     107.495 102.045 127.515  1.00  0.00    -0.010 C 
ATOM     11  C   UNL     1     107.255 100.695 128.213  1.00  0.00     0.008 C 
ATOM     12  C   UNL     1     107.908 103.107 128.547  1.00  0.00     0.008 C 
ENDBRANCH   3  10
ENDBRANCH   2   3
BRANCH   1  13
ATOM     13  C   UNL     1     105.031 103.111 123.883  1.00  0.00    -0.055 C 
ATOM     14  C   UNL     1     105.891 103.893 123.224  1.00  0.00     0.012 C 
BRANCH  13  15
ATOM     15  C   UNL     1     103.610 103.609 124.098  1.00  0.00     0.039 C 
BRANCH  15  16
ATOM     16  C   UNL     1     103.490 104.984 124.801  1.00  0.00     0.032 CG0
ATOM     17  G   UNL     1     102.710 104.868 126.092  1.00  0.00     0.000 G0
ENDBRANCH  15  16
ENDBRANCH  13  15
ENDBRANCH   1  13
TORSDOF 1
ENDMDL
