MODEL 1
REMARK VINA RESULT:    12.674      0.000      0.000
REMARK INTER + INTRA:          19.222
REMARK INTER:                  17.119
REMARK INTRA:                   2.103
REMARK UNBOUND:                 2.103
REMARK SMILES COc1ccc(-c2cc(=O)c3c(OC)c(OC)c(OC)c(OC)c3o2)cc1
REMARK SMILES IDX 7 1 8 2 9 3 10 4 11 5 24 6 25 7 21 8 18 9 15 10 12 11 6 12
REMARK SMILES IDX 3 13 4 14 27 15 5 16 26 17 2 18 1 19 22 20 23 21 13 22 14 23
REMARK SMILES IDX 19 24 20 25 16 26 17 27
REMARK H PARENT
REMARK Flexibility Score: inf
ROOT
ATOM      1  C   UNL     1     -12.014 -12.571  20.050  1.00  0.00     0.138 A 
ATOM      2  C   UNL     1     -11.640 -12.276  21.369  1.00  0.00     0.100 A 
ATOM      3  C   UNL     1     -12.027 -13.132  22.399  1.00  0.00     0.197 A 
ATOM      4  O   UNL     1     -11.665 -12.866  23.576  1.00  0.00    -0.289 OA
ATOM      5  C   UNL     1     -12.794 -14.281  22.103  1.00  0.00     0.115 A 
ATOM      6  C   UNL     1     -13.093 -14.534  20.747  1.00  0.00     0.188 A 
ATOM      7  O   UNL     1     -12.704 -13.682  19.801  1.00  0.00    -0.452 OA
ATOM      8  C   UNL     1     -13.821 -15.674  20.387  1.00  0.00     0.209 A 
ATOM      9  C   UNL     1     -14.272 -16.574  21.361  1.00  0.00     0.211 A 
ATOM     10  C   UNL     1     -13.961 -16.349  22.727  1.00  0.00     0.208 A 
ATOM     11  C   UNL     1     -13.271 -15.168  23.097  1.00  0.00     0.179 A 
ENDROOT
BRANCH   1  12
ATOM     12  C   UNL     1     -11.650 -11.682  18.918  1.00  0.00     0.018 A 
ATOM     13  C   UNL     1     -11.014  -9.975  16.758  1.00  0.00     0.118 A 
ATOM     14  C   UNL     1     -10.062 -10.239  17.760  1.00  0.00     0.047 A 
ATOM     15  C   UNL     1     -12.280 -10.560  16.850  1.00  0.00     0.047 A 
ATOM     16  C   UNL     1     -10.380 -11.080  18.830  1.00  0.00     0.016 A 
ATOM     17  C   UNL     1     -12.598 -11.401  17.920  1.00  0.00     0.016 A 
BRANCH  13  18
ATOM     18  O   UNL     1     -10.742  -9.141  15.663  1.00  0.00    -0.497 OA
ATOM     19  C   UNL     1     -11.533  -9.084  14.479  1.00  0.00     0.278 C 
ENDBRANCH  13  18
ENDBRANCH   1  12
BRANCH   8  20
ATOM     20  O   UNL     1     -14.121 -15.929  19.046  1.00  0.00    -0.490 OA
ATOM     21  C   UNL     1     -15.085 -15.164  18.331  1.00  0.00     0.278 C 
ENDBRANCH   8  20
BRANCH  11  22
ATOM     22  O   UNL     1     -13.102 -14.856  24.448  1.00  0.00    -0.492 OA
ATOM     23  C   UNL     1     -14.021 -14.006  25.125  1.00  0.00     0.278 C 
ENDBRANCH  11  22
BRANCH   9  24
ATOM     24  O   UNL     1     -15.008 -17.682  20.896  1.00  0.00    -0.490 OA
ATOM     25  C   UNL     1     -15.125 -18.125  19.549  1.00  0.00     0.279 C 
ENDBRANCH   9  24
BRANCH  10  26
ATOM     26  O   UNL     1     -14.348 -17.308  23.677  1.00  0.00    -0.490 OA
ATOM     27  C   UNL     1     -14.736 -17.042  25.023  1.00  0.00     0.278 C 
ENDBRANCH  10  26
TORSDOF 6
ENDMDL
MODEL 2
REMARK VINA RESULT:    14.038     16.845     22.960
REMARK INTER + INTRA:          21.065
REMARK INTER:                  18.335
REMARK INTRA:                   2.730
REMARK UNBOUND:                 2.103
REMARK SMILES COc1ccc(-c2cc(=O)c3c(OC)c(OC)c(OC)c(OC)c3o2)cc1
REMARK SMILES IDX 7 1 8 2 9 3 10 4 11 5 24 6 25 7 21 8 18 9 15 10 12 11 6 12
REMARK SMILES IDX 3 13 4 14 27 15 5 16 26 17 2 18 1 19 22 20 23 21 13 22 14 23
REMARK SMILES IDX 19 24 20 25 16 26 17 27
REMARK H PARENT
REMARK Flexibility Score: inf
ROOT
ATOM      1  C   UNL     1       3.484  -4.383  12.059  1.00  0.00     0.138 A 
ATOM      2  C   UNL     1       3.981  -4.607  10.767  1.00  0.00     0.100 A 
ATOM      3  C   UNL     1       4.407  -3.524   9.999  1.00  0.00     0.197 A 
ATOM      4  O   UNL     1       4.872  -3.744   8.849  1.00  0.00    -0.289 OA
ATOM      5  C   UNL     1       4.327  -2.217  10.528  1.00  0.00     0.115 A 
ATOM      6  C   UNL     1       3.857  -2.077  11.851  1.00  0.00     0.188 A 
ATOM      7  O   UNL     1       3.458  -3.143  12.541  1.00  0.00    -0.452 OA
ATOM      8  C   UNL     1       3.786  -0.810  12.442  1.00  0.00     0.209 A 
ATOM      9  C   UNL     1       4.169   0.336  11.733  1.00  0.00     0.211 A 
ATOM     10  C   UNL     1       4.666   0.212  10.409  1.00  0.00     0.208 A 
ATOM     11  C   UNL     1       4.687  -1.063   9.792  1.00  0.00     0.179 A 
ENDROOT
BRANCH   1  12
ATOM     12  C   UNL     1       2.995  -5.496  12.912  1.00  0.00     0.018 A 
ATOM     13  C   UNL     1       2.024  -7.578  14.556  1.00  0.00     0.118 A 
ATOM     14  C   UNL     1       2.639  -7.872  13.325  1.00  0.00     0.047 A 
ATOM     15  C   UNL     1       1.891  -6.244  14.949  1.00  0.00     0.047 A 
ATOM     16  C   UNL     1       3.115  -6.841  12.511  1.00  0.00     0.016 A 
ATOM     17  C   UNL     1       2.367  -5.212  14.135  1.00  0.00     0.016 A 
BRANCH  13  18
ATOM     18  O   UNL     1       1.534  -8.577  15.410  1.00  0.00    -0.497 OA
ATOM     19  C   UNL     1       0.743  -9.683  14.984  1.00  0.00     0.278 C 
ENDBRANCH  13  18
ENDBRANCH   1  12
BRANCH   8  20
ATOM     20  O   UNL     1       3.321  -0.664  13.752  1.00  0.00    -0.490 OA
ATOM     21  C   UNL     1       4.099  -0.033  14.763  1.00  0.00     0.278 C 
ENDBRANCH   8  20
BRANCH  11  22
ATOM     22  O   UNL     1       5.020  -1.175   8.440  1.00  0.00    -0.492 OA
ATOM     23  C   UNL     1       4.461  -0.295   7.472  1.00  0.00     0.278 C 
ENDBRANCH  11  22
BRANCH   9  24
ATOM     24  O   UNL     1       4.047   1.563  12.413  1.00  0.00    -0.490 OA
ATOM     25  C   UNL     1       4.865   2.035  13.478  1.00  0.00     0.279 C 
ENDBRANCH   9  24
BRANCH  10  26
ATOM     26  O   UNL     1       5.125   1.363   9.747  1.00  0.00    -0.490 OA
ATOM     27  C   UNL     1       4.417   2.088   8.745  1.00  0.00     0.278 C 
ENDBRANCH  10  26
TORSDOF 6
ENDMDL
