MODEL 1
REMARK VINA RESULT:    -6.287      0.000      0.000
REMARK INTER + INTRA:          -7.239
REMARK INTER:                  -7.022
REMARK INTRA:                  -0.217
REMARK UNBOUND:                -0.217
REMARK SMILES CC(C)c1ccc(C(=O)[O-])cc1
REMARK SMILES IDX 7 1 6 2 11 3 5 4 12 5 4 6 8 7 9 8 10 9 2 10 1 11 3 12
REMARK H PARENT
REMARK Flexibility Score: inf
ROOT
ATOM      1  C   UNL     1      21.296  10.504  23.931  1.00  0.00    -0.003 A 
ATOM      2  C   UNL     1      21.893  11.479  24.747  1.00  0.00     0.010 A 
ATOM      3  C   UNL     1      20.126  10.831  23.226  1.00  0.00     0.010 A 
ATOM      4  C   UNL     1      21.332  12.755  24.857  1.00  0.00     0.004 A 
ATOM      5  C   UNL     1      19.564  12.106  23.336  1.00  0.00     0.004 A 
ATOM      6  C   UNL     1      20.159  13.082  24.151  1.00  0.00    -0.045 A 
ENDROOT
BRANCH   1   7
ATOM      7  C   UNL     1      21.887   9.153  23.812  1.00  0.00     0.071 C 
ATOM      8  O   UNL     1      23.138   9.002  23.772  1.00  0.00    -0.545 OA
ATOM      9  O   UNL     1      21.071   8.030  23.743  1.00  0.00    -0.545 OA
ENDBRANCH   1   7
BRANCH   6  10
ATOM     10  C   UNL     1      19.539  14.462  24.260  1.00  0.00     0.013 C 
ATOM     11  C   UNL     1      19.524  14.949  25.713  1.00  0.00     0.012 C 
ATOM     12  C   UNL     1      18.130  14.483  23.655  1.00  0.00     0.012 C 
ENDBRANCH   6  10
TORSDOF 2
ENDMDL
MODEL 2
REMARK VINA RESULT:    -6.287      0.107      1.683
REMARK INTER + INTRA:          -7.239
REMARK INTER:                  -7.022
REMARK INTRA:                  -0.217
REMARK UNBOUND:                -0.217
REMARK SMILES CC(C)c1ccc(C(=O)[O-])cc1
REMARK SMILES IDX 7 1 6 2 11 3 5 4 12 5 4 6 8 7 9 8 10 9 2 10 1 11 3 12
REMARK H PARENT
REMARK Flexibility Score: inf
ROOT
ATOM      1  C   UNL     1      21.188  10.520  23.871  1.00  0.00    -0.003 A 
ATOM      2  C   UNL     1      20.002  10.850  23.194  1.00  0.00     0.010 A 
ATOM      3  C   UNL     1      21.810  11.495  24.669  1.00  0.00     0.010 A 
ATOM      4  C   UNL     1      19.450  12.129  23.311  1.00  0.00     0.004 A 
ATOM      5  C   UNL     1      21.258  12.773  24.786  1.00  0.00     0.004 A 
ATOM      6  C   UNL     1      20.073  13.106  24.109  1.00  0.00    -0.045 A 
ENDROOT
BRANCH   1   7
ATOM      7  C   UNL     1      21.776   9.168  23.750  1.00  0.00     0.071 C 
ATOM      8  O   UNL     1      21.035   8.150  23.692  1.00  0.00    -0.545 OA
ATOM      9  O   UNL     1      23.154   9.000  23.698  1.00  0.00    -0.545 OA
ENDBRANCH   1   7
BRANCH   6  10
ATOM     10  C   UNL     1      19.485  14.497  24.247  1.00  0.00     0.013 C 
ATOM     11  C   UNL     1      19.478  14.954  25.710  1.00  0.00     0.012 C 
ATOM     12  C   UNL     1      18.077  14.564  23.641  1.00  0.00     0.012 C 
ENDBRANCH   6  10
TORSDOF 2
ENDMDL
MODEL 3
REMARK VINA RESULT:    -6.052      1.057      1.987
REMARK INTER + INTRA:          -6.977
REMARK INTER:                  -6.770
REMARK INTRA:                  -0.207
REMARK UNBOUND:                -0.217
REMARK SMILES CC(C)c1ccc(C(=O)[O-])cc1
REMARK SMILES IDX 7 1 6 2 11 3 5 4 12 5 4 6 8 7 9 8 10 9 2 10 1 11 3 12
REMARK H PARENT
REMARK Flexibility Score: inf
ROOT
ATOM      1  C   UNL     1      20.720  10.186  24.118  1.00  0.00    -0.003 A 
ATOM      2  C   UNL     1      20.528  11.143  23.107  1.00  0.00     0.010 A 
ATOM      3  C   UNL     1      20.157  10.413  25.385  1.00  0.00     0.010 A 
ATOM      4  C   UNL     1      19.791  12.304  23.358  1.00  0.00     0.004 A 
ATOM      5  C   UNL     1      19.420  11.574  25.636  1.00  0.00     0.004 A 
ATOM      6  C   UNL     1      19.227  12.532  24.627  1.00  0.00    -0.045 A 
ENDROOT
BRANCH   1   7
ATOM      7  C   UNL     1      21.499   8.957  23.857  1.00  0.00     0.071 C 
ATOM      8  O   UNL     1      20.924   7.838  23.773  1.00  0.00    -0.545 OA
ATOM      9  O   UNL     1      22.879   9.017  23.701  1.00  0.00    -0.545 OA
ENDBRANCH   1   7
BRANCH   6  10
ATOM     10  C   UNL     1      18.424  13.786  24.914  1.00  0.00     0.013 C 
ATOM     11  C   UNL     1      18.115  14.553  23.622  1.00  0.00     0.012 C 
ATOM     12  C   UNL     1      19.144  14.683  25.929  1.00  0.00     0.012 C 
ENDBRANCH   6  10
TORSDOF 2
ENDMDL
MODEL 4
REMARK VINA RESULT:    -5.869     12.885     13.385
REMARK INTER + INTRA:          -6.773
REMARK INTER:                  -6.565
REMARK INTRA:                  -0.208
REMARK UNBOUND:                -0.217
REMARK SMILES CC(C)c1ccc(C(=O)[O-])cc1
REMARK SMILES IDX 7 1 6 2 11 3 5 4 12 5 4 6 8 7 9 8 10 9 2 10 1 11 3 12
REMARK H PARENT
REMARK Flexibility Score: inf
ROOT
ATOM      1  C   UNL     1      20.893   5.170  12.848  1.00  0.00    -0.003 A 
ATOM      2  C   UNL     1      19.888   4.351  13.392  1.00  0.00     0.010 A 
ATOM      3  C   UNL     1      20.520   6.320  12.134  1.00  0.00     0.010 A 
ATOM      4  C   UNL     1      18.539   4.675  13.223  1.00  0.00     0.004 A 
ATOM      5  C   UNL     1      19.171   6.645  11.965  1.00  0.00     0.004 A 
ATOM      6  C   UNL     1      18.165   5.828  12.507  1.00  0.00    -0.045 A 
ENDROOT
BRANCH   1   7
ATOM      7  C   UNL     1      22.322   4.830  13.024  1.00  0.00     0.071 C 
ATOM      8  O   UNL     1      22.717   3.640  12.900  1.00  0.00    -0.545 OA
ATOM      9  O   UNL     1      23.249   5.818  13.331  1.00  0.00    -0.545 OA
ENDBRANCH   1   7
BRANCH   6  10
ATOM     10  C   UNL     1      16.706   6.193  12.317  1.00  0.00     0.013 C 
ATOM     11  C   UNL     1      16.143   5.573  11.032  1.00  0.00     0.012 C 
ATOM     12  C   UNL     1      16.511   7.715  12.326  1.00  0.00     0.012 C 
ENDBRANCH   6  10
TORSDOF 2
ENDMDL
MODEL 5
REMARK VINA RESULT:    -5.864     12.920     13.417
REMARK INTER + INTRA:          -6.766
REMARK INTER:                  -6.561
REMARK INTRA:                  -0.206
REMARK UNBOUND:                -0.217
REMARK SMILES CC(C)c1ccc(C(=O)[O-])cc1
REMARK SMILES IDX 7 1 6 2 11 3 5 4 12 5 4 6 8 7 9 8 10 9 2 10 1 11 3 12
REMARK H PARENT
REMARK Flexibility Score: inf
ROOT
ATOM      1  C   UNL     1      20.912   5.224  12.835  1.00  0.00    -0.003 A 
ATOM      2  C   UNL     1      20.500   6.351  12.105  1.00  0.00     0.010 A 
ATOM      3  C   UNL     1      19.937   4.370  13.377  1.00  0.00     0.010 A 
ATOM      4  C   UNL     1      19.140   6.621  11.922  1.00  0.00     0.004 A 
ATOM      5  C   UNL     1      18.577   4.640  13.194  1.00  0.00     0.004 A 
ATOM      6  C   UNL     1      18.163   5.766  12.465  1.00  0.00    -0.045 A 
ENDROOT
BRANCH   1   7
ATOM      7  C   UNL     1      22.350   4.935  13.031  1.00  0.00     0.071 C 
ATOM      8  O   UNL     1      22.787   3.758  12.923  1.00  0.00    -0.545 OA
ATOM      9  O   UNL     1      23.239   5.958  13.337  1.00  0.00    -0.545 OA
ENDBRANCH   1   7
BRANCH   6  10
ATOM     10  C   UNL     1      16.684   6.046  12.274  1.00  0.00     0.013 C 
ATOM     11  C   UNL     1      16.164   5.411  10.979  1.00  0.00     0.012 C 
ATOM     12  C   UNL     1      16.399   7.553  12.305  1.00  0.00     0.012 C 
ENDBRANCH   6  10
TORSDOF 2
ENDMDL
MODEL 6
REMARK VINA RESULT:    -5.835      3.091      5.274
REMARK INTER + INTRA:          -6.734
REMARK INTER:                  -6.515
REMARK INTRA:                  -0.220
REMARK UNBOUND:                -0.217
REMARK SMILES CC(C)c1ccc(C(=O)[O-])cc1
REMARK SMILES IDX 7 1 6 2 11 3 5 4 12 5 4 6 8 7 9 8 10 9 2 10 1 11 3 12
REMARK H PARENT
REMARK Flexibility Score: inf
ROOT
ATOM      1  C   UNL     1      19.685  13.034  24.196  1.00  0.00    -0.003 A 
ATOM      2  C   UNL     1      19.332  12.021  23.289  1.00  0.00     0.010 A 
ATOM      3  C   UNL     1      20.839  12.873  24.981  1.00  0.00     0.010 A 
ATOM      4  C   UNL     1      20.115  10.869  23.170  1.00  0.00     0.004 A 
ATOM      5  C   UNL     1      21.622  11.721  24.862  1.00  0.00     0.004 A 
ATOM      6  C   UNL     1      21.271  10.707  23.956  1.00  0.00    -0.045 A 
ENDROOT
BRANCH   1   7
ATOM      7  C   UNL     1      18.858  14.254  24.325  1.00  0.00     0.071 C 
ATOM      8  O   UNL     1      18.071  14.596  23.402  1.00  0.00    -0.545 OA
ATOM      9  O   UNL     1      18.937  15.042  25.467  1.00  0.00    -0.545 OA
ENDBRANCH   1   7
BRANCH   6  10
ATOM     10  C   UNL     1      22.132   9.464  23.837  1.00  0.00     0.013 C 
ATOM     11  C   UNL     1      21.270   8.196  23.798  1.00  0.00     0.012 C 
ATOM     12  C   UNL     1      23.163   9.395  24.971  1.00  0.00     0.012 C 
ENDBRANCH   6  10
TORSDOF 2
ENDMDL
MODEL 7
REMARK VINA RESULT:    -5.779      2.583      4.010
REMARK INTER + INTRA:          -6.672
REMARK INTER:                  -6.470
REMARK INTRA:                  -0.202
REMARK UNBOUND:                -0.217
REMARK SMILES CC(C)c1ccc(C(=O)[O-])cc1
REMARK SMILES IDX 7 1 6 2 11 3 5 4 12 5 4 6 8 7 9 8 10 9 2 10 1 11 3 12
REMARK H PARENT
REMARK Flexibility Score: inf
ROOT
ATOM      1  C   UNL     1      22.656   6.984  24.097  1.00  0.00    -0.003 A 
ATOM      2  C   UNL     1      23.359   8.198  24.018  1.00  0.00     0.010 A 
ATOM      3  C   UNL     1      21.253   7.013  24.156  1.00  0.00     0.010 A 
ATOM      4  C   UNL     1      22.674   9.416  23.998  1.00  0.00     0.004 A 
ATOM      5  C   UNL     1      20.567   8.231  24.136  1.00  0.00     0.004 A 
ATOM      6  C   UNL     1      21.268   9.445  24.057  1.00  0.00    -0.045 A 
ENDROOT
BRANCH   1   7
ATOM      7  C   UNL     1      23.378   5.693  24.119  1.00  0.00     0.071 C 
ATOM      8  O   UNL     1      23.961   5.302  25.165  1.00  0.00    -0.545 OA
ATOM      9  O   UNL     1      23.425   4.892  22.983  1.00  0.00    -0.545 OA
ENDBRANCH   1   7
BRANCH   6  10
ATOM     10  C   UNL     1      20.510  10.759  24.036  1.00  0.00     0.013 C 
ATOM     11  C   UNL     1      20.153  11.169  22.602  1.00  0.00     0.012 C 
ATOM     12  C   UNL     1      21.302  11.865  24.745  1.00  0.00     0.012 C 
ENDBRANCH   6  10
TORSDOF 2
ENDMDL
MODEL 8
REMARK VINA RESULT:    -5.776      2.993      4.528
REMARK INTER + INTRA:          -6.668
REMARK INTER:                  -6.457
REMARK INTRA:                  -0.211
REMARK UNBOUND:                -0.217
REMARK SMILES CC(C)c1ccc(C(=O)[O-])cc1
REMARK SMILES IDX 7 1 6 2 11 3 5 4 12 5 4 6 8 7 9 8 10 9 2 10 1 11 3 12
REMARK H PARENT
REMARK Flexibility Score: inf
ROOT
ATOM      1  C   UNL     1      23.229   6.977  24.615  1.00  0.00    -0.003 A 
ATOM      2  C   UNL     1      21.921   6.723  24.170  1.00  0.00     0.010 A 
ATOM      3  C   UNL     1      23.667   8.309  24.715  1.00  0.00     0.010 A 
ATOM      4  C   UNL     1      21.068   7.777  23.831  1.00  0.00     0.004 A 
ATOM      5  C   UNL     1      22.814   9.363  24.376  1.00  0.00     0.004 A 
ATOM      6  C   UNL     1      21.506   9.111  23.931  1.00  0.00    -0.045 A 
ENDROOT
BRANCH   1   7
ATOM      7  C   UNL     1      24.135   5.864  24.974  1.00  0.00     0.071 C 
ATOM      8  O   UNL     1      23.943   4.707  24.512  1.00  0.00    -0.545 OA
ATOM      9  O   UNL     1      25.211   6.078  25.827  1.00  0.00    -0.545 OA
ENDBRANCH   1   7
BRANCH   6  10
ATOM     10  C   UNL     1      20.591  10.265  23.568  1.00  0.00     0.013 C 
ATOM     11  C   UNL     1      21.389  11.448  23.006  1.00  0.00     0.012 C 
ATOM     12  C   UNL     1      19.740  10.695  24.770  1.00  0.00     0.012 C 
ENDBRANCH   6  10
TORSDOF 2
ENDMDL
MODEL 9
REMARK VINA RESULT:    -5.748      2.765      5.087
REMARK INTER + INTRA:          -6.637
REMARK INTER:                  -6.421
REMARK INTRA:                  -0.216
REMARK UNBOUND:                -0.217
REMARK SMILES CC(C)c1ccc(C(=O)[O-])cc1
REMARK SMILES IDX 7 1 6 2 11 3 5 4 12 5 4 6 8 7 9 8 10 9 2 10 1 11 3 12
REMARK H PARENT
REMARK Flexibility Score: inf
ROOT
ATOM      1  C   UNL     1      20.492  12.273  23.910  1.00  0.00    -0.003 A 
ATOM      2  C   UNL     1      21.547  12.058  24.813  1.00  0.00     0.010 A 
ATOM      3  C   UNL     1      20.137  11.245  23.021  1.00  0.00     0.010 A 
ATOM      4  C   UNL     1      22.234  10.840  24.825  1.00  0.00     0.004 A 
ATOM      5  C   UNL     1      20.824  10.028  23.033  1.00  0.00     0.004 A 
ATOM      6  C   UNL     1      21.879   9.810  23.934  1.00  0.00    -0.045 A 
ENDROOT
BRANCH   1   7
ATOM      7  C   UNL     1      19.763  13.561  23.894  1.00  0.00     0.071 C 
ATOM      8  O   UNL     1      20.362  14.639  24.150  1.00  0.00    -0.545 OA
ATOM      9  O   UNL     1      18.406  13.599  23.596  1.00  0.00    -0.545 OA
ENDBRANCH   1   7
BRANCH   6  10
ATOM     10  C   UNL     1      22.614   8.484  23.936  1.00  0.00     0.013 C 
ATOM     11  C   UNL     1      21.633   7.307  23.996  1.00  0.00     0.012 C 
ATOM     12  C   UNL     1      23.628   8.416  25.086  1.00  0.00     0.012 C 
ENDBRANCH   6  10
TORSDOF 2
ENDMDL
