MODEL 1
REMARK VINA RESULT:    -2.992      0.000      0.000
REMARK INTER + INTRA:          -3.798
REMARK INTER:                  -3.692
REMARK INTRA:                  -0.106
REMARK UNBOUND:                -0.106
REMARK SMILES CCCCCC=O
REMARK SMILES IDX 4 1 3 2 2 3 1 4 5 5 6 6 7 7
REMARK H PARENT
REMARK Flexibility Score: inf
ROOT
ATOM      1  C   UNL     1      30.636  10.139  62.313  1.00  0.00     0.008 C 
ENDROOT
BRANCH   1   2
ATOM      2  C   UNL     1      31.004   8.776  61.707  1.00  0.00     0.000 C 
BRANCH   2   3
ATOM      3  C   UNL     1      31.813   8.906  60.409  1.00  0.00    -0.003 C 
ATOM      4  C   UNL     1      33.289   9.157  60.703  1.00  0.00     0.004 C 
ENDBRANCH   2   3
ENDBRANCH   1   2
BRANCH   1   5
ATOM      5  C   UNL     1      30.740  10.152  63.844  1.00  0.00     0.072 C 
BRANCH   5   6
ATOM      6  C   UNL     1      29.392  10.352  64.469  1.00  0.00     0.224 C 
ATOM      7  O   UNL     1      28.488   9.559  64.259  1.00  0.00    -0.303 OA
ENDBRANCH   5   6
ENDBRANCH   1   5
TORSDOF 4
ENDMDL
MODEL 2
REMARK VINA RESULT:    -2.915      1.270      1.815
REMARK INTER + INTRA:          -3.702
REMARK INTER:                  -3.637
REMARK INTRA:                  -0.065
REMARK UNBOUND:                -0.106
REMARK SMILES CCCCCC=O
REMARK SMILES IDX 4 1 3 2 2 3 1 4 5 5 6 6 7 7
REMARK H PARENT
REMARK Flexibility Score: inf
ROOT
ATOM      1  C   UNL     1      30.395  10.057  63.875  1.00  0.00     0.008 C 
ENDROOT
BRANCH   1   2
ATOM      2  C   UNL     1      30.523   9.993  62.345  1.00  0.00     0.000 C 
BRANCH   2   3
ATOM      3  C   UNL     1      31.321   8.771  61.869  1.00  0.00    -0.003 C 
ATOM      4  C   UNL     1      31.740   8.921  60.409  1.00  0.00     0.004 C 
ENDBRANCH   2   3
ENDBRANCH   1   2
BRANCH   1   5
ATOM      5  C   UNL     1      28.940   9.948  64.351  1.00  0.00     0.072 C 
BRANCH   5   6
ATOM      6  C   UNL     1      28.449  11.264  64.873  1.00  0.00     0.224 C 
ATOM      7  O   UNL     1      29.200  12.225  64.934  1.00  0.00    -0.303 OA
ENDBRANCH   5   6
ENDBRANCH   1   5
TORSDOF 4
ENDMDL
MODEL 3
REMARK VINA RESULT:    -2.887      2.039      4.218
REMARK INTER + INTRA:          -3.667
REMARK INTER:                  -3.564
REMARK INTRA:                  -0.104
REMARK UNBOUND:                -0.106
REMARK SMILES CCCCCC=O
REMARK SMILES IDX 4 1 3 2 2 3 1 4 5 5 6 6 7 7
REMARK H PARENT
REMARK Flexibility Score: inf
ROOT
ATOM      1  C   UNL     1      30.348   9.562  62.561  1.00  0.00     0.008 C 
ENDROOT
BRANCH   1   2
ATOM      2  C   UNL     1      31.003   9.971  63.890  1.00  0.00     0.000 C 
BRANCH   2   3
ATOM      3  C   UNL     1      29.974  10.377  64.955  1.00  0.00    -0.003 C 
ATOM      4  C   UNL     1      28.558  10.008  64.520  1.00  0.00     0.004 C 
ENDBRANCH   2   3
ENDBRANCH   1   2
BRANCH   1   5
ATOM      5  C   UNL     1      31.292   8.748  61.665  1.00  0.00     0.072 C 
BRANCH   5   6
ATOM      6  C   UNL     1      31.917   9.619  60.618  1.00  0.00     0.224 C 
ATOM      7  O   UNL     1      31.524  10.762  60.447  1.00  0.00    -0.303 OA
ENDBRANCH   5   6
ENDBRANCH   1   5
TORSDOF 4
ENDMDL
MODEL 4
REMARK VINA RESULT:    -2.883      2.510      4.455
REMARK INTER + INTRA:          -3.663
REMARK INTER:                  -3.589
REMARK INTRA:                  -0.074
REMARK UNBOUND:                -0.106
REMARK SMILES CCCCCC=O
REMARK SMILES IDX 4 1 3 2 2 3 1 4 5 5 6 6 7 7
REMARK H PARENT
REMARK Flexibility Score: inf
ROOT
ATOM      1  C   UNL     1      31.257   8.647  61.724  1.00  0.00     0.008 C 
ENDROOT
BRANCH   1   2
ATOM      2  C   UNL     1      30.492   9.880  62.231  1.00  0.00     0.000 C 
BRANCH   2   3
ATOM      3  C   UNL     1      30.454   9.961  63.764  1.00  0.00    -0.003 C 
ATOM      4  C   UNL     1      29.024   9.859  64.285  1.00  0.00     0.004 C 
ENDBRANCH   2   3
ENDBRANCH   1   2
BRANCH   1   5
ATOM      5  C   UNL     1      32.083   8.943  60.463  1.00  0.00     0.072 C 
BRANCH   5   6
ATOM      6  C   UNL     1      33.450   9.438  60.825  1.00  0.00     0.224 C 
ATOM      7  O   UNL     1      33.800  10.568  60.524  1.00  0.00    -0.303 OA
ENDBRANCH   5   6
ENDBRANCH   1   5
TORSDOF 4
ENDMDL
MODEL 5
REMARK VINA RESULT:    -2.775      1.755      2.080
REMARK INTER + INTRA:          -3.529
REMARK INTER:                  -3.307
REMARK INTRA:                  -0.222
REMARK UNBOUND:                -0.106
REMARK SMILES CCCCCC=O
REMARK SMILES IDX 4 1 3 2 2 3 1 4 5 5 6 6 7 7
REMARK H PARENT
REMARK Flexibility Score: inf
ROOT
ATOM      1  C   UNL     1      31.446   8.715  61.921  1.00  0.00     0.008 C 
ENDROOT
BRANCH   1   2
ATOM      2  C   UNL     1      31.791   9.266  60.529  1.00  0.00     0.000 C 
BRANCH   2   3
ATOM      3  C   UNL     1      32.162  10.755  60.558  1.00  0.00    -0.003 C 
ATOM      4  C   UNL     1      33.622  10.951  60.956  1.00  0.00     0.004 C 
ENDBRANCH   2   3
ENDBRANCH   1   2
BRANCH   1   5
ATOM      5  C   UNL     1      30.398   9.567  62.650  1.00  0.00     0.072 C 
BRANCH   5   6
ATOM      6  C   UNL     1      30.930  10.061  63.961  1.00  0.00     0.224 C 
ATOM      7  O   UNL     1      32.133  10.158  64.145  1.00  0.00    -0.303 OA
ENDBRANCH   5   6
ENDBRANCH   1   5
TORSDOF 4
ENDMDL
MODEL 6
REMARK VINA RESULT:    -2.767     12.760     13.198
REMARK INTER + INTRA:          -3.519
REMARK INTER:                  -3.458
REMARK INTRA:                  -0.061
REMARK UNBOUND:                -0.106
REMARK SMILES CCCCCC=O
REMARK SMILES IDX 4 1 3 2 2 3 1 4 5 5 6 6 7 7
REMARK H PARENT
REMARK Flexibility Score: inf
ROOT
ATOM      1  C   UNL     1      25.383  22.081  59.174  1.00  0.00     0.008 C 
ENDROOT
BRANCH   1   2
ATOM      2  C   UNL     1      26.399  21.388  58.254  1.00  0.00     0.000 C 
BRANCH   2   3
ATOM      3  C   UNL     1      25.932  21.335  56.792  1.00  0.00    -0.003 C 
ATOM      4  C   UNL     1      26.278  19.994  56.152  1.00  0.00     0.004 C 
ENDBRANCH   2   3
ENDBRANCH   1   2
BRANCH   1   5
ATOM      5  C   UNL     1      25.737  21.935  60.661  1.00  0.00     0.072 C 
BRANCH   5   6
ATOM      6  C   UNL     1      24.677  21.164  61.388  1.00  0.00     0.224 C 
ATOM      7  O   UNL     1      24.464  19.993  61.114  1.00  0.00    -0.303 OA
ENDBRANCH   5   6
ENDBRANCH   1   5
TORSDOF 4
ENDMDL
MODEL 7
REMARK VINA RESULT:    -2.714      1.662      2.458
REMARK INTER + INTRA:          -3.455
REMARK INTER:                  -3.309
REMARK INTRA:                  -0.146
REMARK UNBOUND:                -0.106
REMARK SMILES CCCCCC=O
REMARK SMILES IDX 4 1 3 2 2 3 1 4 5 5 6 6 7 7
REMARK H PARENT
REMARK Flexibility Score: inf
ROOT
ATOM      1  C   UNL     1      31.863   9.483  60.508  1.00  0.00     0.008 C 
ENDROOT
BRANCH   1   2
ATOM      2  C   UNL     1      32.003  10.987  60.793  1.00  0.00     0.000 C 
BRANCH   2   3
ATOM      3  C   UNL     1      33.380  11.353  61.366  1.00  0.00    -0.003 C 
ATOM      4  C   UNL     1      34.503  10.751  60.526  1.00  0.00     0.004 C 
ENDBRANCH   2   3
ENDBRANCH   1   2
BRANCH   1   5
ATOM      5  C   UNL     1      31.359   8.696  61.725  1.00  0.00     0.072 C 
BRANCH   5   6
ATOM      6  C   UNL     1      30.417   9.526  62.545  1.00  0.00     0.224 C 
ATOM      7  O   UNL     1      30.560   9.613  63.754  1.00  0.00    -0.303 OA
ENDBRANCH   5   6
ENDBRANCH   1   5
TORSDOF 4
ENDMDL
MODEL 8
REMARK VINA RESULT:    -2.657     12.967     13.880
REMARK INTER + INTRA:          -3.384
REMARK INTER:                  -3.277
REMARK INTRA:                  -0.106
REMARK UNBOUND:                -0.106
REMARK SMILES CCCCCC=O
REMARK SMILES IDX 4 1 3 2 2 3 1 4 5 5 6 6 7 7
REMARK H PARENT
REMARK Flexibility Score: inf
ROOT
ATOM      1  C   UNL     1      25.484  21.980  57.121  1.00  0.00     0.008 C 
ENDROOT
BRANCH   1   2
ATOM      2  C   UNL     1      25.304  22.588  58.521  1.00  0.00     0.000 C 
BRANCH   2   3
ATOM      3  C   UNL     1      25.953  21.737  59.622  1.00  0.00    -0.003 C 
ATOM      4  C   UNL     1      24.904  21.204  60.595  1.00  0.00     0.004 C 
ENDBRANCH   2   3
ENDBRANCH   1   2
BRANCH   1   5
ATOM      5  C   UNL     1      26.516  20.844  57.099  1.00  0.00     0.072 C 
BRANCH   5   6
ATOM      6  C   UNL     1      26.260  19.914  55.951  1.00  0.00     0.224 C 
ATOM      7  O   UNL     1      26.453  18.715  56.071  1.00  0.00    -0.303 OA
ENDBRANCH   5   6
ENDBRANCH   1   5
TORSDOF 4
ENDMDL
MODEL 9
REMARK VINA RESULT:    -2.597      7.236      8.704
REMARK INTER + INTRA:          -3.310
REMARK INTER:                  -3.183
REMARK INTRA:                  -0.126
REMARK UNBOUND:                -0.106
REMARK SMILES CCCCCC=O
REMARK SMILES IDX 4 1 3 2 2 3 1 4 5 5 6 6 7 7
REMARK H PARENT
REMARK Flexibility Score: inf
ROOT
ATOM      1  C   UNL     1      25.193  15.640  65.168  1.00  0.00     0.008 C 
ENDROOT
BRANCH   1   2
ATOM      2  C   UNL     1      26.211  14.862  64.319  1.00  0.00     0.000 C 
BRANCH   2   3
ATOM      3  C   UNL     1      26.955  13.789  65.127  1.00  0.00    -0.003 C 
ATOM      4  C   UNL     1      26.531  13.811  66.593  1.00  0.00     0.004 C 
ENDBRANCH   2   3
ENDBRANCH   1   2
BRANCH   1   5
ATOM      5  C   UNL     1      23.979  16.107  64.352  1.00  0.00     0.072 C 
BRANCH   5   6
ATOM      6  C   UNL     1      24.304  16.153  62.890  1.00  0.00     0.224 C 
ATOM      7  O   UNL     1      24.266  17.209  62.279  1.00  0.00    -0.303 OA
ENDBRANCH   5   6
ENDBRANCH   1   5
TORSDOF 4
ENDMDL
