MODEL 1
REMARK VINA RESULT:    -8.019      0.000      0.000
REMARK INTER + INTRA:         -12.565
REMARK INTER:                 -10.832
REMARK INTRA:                  -1.733
REMARK UNBOUND:                -1.733
REMARK SMILES CC[C@@H](CC[C@@H](C)[C@@H]1CC[C@H]2[C@@H]3CC(=O)C4=CC(=O)CC[C@]4(C)[C@@H]3CC[C@@]21C)C(C)C
REMARK SMILES IDX 4 1 3 2 2 3 1 4 29 5 30 6 31 7 5 8 6 9 7 10 8 11 9 12 27 13
REMARK SMILES IDX 10 14 11 15 26 16 28 17 12 18 25 19 24 20 13 21 22 22 14 23
REMARK SMILES IDX 16 24 21 25 23 26 15 27 17 28 20 29 18 30 19 31
REMARK H PARENT
REMARK Flexibility Score: inf
ROOT
ATOM      1  C   UNL     1      20.720 -30.333  21.469  1.00  0.00     0.004 C 
ENDROOT
BRANCH   1   2
ATOM      2  C   UNL     1      19.786 -29.085  21.390  1.00  0.00    -0.009 C 
BRANCH   2   3
ATOM      3  C   UNL     1      18.412 -29.410  20.729  1.00  0.00     0.000 C 
ATOM      4  C   UNL     1      17.214 -29.273  21.674  1.00  0.00     0.004 C 
ENDBRANCH   2   3
BRANCH   2   5
ATOM      5  C   UNL     1      20.474 -27.846  20.712  1.00  0.00    -0.014 C 
ATOM      6  C   UNL     1      22.011 -27.904  20.824  1.00  0.00     0.007 C 
ATOM      7  C   UNL     1      19.985 -26.514  21.311  1.00  0.00     0.007 C 
ENDBRANCH   2   5
ENDBRANCH   1   2
BRANCH   1   8
ATOM      8  C   UNL     1      20.888 -30.907  22.893  1.00  0.00     0.004 C 
BRANCH   8   9
ATOM      9  C   UNL     1      21.726 -32.219  22.957  1.00  0.00    -0.011 C 
ATOM     10  C   UNL     1      22.629 -32.167  24.209  1.00  0.00     0.008 C 
BRANCH   9  11
ATOM     11  C   UNL     1      20.843 -33.521  22.858  1.00  0.00    -0.002 C 
ATOM     12  C   UNL     1      20.739 -34.084  21.412  1.00  0.00     0.005 C 
ATOM     13  C   UNL     1      19.358 -33.486  23.371  1.00  0.00    -0.026 C 
ATOM     14  C   UNL     1      19.261 -34.063  21.007  1.00  0.00     0.005 C 
ATOM     15  C   UNL     1      18.574 -33.224  22.079  1.00  0.00    -0.001 C 
ATOM     16  C   UNL     1      18.959 -32.416  24.446  1.00  0.00     0.007 C 
ATOM     17  C   UNL     1      19.046 -34.908  23.954  1.00  0.00     0.012 C 
ATOM     18  C   UNL     1      17.037 -33.384  22.234  1.00  0.00     0.004 C 
ATOM     19  C   UNL     1      17.593 -31.724  24.170  1.00  0.00     0.005 C 
ATOM     20  C   UNL     1      16.513 -32.675  23.553  1.00  0.00     0.003 C 
ATOM     21  C   UNL     1      16.369 -32.884  20.951  1.00  0.00     0.085 C 
ATOM     22  C   UNL     1      14.994 -32.109  23.548  1.00  0.00    -0.000 C 
ATOM     23  C   UNL     1      14.904 -32.946  21.095  1.00  0.00     0.159 C 
ATOM     24  C   UNL     1      14.312 -32.164  22.174  1.00  0.00     0.005 C 
ATOM     25  C   UNL     1      14.893 -30.626  24.058  1.00  0.00     0.020 C 
ATOM     26  C   UNL     1      14.150 -33.009  24.499  1.00  0.00     0.017 C 
ATOM     27  O   UNL     1      14.197 -33.565  20.253  1.00  0.00    -0.295 OA
ATOM     28  C   UNL     1      13.185 -31.478  21.919  1.00  0.00     0.055 C 
ATOM     29  C   UNL     1      13.458 -30.062  24.073  1.00  0.00     0.081 C 
ATOM     30  C   UNL     1      12.673 -30.464  22.854  1.00  0.00     0.156 C 
ATOM     31  O   UNL     1      11.574 -29.900  22.612  1.00  0.00    -0.295 OA
ENDBRANCH   9  11
ENDBRANCH   8   9
ENDBRANCH   1   8
TORSDOF 6
ENDMDL
MODEL 2
REMARK VINA RESULT:    -7.948      1.119      1.767
REMARK INTER + INTRA:         -12.469
REMARK INTER:                 -11.635
REMARK INTRA:                  -0.834
REMARK UNBOUND:                -1.733
REMARK SMILES CC[C@@H](CC[C@@H](C)[C@@H]1CC[C@H]2[C@@H]3CC(=O)C4=CC(=O)CC[C@]4(C)[C@@H]3CC[C@@]21C)C(C)C
REMARK SMILES IDX 4 1 3 2 2 3 1 4 29 5 30 6 31 7 5 8 6 9 7 10 8 11 9 12 27 13
REMARK SMILES IDX 10 14 11 15 26 16 28 17 12 18 25 19 24 20 13 21 22 22 14 23
REMARK SMILES IDX 16 24 21 25 23 26 15 27 17 28 20 29 18 30 19 31
REMARK H PARENT
REMARK Flexibility Score: inf
ROOT
ATOM      1  C   UNL     1      21.304 -29.027  20.807  1.00  0.00     0.004 C 
ENDROOT
BRANCH   1   2
ATOM      2  C   UNL     1      21.389 -27.632  21.501  1.00  0.00    -0.009 C 
BRANCH   2   3
ATOM      3  C   UNL     1      20.397 -26.599  20.887  1.00  0.00     0.000 C 
ATOM      4  C   UNL     1      20.246 -25.313  21.705  1.00  0.00     0.004 C 
ENDBRANCH   2   3
BRANCH   2   5
ATOM      5  C   UNL     1      22.852 -27.064  21.559  1.00  0.00    -0.014 C 
ATOM      6  C   UNL     1      23.494 -26.972  20.159  1.00  0.00     0.007 C 
ATOM      7  C   UNL     1      23.766 -27.910  22.465  1.00  0.00     0.007 C 
ENDBRANCH   2   5
ENDBRANCH   1   2
BRANCH   1   8
ATOM      8  C   UNL     1      20.417 -30.051  21.550  1.00  0.00     0.004 C 
BRANCH   8   9
ATOM      9  C   UNL     1      21.208 -31.221  22.207  1.00  0.00    -0.011 C 
ATOM     10  C   UNL     1      21.689 -30.768  23.603  1.00  0.00     0.008 C 
BRANCH   9  11
ATOM     11  C   UNL     1      20.408 -32.579  22.216  1.00  0.00    -0.002 C 
ATOM     12  C   UNL     1      20.205 -33.181  20.797  1.00  0.00     0.005 C 
ATOM     13  C   UNL     1      18.978 -32.626  22.869  1.00  0.00    -0.026 C 
ATOM     14  C   UNL     1      18.696 -33.264  20.535  1.00  0.00     0.005 C 
ATOM     15  C   UNL     1      18.060 -32.446  21.654  1.00  0.00    -0.001 C 
ATOM     16  C   UNL     1      18.613 -31.559  23.958  1.00  0.00     0.007 C 
ATOM     17  C   UNL     1      18.817 -34.052  23.504  1.00  0.00     0.012 C 
ATOM     18  C   UNL     1      16.559 -32.700  21.957  1.00  0.00     0.004 C 
ATOM     19  C   UNL     1      17.185 -30.963  23.802  1.00  0.00     0.005 C 
ATOM     20  C   UNL     1      16.116 -31.995  23.308  1.00  0.00     0.003 C 
ATOM     21  C   UNL     1      15.741 -32.273  20.736  1.00  0.00     0.085 C 
ATOM     22  C   UNL     1      14.570 -31.527  23.439  1.00  0.00    -0.000 C 
ATOM     23  C   UNL     1      14.303 -32.426  21.021  1.00  0.00     0.159 C 
ATOM     24  C   UNL     1      13.766 -31.658  22.138  1.00  0.00     0.005 C 
ATOM     25  C   UNL     1      14.420 -30.043  23.930  1.00  0.00     0.020 C 
ATOM     26  C   UNL     1      13.881 -32.457  24.482  1.00  0.00     0.017 C 
ATOM     27  O   UNL     1      13.562 -33.109  20.262  1.00  0.00    -0.295 OA
ATOM     28  C   UNL     1      12.577 -31.052  21.980  1.00  0.00     0.055 C 
ATOM     29  C   UNL     1      12.958 -29.571  24.073  1.00  0.00     0.081 C 
ATOM     30  C   UNL     1      12.089 -30.051  22.942  1.00  0.00     0.156 C 
ATOM     31  O   UNL     1      10.938 -29.564  22.797  1.00  0.00    -0.295 OA
ENDBRANCH   9  11
ENDBRANCH   8   9
ENDBRANCH   1   8
TORSDOF 6
ENDMDL
MODEL 3
REMARK VINA RESULT:    -7.748      2.483      4.933
REMARK INTER + INTRA:         -12.199
REMARK INTER:                 -10.043
REMARK INTRA:                  -2.156
REMARK UNBOUND:                -1.733
REMARK SMILES CC[C@@H](CC[C@@H](C)[C@@H]1CC[C@H]2[C@@H]3CC(=O)C4=CC(=O)CC[C@]4(C)[C@@H]3CC[C@@]21C)C(C)C
REMARK SMILES IDX 4 1 3 2 2 3 1 4 29 5 30 6 31 7 5 8 6 9 7 10 8 11 9 12 27 13
REMARK SMILES IDX 10 14 11 15 26 16 28 17 12 18 25 19 24 20 13 21 22 22 14 23
REMARK SMILES IDX 16 24 21 25 23 26 15 27 17 28 20 29 18 30 19 31
REMARK H PARENT
REMARK Flexibility Score: inf
ROOT
ATOM      1  C   UNL     1      19.248 -35.907  23.958  1.00  0.00     0.004 C 
ENDROOT
BRANCH   1   2
ATOM      2  C   UNL     1      18.595 -35.240  25.209  1.00  0.00    -0.009 C 
BRANCH   2   3
ATOM      3  C   UNL     1      17.097 -35.635  25.382  1.00  0.00     0.000 C 
ATOM      4  C   UNL     1      16.877 -36.900  26.218  1.00  0.00     0.004 C 
ENDBRANCH   2   3
BRANCH   2   5
ATOM      5  C   UNL     1      18.788 -33.681  25.243  1.00  0.00    -0.014 C 
ATOM      6  C   UNL     1      17.470 -32.927  24.969  1.00  0.00     0.007 C 
ATOM      7  C   UNL     1      19.847 -33.207  24.230  1.00  0.00     0.007 C 
ENDBRANCH   2   5
ENDBRANCH   1   2
BRANCH   1   8
ATOM      8  C   UNL     1      18.232 -36.445  22.926  1.00  0.00     0.004 C 
BRANCH   8   9
ATOM      9  C   UNL     1      18.872 -36.902  21.582  1.00  0.00    -0.011 C 
ATOM     10  C   UNL     1      18.338 -38.310  21.235  1.00  0.00     0.008 C 
BRANCH   9  11
ATOM     11  C   UNL     1      18.695 -35.848  20.424  1.00  0.00    -0.002 C 
ATOM     12  C   UNL     1      19.927 -34.916  20.247  1.00  0.00     0.005 C 
ATOM     13  C   UNL     1      17.465 -34.868  20.455  1.00  0.00    -0.026 C 
ATOM     14  C   UNL     1      19.462 -33.476  20.492  1.00  0.00     0.005 C 
ATOM     15  C   UNL     1      18.068 -33.611  21.094  1.00  0.00    -0.001 C 
ATOM     16  C   UNL     1      16.185 -35.294  21.254  1.00  0.00     0.007 C 
ATOM     17  C   UNL     1      17.051 -34.613  18.964  1.00  0.00     0.012 C 
ATOM     18  C   UNL     1      17.140 -32.368  21.030  1.00  0.00     0.004 C 
ATOM     19  C   UNL     1      15.564 -34.149  22.105  1.00  0.00     0.005 C 
ATOM     20  C   UNL     1      15.650 -32.739  21.431  1.00  0.00     0.003 C 
ATOM     21  C   UNL     1      17.758 -31.260  21.888  1.00  0.00     0.085 C 
ATOM     22  C   UNL     1      14.744 -31.577  22.107  1.00  0.00    -0.000 C 
ATOM     23  C   UNL     1      16.861 -30.092  21.915  1.00  0.00     0.159 C 
ATOM     24  C   UNL     1      15.522 -30.299  22.452  1.00  0.00     0.005 C 
ATOM     25  C   UNL     1      14.023 -32.050  23.420  1.00  0.00     0.020 C 
ATOM     26  C   UNL     1      13.652 -31.167  21.073  1.00  0.00     0.017 C 
ATOM     27  O   UNL     1      17.279 -28.948  21.585  1.00  0.00    -0.295 OA
ATOM     28  C   UNL     1      15.012 -29.364  23.272  1.00  0.00     0.055 C 
ATOM     29  C   UNL     1      13.145 -30.968  24.081  1.00  0.00     0.081 C 
ATOM     30  C   UNL     1      13.796 -29.613  24.062  1.00  0.00     0.156 C 
ATOM     31  O   UNL     1      13.312 -28.683  24.758  1.00  0.00    -0.295 OA
ENDBRANCH   9  11
ENDBRANCH   8   9
ENDBRANCH   1   8
TORSDOF 6
ENDMDL
MODEL 4
REMARK VINA RESULT:    -7.723      3.499      7.446
REMARK INTER + INTRA:         -12.165
REMARK INTER:                 -10.334
REMARK INTRA:                  -1.831
REMARK UNBOUND:                -1.733
REMARK SMILES CC[C@@H](CC[C@@H](C)[C@@H]1CC[C@H]2[C@@H]3CC(=O)C4=CC(=O)CC[C@]4(C)[C@@H]3CC[C@@]21C)C(C)C
REMARK SMILES IDX 4 1 3 2 2 3 1 4 29 5 30 6 31 7 5 8 6 9 7 10 8 11 9 12 27 13
REMARK SMILES IDX 10 14 11 15 26 16 28 17 12 18 25 19 24 20 13 21 22 22 14 23
REMARK SMILES IDX 16 24 21 25 23 26 15 27 17 28 20 29 18 30 19 31
REMARK H PARENT
REMARK Flexibility Score: inf
ROOT
ATOM      1  C   UNL     1      15.740 -34.653  22.396  1.00  0.00     0.004 C 
ENDROOT
BRANCH   1   2
ATOM      2  C   UNL     1      15.677 -33.833  21.071  1.00  0.00    -0.009 C 
BRANCH   2   3
ATOM      3  C   UNL     1      14.280 -33.182  20.838  1.00  0.00     0.000 C 
ATOM      4  C   UNL     1      14.238 -31.675  21.111  1.00  0.00     0.004 C 
ENDBRANCH   2   3
BRANCH   2   5
ATOM      5  C   UNL     1      16.147 -34.655  19.818  1.00  0.00    -0.014 C 
ATOM      6  C   UNL     1      16.286 -36.160  20.130  1.00  0.00     0.007 C 
ATOM      7  C   UNL     1      17.487 -34.142  19.258  1.00  0.00     0.007 C 
ENDBRANCH   2   5
ENDBRANCH   1   2
BRANCH   1   8
ATOM      8  C   UNL     1      16.511 -33.953  23.537  1.00  0.00     0.004 C 
BRANCH   8   9
ATOM      9  C   UNL     1      17.312 -32.695  23.087  1.00  0.00    -0.011 C 
ATOM     10  C   UNL     1      17.250 -31.642  24.215  1.00  0.00     0.008 C 
BRANCH   9  11
ATOM     11  C   UNL     1      18.775 -33.034  22.608  1.00  0.00    -0.002 C 
ATOM     12  C   UNL     1      19.717 -33.465  23.768  1.00  0.00     0.005 C 
ATOM     13  C   UNL     1      19.597 -31.950  21.819  1.00  0.00    -0.026 C 
ATOM     14  C   UNL     1      20.871 -32.458  23.832  1.00  0.00     0.005 C 
ATOM     15  C   UNL     1      20.437 -31.308  22.930  1.00  0.00    -0.001 C 
ATOM     16  C   UNL     1      18.818 -30.832  21.045  1.00  0.00     0.007 C 
ATOM     17  C   UNL     1      20.497 -32.723  20.793  1.00  0.00     0.012 C 
ATOM     18  C   UNL     1      21.546 -30.354  22.408  1.00  0.00     0.004 C 
ATOM     19  C   UNL     1      19.428 -29.410  21.209  1.00  0.00     0.005 C 
ATOM     20  C   UNL     1      20.992 -29.393  21.272  1.00  0.00     0.003 C 
ATOM     21  C   UNL     1      22.152 -29.618  23.605  1.00  0.00     0.085 C 
ATOM     22  C   UNL     1      21.689 -27.938  21.115  1.00  0.00    -0.000 C 
ATOM     23  C   UNL     1      23.154 -28.644  23.136  1.00  0.00     0.159 C 
ATOM     24  C   UNL     1      22.687 -27.600  22.232  1.00  0.00     0.005 C 
ATOM     25  C   UNL     1      20.647 -26.765  21.052  1.00  0.00     0.020 C 
ATOM     26  C   UNL     1      22.498 -27.943  19.783  1.00  0.00     0.017 C 
ATOM     27  O   UNL     1      24.332 -28.661  23.586  1.00  0.00    -0.295 OA
ATOM     28  C   UNL     1      23.128 -26.345  22.426  1.00  0.00     0.055 C 
ATOM     29  C   UNL     1      21.281 -25.368  20.893  1.00  0.00     0.081 C 
ATOM     30  C   UNL     1      22.511 -25.198  21.741  1.00  0.00     0.156 C 
ATOM     31  O   UNL     1      23.004 -24.050  21.894  1.00  0.00    -0.295 OA
ENDBRANCH   9  11
ENDBRANCH   8   9
ENDBRANCH   1   8
TORSDOF 6
ENDMDL
MODEL 5
REMARK VINA RESULT:    -7.496      3.793      7.610
REMARK INTER + INTRA:         -11.858
REMARK INTER:                  -9.966
REMARK INTRA:                  -1.892
REMARK UNBOUND:                -1.733
REMARK SMILES CC[C@@H](CC[C@@H](C)[C@@H]1CC[C@H]2[C@@H]3CC(=O)C4=CC(=O)CC[C@]4(C)[C@@H]3CC[C@@]21C)C(C)C
REMARK SMILES IDX 4 1 3 2 2 3 1 4 29 5 30 6 31 7 5 8 6 9 7 10 8 11 9 12 27 13
REMARK SMILES IDX 10 14 11 15 26 16 28 17 12 18 25 19 24 20 13 21 22 22 14 23
REMARK SMILES IDX 16 24 21 25 23 26 15 27 17 28 20 29 18 30 19 31
REMARK H PARENT
REMARK Flexibility Score: inf
ROOT
ATOM      1  C   UNL     1      16.424 -35.016  21.664  1.00  0.00     0.004 C 
ENDROOT
BRANCH   1   2
ATOM      2  C   UNL     1      17.244 -36.310  21.366  1.00  0.00    -0.009 C 
BRANCH   2   3
ATOM      3  C   UNL     1      18.161 -36.721  22.558  1.00  0.00     0.000 C 
ATOM      4  C   UNL     1      19.463 -37.410  22.136  1.00  0.00     0.004 C 
ENDBRANCH   2   3
BRANCH   2   5
ATOM      5  C   UNL     1      18.048 -36.230  20.019  1.00  0.00    -0.014 C 
ATOM      6  C   UNL     1      17.912 -34.850  19.344  1.00  0.00     0.007 C 
ATOM      7  C   UNL     1      17.608 -37.314  19.018  1.00  0.00     0.007 C 
ENDBRANCH   2   5
ENDBRANCH   1   2
BRANCH   1   8
ATOM      8  C   UNL     1      16.661 -34.426  23.071  1.00  0.00     0.004 C 
BRANCH   8   9
ATOM      9  C   UNL     1      17.508 -33.119  23.081  1.00  0.00    -0.011 C 
ATOM     10  C   UNL     1      17.410 -32.479  24.482  1.00  0.00     0.008 C 
BRANCH   9  11
ATOM     11  C   UNL     1      18.985 -33.338  22.578  1.00  0.00    -0.002 C 
ATOM     12  C   UNL     1      19.964 -33.755  23.712  1.00  0.00     0.005 C 
ATOM     13  C   UNL     1      19.727 -32.168  21.833  1.00  0.00    -0.026 C 
ATOM     14  C   UNL     1      21.050 -32.677  23.813  1.00  0.00     0.005 C 
ATOM     15  C   UNL     1      20.531 -31.520  22.966  1.00  0.00    -0.001 C 
ATOM     16  C   UNL     1      18.867 -31.072  21.113  1.00  0.00     0.007 C 
ATOM     17  C   UNL     1      20.666 -32.833  20.768  1.00  0.00     0.012 C 
ATOM     18  C   UNL     1      21.569 -30.472  22.479  1.00  0.00     0.004 C 
ATOM     19  C   UNL     1      19.382 -29.621  21.337  1.00  0.00     0.005 C 
ATOM     20  C   UNL     1      20.942 -29.502  21.391  1.00  0.00     0.003 C 
ATOM     21  C   UNL     1      22.136 -29.750  23.704  1.00  0.00     0.085 C 
ATOM     22  C   UNL     1      21.539 -27.998  21.294  1.00  0.00    -0.000 C 
ATOM     23  C   UNL     1      23.066 -28.692  23.272  1.00  0.00     0.159 C 
ATOM     24  C   UNL     1      22.523 -27.643  22.418  1.00  0.00     0.005 C 
ATOM     25  C   UNL     1      20.421 -26.895  21.289  1.00  0.00     0.020 C 
ATOM     26  C   UNL     1      22.334 -27.890  19.958  1.00  0.00     0.017 C 
ATOM     27  O   UNL     1      24.247 -28.649  23.714  1.00  0.00    -0.295 OA
ATOM     28  C   UNL     1      22.880 -26.371  22.665  1.00  0.00     0.055 C 
ATOM     29  C   UNL     1      20.958 -25.453  21.188  1.00  0.00     0.081 C 
ATOM     30  C   UNL     1      22.183 -25.239  22.036  1.00  0.00     0.156 C 
ATOM     31  O   UNL     1      22.599 -24.068  22.236  1.00  0.00    -0.295 OA
ENDBRANCH   9  11
ENDBRANCH   8   9
ENDBRANCH   1   8
TORSDOF 6
ENDMDL
MODEL 6
REMARK VINA RESULT:    -7.487      1.368      2.306
REMARK INTER + INTRA:         -11.846
REMARK INTER:                  -9.253
REMARK INTRA:                  -2.593
REMARK UNBOUND:                -1.733
REMARK SMILES CC[C@@H](CC[C@@H](C)[C@@H]1CC[C@H]2[C@@H]3CC(=O)C4=CC(=O)CC[C@]4(C)[C@@H]3CC[C@@]21C)C(C)C
REMARK SMILES IDX 4 1 3 2 2 3 1 4 29 5 30 6 31 7 5 8 6 9 7 10 8 11 9 12 27 13
REMARK SMILES IDX 10 14 11 15 26 16 28 17 12 18 25 19 24 20 13 21 22 22 14 23
REMARK SMILES IDX 16 24 21 25 23 26 15 27 17 28 20 29 18 30 19 31
REMARK H PARENT
REMARK Flexibility Score: inf
ROOT
ATOM      1  C   UNL     1      20.957 -31.343  23.323  1.00  0.00     0.004 C 
ENDROOT
BRANCH   1   2
ATOM      2  C   UNL     1      19.940 -31.558  22.160  1.00  0.00    -0.009 C 
BRANCH   2   3
ATOM      3  C   UNL     1      20.638 -31.946  20.821  1.00  0.00     0.000 C 
ATOM      4  C   UNL     1      20.224 -33.315  20.273  1.00  0.00     0.004 C 
ENDBRANCH   2   3
BRANCH   2   5
ATOM      5  C   UNL     1      18.961 -30.344  21.969  1.00  0.00    -0.014 C 
ATOM      6  C   UNL     1      17.658 -30.757  21.255  1.00  0.00     0.007 C 
ATOM      7  C   UNL     1      19.613 -29.193  21.181  1.00  0.00     0.007 C 
ENDBRANCH   2   5
ENDBRANCH   1   2
BRANCH   1   8
ATOM      8  C   UNL     1      21.931 -32.523  23.538  1.00  0.00     0.004 C 
BRANCH   8   9
ATOM      9  C   UNL     1      21.849 -33.168  24.954  1.00  0.00    -0.011 C 
ATOM     10  C   UNL     1      21.490 -32.067  25.977  1.00  0.00     0.008 C 
BRANCH   9  11
ATOM     11  C   UNL     1      20.899 -34.424  25.006  1.00  0.00    -0.002 C 
ATOM     12  C   UNL     1      21.084 -35.385  23.798  1.00  0.00     0.005 C 
ATOM     13  C   UNL     1      19.344 -34.211  25.102  1.00  0.00    -0.026 C 
ATOM     14  C   UNL     1      19.748 -35.456  23.048  1.00  0.00     0.005 C 
ATOM     15  C   UNL     1      18.910 -34.325  23.636  1.00  0.00    -0.001 C 
ATOM     16  C   UNL     1      18.805 -32.865  25.700  1.00  0.00     0.007 C 
ATOM     17  C   UNL     1      18.777 -35.393  25.963  1.00  0.00     0.012 C 
ATOM     18  C   UNL     1      17.371 -34.404  23.440  1.00  0.00     0.004 C 
ATOM     19  C   UNL     1      17.610 -32.259  24.909  1.00  0.00     0.005 C 
ATOM     20  C   UNL     1      16.621 -33.328  24.335  1.00  0.00     0.003 C 
ATOM     21  C   UNL     1      17.069 -34.289  21.944  1.00  0.00     0.085 C 
ATOM     22  C   UNL     1      15.204 -32.759  23.792  1.00  0.00    -0.000 C 
ATOM     23  C   UNL     1      15.611 -34.278  21.730  1.00  0.00     0.159 C 
ATOM     24  C   UNL     1      14.858 -33.203  22.364  1.00  0.00     0.005 C 
ATOM     25  C   UNL     1      15.122 -31.191  23.825  1.00  0.00     0.020 C 
ATOM     26  C   UNL     1      14.083 -33.323  24.716  1.00  0.00     0.017 C 
ATOM     27  O   UNL     1      15.066 -35.104  20.947  1.00  0.00    -0.295 OA
ATOM     28  C   UNL     1      13.888 -32.600  21.655  1.00  0.00     0.055 C 
ATOM     29  C   UNL     1      13.780 -30.620  23.323  1.00  0.00     0.081 C 
ATOM     30  C   UNL     1      13.267 -31.346  22.109  1.00  0.00     0.156 C 
ATOM     31  O   UNL     1      12.311 -30.857  21.453  1.00  0.00    -0.295 OA
ENDBRANCH   9  11
ENDBRANCH   8   9
ENDBRANCH   1   8
TORSDOF 6
ENDMDL
MODEL 7
REMARK VINA RESULT:    -7.403      3.023      6.557
REMARK INTER + INTRA:         -11.732
REMARK INTER:                 -10.004
REMARK INTRA:                  -1.728
REMARK UNBOUND:                -1.733
REMARK SMILES CC[C@@H](CC[C@@H](C)[C@@H]1CC[C@H]2[C@@H]3CC(=O)C4=CC(=O)CC[C@]4(C)[C@@H]3CC[C@@]21C)C(C)C
REMARK SMILES IDX 4 1 3 2 2 3 1 4 29 5 30 6 31 7 5 8 6 9 7 10 8 11 9 12 27 13
REMARK SMILES IDX 10 14 11 15 26 16 28 17 12 18 25 19 24 20 13 21 22 22 14 23
REMARK SMILES IDX 16 24 21 25 23 26 15 27 17 28 20 29 18 30 19 31
REMARK H PARENT
REMARK Flexibility Score: inf
ROOT
ATOM      1  C   UNL     1      18.776 -38.264  25.474  1.00  0.00     0.004 C 
ENDROOT
BRANCH   1   2
ATOM      2  C   UNL     1      17.420 -37.846  26.123  1.00  0.00    -0.009 C 
BRANCH   2   3
ATOM      3  C   UNL     1      17.306 -36.304  26.324  1.00  0.00     0.000 C 
ATOM      4  C   UNL     1      16.651 -35.567  25.152  1.00  0.00     0.004 C 
ENDBRANCH   2   3
BRANCH   2   5
ATOM      5  C   UNL     1      17.109 -38.626  27.450  1.00  0.00    -0.014 C 
ATOM      6  C   UNL     1      15.612 -38.973  27.582  1.00  0.00     0.007 C 
ATOM      7  C   UNL     1      17.545 -37.838  28.700  1.00  0.00     0.007 C 
ENDBRANCH   2   5
ENDBRANCH   1   2
BRANCH   1   8
ATOM      8  C   UNL     1      19.984 -37.418  25.931  1.00  0.00     0.004 C 
BRANCH   8   9
ATOM      9  C   UNL     1      21.237 -37.547  25.014  1.00  0.00    -0.011 C 
ATOM     10  C   UNL     1      20.949 -38.611  23.933  1.00  0.00     0.008 C 
BRANCH   9  11
ATOM     11  C   UNL     1      21.724 -36.164  24.437  1.00  0.00    -0.002 C 
ATOM     12  C   UNL     1      21.917 -35.075  25.530  1.00  0.00     0.005 C 
ATOM     13  C   UNL     1      20.874 -35.452  23.322  1.00  0.00    -0.026 C 
ATOM     14  C   UNL     1      20.963 -33.919  25.213  1.00  0.00     0.005 C 
ATOM     15  C   UNL     1      20.029 -34.467  24.139  1.00  0.00    -0.001 C 
ATOM     16  C   UNL     1      19.931 -36.324  22.424  1.00  0.00     0.007 C 
ATOM     17  C   UNL     1      21.888 -34.703  22.389  1.00  0.00     0.012 C 
ATOM     18  C   UNL     1      19.255 -33.435  23.273  1.00  0.00     0.004 C 
ATOM     19  C   UNL     1      18.531 -35.692  22.180  1.00  0.00     0.005 C 
ATOM     20  C   UNL     1      18.554 -34.133  22.033  1.00  0.00     0.003 C 
ATOM     21  C   UNL     1      18.291 -32.669  24.183  1.00  0.00     0.085 C 
ATOM     22  C   UNL     1      17.197 -33.458  21.460  1.00  0.00    -0.000 C 
ATOM     23  C   UNL     1      17.483 -31.736  23.378  1.00  0.00     0.159 C 
ATOM     24  C   UNL     1      16.652 -32.316  22.330  1.00  0.00     0.005 C 
ATOM     25  C   UNL     1      16.032 -34.494  21.269  1.00  0.00     0.020 C 
ATOM     26  C   UNL     1      17.527 -32.838  20.069  1.00  0.00     0.017 C 
ATOM     27  O   UNL     1      17.438 -30.508  23.662  1.00  0.00    -0.295 OA
ATOM     28  C   UNL     1      15.401 -31.849  22.176  1.00  0.00     0.055 C 
ATOM     29  C   UNL     1      14.728 -33.882  20.717  1.00  0.00     0.081 C 
ATOM     30  C   UNL     1      14.416 -32.547  21.336  1.00  0.00     0.156 C 
ATOM     31  O   UNL     1      13.281 -32.033  21.159  1.00  0.00    -0.295 OA
ENDBRANCH   9  11
ENDBRANCH   8   9
ENDBRANCH   1   8
TORSDOF 6
ENDMDL
MODEL 8
REMARK VINA RESULT:    -7.315      3.332      7.178
REMARK INTER + INTRA:         -11.614
REMARK INTER:                  -9.998
REMARK INTRA:                  -1.617
REMARK UNBOUND:                -1.733
REMARK SMILES CC[C@@H](CC[C@@H](C)[C@@H]1CC[C@H]2[C@@H]3CC(=O)C4=CC(=O)CC[C@]4(C)[C@@H]3CC[C@@]21C)C(C)C
REMARK SMILES IDX 4 1 3 2 2 3 1 4 29 5 30 6 31 7 5 8 6 9 7 10 8 11 9 12 27 13
REMARK SMILES IDX 10 14 11 15 26 16 28 17 12 18 25 19 24 20 13 21 22 22 14 23
REMARK SMILES IDX 16 24 21 25 23 26 15 27 17 28 20 29 18 30 19 31
REMARK H PARENT
REMARK Flexibility Score: inf
ROOT
ATOM      1  C   UNL     1      15.433 -32.455  21.274  1.00  0.00     0.004 C 
ENDROOT
BRANCH   1   2
ATOM      2  C   UNL     1      14.055 -32.049  21.884  1.00  0.00    -0.009 C 
BRANCH   2   3
ATOM      3  C   UNL     1      12.939 -31.922  20.804  1.00  0.00     0.000 C 
ATOM      4  C   UNL     1      11.671 -31.216  21.295  1.00  0.00     0.004 C 
ENDBRANCH   2   3
BRANCH   2   5
ATOM      5  C   UNL     1      14.139 -30.764  22.784  1.00  0.00    -0.014 C 
ATOM      6  C   UNL     1      15.466 -30.004  22.588  1.00  0.00     0.007 C 
ATOM      7  C   UNL     1      13.975 -31.094  24.279  1.00  0.00     0.007 C 
ENDBRANCH   2   5
ENDBRANCH   1   2
BRANCH   1   8
ATOM      8  C   UNL     1      16.160 -33.579  22.045  1.00  0.00     0.004 C 
BRANCH   8   9
ATOM      9  C   UNL     1      17.278 -33.073  23.004  1.00  0.00    -0.011 C 
ATOM     10  C   UNL     1      17.027 -33.662  24.409  1.00  0.00     0.008 C 
BRANCH   9  11
ATOM     11  C   UNL     1      18.731 -33.334  22.451  1.00  0.00    -0.002 C 
ATOM     12  C   UNL     1      19.726 -33.817  23.543  1.00  0.00     0.005 C 
ATOM     13  C   UNL     1      19.494 -32.174  21.712  1.00  0.00    -0.026 C 
ATOM     14  C   UNL     1      20.855 -32.784  23.638  1.00  0.00     0.005 C 
ATOM     15  C   UNL     1      20.357 -31.586  22.835  1.00  0.00    -0.001 C 
ATOM     16  C   UNL     1      18.656 -31.028  21.047  1.00  0.00     0.007 C 
ATOM     17  C   UNL     1      20.375 -32.847  20.603  1.00  0.00     0.012 C 
ATOM     18  C   UNL     1      21.419 -30.566  22.343  1.00  0.00     0.004 C 
ATOM     19  C   UNL     1      19.233 -29.604  21.290  1.00  0.00     0.005 C 
ATOM     20  C   UNL     1      20.798 -29.545  21.299  1.00  0.00     0.003 C 
ATOM     21  C   UNL     1      22.050 -29.898  23.567  1.00  0.00     0.085 C 
ATOM     22  C   UNL     1      21.449 -28.063  21.221  1.00  0.00    -0.000 C 
ATOM     23  C   UNL     1      23.007 -28.865  23.133  1.00  0.00     0.159 C 
ATOM     24  C   UNL     1      22.479 -27.774  22.322  1.00  0.00     0.005 C 
ATOM     25  C   UNL     1      20.374 -26.919  21.277  1.00  0.00     0.020 C 
ATOM     26  C   UNL     1      22.208 -27.951  19.864  1.00  0.00     0.017 C 
ATOM     27  O   UNL     1      24.201 -28.878  23.539  1.00  0.00    -0.295 OA
ATOM     28  C   UNL     1      22.892 -26.524  22.589  1.00  0.00     0.055 C 
ATOM     29  C   UNL     1      20.964 -25.496  21.195  1.00  0.00     0.081 C 
ATOM     30  C   UNL     1      22.220 -25.350  22.010  1.00  0.00     0.156 C 
ATOM     31  O   UNL     1      22.688 -24.202  22.226  1.00  0.00    -0.295 OA
ENDBRANCH   9  11
ENDBRANCH   8   9
ENDBRANCH   1   8
TORSDOF 6
ENDMDL
MODEL 9
REMARK VINA RESULT:    -7.270      2.199      4.127
REMARK INTER + INTRA:         -11.553
REMARK INTER:                  -9.267
REMARK INTRA:                  -2.285
REMARK UNBOUND:                -1.733
REMARK SMILES CC[C@@H](CC[C@@H](C)[C@@H]1CC[C@H]2[C@@H]3CC(=O)C4=CC(=O)CC[C@]4(C)[C@@H]3CC[C@@]21C)C(C)C
REMARK SMILES IDX 4 1 3 2 2 3 1 4 29 5 30 6 31 7 5 8 6 9 7 10 8 11 9 12 27 13
REMARK SMILES IDX 10 14 11 15 26 16 28 17 12 18 25 19 24 20 13 21 22 22 14 23
REMARK SMILES IDX 16 24 21 25 23 26 15 27 17 28 20 29 18 30 19 31
REMARK H PARENT
REMARK Flexibility Score: inf
ROOT
ATOM      1  C   UNL     1      21.549 -33.941  25.353  1.00  0.00     0.004 C 
ENDROOT
BRANCH   1   2
ATOM      2  C   UNL     1      20.830 -32.557  25.302  1.00  0.00    -0.009 C 
BRANCH   2   3
ATOM      3  C   UNL     1      21.832 -31.366  25.232  1.00  0.00     0.000 C 
ATOM      4  C   UNL     1      23.229 -31.751  24.734  1.00  0.00     0.004 C 
ENDBRANCH   2   3
BRANCH   2   5
ATOM      5  C   UNL     1      19.785 -32.366  26.459  1.00  0.00    -0.014 C 
ATOM      6  C   UNL     1      18.352 -32.719  26.012  1.00  0.00     0.007 C 
ATOM      7  C   UNL     1      19.789 -30.928  27.010  1.00  0.00     0.007 C 
ENDBRANCH   2   5
ENDBRANCH   1   2
BRANCH   1   8
ATOM      8  C   UNL     1      20.894 -35.027  24.471  1.00  0.00     0.004 C 
BRANCH   8   9
ATOM      9  C   UNL     1      21.754 -35.458  23.246  1.00  0.00    -0.011 C 
ATOM     10  C   UNL     1      21.740 -36.999  23.151  1.00  0.00     0.008 C 
BRANCH   9  11
ATOM     11  C   UNL     1      21.336 -34.730  21.912  1.00  0.00    -0.002 C 
ATOM     12  C   UNL     1      22.105 -33.401  21.670  1.00  0.00     0.005 C 
ATOM     13  C   UNL     1      19.827 -34.357  21.678  1.00  0.00    -0.026 C 
ATOM     14  C   UNL     1      21.075 -32.267  21.623  1.00  0.00     0.005 C 
ATOM     15  C   UNL     1      19.781 -32.893  22.132  1.00  0.00    -0.001 C 
ATOM     16  C   UNL     1      18.725 -35.171  22.440  1.00  0.00     0.007 C 
ATOM     17  C   UNL     1      19.560 -34.490  20.138  1.00  0.00     0.012 C 
ATOM     18  C   UNL     1      18.453 -32.168  21.781  1.00  0.00     0.004 C 
ATOM     19  C   UNL     1      17.585 -34.290  23.028  1.00  0.00     0.005 C 
ATOM     20  C   UNL     1      17.195 -33.071  22.127  1.00  0.00     0.003 C 
ATOM     21  C   UNL     1      18.450 -30.804  22.477  1.00  0.00     0.085 C 
ATOM     22  C   UNL     1      15.815 -32.316  22.519  1.00  0.00    -0.000 C 
ATOM     23  C   UNL     1      17.167 -30.123  22.231  1.00  0.00     0.159 C 
ATOM     24  C   UNL     1      15.961 -30.798  22.693  1.00  0.00     0.005 C 
ATOM     25  C   UNL     1      15.165 -32.875  23.835  1.00  0.00     0.020 C 
ATOM     26  C   UNL     1      14.808 -32.535  21.349  1.00  0.00     0.017 C 
ATOM     27  O   UNL     1      17.136 -28.961  21.740  1.00  0.00    -0.295 OA
ATOM     28  C   UNL     1      15.010 -30.064  23.296  1.00  0.00     0.055 C 
ATOM     29  C   UNL     1      13.844 -32.183  24.229  1.00  0.00     0.081 C 
ATOM     30  C   UNL     1      13.896 -30.693  24.023  1.00  0.00     0.156 C 
ATOM     31  O   UNL     1      12.988 -29.969  24.507  1.00  0.00    -0.295 OA
ENDBRANCH   9  11
ENDBRANCH   8   9
ENDBRANCH   1   8
TORSDOF 6
ENDMDL
