MODEL 1
REMARK VINA RESULT:    -5.160      0.000      0.000
REMARK INTER + INTRA:          -6.300
REMARK INTER:                  -6.065
REMARK INTRA:                  -0.235
REMARK UNBOUND:                -0.235
REMARK SMILES COc1cc2ccc(=O)oc2c(OC)c1OC
REMARK SMILES IDX 3 1 15 2 12 3 11 4 5 5 4 6 6 7 7 8 8 9 9 10 10 11 2 12 1 13
REMARK SMILES IDX 16 14 17 15 13 16 14 17
REMARK H PARENT
REMARK Flexibility Score: inf
ROOT
ATOM      1  C   UNL     1      17.357  17.116   9.429  1.00  0.00     0.165 A 
ATOM      2  C   UNL     1      16.886  17.071  10.772  1.00  0.00     0.207 A 
ATOM      3  C   UNL     1      15.484  17.065  11.018  1.00  0.00     0.208 A 
ATOM      4  C   UNL     1      14.588  17.101   9.942  1.00  0.00     0.184 A 
ATOM      5  C   UNL     1      15.062  17.144   8.618  1.00  0.00     0.025 A 
ATOM      6  C   UNL     1      16.433  17.151   8.368  1.00  0.00     0.062 A 
ATOM      7  C   UNL     1      14.131  17.179   7.574  1.00  0.00     0.020 A 
ATOM      8  C   UNL     1      12.770  17.171   7.867  1.00  0.00     0.094 A 
ATOM      9  C   UNL     1      12.369  17.126   9.204  1.00  0.00     0.336 A 
ATOM     10  O   UNL     1      11.143  17.119   9.494  1.00  0.00    -0.246 OA
ATOM     11  O   UNL     1      13.275  17.095  10.177  1.00  0.00    -0.419 OA
ENDROOT
BRANCH   1  12
ATOM     12  O   UNL     1      18.738  17.124   9.169  1.00  0.00    -0.493 OA
ATOM     13  C   UNL     1      19.585  15.978   9.186  1.00  0.00     0.278 C 
ENDBRANCH   1  12
BRANCH   2  14
ATOM     14  O   UNL     1      17.757  17.036  11.877  1.00  0.00    -0.490 OA
ATOM     15  C   UNL     1      18.535  18.107  12.400  1.00  0.00     0.278 C 
ENDBRANCH   2  14
BRANCH   3  16
ATOM     16  O   UNL     1      14.912  17.023  12.306  1.00  0.00    -0.490 OA
ATOM     17  C   UNL     1      14.715  18.119  13.193  1.00  0.00     0.278 C 
ENDBRANCH   3  16
TORSDOF 3
ENDMDL
MODEL 2
REMARK VINA RESULT:    -5.091      1.369      4.861
REMARK INTER + INTRA:          -6.219
REMARK INTER:                  -5.929
REMARK INTRA:                  -0.291
REMARK UNBOUND:                -0.235
REMARK SMILES COc1cc2ccc(=O)oc2c(OC)c1OC
REMARK SMILES IDX 3 1 15 2 12 3 11 4 5 5 4 6 6 7 7 8 8 9 9 10 10 11 2 12 1 13
REMARK SMILES IDX 16 14 17 15 13 16 14 17
REMARK H PARENT
REMARK Flexibility Score: inf
ROOT
ATOM      1  C   UNL     1      13.034  17.005   8.563  1.00  0.00     0.165 A 
ATOM      2  C   UNL     1      13.022  17.113   9.982  1.00  0.00     0.207 A 
ATOM      3  C   UNL     1      14.254  17.246  10.682  1.00  0.00     0.208 A 
ATOM      4  C   UNL     1      15.461  17.271   9.969  1.00  0.00     0.184 A 
ATOM      5  C   UNL     1      15.463  17.164   8.566  1.00  0.00     0.025 A 
ATOM      6  C   UNL     1      14.261  17.033   7.873  1.00  0.00     0.062 A 
ATOM      7  C   UNL     1      16.691  17.193   7.895  1.00  0.00     0.020 A 
ATOM      8  C   UNL     1      17.870  17.325   8.624  1.00  0.00     0.094 A 
ATOM      9  C   UNL     1      17.793  17.427  10.016  1.00  0.00     0.336 A 
ATOM     10  O   UNL     1      18.845  17.547  10.697  1.00  0.00    -0.246 OA
ATOM     11  O   UNL     1      16.613  17.396  10.628  1.00  0.00    -0.419 OA
ENDROOT
BRANCH   1  12
ATOM     12  O   UNL     1      11.827  16.872   7.858  1.00  0.00    -0.493 OA
ATOM     13  C   UNL     1      11.192  15.637   7.539  1.00  0.00     0.278 C 
ENDBRANCH   1  12
BRANCH   2  14
ATOM     14  O   UNL     1      11.830  17.091  10.731  1.00  0.00    -0.490 OA
ATOM     15  C   UNL     1      11.168  15.951  11.270  1.00  0.00     0.278 C 
ENDBRANCH   2  14
BRANCH   3  16
ATOM     16  O   UNL     1      14.355  17.359  12.083  1.00  0.00    -0.490 OA
ATOM     17  C   UNL     1      14.518  16.299  13.019  1.00  0.00     0.278 C 
ENDBRANCH   3  16
TORSDOF 3
ENDMDL
MODEL 3
REMARK VINA RESULT:    -4.928      1.533      2.183
REMARK INTER + INTRA:          -6.028
REMARK INTER:                  -5.876
REMARK INTRA:                  -0.152
REMARK UNBOUND:                -0.235
REMARK SMILES COc1cc2ccc(=O)oc2c(OC)c1OC
REMARK SMILES IDX 3 1 15 2 12 3 11 4 5 5 4 6 6 7 7 8 8 9 9 10 10 11 2 12 1 13
REMARK SMILES IDX 16 14 17 15 13 16 14 17
REMARK H PARENT
REMARK Flexibility Score: inf
ROOT
ATOM      1  C   UNL     1      17.098  17.451  11.597  1.00  0.00     0.165 A 
ATOM      2  C   UNL     1      15.866  17.333  12.300  1.00  0.00     0.207 A 
ATOM      3  C   UNL     1      14.653  17.207  11.566  1.00  0.00     0.208 A 
ATOM      4  C   UNL     1      14.686  17.199  10.165  1.00  0.00     0.184 A 
ATOM      5  C   UNL     1      15.907  17.316   9.478  1.00  0.00     0.025 A 
ATOM      6  C   UNL     1      17.099  17.439  10.189  1.00  0.00     0.062 A 
ATOM      7  C   UNL     1      15.893  17.303   8.078  1.00  0.00     0.020 A 
ATOM      8  C   UNL     1      14.680  17.177   7.405  1.00  0.00     0.094 A 
ATOM      9  C   UNL     1      13.504  17.065   8.151  1.00  0.00     0.336 A 
ATOM     10  O   UNL     1      12.396  16.951   7.565  1.00  0.00    -0.246 OA
ATOM     11  O   UNL     1      13.547  17.081   9.481  1.00  0.00    -0.419 OA
ENDROOT
BRANCH   1  12
ATOM     12  O   UNL     1      18.303  17.577  12.307  1.00  0.00    -0.493 OA
ATOM     13  C   UNL     1      19.606  17.529  11.732  1.00  0.00     0.278 C 
ENDBRANCH   1  12
BRANCH   2  14
ATOM     14  O   UNL     1      15.796  17.339  13.706  1.00  0.00    -0.490 OA
ATOM     15  C   UNL     1      15.741  16.211  14.574  1.00  0.00     0.278 C 
ENDBRANCH   2  14
BRANCH   3  16
ATOM     16  O   UNL     1      13.382  17.086  12.162  1.00  0.00    -0.490 OA
ATOM     17  C   UNL     1      12.431  18.124  12.373  1.00  0.00     0.278 C 
ENDBRANCH   3  16
TORSDOF 3
ENDMDL
MODEL 4
REMARK VINA RESULT:    -4.799      1.635      3.542
REMARK INTER + INTRA:          -5.876
REMARK INTER:                  -5.612
REMARK INTRA:                  -0.264
REMARK UNBOUND:                -0.235
REMARK SMILES COc1cc2ccc(=O)oc2c(OC)c1OC
REMARK SMILES IDX 3 1 15 2 12 3 11 4 5 5 4 6 6 7 7 8 8 9 9 10 10 11 2 12 1 13
REMARK SMILES IDX 16 14 17 15 13 16 14 17
REMARK H PARENT
REMARK Flexibility Score: inf
ROOT
ATOM      1  C   UNL     1      15.153  17.778  12.117  1.00  0.00     0.165 A 
ATOM      2  C   UNL     1      15.901  17.672  10.911  1.00  0.00     0.207 A 
ATOM      3  C   UNL     1      15.233  17.319   9.704  1.00  0.00     0.208 A 
ATOM      4  C   UNL     1      13.852  17.082   9.717  1.00  0.00     0.184 A 
ATOM      5  C   UNL     1      13.120  17.189  10.914  1.00  0.00     0.025 A 
ATOM      6  C   UNL     1      13.766  17.535  12.099  1.00  0.00     0.062 A 
ATOM      7  C   UNL     1      11.742  16.944  10.880  1.00  0.00     0.020 A 
ATOM      8  C   UNL     1      11.135  16.602   9.675  1.00  0.00     0.094 A 
ATOM      9  C   UNL     1      11.922  16.513   8.524  1.00  0.00     0.336 A 
ATOM     10  O   UNL     1      11.396  16.205   7.423  1.00  0.00    -0.246 OA
ATOM     11  O   UNL     1      13.230  16.751   8.585  1.00  0.00    -0.419 OA
ENDROOT
BRANCH   1  12
ATOM     12  O   UNL     1      15.797  18.125  13.315  1.00  0.00    -0.493 OA
ATOM     13  C   UNL     1      15.248  17.969  14.620  1.00  0.00     0.278 C 
ENDBRANCH   1  12
BRANCH   2  14
ATOM     14  O   UNL     1      17.289  17.901  10.860  1.00  0.00    -0.490 OA
ATOM     15  C   UNL     1      18.331  16.970  11.136  1.00  0.00     0.278 C 
ENDBRANCH   2  14
BRANCH   3  16
ATOM     16  O   UNL     1      15.878  17.185   8.458  1.00  0.00    -0.490 OA
ATOM     17  C   UNL     1      16.557  16.037   7.963  1.00  0.00     0.278 C 
ENDBRANCH   3  16
TORSDOF 3
ENDMDL
MODEL 5
REMARK VINA RESULT:    -4.747      1.837      4.879
REMARK INTER + INTRA:          -5.815
REMARK INTER:                  -5.566
REMARK INTRA:                  -0.249
REMARK UNBOUND:                -0.235
REMARK SMILES COc1cc2ccc(=O)oc2c(OC)c1OC
REMARK SMILES IDX 3 1 15 2 12 3 11 4 5 5 4 6 6 7 7 8 8 9 9 10 10 11 2 12 1 13
REMARK SMILES IDX 16 14 17 15 13 16 14 17
REMARK H PARENT
REMARK Flexibility Score: inf
ROOT
ATOM      1  C   UNL     1      14.842  17.464  12.060  1.00  0.00     0.165 A 
ATOM      2  C   UNL     1      13.829  17.181  11.101  1.00  0.00     0.207 A 
ATOM      3  C   UNL     1      14.190  16.580   9.862  1.00  0.00     0.208 A 
ATOM      4  C   UNL     1      15.533  16.274   9.602  1.00  0.00     0.184 A 
ATOM      5  C   UNL     1      16.527  16.557  10.555  1.00  0.00     0.025 A 
ATOM      6  C   UNL     1      16.182  17.145  11.771  1.00  0.00     0.062 A 
ATOM      7  C   UNL     1      17.855  16.235  10.254  1.00  0.00     0.020 A 
ATOM      8  C   UNL     1      18.158  15.647   9.028  1.00  0.00     0.094 A 
ATOM      9  C   UNL     1      17.120  15.393   8.128  1.00  0.00     0.336 A 
ATOM     10  O   UNL     1      17.369  14.863   7.013  1.00  0.00    -0.246 OA
ATOM     11  O   UNL     1      15.867  15.711   8.440  1.00  0.00    -0.419 OA
ENDROOT
BRANCH   1  12
ATOM     12  O   UNL     1      14.502  18.058  13.286  1.00  0.00    -0.493 OA
ATOM     13  C   UNL     1      15.231  17.912  14.501  1.00  0.00     0.278 C 
ENDBRANCH   1  12
BRANCH   2  14
ATOM     14  O   UNL     1      12.471  17.475  11.327  1.00  0.00    -0.490 OA
ATOM     15  C   UNL     1      11.478  16.612  11.871  1.00  0.00     0.278 C 
ENDBRANCH   2  14
BRANCH   3  16
ATOM     16  O   UNL     1      13.268  16.258   8.845  1.00  0.00    -0.490 OA
ATOM     17  C   UNL     1      12.733  17.139   7.863  1.00  0.00     0.278 C 
ENDBRANCH   3  16
TORSDOF 3
ENDMDL
MODEL 6
REMARK VINA RESULT:    -4.731      1.505      1.707
REMARK INTER + INTRA:          -5.796
REMARK INTER:                  -5.513
REMARK INTRA:                  -0.283
REMARK UNBOUND:                -0.235
REMARK SMILES COc1cc2ccc(=O)oc2c(OC)c1OC
REMARK SMILES IDX 3 1 15 2 12 3 11 4 5 5 4 6 6 7 7 8 8 9 9 10 10 11 2 12 1 13
REMARK SMILES IDX 16 14 17 15 13 16 14 17
REMARK H PARENT
REMARK Flexibility Score: inf
ROOT
ATOM      1  C   UNL     1      17.449  16.206   9.332  1.00  0.00     0.165 A 
ATOM      2  C   UNL     1      16.889  15.766  10.565  1.00  0.00     0.207 A 
ATOM      3  C   UNL     1      15.480  15.838  10.755  1.00  0.00     0.208 A 
ATOM      4  C   UNL     1      14.664  16.339   9.732  1.00  0.00     0.184 A 
ATOM      5  C   UNL     1      15.226  16.771   8.517  1.00  0.00     0.025 A 
ATOM      6  C   UNL     1      16.604  16.703   8.322  1.00  0.00     0.062 A 
ATOM      7  C   UNL     1      14.373  17.264   7.523  1.00  0.00     0.020 A 
ATOM      8  C   UNL     1      13.002  17.315   7.757  1.00  0.00     0.094 A 
ATOM      9  C   UNL     1      12.511  16.868   8.987  1.00  0.00     0.336 A 
ATOM     10  O   UNL     1      11.275  16.904   9.223  1.00  0.00    -0.246 OA
ATOM     11  O   UNL     1      13.345  16.405   9.915  1.00  0.00    -0.419 OA
ENDROOT
BRANCH   1  12
ATOM     12  O   UNL     1      18.837  16.141   9.129  1.00  0.00    -0.493 OA
ATOM     13  C   UNL     1      19.780  17.111   9.576  1.00  0.00     0.278 C 
ENDBRANCH   1  12
BRANCH   2  14
ATOM     14  O   UNL     1      17.678  15.259  11.614  1.00  0.00    -0.490 OA
ATOM     15  C   UNL     1      18.162  13.929  11.768  1.00  0.00     0.278 C 
ENDBRANCH   2  14
BRANCH   3  16
ATOM     16  O   UNL     1      14.824  15.431  11.934  1.00  0.00    -0.490 OA
ATOM     17  C   UNL     1      14.431  14.108  12.284  1.00  0.00     0.278 C 
ENDBRANCH   3  16
TORSDOF 3
ENDMDL
MODEL 7
REMARK VINA RESULT:    -4.722      1.648      5.724
REMARK INTER + INTRA:          -5.785
REMARK INTER:                  -5.479
REMARK INTRA:                  -0.307
REMARK UNBOUND:                -0.235
REMARK SMILES COc1cc2ccc(=O)oc2c(OC)c1OC
REMARK SMILES IDX 3 1 15 2 12 3 11 4 5 5 4 6 6 7 7 8 8 9 9 10 10 11 2 12 1 13
REMARK SMILES IDX 16 14 17 15 13 16 14 17
REMARK H PARENT
REMARK Flexibility Score: inf
ROOT
ATOM      1  C   UNL     1      13.485  17.028  11.494  1.00  0.00     0.165 A 
ATOM      2  C   UNL     1      13.837  16.482  10.228  1.00  0.00     0.207 A 
ATOM      3  C   UNL     1      15.204  16.460   9.833  1.00  0.00     0.208 A 
ATOM      4  C   UNL     1      16.185  16.973  10.693  1.00  0.00     0.184 A 
ATOM      5  C   UNL     1      15.829  17.512  11.942  1.00  0.00     0.025 A 
ATOM      6  C   UNL     1      14.493  17.536  12.337  1.00  0.00     0.062 A 
ATOM      7  C   UNL     1      16.841  18.014  12.769  1.00  0.00     0.020 A 
ATOM      8  C   UNL     1      18.165  17.969  12.337  1.00  0.00     0.094 A 
ATOM      9  C   UNL     1      18.447  17.420  11.084  1.00  0.00     0.336 A 
ATOM     10  O   UNL     1      19.636  17.370  10.672  1.00  0.00    -0.246 OA
ATOM     11  O   UNL     1      17.465  16.951  10.319  1.00  0.00    -0.419 OA
ENDROOT
BRANCH   1  12
ATOM     12  O   UNL     1      12.140  17.058  11.898  1.00  0.00    -0.493 OA
ATOM     13  C   UNL     1      11.230  18.125  11.650  1.00  0.00     0.278 C 
ENDBRANCH   1  12
BRANCH   2  14
ATOM     14  O   UNL     1      12.879  15.958   9.339  1.00  0.00    -0.490 OA
ATOM     15  C   UNL     1      12.159  16.660   8.332  1.00  0.00     0.278 C 
ENDBRANCH   2  14
BRANCH   3  16
ATOM     16  O   UNL     1      15.660  15.943   8.604  1.00  0.00    -0.490 OA
ATOM     17  C   UNL     1      15.708  16.622   7.353  1.00  0.00     0.278 C 
ENDBRANCH   3  16
TORSDOF 3
ENDMDL
MODEL 8
REMARK VINA RESULT:    -4.436      7.888      9.786
REMARK INTER + INTRA:          -5.449
REMARK INTER:                  -5.138
REMARK INTRA:                  -0.311
REMARK UNBOUND:                -0.235
REMARK SMILES COc1cc2ccc(=O)oc2c(OC)c1OC
REMARK SMILES IDX 3 1 15 2 12 3 11 4 5 5 4 6 6 7 7 8 8 9 9 10 10 11 2 12 1 13
REMARK SMILES IDX 16 14 17 15 13 16 14 17
REMARK H PARENT
REMARK Flexibility Score: inf
ROOT
ATOM      1  C   UNL     1      18.464  13.227  19.543  1.00  0.00     0.165 A 
ATOM      2  C   UNL     1      18.412  11.992  18.837  1.00  0.00     0.207 A 
ATOM      3  C   UNL     1      17.793  11.947  17.556  1.00  0.00     0.208 A 
ATOM      4  C   UNL     1      17.245  13.114  17.006  1.00  0.00     0.184 A 
ATOM      5  C   UNL     1      17.300  14.329  17.710  1.00  0.00     0.025 A 
ATOM      6  C   UNL     1      17.905  14.383  18.965  1.00  0.00     0.062 A 
ATOM      7  C   UNL     1      16.740  15.470  17.123  1.00  0.00     0.020 A 
ATOM      8  C   UNL     1      16.146  15.374  15.867  1.00  0.00     0.094 A 
ATOM      9  C   UNL     1      16.127  14.134  15.224  1.00  0.00     0.336 A 
ATOM     10  O   UNL     1      15.595  14.023  14.088  1.00  0.00    -0.246 OA
ATOM     11  O   UNL     1      16.666  13.066  15.805  1.00  0.00    -0.419 OA
ENDROOT
BRANCH   1  12
ATOM     12  O   UNL     1      19.070  13.288  20.808  1.00  0.00    -0.493 OA
ATOM     13  C   UNL     1      18.377  13.318  22.052  1.00  0.00     0.278 C 
ENDBRANCH   1  12
BRANCH   2  14
ATOM     14  O   UNL     1      18.951  10.801  19.359  1.00  0.00    -0.490 OA
ATOM     15  C   UNL     1      18.305   9.859  20.208  1.00  0.00     0.278 C 
ENDBRANCH   2  14
BRANCH   3  16
ATOM     16  O   UNL     1      17.688  10.779  16.774  1.00  0.00    -0.490 OA
ATOM     17  C   UNL     1      16.659   9.797  16.834  1.00  0.00     0.278 C 
ENDBRANCH   3  16
TORSDOF 3
ENDMDL
MODEL 9
REMARK VINA RESULT:    -4.253      3.434      6.145
REMARK INTER + INTRA:          -5.235
REMARK INTER:                  -4.969
REMARK INTRA:                  -0.266
REMARK UNBOUND:                -0.235
REMARK SMILES COc1cc2ccc(=O)oc2c(OC)c1OC
REMARK SMILES IDX 3 1 15 2 12 3 11 4 5 5 4 6 6 7 7 8 8 9 9 10 10 11 2 12 1 13
REMARK SMILES IDX 16 14 17 15 13 16 14 17
REMARK H PARENT
REMARK Flexibility Score: inf
ROOT
ATOM      1  C   UNL     1      16.221  16.693  12.007  1.00  0.00     0.165 A 
ATOM      2  C   UNL     1      17.209  15.694  11.780  1.00  0.00     0.207 A 
ATOM      3  C   UNL     1      17.653  14.892  12.869  1.00  0.00     0.208 A 
ATOM      4  C   UNL     1      17.113  15.094  14.147  1.00  0.00     0.184 A 
ATOM      5  C   UNL     1      16.137  16.083  14.362  1.00  0.00     0.025 A 
ATOM      6  C   UNL     1      15.696  16.872  13.301  1.00  0.00     0.062 A 
ATOM      7  C   UNL     1      15.625  16.250  15.654  1.00  0.00     0.020 A 
ATOM      8  C   UNL     1      16.091  15.440  16.687  1.00  0.00     0.094 A 
ATOM      9  C   UNL     1      17.063  14.477  16.402  1.00  0.00     0.336 A 
ATOM     10  O   UNL     1      17.500  13.734  17.320  1.00  0.00    -0.246 OA
ATOM     11  O   UNL     1      17.532  14.341  15.165  1.00  0.00    -0.419 OA
ENDROOT
BRANCH   1  12
ATOM     12  O   UNL     1      15.773  17.492  10.942  1.00  0.00    -0.493 OA
ATOM     13  C   UNL     1      14.512  17.365  10.291  1.00  0.00     0.278 C 
ENDBRANCH   1  12
BRANCH   2  14
ATOM     14  O   UNL     1      17.774  15.464  10.511  1.00  0.00    -0.490 OA
ATOM     15  C   UNL     1      18.889  16.129   9.928  1.00  0.00     0.278 C 
ENDBRANCH   2  14
BRANCH   3  16
ATOM     16  O   UNL     1      18.625  13.879  12.755  1.00  0.00    -0.490 OA
ATOM     17  C   UNL     1      18.432  12.556  12.265  1.00  0.00     0.278 C 
ENDBRANCH   3  16
TORSDOF 3
ENDMDL
