MODEL 1
REMARK VINA RESULT:    -3.536      0.000      0.000
REMARK INTER + INTRA:         -15.249
REMARK INTER:                  -9.325
REMARK INTRA:                  -5.925
REMARK UNBOUND:                -5.925
REMARK SMILES CCCCCCCCCCCCCCCCCCCCCCCCCCCCCC(=O)[O-]
REMARK SMILES IDX 16 1 17 2 18 3 19 4 20 5 21 6 22 7 23 8 24 9 25 10 26 11
REMARK SMILES IDX 27 12 28 13 29 14 30 15 31 16 32 17 15 18 14 19 13 20 12 21
REMARK SMILES IDX 11 22 10 23 9 24 8 25 7 26 6 27 5 28 4 29 3 30 2 31 1 32
REMARK H PARENT
REMARK Flexibility Score: inf
ROOT
ATOM      1  C   UNL     1      40.024 -48.735 -19.771  1.00  0.00     0.000 C 
ENDROOT
BRANCH   1   2
ATOM      2  C   UNL     1      39.875 -49.737 -18.616  1.00  0.00     0.000 C 
BRANCH   2   3
ATOM      3  C   UNL     1      38.542 -50.497 -18.712  1.00  0.00     0.000 C 
BRANCH   3   4
ATOM      4  C   UNL     1      38.428 -51.638 -17.689  1.00  0.00     0.000 C 
BRANCH   4   5
ATOM      5  C   UNL     1      37.109 -51.598 -16.899  1.00  0.00     0.000 C 
BRANCH   5   6
ATOM      6  C   UNL     1      36.303 -50.312 -17.153  1.00  0.00     0.000 C 
BRANCH   6   7
ATOM      7  C   UNL     1      35.893 -49.572 -15.862  1.00  0.00     0.000 C 
BRANCH   7   8
ATOM      8  C   UNL     1      37.017 -49.568 -14.811  1.00  0.00     0.000 C 
BRANCH   8   9
ATOM      9  C   UNL     1      38.090 -48.498 -15.107  1.00  0.00     0.000 C 
BRANCH   9  10
ATOM     10  C   UNL     1      39.519 -49.065 -15.181  1.00  0.00     0.000 C 
BRANCH  10  11
ATOM     11  C   UNL     1      40.585 -47.975 -15.369  1.00  0.00     0.000 C 
BRANCH  11  12
ATOM     12  C   UNL     1      41.665 -48.001 -14.276  1.00  0.00     0.000 C 
BRANCH  12  13
ATOM     13  C   UNL     1      41.448 -49.109 -13.223  1.00  0.00     0.006 C 
BRANCH  13  14
ATOM     14  C   UNL     1      41.248 -48.537 -11.815  1.00  0.00     0.053 C 
BRANCH  14  15
ATOM     15  C   UNL     1      39.791 -48.389 -11.508  1.00  0.00     0.041 C 
ATOM     16  O   UNL     1      38.979 -49.294 -11.834  1.00  0.00    -0.550 OA
ATOM     17  O   UNL     1      39.335 -47.268 -10.823  1.00  0.00    -0.550 OA
ENDBRANCH  14  15
ENDBRANCH  13  14
ENDBRANCH  12  13
ENDBRANCH  11  12
ENDBRANCH  10  11
ENDBRANCH   9  10
ENDBRANCH   8   9
ENDBRANCH   7   8
ENDBRANCH   6   7
ENDBRANCH   5   6
ENDBRANCH   4   5
ENDBRANCH   3   4
ENDBRANCH   2   3
ENDBRANCH   1   2
BRANCH   1  18
ATOM     18  C   UNL     1      39.041 -49.012 -20.929  1.00  0.00     0.000 C 
BRANCH  18  19
ATOM     19  C   UNL     1      38.428 -47.740 -21.546  1.00  0.00     0.000 C 
BRANCH  19  20
ATOM     20  C   UNL     1      38.145 -46.599 -20.550  1.00  0.00     0.000 C 
BRANCH  20  21
ATOM     21  C   UNL     1      36.802 -46.706 -19.802  1.00  0.00     0.000 C 
BRANCH  21  22
ATOM     22  C   UNL     1      36.972 -46.796 -18.279  1.00  0.00     0.000 C 
BRANCH  22  23
ATOM     23  C   UNL     1      38.342 -46.248 -17.847  1.00  0.00     0.000 C 
BRANCH  23  24
ATOM     24  C   UNL     1      38.228 -45.100 -16.831  1.00  0.00    -0.000 C 
BRANCH  24  25
ATOM     25  C   UNL     1      39.596 -44.511 -16.446  1.00  0.00    -0.000 C 
BRANCH  25  26
ATOM     26  C   UNL     1      39.925 -43.216 -17.211  1.00  0.00    -0.000 C 
BRANCH  26  27
ATOM     27  C   UNL     1      40.692 -43.423 -18.530  1.00  0.00    -0.000 C 
BRANCH  27  28
ATOM     28  C   UNL     1      39.782 -43.362 -19.768  1.00  0.00    -0.000 C 
BRANCH  28  29
ATOM     29  C   UNL     1      38.621 -42.359 -19.589  1.00  0.00    -0.000 C 
BRANCH  29  30
ATOM     30  C   UNL     1      37.224 -43.000 -19.706  1.00  0.00    -0.000 C 
BRANCH  30  31
ATOM     31  C   UNL     1      36.100 -42.222 -19.004  1.00  0.00    -0.003 C 
ATOM     32  C   UNL     1      36.411 -41.923 -17.538  1.00  0.00     0.004 C 
ENDBRANCH  30  31
ENDBRANCH  29  30
ENDBRANCH  28  29
ENDBRANCH  27  28
ENDBRANCH  26  27
ENDBRANCH  25  26
ENDBRANCH  24  25
ENDBRANCH  23  24
ENDBRANCH  22  23
ENDBRANCH  21  22
ENDBRANCH  20  21
ENDBRANCH  19  20
ENDBRANCH  18  19
ENDBRANCH   1  18
TORSDOF 28
ENDMDL
MODEL 2
REMARK VINA RESULT:    -3.504      2.268      5.376
REMARK INTER + INTRA:         -15.163
REMARK INTER:                  -9.742
REMARK INTRA:                  -5.421
REMARK UNBOUND:                -5.925
REMARK SMILES CCCCCCCCCCCCCCCCCCCCCCCCCCCCCC(=O)[O-]
REMARK SMILES IDX 16 1 17 2 18 3 19 4 20 5 21 6 22 7 23 8 24 9 25 10 26 11
REMARK SMILES IDX 27 12 28 13 29 14 30 15 31 16 32 17 15 18 14 19 13 20 12 21
REMARK SMILES IDX 11 22 10 23 9 24 8 25 7 26 6 27 5 28 4 29 3 30 2 31 1 32
REMARK H PARENT
REMARK Flexibility Score: inf
ROOT
ATOM      1  C   UNL     1      36.766 -46.446 -17.764  1.00  0.00     0.000 C 
ENDROOT
BRANCH   1   2
ATOM      2  C   UNL     1      35.824 -47.659 -17.791  1.00  0.00     0.000 C 
BRANCH   2   3
ATOM      3  C   UNL     1      35.385 -48.048 -16.369  1.00  0.00     0.000 C 
BRANCH   3   4
ATOM      4  C   UNL     1      34.929 -49.512 -16.263  1.00  0.00     0.000 C 
BRANCH   4   5
ATOM      5  C   UNL     1      35.684 -50.293 -15.176  1.00  0.00     0.000 C 
BRANCH   5   6
ATOM      6  C   UNL     1      36.322 -51.587 -15.709  1.00  0.00     0.000 C 
BRANCH   6   7
ATOM      7  C   UNL     1      36.814 -51.480 -17.168  1.00  0.00     0.000 C 
BRANCH   7   8
ATOM      8  C   UNL     1      38.322 -51.188 -17.255  1.00  0.00     0.000 C 
BRANCH   8   9
ATOM      9  C   UNL     1      38.612 -49.748 -17.733  1.00  0.00     0.000 C 
BRANCH   9  10
ATOM     10  C   UNL     1      39.487 -48.942 -16.757  1.00  0.00     0.000 C 
BRANCH  10  11
ATOM     11  C   UNL     1      39.045 -49.095 -15.294  1.00  0.00     0.000 C 
BRANCH  11  12
ATOM     12  C   UNL     1      39.820 -48.175 -14.337  1.00  0.00     0.000 C 
BRANCH  12  13
ATOM     13  C   UNL     1      40.279 -48.881 -13.043  1.00  0.00     0.006 C 
BRANCH  13  14
ATOM     14  C   UNL     1      39.311 -48.639 -11.878  1.00  0.00     0.053 C 
BRANCH  14  15
ATOM     15  C   UNL     1      39.727 -47.439 -11.087  1.00  0.00     0.041 C 
ATOM     16  O   UNL     1      38.915 -46.884 -10.300  1.00  0.00    -0.550 OA
ATOM     17  O   UNL     1      41.027 -46.956 -11.188  1.00  0.00    -0.550 OA
ENDBRANCH  14  15
ENDBRANCH  13  14
ENDBRANCH  12  13
ENDBRANCH  11  12
ENDBRANCH  10  11
ENDBRANCH   9  10
ENDBRANCH   8   9
ENDBRANCH   7   8
ENDBRANCH   6   7
ENDBRANCH   5   6
ENDBRANCH   4   5
ENDBRANCH   3   4
ENDBRANCH   2   3
ENDBRANCH   1   2
BRANCH   1  18
ATOM     18  C   UNL     1      37.098 -45.920 -19.177  1.00  0.00     0.000 C 
BRANCH  18  19
ATOM     19  C   UNL     1      38.198 -46.722 -19.900  1.00  0.00     0.000 C 
BRANCH  19  20
ATOM     20  C   UNL     1      37.877 -47.111 -21.356  1.00  0.00     0.000 C 
BRANCH  20  21
ATOM     21  C   UNL     1      38.769 -48.221 -21.945  1.00  0.00     0.000 C 
BRANCH  21  22
ATOM     22  C   UNL     1      39.238 -49.233 -20.890  1.00  0.00     0.000 C 
BRANCH  22  23
ATOM     23  C   UNL     1      40.586 -49.855 -21.289  1.00  0.00     0.000 C 
BRANCH  23  24
ATOM     24  C   UNL     1      41.640 -49.748 -20.176  1.00  0.00    -0.000 C 
BRANCH  24  25
ATOM     25  C   UNL     1      41.798 -51.055 -19.379  1.00  0.00    -0.000 C 
BRANCH  25  26
ATOM     26  C   UNL     1      42.591 -50.867 -18.073  1.00  0.00    -0.000 C 
BRANCH  26  27
ATOM     27  C   UNL     1      42.017 -51.615 -16.856  1.00  0.00    -0.000 C 
BRANCH  27  28
ATOM     28  C   UNL     1      42.372 -50.943 -15.519  1.00  0.00    -0.000 C 
BRANCH  28  29
ATOM     29  C   UNL     1      43.650 -50.081 -15.621  1.00  0.00    -0.000 C 
BRANCH  29  30
ATOM     30  C   UNL     1      43.770 -49.017 -14.513  1.00  0.00    -0.000 C 
BRANCH  30  31
ATOM     31  C   UNL     1      43.322 -47.606 -14.926  1.00  0.00    -0.003 C 
ATOM     32  C   UNL     1      42.958 -47.509 -16.408  1.00  0.00     0.004 C 
ENDBRANCH  30  31
ENDBRANCH  29  30
ENDBRANCH  28  29
ENDBRANCH  27  28
ENDBRANCH  26  27
ENDBRANCH  25  26
ENDBRANCH  24  25
ENDBRANCH  23  24
ENDBRANCH  22  23
ENDBRANCH  21  22
ENDBRANCH  20  21
ENDBRANCH  19  20
ENDBRANCH  18  19
ENDBRANCH   1  18
TORSDOF 28
ENDMDL
MODEL 3
REMARK VINA RESULT:    -3.472      2.382      5.207
REMARK INTER + INTRA:         -15.079
REMARK INTER:                  -9.494
REMARK INTRA:                  -5.585
REMARK UNBOUND:                -5.925
REMARK SMILES CCCCCCCCCCCCCCCCCCCCCCCCCCCCCC(=O)[O-]
REMARK SMILES IDX 16 1 17 2 18 3 19 4 20 5 21 6 22 7 23 8 24 9 25 10 26 11
REMARK SMILES IDX 27 12 28 13 29 14 30 15 31 16 32 17 15 18 14 19 13 20 12 21
REMARK SMILES IDX 11 22 10 23 9 24 8 25 7 26 6 27 5 28 4 29 3 30 2 31 1 32
REMARK H PARENT
REMARK Flexibility Score: inf
ROOT
ATOM      1  C   UNL     1      40.655 -47.588 -18.119  1.00  0.00     0.000 C 
ENDROOT
BRANCH   1   2
ATOM      2  C   UNL     1      41.012 -46.528 -17.066  1.00  0.00     0.000 C 
BRANCH   2   3
ATOM      3  C   UNL     1      40.056 -45.326 -17.148  1.00  0.00     0.000 C 
BRANCH   3   4
ATOM      4  C   UNL     1      39.225 -45.135 -15.869  1.00  0.00     0.000 C 
BRANCH   4   5
ATOM      5  C   UNL     1      39.490 -46.226 -14.819  1.00  0.00     0.000 C 
BRANCH   5   6
ATOM      6  C   UNL     1      38.249 -47.091 -14.536  1.00  0.00     0.000 C 
BRANCH   6   7
ATOM      7  C   UNL     1      38.584 -48.552 -14.164  1.00  0.00     0.000 C 
BRANCH   7   8
ATOM      8  C   UNL     1      40.038 -48.713 -13.688  1.00  0.00     0.000 C 
BRANCH   8   9
ATOM      9  C   UNL     1      40.123 -49.170 -12.215  1.00  0.00     0.000 C 
BRANCH   9  10
ATOM     10  C   UNL     1      41.203 -48.432 -11.405  1.00  0.00     0.000 C 
BRANCH  10  11
ATOM     11  C   UNL     1      40.848 -46.960 -11.142  1.00  0.00     0.000 C 
BRANCH  11  12
ATOM     12  C   UNL     1      39.346 -46.740 -10.905  1.00  0.00     0.000 C 
BRANCH  12  13
ATOM     13  C   UNL     1      39.007 -46.309  -9.462  1.00  0.00     0.006 C 
BRANCH  13  14
ATOM     14  C   UNL     1      40.053 -45.345  -8.886  1.00  0.00     0.053 C 
BRANCH  14  15
ATOM     15  C   UNL     1      39.465 -43.984  -8.692  1.00  0.00     0.041 C 
ATOM     16  O   UNL     1      38.638 -43.525  -9.525  1.00  0.00    -0.550 OA
ATOM     17  O   UNL     1      39.799 -43.236  -7.569  1.00  0.00    -0.550 OA
ENDBRANCH  14  15
ENDBRANCH  13  14
ENDBRANCH  12  13
ENDBRANCH  11  12
ENDBRANCH  10  11
ENDBRANCH   9  10
ENDBRANCH   8   9
ENDBRANCH   7   8
ENDBRANCH   6   7
ENDBRANCH   5   6
ENDBRANCH   4   5
ENDBRANCH   3   4
ENDBRANCH   2   3
ENDBRANCH   1   2
BRANCH   1  18
ATOM     18  C   UNL     1      40.350 -48.967 -17.495  1.00  0.00     0.000 C 
BRANCH  18  19
ATOM     19  C   UNL     1      38.917 -49.469 -17.757  1.00  0.00     0.000 C 
BRANCH  19  20
ATOM     20  C   UNL     1      38.557 -50.808 -17.085  1.00  0.00     0.000 C 
BRANCH  20  21
ATOM     21  C   UNL     1      37.069 -51.199 -17.168  1.00  0.00     0.000 C 
BRANCH  21  22
ATOM     22  C   UNL     1      36.175 -50.345 -16.258  1.00  0.00     0.000 C 
BRANCH  22  23
ATOM     23  C   UNL     1      34.875 -49.953 -16.977  1.00  0.00     0.000 C 
BRANCH  23  24
ATOM     24  C   UNL     1      34.991 -48.614 -17.723  1.00  0.00    -0.000 C 
BRANCH  24  25
ATOM     25  C   UNL     1      35.848 -47.585 -16.966  1.00  0.00    -0.000 C 
BRANCH  25  26
ATOM     26  C   UNL     1      36.600 -46.626 -17.906  1.00  0.00    -0.000 C 
BRANCH  26  27
ATOM     27  C   UNL     1      36.672 -47.085 -19.374  1.00  0.00    -0.000 C 
BRANCH  27  28
ATOM     28  C   UNL     1      37.769 -46.362 -20.174  1.00  0.00    -0.000 C 
BRANCH  28  29
ATOM     29  C   UNL     1      38.262 -47.198 -21.375  1.00  0.00    -0.000 C 
BRANCH  29  30
ATOM     30  C   UNL     1      38.531 -48.676 -21.033  1.00  0.00    -0.000 C 
BRANCH  30  31
ATOM     31  C   UNL     1      39.949 -49.165 -21.365  1.00  0.00    -0.003 C 
ATOM     32  C   UNL     1      40.131 -50.664 -21.126  1.00  0.00     0.004 C 
ENDBRANCH  30  31
ENDBRANCH  29  30
ENDBRANCH  28  29
ENDBRANCH  27  28
ENDBRANCH  26  27
ENDBRANCH  25  26
ENDBRANCH  24  25
ENDBRANCH  23  24
ENDBRANCH  22  23
ENDBRANCH  21  22
ENDBRANCH  20  21
ENDBRANCH  19  20
ENDBRANCH  18  19
ENDBRANCH   1  18
TORSDOF 28
ENDMDL
MODEL 4
REMARK VINA RESULT:    -3.462      3.109      6.228
REMARK INTER + INTRA:         -15.053
REMARK INTER:                  -8.694
REMARK INTRA:                  -6.359
REMARK UNBOUND:                -5.925
REMARK SMILES CCCCCCCCCCCCCCCCCCCCCCCCCCCCCC(=O)[O-]
REMARK SMILES IDX 16 1 17 2 18 3 19 4 20 5 21 6 22 7 23 8 24 9 25 10 26 11
REMARK SMILES IDX 27 12 28 13 29 14 30 15 31 16 32 17 15 18 14 19 13 20 12 21
REMARK SMILES IDX 11 22 10 23 9 24 8 25 7 26 6 27 5 28 4 29 3 30 2 31 1 32
REMARK H PARENT
REMARK Flexibility Score: inf
ROOT
ATOM      1  C   UNL     1      42.151 -48.049 -15.349  1.00  0.00     0.000 C 
ENDROOT
BRANCH   1   2
ATOM      2  C   UNL     1      42.006 -49.577 -15.411  1.00  0.00     0.000 C 
BRANCH   2   3
ATOM      3  C   UNL     1      41.876 -50.060 -16.865  1.00  0.00     0.000 C 
BRANCH   3   4
ATOM      4  C   UNL     1      40.563 -50.815 -17.130  1.00  0.00     0.000 C 
BRANCH   4   5
ATOM      5  C   UNL     1      39.671 -50.110 -18.164  1.00  0.00     0.000 C 
BRANCH   5   6
ATOM      6  C   UNL     1      38.171 -50.308 -17.886  1.00  0.00     0.000 C 
BRANCH   6   7
ATOM      7  C   UNL     1      37.843 -51.633 -17.165  1.00  0.00     0.000 C 
BRANCH   7   8
ATOM      8  C   UNL     1      36.551 -51.541 -16.335  1.00  0.00     0.000 C 
BRANCH   8   9
ATOM      9  C   UNL     1      35.565 -50.495 -16.902  1.00  0.00     0.000 C 
BRANCH   9  10
ATOM     10  C   UNL     1      35.115 -49.450 -15.866  1.00  0.00     0.000 C 
BRANCH  10  11
ATOM     11  C   UNL     1      35.234 -48.008 -16.383  1.00  0.00     0.000 C 
BRANCH  11  12
ATOM     12  C   UNL     1      35.607 -47.936 -17.872  1.00  0.00     0.000 C 
BRANCH  12  13
ATOM     13  C   UNL     1      36.707 -46.898 -18.182  1.00  0.00     0.006 C 
BRANCH  13  14
ATOM     14  C   UNL     1      36.725 -46.498 -19.662  1.00  0.00     0.053 C 
BRANCH  14  15
ATOM     15  C   UNL     1      37.988 -46.958 -20.317  1.00  0.00     0.041 C 
ATOM     16  O   UNL     1      39.064 -46.998 -19.664  1.00  0.00    -0.550 OA
ATOM     17  O   UNL     1      37.971 -47.383 -21.641  1.00  0.00    -0.550 OA
ENDBRANCH  14  15
ENDBRANCH  13  14
ENDBRANCH  12  13
ENDBRANCH  11  12
ENDBRANCH  10  11
ENDBRANCH   9  10
ENDBRANCH   8   9
ENDBRANCH   7   8
ENDBRANCH   6   7
ENDBRANCH   5   6
ENDBRANCH   4   5
ENDBRANCH   3   4
ENDBRANCH   2   3
ENDBRANCH   1   2
BRANCH   1  18
ATOM     18  C   UNL     1      40.966 -47.312 -16.007  1.00  0.00     0.000 C 
BRANCH  18  19
ATOM     19  C   UNL     1      39.819 -46.976 -15.034  1.00  0.00     0.000 C 
BRANCH  19  20
ATOM     20  C   UNL     1      38.564 -47.859 -15.169  1.00  0.00     0.000 C 
BRANCH  20  21
ATOM     21  C   UNL     1      38.569 -49.136 -14.307  1.00  0.00     0.000 C 
BRANCH  21  22
ATOM     22  C   UNL     1      38.745 -48.844 -12.809  1.00  0.00     0.000 C 
BRANCH  22  23
ATOM     23  C   UNL     1      40.121 -49.319 -12.316  1.00  0.00     0.000 C 
BRANCH  23  24
ATOM     24  C   UNL     1      40.701 -48.414 -11.217  1.00  0.00    -0.000 C 
BRANCH  24  25
ATOM     25  C   UNL     1      41.379 -47.154 -11.782  1.00  0.00    -0.000 C 
BRANCH  25  26
ATOM     26  C   UNL     1      40.921 -45.863 -11.080  1.00  0.00    -0.000 C 
BRANCH  26  27
ATOM     27  C   UNL     1      39.463 -45.880 -10.583  1.00  0.00    -0.000 C 
BRANCH  27  28
ATOM     28  C   UNL     1      38.462 -45.397 -11.646  1.00  0.00    -0.000 C 
BRANCH  28  29
ATOM     29  C   UNL     1      39.026 -44.235 -12.492  1.00  0.00    -0.000 C 
BRANCH  29  30
ATOM     30  C   UNL     1      38.156 -43.878 -13.713  1.00  0.00    -0.000 C 
BRANCH  30  31
ATOM     31  C   UNL     1      36.955 -44.810 -13.940  1.00  0.00    -0.003 C 
ATOM     32  C   UNL     1      36.275 -44.583 -15.291  1.00  0.00     0.004 C 
ENDBRANCH  30  31
ENDBRANCH  29  30
ENDBRANCH  28  29
ENDBRANCH  27  28
ENDBRANCH  26  27
ENDBRANCH  25  26
ENDBRANCH  24  25
ENDBRANCH  23  24
ENDBRANCH  22  23
ENDBRANCH  21  22
ENDBRANCH  20  21
ENDBRANCH  19  20
ENDBRANCH  18  19
ENDBRANCH   1  18
TORSDOF 28
ENDMDL
MODEL 5
REMARK VINA RESULT:    -3.400      2.177      4.945
REMARK INTER + INTRA:         -14.890
REMARK INTER:                  -8.548
REMARK INTRA:                  -6.341
REMARK UNBOUND:                -5.925
REMARK SMILES CCCCCCCCCCCCCCCCCCCCCCCCCCCCCC(=O)[O-]
REMARK SMILES IDX 16 1 17 2 18 3 19 4 20 5 21 6 22 7 23 8 24 9 25 10 26 11
REMARK SMILES IDX 27 12 28 13 29 14 30 15 31 16 32 17 15 18 14 19 13 20 12 21
REMARK SMILES IDX 11 22 10 23 9 24 8 25 7 26 6 27 5 28 4 29 3 30 2 31 1 32
REMARK H PARENT
REMARK Flexibility Score: inf
ROOT
ATOM      1  C   UNL     1      42.012 -48.899 -16.179  1.00  0.00     0.000 C 
ENDROOT
BRANCH   1   2
ATOM      2  C   UNL     1      42.195 -50.128 -15.276  1.00  0.00     0.000 C 
BRANCH   2   3
ATOM      3  C   UNL     1      42.405 -49.711 -13.811  1.00  0.00     0.000 C 
BRANCH   3   4
ATOM      4  C   UNL     1      42.454 -48.186 -13.624  1.00  0.00     0.000 C 
BRANCH   4   5
ATOM      5  C   UNL     1      41.718 -47.719 -12.358  1.00  0.00     0.000 C 
BRANCH   5   6
ATOM      6  C   UNL     1      40.794 -48.802 -11.774  1.00  0.00     0.000 C 
BRANCH   6   7
ATOM      7  C   UNL     1      39.295 -48.435 -11.832  1.00  0.00     0.000 C 
BRANCH   7   8
ATOM      8  C   UNL     1      38.510 -49.343 -12.794  1.00  0.00     0.000 C 
BRANCH   8   9
ATOM      9  C   UNL     1      38.800 -49.015 -14.275  1.00  0.00     0.000 C 
BRANCH   9  10
ATOM     10  C   UNL     1      38.253 -47.648 -14.720  1.00  0.00     0.000 C 
BRANCH  10  11
ATOM     11  C   UNL     1      39.363 -46.657 -15.104  1.00  0.00     0.000 C 
BRANCH  11  12
ATOM     12  C   UNL     1      39.111 -45.240 -14.567  1.00  0.00     0.000 C 
BRANCH  12  13
ATOM     13  C   UNL     1      37.925 -45.157 -13.582  1.00  0.00     0.006 C 
BRANCH  13  14
ATOM     14  C   UNL     1      38.389 -44.943 -12.135  1.00  0.00     0.053 C 
BRANCH  14  15
ATOM     15  C   UNL     1      38.420 -43.485 -11.802  1.00  0.00     0.041 C 
ATOM     16  O   UNL     1      38.912 -43.094 -10.710  1.00  0.00    -0.550 OA
ATOM     17  O   UNL     1      37.943 -42.553 -12.716  1.00  0.00    -0.550 OA
ENDBRANCH  14  15
ENDBRANCH  13  14
ENDBRANCH  12  13
ENDBRANCH  11  12
ENDBRANCH  10  11
ENDBRANCH   9  10
ENDBRANCH   8   9
ENDBRANCH   7   8
ENDBRANCH   6   7
ENDBRANCH   5   6
ENDBRANCH   4   5
ENDBRANCH   3   4
ENDBRANCH   2   3
ENDBRANCH   1   2
BRANCH   1  18
ATOM     18  C   UNL     1      41.581 -49.272 -17.613  1.00  0.00     0.000 C 
BRANCH  18  19
ATOM     19  C   UNL     1      40.087 -49.030 -17.900  1.00  0.00     0.000 C 
BRANCH  19  20
ATOM     20  C   UNL     1      39.293 -50.276 -18.339  1.00  0.00     0.000 C 
BRANCH  20  21
ATOM     21  C   UNL     1      38.693 -51.105 -17.187  1.00  0.00     0.000 C 
BRANCH  21  22
ATOM     22  C   UNL     1      37.208 -51.433 -17.397  1.00  0.00     0.000 C 
BRANCH  22  23
ATOM     23  C   UNL     1      36.448 -51.412 -16.062  1.00  0.00     0.000 C 
BRANCH  23  24
ATOM     24  C   UNL     1      35.619 -50.132 -15.873  1.00  0.00    -0.000 C 
BRANCH  24  25
ATOM     25  C   UNL     1      34.990 -49.632 -17.186  1.00  0.00    -0.000 C 
BRANCH  25  26
ATOM     26  C   UNL     1      35.243 -48.135 -17.438  1.00  0.00    -0.000 C 
BRANCH  26  27
ATOM     27  C   UNL     1      36.671 -47.790 -17.900  1.00  0.00    -0.000 C 
BRANCH  27  28
ATOM     28  C   UNL     1      36.697 -46.938 -19.180  1.00  0.00    -0.000 C 
BRANCH  28  29
ATOM     29  C   UNL     1      37.982 -46.089 -19.289  1.00  0.00    -0.000 C 
BRANCH  29  30
ATOM     30  C   UNL     1      38.072 -44.963 -18.241  1.00  0.00    -0.000 C 
BRANCH  30  31
ATOM     31  C   UNL     1      36.785 -44.141 -18.069  1.00  0.00    -0.003 C 
ATOM     32  C   UNL     1      36.710 -43.434 -16.715  1.00  0.00     0.004 C 
ENDBRANCH  30  31
ENDBRANCH  29  30
ENDBRANCH  28  29
ENDBRANCH  27  28
ENDBRANCH  26  27
ENDBRANCH  25  26
ENDBRANCH  24  25
ENDBRANCH  23  24
ENDBRANCH  22  23
ENDBRANCH  21  22
ENDBRANCH  20  21
ENDBRANCH  19  20
ENDBRANCH  18  19
ENDBRANCH   1  18
TORSDOF 28
ENDMDL
MODEL 6
REMARK VINA RESULT:    -3.389      1.725      3.401
REMARK INTER + INTRA:         -14.861
REMARK INTER:                  -9.129
REMARK INTRA:                  -5.732
REMARK UNBOUND:                -5.925
REMARK SMILES CCCCCCCCCCCCCCCCCCCCCCCCCCCCCC(=O)[O-]
REMARK SMILES IDX 16 1 17 2 18 3 19 4 20 5 21 6 22 7 23 8 24 9 25 10 26 11
REMARK SMILES IDX 27 12 28 13 29 14 30 15 31 16 32 17 15 18 14 19 13 20 12 21
REMARK SMILES IDX 11 22 10 23 9 24 8 25 7 26 6 27 5 28 4 29 3 30 2 31 1 32
REMARK H PARENT
REMARK Flexibility Score: inf
ROOT
ATOM      1  C   UNL     1      40.054 -49.948 -18.890  1.00  0.00     0.000 C 
ENDROOT
BRANCH   1   2
ATOM      2  C   UNL     1      38.725 -50.713 -18.803  1.00  0.00     0.000 C 
BRANCH   2   3
ATOM      3  C   UNL     1      38.495 -51.260 -17.385  1.00  0.00     0.000 C 
BRANCH   3   4
ATOM      4  C   UNL     1      37.013 -51.535 -17.082  1.00  0.00     0.000 C 
BRANCH   4   5
ATOM      5  C   UNL     1      36.604 -51.094 -15.667  1.00  0.00     0.000 C 
BRANCH   5   6
ATOM      6  C   UNL     1      35.536 -49.987 -15.677  1.00  0.00     0.000 C 
BRANCH   6   7
ATOM      7  C   UNL     1      35.316 -49.349 -17.065  1.00  0.00     0.000 C 
BRANCH   7   8
ATOM      8  C   UNL     1      35.532 -47.825 -17.047  1.00  0.00     0.000 C 
BRANCH   8   9
ATOM      9  C   UNL     1      36.674 -47.409 -16.094  1.00  0.00     0.000 C 
BRANCH   9  10
ATOM     10  C   UNL     1      38.078 -47.683 -16.660  1.00  0.00     0.000 C 
BRANCH  10  11
ATOM     11  C   UNL     1      39.123 -47.943 -15.564  1.00  0.00     0.000 C 
BRANCH  11  12
ATOM     12  C   UNL     1      38.527 -47.899 -14.148  1.00  0.00     0.000 C 
BRANCH  12  13
ATOM     13  C   UNL     1      38.726 -49.209 -13.356  1.00  0.00     0.006 C 
BRANCH  13  14
ATOM     14  C   UNL     1      39.350 -48.961 -11.977  1.00  0.00     0.053 C 
BRANCH  14  15
ATOM     15  C   UNL     1      40.824 -48.737 -12.097  1.00  0.00     0.041 C 
ATOM     16  O   UNL     1      41.516 -49.459 -12.863  1.00  0.00    -0.550 OA
ATOM     17  O   UNL     1      41.430 -47.702 -11.394  1.00  0.00    -0.550 OA
ENDBRANCH  14  15
ENDBRANCH  13  14
ENDBRANCH  12  13
ENDBRANCH  11  12
ENDBRANCH  10  11
ENDBRANCH   9  10
ENDBRANCH   8   9
ENDBRANCH   7   8
ENDBRANCH   6   7
ENDBRANCH   5   6
ENDBRANCH   4   5
ENDBRANCH   3   4
ENDBRANCH   2   3
ENDBRANCH   1   2
BRANCH   1  18
ATOM     18  C   UNL     1      39.956 -48.683 -19.770  1.00  0.00     0.000 C 
BRANCH  18  19
ATOM     19  C   UNL     1      38.983 -48.821 -20.957  1.00  0.00     0.000 C 
BRANCH  19  20
ATOM     20  C   UNL     1      38.216 -47.537 -21.329  1.00  0.00     0.000 C 
BRANCH  20  21
ATOM     21  C   UNL     1      37.454 -46.873 -20.166  1.00  0.00     0.000 C 
BRANCH  21  22
ATOM     22  C   UNL     1      38.071 -45.535 -19.734  1.00  0.00     0.000 C 
BRANCH  22  23
ATOM     23  C   UNL     1      37.092 -44.738 -18.858  1.00  0.00     0.000 C 
BRANCH  23  24
ATOM     24  C   UNL     1      37.771 -44.118 -17.626  1.00  0.00    -0.000 C 
BRANCH  24  25
ATOM     25  C   UNL     1      39.255 -44.506 -17.507  1.00  0.00    -0.000 C 
BRANCH  25  26
ATOM     26  C   UNL     1      40.165 -43.303 -17.202  1.00  0.00    -0.000 C 
BRANCH  26  27
ATOM     27  C   UNL     1      40.208 -42.884 -15.721  1.00  0.00    -0.000 C 
BRANCH  27  28
ATOM     28  C   UNL     1      40.325 -44.082 -14.763  1.00  0.00    -0.000 C 
BRANCH  28  29
ATOM     29  C   UNL     1      39.182 -44.113 -13.725  1.00  0.00    -0.000 C 
BRANCH  29  30
ATOM     30  C   UNL     1      39.508 -44.944 -12.469  1.00  0.00    -0.000 C 
BRANCH  30  31
ATOM     31  C   UNL     1      38.312 -45.193 -11.536  1.00  0.00    -0.003 C 
ATOM     32  C   UNL     1      38.727 -45.768 -10.182  1.00  0.00     0.004 C 
ENDBRANCH  30  31
ENDBRANCH  29  30
ENDBRANCH  28  29
ENDBRANCH  27  28
ENDBRANCH  26  27
ENDBRANCH  25  26
ENDBRANCH  24  25
ENDBRANCH  23  24
ENDBRANCH  22  23
ENDBRANCH  21  22
ENDBRANCH  20  21
ENDBRANCH  19  20
ENDBRANCH  18  19
ENDBRANCH   1  18
TORSDOF 28
ENDMDL
MODEL 7
REMARK VINA RESULT:    -3.347      2.848      6.817
REMARK INTER + INTRA:         -14.749
REMARK INTER:                  -9.581
REMARK INTRA:                  -5.168
REMARK UNBOUND:                -5.925
REMARK SMILES CCCCCCCCCCCCCCCCCCCCCCCCCCCCCC(=O)[O-]
REMARK SMILES IDX 16 1 17 2 18 3 19 4 20 5 21 6 22 7 23 8 24 9 25 10 26 11
REMARK SMILES IDX 27 12 28 13 29 14 30 15 31 16 32 17 15 18 14 19 13 20 12 21
REMARK SMILES IDX 11 22 10 23 9 24 8 25 7 26 6 27 5 28 4 29 3 30 2 31 1 32
REMARK H PARENT
REMARK Flexibility Score: inf
ROOT
ATOM      1  C   UNL     1      35.372 -48.234 -16.106  1.00  0.00     0.000 C 
ENDROOT
BRANCH   1   2
ATOM      2  C   UNL     1      35.015 -49.656 -16.562  1.00  0.00     0.000 C 
BRANCH   2   3
ATOM      3  C   UNL     1      35.377 -50.689 -15.482  1.00  0.00     0.000 C 
BRANCH   3   4
ATOM      4  C   UNL     1      36.388 -51.738 -15.972  1.00  0.00     0.000 C 
BRANCH   4   5
ATOM      5  C   UNL     1      36.838 -51.499 -17.422  1.00  0.00     0.000 C 
BRANCH   5   6
ATOM      6  C   UNL     1      38.353 -51.687 -17.613  1.00  0.00     0.000 C 
BRANCH   6   7
ATOM      7  C   UNL     1      39.014 -50.579 -18.460  1.00  0.00     0.000 C 
BRANCH   7   8
ATOM      8  C   UNL     1      39.840 -51.150 -19.625  1.00  0.00     0.000 C 
BRANCH   8   9
ATOM      9  C   UNL     1      39.739 -50.277 -20.896  1.00  0.00     0.000 C 
BRANCH   9  10
ATOM     10  C   UNL     1      39.521 -48.784 -20.599  1.00  0.00     0.000 C 
BRANCH  10  11
ATOM     11  C   UNL     1      38.563 -48.111 -21.595  1.00  0.00     0.000 C 
BRANCH  11  12
ATOM     12  C   UNL     1      38.011 -46.772 -21.082  1.00  0.00     0.000 C 
BRANCH  12  13
ATOM     13  C   UNL     1      38.392 -46.471 -19.616  1.00  0.00     0.006 C 
BRANCH  13  14
ATOM     14  C   UNL     1      39.291 -45.233 -19.495  1.00  0.00     0.053 C 
BRANCH  14  15
ATOM     15  C   UNL     1      38.468 -43.984 -19.484  1.00  0.00     0.041 C 
ATOM     16  O   UNL     1      38.757 -43.027 -20.251  1.00  0.00    -0.550 OA
ATOM     17  O   UNL     1      37.357 -43.890 -18.654  1.00  0.00    -0.550 OA
ENDBRANCH  14  15
ENDBRANCH  13  14
ENDBRANCH  12  13
ENDBRANCH  11  12
ENDBRANCH  10  11
ENDBRANCH   9  10
ENDBRANCH   8   9
ENDBRANCH   7   8
ENDBRANCH   6   7
ENDBRANCH   5   6
ENDBRANCH   4   5
ENDBRANCH   3   4
ENDBRANCH   2   3
ENDBRANCH   1   2
BRANCH   1  18
ATOM     18  C   UNL     1      36.705 -47.733 -16.704  1.00  0.00     0.000 C 
BRANCH  18  19
ATOM     19  C   UNL     1      37.813 -47.506 -15.658  1.00  0.00     0.000 C 
BRANCH  19  20
ATOM     20  C   UNL     1      38.529 -48.782 -15.173  1.00  0.00     0.000 C 
BRANCH  20  21
ATOM     21  C   UNL     1      38.224 -49.186 -13.718  1.00  0.00     0.000 C 
BRANCH  21  22
ATOM     22  C   UNL     1      38.947 -48.305 -12.689  1.00  0.00     0.000 C 
BRANCH  22  23
ATOM     23  C   UNL     1      39.851 -49.153 -11.780  1.00  0.00     0.000 C 
BRANCH  23  24
ATOM     24  C   UNL     1      41.327 -48.728 -11.849  1.00  0.00    -0.000 C 
BRANCH  24  25
ATOM     25  C   UNL     1      41.797 -48.450 -13.288  1.00  0.00    -0.000 C 
BRANCH  25  26
ATOM     26  C   UNL     1      42.025 -49.737 -14.101  1.00  0.00    -0.000 C 
BRANCH  26  27
ATOM     27  C   UNL     1      42.887 -49.559 -15.365  1.00  0.00    -0.000 C 
BRANCH  27  28
ATOM     28  C   UNL     1      42.746 -48.163 -15.993  1.00  0.00    -0.000 C 
BRANCH  28  29
ATOM     29  C   UNL     1      41.688 -48.133 -17.117  1.00  0.00    -0.000 C 
BRANCH  29  30
ATOM     30  C   UNL     1      42.280 -47.895 -18.520  1.00  0.00    -0.000 C 
BRANCH  30  31
ATOM     31  C   UNL     1      43.316 -48.940 -18.965  1.00  0.00    -0.003 C 
ATOM     32  C   UNL     1      43.219 -49.275 -20.453  1.00  0.00     0.004 C 
ENDBRANCH  30  31
ENDBRANCH  29  30
ENDBRANCH  28  29
ENDBRANCH  27  28
ENDBRANCH  26  27
ENDBRANCH  25  26
ENDBRANCH  24  25
ENDBRANCH  23  24
ENDBRANCH  22  23
ENDBRANCH  21  22
ENDBRANCH  20  21
ENDBRANCH  19  20
ENDBRANCH  18  19
ENDBRANCH   1  18
TORSDOF 28
ENDMDL
MODEL 8
REMARK VINA RESULT:    -3.344      1.692      6.079
REMARK INTER + INTRA:         -14.741
REMARK INTER:                  -8.910
REMARK INTRA:                  -5.831
REMARK UNBOUND:                -5.925
REMARK SMILES CCCCCCCCCCCCCCCCCCCCCCCCCCCCCC(=O)[O-]
REMARK SMILES IDX 16 1 17 2 18 3 19 4 20 5 21 6 22 7 23 8 24 9 25 10 26 11
REMARK SMILES IDX 27 12 28 13 29 14 30 15 31 16 32 17 15 18 14 19 13 20 12 21
REMARK SMILES IDX 11 22 10 23 9 24 8 25 7 26 6 27 5 28 4 29 3 30 2 31 1 32
REMARK H PARENT
REMARK Flexibility Score: inf
ROOT
ATOM      1  C   UNL     1      36.746 -46.889 -19.730  1.00  0.00     0.000 C 
ENDROOT
BRANCH   1   2
ATOM      2  C   UNL     1      38.116 -46.599 -20.360  1.00  0.00     0.000 C 
BRANCH   2   3
ATOM      3  C   UNL     1      39.009 -45.798 -19.398  1.00  0.00     0.000 C 
BRANCH   3   4
ATOM      4  C   UNL     1      39.088 -44.306 -19.757  1.00  0.00     0.000 C 
BRANCH   4   5
ATOM      5  C   UNL     1      38.613 -43.393 -18.616  1.00  0.00     0.000 C 
BRANCH   5   6
ATOM      6  C   UNL     1      37.080 -43.326 -18.508  1.00  0.00     0.000 C 
BRANCH   6   7
ATOM      7  C   UNL     1      36.575 -42.826 -17.137  1.00  0.00     0.000 C 
BRANCH   7   8
ATOM      8  C   UNL     1      36.343 -43.980 -16.146  1.00  0.00     0.000 C 
BRANCH   8   9
ATOM      9  C   UNL     1      37.447 -44.055 -15.068  1.00  0.00     0.000 C 
BRANCH   9  10
ATOM     10  C   UNL     1      38.060 -45.458 -14.914  1.00  0.00     0.000 C 
BRANCH  10  11
ATOM     11  C   UNL     1      39.371 -45.626 -15.697  1.00  0.00     0.000 C 
BRANCH  11  12
ATOM     12  C   UNL     1      39.786 -47.097 -15.861  1.00  0.00     0.000 C 
BRANCH  12  13
ATOM     13  C   UNL     1      39.253 -48.014 -14.739  1.00  0.00     0.006 C 
BRANCH  13  14
ATOM     14  C   UNL     1      40.387 -48.633 -13.912  1.00  0.00     0.053 C 
BRANCH  14  15
ATOM     15  C   UNL     1      40.635 -47.832 -12.674  1.00  0.00     0.041 C 
ATOM     16  O   UNL     1      40.225 -48.246 -11.557  1.00  0.00    -0.550 OA
ATOM     17  O   UNL     1      41.354 -46.645 -12.747  1.00  0.00    -0.550 OA
ENDBRANCH  14  15
ENDBRANCH  13  14
ENDBRANCH  12  13
ENDBRANCH  11  12
ENDBRANCH  10  11
ENDBRANCH   9  10
ENDBRANCH   8   9
ENDBRANCH   7   8
ENDBRANCH   6   7
ENDBRANCH   5   6
ENDBRANCH   4   5
ENDBRANCH   3   4
ENDBRANCH   2   3
ENDBRANCH   1   2
BRANCH   1  18
ATOM     18  C   UNL     1      36.798 -46.935 -18.188  1.00  0.00     0.000 C 
BRANCH  18  19
ATOM     19  C   UNL     1      35.991 -48.093 -17.569  1.00  0.00     0.000 C 
BRANCH  19  20
ATOM     20  C   UNL     1      35.768 -47.998 -16.048  1.00  0.00     0.000 C 
BRANCH  20  21
ATOM     21  C   UNL     1      36.002 -49.309 -15.272  1.00  0.00     0.000 C 
BRANCH  21  22
ATOM     22  C   UNL     1      35.367 -50.528 -15.956  1.00  0.00     0.000 C 
BRANCH  22  23
ATOM     23  C   UNL     1      36.373 -51.684 -16.060  1.00  0.00     0.000 C 
BRANCH  23  24
ATOM     24  C   UNL     1      36.797 -51.972 -17.509  1.00  0.00    -0.000 C 
BRANCH  24  25
ATOM     25  C   UNL     1      38.320 -51.883 -17.712  1.00  0.00    -0.000 C 
BRANCH  25  26
ATOM     26  C   UNL     1      38.896 -50.514 -17.309  1.00  0.00    -0.000 C 
BRANCH  26  27
ATOM     27  C   UNL     1      39.347 -49.630 -18.487  1.00  0.00    -0.000 C 
BRANCH  27  28
ATOM     28  C   UNL     1      39.007 -50.240 -19.857  1.00  0.00    -0.000 C 
BRANCH  28  29
ATOM     29  C   UNL     1      40.025 -49.834 -20.945  1.00  0.00    -0.000 C 
BRANCH  29  30
ATOM     30  C   UNL     1      41.493 -49.929 -20.487  1.00  0.00    -0.000 C 
BRANCH  30  31
ATOM     31  C   UNL     1      42.331 -50.981 -21.230  1.00  0.00    -0.003 C 
ATOM     32  C   UNL     1      42.990 -50.430 -22.495  1.00  0.00     0.004 C 
ENDBRANCH  30  31
ENDBRANCH  29  30
ENDBRANCH  28  29
ENDBRANCH  27  28
ENDBRANCH  26  27
ENDBRANCH  25  26
ENDBRANCH  24  25
ENDBRANCH  23  24
ENDBRANCH  22  23
ENDBRANCH  21  22
ENDBRANCH  20  21
ENDBRANCH  19  20
ENDBRANCH  18  19
ENDBRANCH   1  18
TORSDOF 28
ENDMDL
MODEL 9
REMARK VINA RESULT:    -3.316      3.312      6.763
REMARK INTER + INTRA:         -14.668
REMARK INTER:                  -8.611
REMARK INTRA:                  -6.056
REMARK UNBOUND:                -5.925
REMARK SMILES CCCCCCCCCCCCCCCCCCCCCCCCCCCCCC(=O)[O-]
REMARK SMILES IDX 16 1 17 2 18 3 19 4 20 5 21 6 22 7 23 8 24 9 25 10 26 11
REMARK SMILES IDX 27 12 28 13 29 14 30 15 31 16 32 17 15 18 14 19 13 20 12 21
REMARK SMILES IDX 11 22 10 23 9 24 8 25 7 26 6 27 5 28 4 29 3 30 2 31 1 32
REMARK H PARENT
REMARK Flexibility Score: inf
ROOT
ATOM      1  C   UNL     1      42.416 -49.496 -16.022  1.00  0.00     0.000 C 
ENDROOT
BRANCH   1   2
ATOM      2  C   UNL     1      42.156 -48.923 -17.423  1.00  0.00     0.000 C 
BRANCH   2   3
ATOM      3  C   UNL     1      40.669 -49.035 -17.797  1.00  0.00     0.000 C 
BRANCH   3   4
ATOM      4  C   UNL     1      40.072 -50.413 -17.469  1.00  0.00     0.000 C 
BRANCH   4   5
ATOM      5  C   UNL     1      38.915 -50.335 -16.459  1.00  0.00     0.000 C 
BRANCH   5   6
ATOM      6  C   UNL     1      37.649 -51.059 -16.949  1.00  0.00     0.000 C 
BRANCH   6   7
ATOM      7  C   UNL     1      36.477 -51.004 -15.947  1.00  0.00     0.000 C 
BRANCH   7   8
ATOM      8  C   UNL     1      35.117 -50.842 -16.648  1.00  0.00     0.000 C 
BRANCH   8   9
ATOM      9  C   UNL     1      34.875 -49.394 -17.127  1.00  0.00     0.000 C 
BRANCH   9  10
ATOM     10  C   UNL     1      35.419 -48.328 -16.160  1.00  0.00     0.000 C 
BRANCH  10  11
ATOM     11  C   UNL     1      36.516 -47.455 -16.789  1.00  0.00     0.000 C 
BRANCH  11  12
ATOM     12  C   UNL     1      36.660 -47.676 -18.303  1.00  0.00     0.000 C 
BRANCH  12  13
ATOM     13  C   UNL     1      37.849 -46.913 -18.925  1.00  0.00     0.006 C 
BRANCH  13  14
ATOM     14  C   UNL     1      37.605 -46.563 -20.398  1.00  0.00     0.053 C 
BRANCH  14  15
ATOM     15  C   UNL     1      38.188 -47.610 -21.293  1.00  0.00     0.041 C 
ATOM     16  O   UNL     1      37.962 -47.584 -22.532  1.00  0.00    -0.550 OA
ATOM     17  O   UNL     1      39.016 -48.594 -20.765  1.00  0.00    -0.550 OA
ENDBRANCH  14  15
ENDBRANCH  13  14
ENDBRANCH  12  13
ENDBRANCH  11  12
ENDBRANCH  10  11
ENDBRANCH   9  10
ENDBRANCH   8   9
ENDBRANCH   7   8
ENDBRANCH   6   7
ENDBRANCH   5   6
ENDBRANCH   4   5
ENDBRANCH   3   4
ENDBRANCH   2   3
ENDBRANCH   1   2
BRANCH   1  18
ATOM     18  C   UNL     1      43.077 -48.472 -15.073  1.00  0.00     0.000 C 
BRANCH  18  19
ATOM     19  C   UNL     1      42.991 -47.015 -15.569  1.00  0.00     0.000 C 
BRANCH  19  20
ATOM     20  C   UNL     1      42.022 -46.111 -14.783  1.00  0.00     0.000 C 
BRANCH  20  21
ATOM     21  C   UNL     1      40.877 -45.504 -15.618  1.00  0.00     0.000 C 
BRANCH  21  22
ATOM     22  C   UNL     1      39.496 -46.046 -15.223  1.00  0.00     0.000 C 
BRANCH  22  23
ATOM     23  C   UNL     1      39.601 -47.490 -14.708  1.00  0.00     0.000 C 
BRANCH  23  24
ATOM     24  C   UNL     1      38.512 -47.833 -13.680  1.00  0.00    -0.000 C 
BRANCH  24  25
ATOM     25  C   UNL     1      38.964 -48.905 -12.672  1.00  0.00    -0.000 C 
BRANCH  25  26
ATOM     26  C   UNL     1      40.484 -49.146 -12.697  1.00  0.00    -0.000 C 
BRANCH  26  27
ATOM     27  C   UNL     1      41.218 -48.768 -11.397  1.00  0.00    -0.000 C 
BRANCH  27  28
ATOM     28  C   UNL     1      41.942 -47.415 -11.490  1.00  0.00    -0.000 C 
BRANCH  28  29
ATOM     29  C   UNL     1      40.995 -46.227 -11.215  1.00  0.00    -0.000 C 
BRANCH  29  30
ATOM     30  C   UNL     1      40.078 -46.435  -9.994  1.00  0.00    -0.000 C 
BRANCH  30  31
ATOM     31  C   UNL     1      38.625 -45.977 -10.195  1.00  0.00    -0.003 C 
ATOM     32  C   UNL     1      38.466 -45.008 -11.367  1.00  0.00     0.004 C 
ENDBRANCH  30  31
ENDBRANCH  29  30
ENDBRANCH  28  29
ENDBRANCH  27  28
ENDBRANCH  26  27
ENDBRANCH  25  26
ENDBRANCH  24  25
ENDBRANCH  23  24
ENDBRANCH  22  23
ENDBRANCH  21  22
ENDBRANCH  20  21
ENDBRANCH  19  20
ENDBRANCH  18  19
ENDBRANCH   1  18
TORSDOF 28
ENDMDL
