MODEL 1
REMARK VINA RESULT:    -4.781      0.000      0.000
REMARK INTER + INTRA:          -5.565
REMARK INTER:                  -5.340
REMARK INTRA:                  -0.224
REMARK UNBOUND:                -0.224
REMARK SMILES O=C([O-])c1ccccc1C(=O)[O-]
REMARK SMILES IDX 4 1 9 2 5 3 8 4 6 5 7 6 2 7 1 8 3 9 10 10 11 11 12 12
REMARK H PARENT
REMARK Flexibility Score: inf
ROOT
ATOM      1  C   UNL     1      37.260  18.674   9.528  1.00  0.00     0.006 A 
ATOM      2  C   UNL     1      36.613  18.301  10.739  1.00  0.00     0.006 A 
ATOM      3  C   UNL     1      36.586  19.513   8.623  1.00  0.00     0.010 A 
ATOM      4  C   UNL     1      35.293  18.730  10.970  1.00  0.00     0.010 A 
ATOM      5  C   UNL     1      35.284  19.945   8.883  1.00  0.00     0.001 A 
ATOM      6  C   UNL     1      34.635  19.544  10.048  1.00  0.00     0.001 A 
ENDROOT
BRANCH   1   7
ATOM      7  C   UNL     1      38.593  18.160   9.135  1.00  0.00     0.072 C 
ATOM      8  O   UNL     1      38.708  17.058   8.537  1.00  0.00    -0.545 OA
ATOM      9  O   UNL     1      39.730  18.926   9.365  1.00  0.00    -0.545 OA
ENDBRANCH   1   7
BRANCH   2  10
ATOM     10  C   UNL     1      37.297  17.537  11.809  1.00  0.00     0.072 C 
ATOM     11  O   UNL     1      37.986  18.138  12.676  1.00  0.00    -0.545 OA
ATOM     12  O   UNL     1      37.242  16.149  11.835  1.00  0.00    -0.545 OA
ENDBRANCH   2  10
TORSDOF 2
ENDMDL
MODEL 2
REMARK VINA RESULT:    -4.781      0.081      3.156
REMARK INTER + INTRA:          -5.564
REMARK INTER:                  -5.340
REMARK INTRA:                  -0.225
REMARK UNBOUND:                -0.224
REMARK SMILES O=C([O-])c1ccccc1C(=O)[O-]
REMARK SMILES IDX 4 1 9 2 5 3 8 4 6 5 7 6 2 7 1 8 3 9 10 10 11 11 12 12
REMARK H PARENT
REMARK Flexibility Score: inf
ROOT
ATOM      1  C   UNL     1      36.680  18.359  10.752  1.00  0.00     0.006 A 
ATOM      2  C   UNL     1      37.290  18.705   9.514  1.00  0.00     0.006 A 
ATOM      3  C   UNL     1      35.365  18.788  11.009  1.00  0.00     0.010 A 
ATOM      4  C   UNL     1      36.587  19.520   8.607  1.00  0.00     0.010 A 
ATOM      5  C   UNL     1      34.677  19.577  10.085  1.00  0.00     0.001 A 
ATOM      6  C   UNL     1      35.291  19.952   8.893  1.00  0.00     0.001 A 
ENDROOT
BRANCH   1   7
ATOM      7  C   UNL     1      37.391  17.624  11.824  1.00  0.00     0.072 C 
ATOM      8  O   UNL     1      38.004  18.243  12.733  1.00  0.00    -0.545 OA
ATOM      9  O   UNL     1      37.332  16.236  11.873  1.00  0.00    -0.545 OA
ENDBRANCH   1   7
BRANCH   2  10
ATOM     10  C   UNL     1      38.614  18.183   9.101  1.00  0.00     0.072 C 
ATOM     11  O   UNL     1      38.707  17.053   8.551  1.00  0.00    -0.545 OA
ATOM     12  O   UNL     1      39.775  18.898   9.372  1.00  0.00    -0.545 OA
ENDBRANCH   2  10
TORSDOF 2
ENDMDL
MODEL 3
REMARK VINA RESULT:    -4.680      1.686      2.774
REMARK INTER + INTRA:          -5.451
REMARK INTER:                  -5.261
REMARK INTRA:                  -0.190
REMARK UNBOUND:                -0.224
REMARK SMILES O=C([O-])c1ccccc1C(=O)[O-]
REMARK SMILES IDX 4 1 9 2 5 3 8 4 6 5 7 6 2 7 1 8 3 9 10 10 11 11 12 12
REMARK H PARENT
REMARK Flexibility Score: inf
ROOT
ATOM      1  C   UNL     1      36.817  18.322  10.451  1.00  0.00     0.006 A 
ATOM      2  C   UNL     1      35.504  18.868  10.428  1.00  0.00     0.006 A 
ATOM      3  C   UNL     1      37.574  18.313   9.266  1.00  0.00     0.010 A 
ATOM      4  C   UNL     1      34.973  19.324   9.207  1.00  0.00     0.010 A 
ATOM      5  C   UNL     1      37.036  18.791   8.070  1.00  0.00     0.001 A 
ATOM      6  C   UNL     1      35.734  19.285   8.038  1.00  0.00     0.001 A 
ENDROOT
BRANCH   1   7
ATOM      7  C   UNL     1      37.408  17.694  11.656  1.00  0.00     0.072 C 
ATOM      8  O   UNL     1      37.357  16.447  11.823  1.00  0.00    -0.545 OA
ATOM      9  O   UNL     1      38.087  18.472  12.585  1.00  0.00    -0.545 OA
ENDBRANCH   1   7
BRANCH   2  10
ATOM     10  C   UNL     1      34.689  19.046  11.653  1.00  0.00     0.072 C 
ATOM     11  O   UNL     1      34.609  20.177  12.202  1.00  0.00    -0.545 OA
ATOM     12  O   UNL     1      34.058  17.960  12.250  1.00  0.00    -0.545 OA
ENDBRANCH   2  10
TORSDOF 2
ENDMDL
MODEL 4
REMARK VINA RESULT:    -4.678      1.655      3.411
REMARK INTER + INTRA:          -5.449
REMARK INTER:                  -5.249
REMARK INTRA:                  -0.200
REMARK UNBOUND:                -0.224
REMARK SMILES O=C([O-])c1ccccc1C(=O)[O-]
REMARK SMILES IDX 4 1 9 2 5 3 8 4 6 5 7 6 2 7 1 8 3 9 10 10 11 11 12 12
REMARK H PARENT
REMARK Flexibility Score: inf
ROOT
ATOM      1  C   UNL     1      35.571  18.768  10.432  1.00  0.00     0.006 A 
ATOM      2  C   UNL     1      36.883  18.219  10.417  1.00  0.00     0.006 A 
ATOM      3  C   UNL     1      35.016  19.243   9.229  1.00  0.00     0.010 A 
ATOM      4  C   UNL     1      37.615  18.224   9.215  1.00  0.00     0.010 A 
ATOM      5  C   UNL     1      35.751  19.217   8.044  1.00  0.00     0.001 A 
ATOM      6  C   UNL     1      37.052  18.720   8.039  1.00  0.00     0.001 A 
ENDROOT
BRANCH   1   7
ATOM      7  C   UNL     1      34.779  18.932  11.673  1.00  0.00     0.072 C 
ATOM      8  O   UNL     1      34.647  20.064  12.209  1.00  0.00    -0.545 OA
ATOM      9  O   UNL     1      34.114  17.842  12.224  1.00  0.00    -0.545 OA
ENDBRANCH   1   7
BRANCH   2  10
ATOM     10  C   UNL     1      37.493  17.572  11.603  1.00  0.00     0.072 C 
ATOM     11  O   UNL     1      37.307  16.345  11.821  1.00  0.00    -0.545 OA
ATOM     12  O   UNL     1      38.220  18.318  12.523  1.00  0.00    -0.545 OA
ENDBRANCH   2  10
TORSDOF 2
ENDMDL
MODEL 5
REMARK VINA RESULT:    -4.660      1.979      3.518
REMARK INTER + INTRA:          -5.429
REMARK INTER:                  -5.336
REMARK INTRA:                  -0.093
REMARK UNBOUND:                -0.224
REMARK SMILES O=C([O-])c1ccccc1C(=O)[O-]
REMARK SMILES IDX 4 1 9 2 5 3 8 4 6 5 7 6 2 7 1 8 3 9 10 10 11 11 12 12
REMARK H PARENT
REMARK Flexibility Score: inf
ROOT
ATOM      1  C   UNL     1      38.460  18.503  10.036  1.00  0.00     0.006 A 
ATOM      2  C   UNL     1      38.626  18.259  11.428  1.00  0.00     0.006 A 
ATOM      3  C   UNL     1      39.599  18.575   9.214  1.00  0.00     0.010 A 
ATOM      4  C   UNL     1      39.926  18.161  11.956  1.00  0.00     0.010 A 
ATOM      5  C   UNL     1      40.879  18.452   9.756  1.00  0.00     0.001 A 
ATOM      6  C   UNL     1      41.043  18.258  11.125  1.00  0.00     0.001 A 
ENDROOT
BRANCH   1   7
ATOM      7  C   UNL     1      37.139  18.757   9.414  1.00  0.00     0.072 C 
ATOM      8  O   UNL     1      36.835  19.905   8.995  1.00  0.00    -0.545 OA
ATOM      9  O   UNL     1      36.245  17.710   9.225  1.00  0.00    -0.545 OA
ENDBRANCH   1   7
BRANCH   2  10
ATOM     10  C   UNL     1      37.482  18.030  12.342  1.00  0.00     0.072 C 
ATOM     11  O   UNL     1      37.213  18.869  13.243  1.00  0.00    -0.545 OA
ATOM     12  O   UNL     1      36.734  16.861  12.264  1.00  0.00    -0.545 OA
ENDBRANCH   2  10
TORSDOF 2
ENDMDL
MODEL 6
REMARK VINA RESULT:    -4.649      1.525      3.327
REMARK INTER + INTRA:          -5.416
REMARK INTER:                  -5.326
REMARK INTRA:                  -0.090
REMARK UNBOUND:                -0.224
REMARK SMILES O=C([O-])c1ccccc1C(=O)[O-]
REMARK SMILES IDX 4 1 9 2 5 3 8 4 6 5 7 6 2 7 1 8 3 9 10 10 11 11 12 12
REMARK H PARENT
REMARK Flexibility Score: inf
ROOT
ATOM      1  C   UNL     1      35.327  19.035  11.642  1.00  0.00     0.006 A 
ATOM      2  C   UNL     1      35.849  18.846  10.333  1.00  0.00     0.006 A 
ATOM      3  C   UNL     1      34.288  19.964  11.837  1.00  0.00     0.010 A 
ATOM      4  C   UNL     1      35.358  19.638   9.279  1.00  0.00     0.010 A 
ATOM      5  C   UNL     1      33.800  20.723  10.772  1.00  0.00     0.001 A 
ATOM      6  C   UNL     1      34.342  20.570   9.499  1.00  0.00     0.001 A 
ENDROOT
BRANCH   1   7
ATOM      7  C   UNL     1      35.875  18.348  12.836  1.00  0.00     0.072 C 
ATOM      8  O   UNL     1      35.298  17.338  13.319  1.00  0.00    -0.545 OA
ATOM      9  O   UNL     1      37.072  18.776  13.397  1.00  0.00    -0.545 OA
ENDBRANCH   1   7
BRANCH   2  10
ATOM     10  C   UNL     1      36.844  17.795  10.011  1.00  0.00     0.072 C 
ATOM     11  O   UNL     1      37.908  18.093   9.407  1.00  0.00    -0.545 OA
ATOM     12  O   UNL     1      36.588  16.462  10.311  1.00  0.00    -0.545 OA
ENDBRANCH   2  10
TORSDOF 2
ENDMDL
MODEL 7
REMARK VINA RESULT:    -4.604      1.973      2.739
REMARK INTER + INTRA:          -5.367
REMARK INTER:                  -5.280
REMARK INTRA:                  -0.087
REMARK UNBOUND:                -0.224
REMARK SMILES O=C([O-])c1ccccc1C(=O)[O-]
REMARK SMILES IDX 4 1 9 2 5 3 8 4 6 5 7 6 2 7 1 8 3 9 10 10 11 11 12 12
REMARK H PARENT
REMARK Flexibility Score: inf
ROOT
ATOM      1  C   UNL     1      35.287  19.402   9.471  1.00  0.00     0.006 A 
ATOM      2  C   UNL     1      35.722  18.691  10.624  1.00  0.00     0.006 A 
ATOM      3  C   UNL     1      34.410  20.490   9.629  1.00  0.00     0.010 A 
ATOM      4  C   UNL     1      35.213  19.055  11.885  1.00  0.00     0.010 A 
ATOM      5  C   UNL     1      33.935  20.848  10.891  1.00  0.00     0.001 A 
ATOM      6  C   UNL     1      34.326  20.124  12.015  1.00  0.00     0.001 A 
ENDROOT
BRANCH   1   7
ATOM      7  C   UNL     1      35.659  19.006   8.092  1.00  0.00     0.072 C 
ATOM      8  O   UNL     1      36.847  19.116   7.689  1.00  0.00    -0.545 OA
ATOM      9  O   UNL     1      34.708  18.446   7.248  1.00  0.00    -0.545 OA
ENDBRANCH   1   7
BRANCH   2  10
ATOM     10  C   UNL     1      36.749  17.625  10.568  1.00  0.00     0.072 C 
ATOM     11  O   UNL     1      36.406  16.413  10.605  1.00  0.00    -0.545 OA
ATOM     12  O   UNL     1      38.101  17.943  10.539  1.00  0.00    -0.545 OA
ENDBRANCH   2  10
TORSDOF 2
ENDMDL
MODEL 8
REMARK VINA RESULT:    -4.597      1.445      2.046
REMARK INTER + INTRA:          -5.359
REMARK INTER:                  -5.185
REMARK INTRA:                  -0.174
REMARK UNBOUND:                -0.224
REMARK SMILES O=C([O-])c1ccccc1C(=O)[O-]
REMARK SMILES IDX 4 1 9 2 5 3 8 4 6 5 7 6 2 7 1 8 3 9 10 10 11 11 12 12
REMARK H PARENT
REMARK Flexibility Score: inf
ROOT
ATOM      1  C   UNL     1      36.171  18.881  10.256  1.00  0.00     0.006 A 
ATOM      2  C   UNL     1      35.470  18.991  11.489  1.00  0.00     0.006 A 
ATOM      3  C   UNL     1      35.705  19.598   9.139  1.00  0.00     0.010 A 
ATOM      4  C   UNL     1      34.294  19.762  11.542  1.00  0.00     0.010 A 
ATOM      5  C   UNL     1      34.549  20.374   9.219  1.00  0.00     0.001 A 
ATOM      6  C   UNL     1      33.838  20.447  10.414  1.00  0.00     0.001 A 
ENDROOT
BRANCH   1   7
ATOM      7  C   UNL     1      37.337  17.987  10.069  1.00  0.00     0.072 C 
ATOM      8  O   UNL     1      38.499  18.459   9.951  1.00  0.00    -0.545 OA
ATOM      9  O   UNL     1      37.167  16.607  10.087  1.00  0.00    -0.545 OA
ENDBRANCH   1   7
BRANCH   2  10
ATOM     10  C   UNL     1      35.964  18.386  12.748  1.00  0.00     0.072 C 
ATOM     11  O   UNL     1      35.343  17.425  13.276  1.00  0.00    -0.545 OA
ATOM     12  O   UNL     1      37.077  18.908  13.398  1.00  0.00    -0.545 OA
ENDBRANCH   2  10
TORSDOF 2
ENDMDL
MODEL 9
REMARK VINA RESULT:    -4.596      2.088      3.491
REMARK INTER + INTRA:          -5.357
REMARK INTER:                  -5.190
REMARK INTRA:                  -0.167
REMARK UNBOUND:                -0.224
REMARK SMILES O=C([O-])c1ccccc1C(=O)[O-]
REMARK SMILES IDX 4 1 9 2 5 3 8 4 6 5 7 6 2 7 1 8 3 9 10 10 11 11 12 12
REMARK H PARENT
REMARK Flexibility Score: inf
ROOT
ATOM      1  C   UNL     1      35.623  18.833  10.530  1.00  0.00     0.006 A 
ATOM      2  C   UNL     1      35.112  19.523   9.395  1.00  0.00     0.006 A 
ATOM      3  C   UNL     1      35.152  19.180  11.809  1.00  0.00     0.010 A 
ATOM      4  C   UNL     1      34.200  20.577   9.587  1.00  0.00     0.010 A 
ATOM      5  C   UNL     1      34.229  20.214  11.975  1.00  0.00     0.001 A 
ATOM      6  C   UNL     1      33.763  20.919  10.868  1.00  0.00     0.001 A 
ENDROOT
BRANCH   1   7
ATOM      7  C   UNL     1      36.687  17.806  10.438  1.00  0.00     0.072 C 
ATOM      8  O   UNL     1      36.404  16.580  10.485  1.00  0.00    -0.545 OA
ATOM      9  O   UNL     1      38.007  18.188  10.232  1.00  0.00    -0.545 OA
ENDBRANCH   1   7
BRANCH   2  10
ATOM     10  C   UNL     1      35.445  19.132   8.005  1.00  0.00     0.072 C 
ATOM     11  O   UNL     1      36.539  19.489   7.491  1.00  0.00    -0.545 OA
ATOM     12  O   UNL     1      34.532  18.428   7.228  1.00  0.00    -0.545 OA
ENDBRANCH   2  10
TORSDOF 2
ENDMDL
