MODEL 1
REMARK VINA RESULT:    -6.285      0.000      0.000
REMARK INTER + INTRA:          -8.327
REMARK INTER:                  -7.754
REMARK INTRA:                  -0.573
REMARK UNBOUND:                -0.573
REMARK SMILES COc1ccc(-c2cc3cc(O)c(OC)cc3o2)c(O)c1
REMARK SMILES IDX 7 1 8 2 9 3 10 4 11 5 13 6 16 7 17 8 18 9 6 10 3 11 21 12
REMARK SMILES IDX 4 13 19 14 5 15 2 16 1 17 20 18 12 20 14 22 15 23
REMARK H PARENT 20 19 12 21
REMARK Flexibility Score: inf
ROOT
ATOM      1  C   UNL     1       9.996  -2.591  31.362  1.00  0.00     0.139 A 
ATOM      2  C   UNL     1      10.900  -3.636  31.162  1.00  0.00     0.060 A 
ATOM      3  C   UNL     1      10.625  -4.089  29.895  1.00  0.00     0.025 A 
ATOM      4  C   UNL     1      11.196  -5.115  29.149  1.00  0.00     0.062 A 
ATOM      5  C   UNL     1      10.692  -5.348  27.852  1.00  0.00     0.158 A 
ATOM      6  C   UNL     1       9.636  -4.555  27.337  1.00  0.00     0.164 A 
ATOM      7  C   UNL     1       9.082  -3.519  28.131  1.00  0.00     0.098 A 
ATOM      8  C   UNL     1       9.606  -3.321  29.405  1.00  0.00     0.138 A 
ATOM      9  O   UNL     1       9.241  -2.426  30.291  1.00  0.00    -0.456 OA
ENDROOT
BRANCH   1  10
ATOM     10  C   UNL     1       9.904  -1.753  32.579  1.00  0.00     0.059 A 
ATOM     11  C   UNL     1       9.894  -0.109  34.877  1.00  0.00     0.122 A 
ATOM     12  C   UNL     1       8.985   0.126  33.830  1.00  0.00     0.093 A 
ATOM     13  C   UNL     1      10.792  -1.173  34.772  1.00  0.00     0.047 A 
ATOM     14  C   UNL     1       8.970  -0.694  32.696  1.00  0.00     0.130 A 
ATOM     15  C   UNL     1      10.799  -1.987  33.638  1.00  0.00     0.020 A 
BRANCH  11  16
ATOM     16  O   UNL     1       9.936   0.685  36.032  1.00  0.00    -0.497 OA
ATOM     17  C   UNL     1       9.557   2.057  36.079  1.00  0.00     0.278 C 
ENDBRANCH  11  16
BRANCH  14  18
ATOM     18  O   UNL     1       7.995  -0.445  31.727  1.00  0.00    -0.507 OA
ATOM     19  H   UNL     1       7.168   0.111  31.897  1.00  0.00     0.293 HD
ENDBRANCH  14  18
ENDBRANCH   1  10
BRANCH   5  20
ATOM     20  O   UNL     1      11.232  -6.364  27.067  1.00  0.00    -0.504 OA
ATOM     21  H   UNL     1      10.684  -7.176  26.801  1.00  0.00     0.293 HD
ENDBRANCH   5  20
BRANCH   6  22
ATOM     22  O   UNL     1       9.169  -4.826  26.041  1.00  0.00    -0.493 OA
ATOM     23  C   UNL     1       9.676  -4.213  24.860  1.00  0.00     0.278 C 
ENDBRANCH   6  22
TORSDOF 5
ENDMDL
MODEL 2
REMARK VINA RESULT:    -6.216      7.266      8.512
REMARK INTER + INTRA:          -8.242
REMARK INTER:                  -7.661
REMARK INTRA:                  -0.581
REMARK UNBOUND:                -0.573
REMARK SMILES COc1ccc(-c2cc3cc(O)c(OC)cc3o2)c(O)c1
REMARK SMILES IDX 7 1 8 2 9 3 10 4 11 5 13 6 16 7 17 8 18 9 6 10 3 11 21 12
REMARK SMILES IDX 4 13 19 14 5 15 2 16 1 17 20 18 12 20 14 22 15 23
REMARK H PARENT 20 19 12 21
REMARK Flexibility Score: inf
ROOT
ATOM      1  C   UNL     1      13.010   1.972  27.486  1.00  0.00     0.139 A 
ATOM      2  C   UNL     1      12.258   1.212  26.589  1.00  0.00     0.060 A 
ATOM      3  C   UNL     1      10.954   1.425  26.969  1.00  0.00     0.025 A 
ATOM      4  C   UNL     1       9.761   0.931  26.452  1.00  0.00     0.062 A 
ATOM      5  C   UNL     1       8.557   1.337  27.065  1.00  0.00     0.158 A 
ATOM      6  C   UNL     1       8.577   2.222  28.173  1.00  0.00     0.164 A 
ATOM      7  C   UNL     1       9.815   2.702  28.668  1.00  0.00     0.098 A 
ATOM      8  C   UNL     1      10.981   2.277  28.037  1.00  0.00     0.138 A 
ATOM      9  O   UNL     1      12.216   2.600  28.334  1.00  0.00    -0.456 OA
ENDROOT
BRANCH   1  10
ATOM     10  C   UNL     1      14.485   2.098  27.482  1.00  0.00     0.059 A 
ATOM     11  C   UNL     1      17.281   2.501  27.410  1.00  0.00     0.122 A 
ATOM     12  C   UNL     1      16.638   2.192  28.621  1.00  0.00     0.093 A 
ATOM     13  C   UNL     1      16.522   2.592  26.240  1.00  0.00     0.047 A 
ATOM     14  C   UNL     1      15.255   1.973  28.664  1.00  0.00     0.130 A 
ATOM     15  C   UNL     1      15.141   2.394  26.274  1.00  0.00     0.020 A 
BRANCH  11  16
ATOM     16  O   UNL     1      18.664   2.719  27.324  1.00  0.00    -0.497 OA
ATOM     17  C   UNL     1      19.625   2.144  28.204  1.00  0.00     0.278 C 
ENDBRANCH  11  16
BRANCH  14  18
ATOM     18  O   UNL     1      14.694   1.603  29.889  1.00  0.00    -0.507 OA
ATOM     19  H   UNL     1      15.220   1.547  30.750  1.00  0.00     0.293 HD
ENDBRANCH  14  18
ENDBRANCH   1  10
BRANCH   5  20
ATOM     20  O   UNL     1       7.337   0.869  26.584  1.00  0.00    -0.504 OA
ATOM     21  H   UNL     1       6.726   1.457  26.027  1.00  0.00     0.293 HD
ENDBRANCH   5  20
BRANCH   6  22
ATOM     22  O   UNL     1       7.353   2.596  28.749  1.00  0.00    -0.493 OA
ATOM     23  C   UNL     1       6.645   3.789  28.426  1.00  0.00     0.278 C 
ENDBRANCH   6  22
TORSDOF 5
ENDMDL
MODEL 3
REMARK VINA RESULT:    -6.182      6.266      7.690
REMARK INTER + INTRA:          -8.200
REMARK INTER:                  -7.610
REMARK INTRA:                  -0.590
REMARK UNBOUND:                -0.573
REMARK SMILES COc1ccc(-c2cc3cc(O)c(OC)cc3o2)c(O)c1
REMARK SMILES IDX 7 1 8 2 9 3 10 4 11 5 13 6 16 7 17 8 18 9 6 10 3 11 21 12
REMARK SMILES IDX 4 13 19 14 5 15 2 16 1 17 20 18 12 20 14 22 15 23
REMARK H PARENT 20 19 12 21
REMARK Flexibility Score: inf
ROOT
ATOM      1  C   UNL     1       7.472   1.999  28.741  1.00  0.00     0.139 A 
ATOM      2  C   UNL     1       7.632   1.692  27.389  1.00  0.00     0.060 A 
ATOM      3  C   UNL     1       7.116   2.780  26.727  1.00  0.00     0.025 A 
ATOM      4  C   UNL     1       6.997   3.048  25.367  1.00  0.00     0.062 A 
ATOM      5  C   UNL     1       6.414   4.275  24.985  1.00  0.00     0.158 A 
ATOM      6  C   UNL     1       5.968   5.196  25.966  1.00  0.00     0.164 A 
ATOM      7  C   UNL     1       6.109   4.883  27.341  1.00  0.00     0.098 A 
ATOM      8  C   UNL     1       6.688   3.663  27.678  1.00  0.00     0.138 A 
ATOM      9  O   UNL     1       6.909   3.187  28.879  1.00  0.00    -0.456 OA
ENDROOT
BRANCH   1  10
ATOM     10  C   UNL     1       7.896   1.146  29.875  1.00  0.00     0.059 A 
ATOM     11  C   UNL     1       8.871  -0.443  31.997  1.00  0.00     0.122 A 
ATOM     12  C   UNL     1       7.991   0.622  32.253  1.00  0.00     0.093 A 
ATOM     13  C   UNL     1       9.247  -0.715  30.679  1.00  0.00     0.047 A 
ATOM     14  C   UNL     1       7.488   1.404  31.206  1.00  0.00     0.130 A 
ATOM     15  C   UNL     1       8.766   0.069  29.629  1.00  0.00     0.020 A 
BRANCH  11  16
ATOM     16  O   UNL     1       9.391  -1.255  33.017  1.00  0.00    -0.497 OA
ATOM     17  C   UNL     1       9.421  -0.894  34.394  1.00  0.00     0.278 C 
ENDBRANCH  11  16
BRANCH  14  18
ATOM     18  O   UNL     1       6.564   2.402  31.527  1.00  0.00    -0.507 OA
ATOM     19  H   UNL     1       5.618   2.211  31.828  1.00  0.00     0.293 HD
ENDBRANCH  14  18
ENDBRANCH   1  10
BRANCH   5  20
ATOM     20  O   UNL     1       6.272   4.588  23.635  1.00  0.00    -0.504 OA
ATOM     21  H   UNL     1       7.055   4.528  22.992  1.00  0.00     0.293 HD
ENDBRANCH   5  20
BRANCH   6  22
ATOM     22  O   UNL     1       5.395   6.403  25.535  1.00  0.00    -0.493 OA
ATOM     23  C   UNL     1       4.761   7.344  26.395  1.00  0.00     0.278 C 
ENDBRANCH   6  22
TORSDOF 5
ENDMDL
MODEL 4
REMARK VINA RESULT:    -6.175      3.995      6.350
REMARK INTER + INTRA:          -8.192
REMARK INTER:                  -7.595
REMARK INTRA:                  -0.597
REMARK UNBOUND:                -0.573
REMARK SMILES COc1ccc(-c2cc3cc(O)c(OC)cc3o2)c(O)c1
REMARK SMILES IDX 7 1 8 2 9 3 10 4 11 5 13 6 16 7 17 8 18 9 6 10 3 11 21 12
REMARK SMILES IDX 4 13 19 14 5 15 2 16 1 17 20 18 12 20 14 22 15 23
REMARK H PARENT 20 19 12 21
REMARK Flexibility Score: inf
ROOT
ATOM      1  C   UNL     1       9.608  -1.712  28.608  1.00  0.00     0.139 A 
ATOM      2  C   UNL     1      10.214  -1.119  27.500  1.00  0.00     0.060 A 
ATOM      3  C   UNL     1       9.419  -0.035  27.214  1.00  0.00     0.025 A 
ATOM      4  C   UNL     1       9.517   0.930  26.217  1.00  0.00     0.062 A 
ATOM      5  C   UNL     1       8.532   1.940  26.176  1.00  0.00     0.158 A 
ATOM      6  C   UNL     1       7.481   1.958  27.128  1.00  0.00     0.164 A 
ATOM      7  C   UNL     1       7.420   0.955  28.128  1.00  0.00     0.098 A 
ATOM      8  C   UNL     1       8.409  -0.024  28.134  1.00  0.00     0.138 A 
ATOM      9  O   UNL     1       8.535  -1.029  28.965  1.00  0.00    -0.456 OA
ENDROOT
BRANCH   1  10
ATOM     10  C   UNL     1      10.101  -2.914  29.320  1.00  0.00     0.059 A 
ATOM     11  C   UNL     1      11.204  -5.151  30.645  1.00  0.00     0.122 A 
ATOM     12  C   UNL     1      10.335  -4.280  31.324  1.00  0.00     0.093 A 
ATOM     13  C   UNL     1      11.505  -4.904  29.303  1.00  0.00     0.047 A 
ATOM     14  C   UNL     1       9.769  -3.178  30.671  1.00  0.00     0.130 A 
ATOM     15  C   UNL     1      10.961  -3.799  28.647  1.00  0.00     0.020 A 
BRANCH  11  16
ATOM     16  O   UNL     1      11.785  -6.270  31.262  1.00  0.00    -0.497 OA
ATOM     17  C   UNL     1      12.868  -6.207  32.185  1.00  0.00     0.278 C 
ENDBRANCH  11  16
BRANCH  14  18
ATOM     18  O   UNL     1       8.860  -2.395  31.387  1.00  0.00    -0.507 OA
ATOM     19  H   UNL     1       9.077  -1.475  31.745  1.00  0.00     0.293 HD
ENDBRANCH  14  18
ENDBRANCH   1  10
BRANCH   5  20
ATOM     20  O   UNL     1       8.587   2.928  25.196  1.00  0.00    -0.504 OA
ATOM     21  H   UNL     1       8.120   3.820  25.316  1.00  0.00     0.293 HD
ENDBRANCH   5  20
BRANCH   6  22
ATOM     22  O   UNL     1       6.526   2.983  27.046  1.00  0.00    -0.493 OA
ATOM     23  C   UNL     1       6.581   4.194  27.792  1.00  0.00     0.278 C 
ENDBRANCH   6  22
TORSDOF 5
ENDMDL
MODEL 5
REMARK VINA RESULT:    -6.170      5.742      7.133
REMARK INTER + INTRA:          -8.185
REMARK INTER:                  -7.574
REMARK INTRA:                  -0.611
REMARK UNBOUND:                -0.573
REMARK SMILES COc1ccc(-c2cc3cc(O)c(OC)cc3o2)c(O)c1
REMARK SMILES IDX 7 1 8 2 9 3 10 4 11 5 13 6 16 7 17 8 18 9 6 10 3 11 21 12
REMARK SMILES IDX 4 13 19 14 5 15 2 16 1 17 20 18 12 20 14 22 15 23
REMARK H PARENT 20 19 12 21
REMARK Flexibility Score: inf
ROOT
ATOM      1  C   UNL     1       8.118   1.364  27.192  1.00  0.00     0.139 A 
ATOM      2  C   UNL     1       9.228   0.831  26.535  1.00  0.00     0.060 A 
ATOM      3  C   UNL     1       9.452  -0.372  27.161  1.00  0.00     0.025 A 
ATOM      4  C   UNL     1      10.421  -1.346  26.945  1.00  0.00     0.062 A 
ATOM      5  C   UNL     1      10.396  -2.496  27.762  1.00  0.00     0.158 A 
ATOM      6  C   UNL     1       9.408  -2.641  28.769  1.00  0.00     0.164 A 
ATOM      7  C   UNL     1       8.438  -1.624  28.955  1.00  0.00     0.098 A 
ATOM      8  C   UNL     1       8.497  -0.505  28.129  1.00  0.00     0.138 A 
ATOM      9  O   UNL     1       7.702   0.537  28.136  1.00  0.00    -0.456 OA
ENDROOT
BRANCH   1  10
ATOM     10  C   UNL     1       7.462   2.652  26.871  1.00  0.00     0.059 A 
ATOM     11  C   UNL     1       6.095   5.020  26.161  1.00  0.00     0.122 A 
ATOM     12  C   UNL     1       6.249   4.666  27.513  1.00  0.00     0.093 A 
ATOM     13  C   UNL     1       6.637   4.193  25.174  1.00  0.00     0.047 A 
ATOM     14  C   UNL     1       6.941   3.503  27.875  1.00  0.00     0.130 A 
ATOM     15  C   UNL     1       7.313   3.022  25.523  1.00  0.00     0.020 A 
BRANCH  11  16
ATOM     16  O   UNL     1       5.416   6.179  25.758  1.00  0.00    -0.497 OA
ATOM     17  C   UNL     1       5.068   7.251  26.629  1.00  0.00     0.278 C 
ENDBRANCH  11  16
BRANCH  14  18
ATOM     18  O   UNL     1       7.115   3.250  29.238  1.00  0.00    -0.507 OA
ATOM     19  H   UNL     1       6.925   3.929  29.961  1.00  0.00     0.293 HD
ENDBRANCH  14  18
ENDBRANCH   1  10
BRANCH   5  20
ATOM     20  O   UNL     1      11.346  -3.498  27.584  1.00  0.00    -0.504 OA
ATOM     21  H   UNL     1      12.070  -3.423  26.878  1.00  0.00     0.293 HD
ENDBRANCH   5  20
BRANCH   6  22
ATOM     22  O   UNL     1       9.425  -3.803  29.555  1.00  0.00    -0.493 OA
ATOM     23  C   UNL     1       9.987  -3.881  30.861  1.00  0.00     0.278 C 
ENDBRANCH   6  22
TORSDOF 5
ENDMDL
MODEL 6
REMARK VINA RESULT:    -6.144      5.955      6.673
REMARK INTER + INTRA:          -8.154
REMARK INTER:                  -7.588
REMARK INTRA:                  -0.565
REMARK UNBOUND:                -0.573
REMARK SMILES COc1ccc(-c2cc3cc(O)c(OC)cc3o2)c(O)c1
REMARK SMILES IDX 7 1 8 2 9 3 10 4 11 5 13 6 16 7 17 8 18 9 6 10 3 11 21 12
REMARK SMILES IDX 4 13 19 14 5 15 2 16 1 17 20 18 12 20 14 22 15 23
REMARK H PARENT 20 19 12 21
REMARK Flexibility Score: inf
ROOT
ATOM      1  C   UNL     1      12.102   2.531  31.641  1.00  0.00     0.139 A 
ATOM      2  C   UNL     1      11.493   2.756  30.405  1.00  0.00     0.060 A 
ATOM      3  C   UNL     1      12.506   2.600  29.490  1.00  0.00     0.025 A 
ATOM      4  C   UNL     1      12.506   2.706  28.103  1.00  0.00     0.062 A 
ATOM      5  C   UNL     1      13.724   2.486  27.424  1.00  0.00     0.158 A 
ATOM      6  C   UNL     1      14.903   2.168  28.145  1.00  0.00     0.164 A 
ATOM      7  C   UNL     1      14.857   2.070  29.559  1.00  0.00     0.098 A 
ATOM      8  C   UNL     1      13.638   2.295  30.192  1.00  0.00     0.138 A 
ATOM      9  O   UNL     1      13.384   2.252  31.477  1.00  0.00    -0.456 OA
ENDROOT
BRANCH   1  10
ATOM     10  C   UNL     1      11.422   2.559  32.955  1.00  0.00     0.059 A 
ATOM     11  C   UNL     1      10.144   2.441  35.472  1.00  0.00     0.122 A 
ATOM     12  C   UNL     1      11.286   3.240  35.292  1.00  0.00     0.093 A 
ATOM     13  C   UNL     1       9.640   1.718  34.388  1.00  0.00     0.047 A 
ATOM     14  C   UNL     1      11.916   3.319  34.043  1.00  0.00     0.130 A 
ATOM     15  C   UNL     1      10.270   1.775  33.144  1.00  0.00     0.020 A 
BRANCH  11  16
ATOM     16  O   UNL     1       9.480   2.341  36.704  1.00  0.00    -0.497 OA
ATOM     17  C   UNL     1       9.640   1.261  37.618  1.00  0.00     0.278 C 
ENDBRANCH  11  16
BRANCH  14  18
ATOM     18  O   UNL     1      13.005   4.185  33.919  1.00  0.00    -0.507 OA
ATOM     19  H   UNL     1      13.841   3.960  33.398  1.00  0.00     0.293 HD
ENDBRANCH  14  18
ENDBRANCH   1  10
BRANCH   5  20
ATOM     20  O   UNL     1      13.774   2.581  26.036  1.00  0.00    -0.504 OA
ATOM     21  H   UNL     1      12.944   2.775  25.487  1.00  0.00     0.293 HD
ENDBRANCH   5  20
BRANCH   6  22
ATOM     22  O   UNL     1      16.089   1.959  27.425  1.00  0.00    -0.493 OA
ATOM     23  C   UNL     1      17.341   2.554  27.748  1.00  0.00     0.278 C 
ENDBRANCH   6  22
TORSDOF 5
ENDMDL
MODEL 7
REMARK VINA RESULT:    -6.065      6.991      8.574
REMARK INTER + INTRA:          -8.056
REMARK INTER:                  -7.459
REMARK INTRA:                  -0.597
REMARK UNBOUND:                -0.573
REMARK SMILES COc1ccc(-c2cc3cc(O)c(OC)cc3o2)c(O)c1
REMARK SMILES IDX 7 1 8 2 9 3 10 4 11 5 13 6 16 7 17 8 18 9 6 10 3 11 21 12
REMARK SMILES IDX 4 13 19 14 5 15 2 16 1 17 20 18 12 20 14 22 15 23
REMARK H PARENT 20 19 12 21
REMARK Flexibility Score: inf
ROOT
ATOM      1  C   UNL     1      12.687   2.545  28.664  1.00  0.00     0.139 A 
ATOM      2  C   UNL     1      12.263   2.376  29.983  1.00  0.00     0.060 A 
ATOM      3  C   UNL     1      10.891   2.388  29.906  1.00  0.00     0.025 A 
ATOM      4  C   UNL     1       9.921   2.266  30.896  1.00  0.00     0.062 A 
ATOM      5  C   UNL     1       8.567   2.318  30.503  1.00  0.00     0.158 A 
ATOM      6  C   UNL     1       8.219   2.489  29.139  1.00  0.00     0.164 A 
ATOM      7  C   UNL     1       9.240   2.608  28.163  1.00  0.00     0.098 A 
ATOM      8  C   UNL     1      10.563   2.554  28.590  1.00  0.00     0.138 A 
ATOM      9  O   UNL     1      11.646   2.642  27.856  1.00  0.00    -0.456 OA
ENDROOT
BRANCH   1  10
ATOM     10  C   UNL     1      14.095   2.577  28.209  1.00  0.00     0.059 A 
ATOM     11  C   UNL     1      16.810   2.491  27.430  1.00  0.00     0.122 A 
ATOM     12  C   UNL     1      15.792   2.498  26.461  1.00  0.00     0.093 A 
ATOM     13  C   UNL     1      16.463   2.541  28.782  1.00  0.00     0.047 A 
ATOM     14  C   UNL     1      14.444   2.558  26.836  1.00  0.00     0.130 A 
ATOM     15  C   UNL     1      15.122   2.583  29.169  1.00  0.00     0.020 A 
BRANCH  11  16
ATOM     16  O   UNL     1      18.171   2.439  27.095  1.00  0.00    -0.497 OA
ATOM     17  C   UNL     1      19.234   2.698  28.006  1.00  0.00     0.278 C 
ENDBRANCH  11  16
BRANCH  14  18
ATOM     18  O   UNL     1      13.489   2.631  25.819  1.00  0.00    -0.507 OA
ATOM     19  H   UNL     1      12.495   2.543  25.979  1.00  0.00     0.293 HD
ENDBRANCH  14  18
ENDBRANCH   1  10
BRANCH   5  20
ATOM     20  O   UNL     1       7.560   2.201  31.458  1.00  0.00    -0.504 OA
ATOM     21  H   UNL     1       7.717   2.453  32.428  1.00  0.00     0.293 HD
ENDBRANCH   5  20
BRANCH   6  22
ATOM     22  O   UNL     1       6.858   2.533  28.799  1.00  0.00    -0.493 OA
ATOM     23  C   UNL     1       6.280   3.497  27.926  1.00  0.00     0.278 C 
ENDBRANCH   6  22
TORSDOF 5
ENDMDL
MODEL 8
REMARK VINA RESULT:    -6.049      5.053      6.846
REMARK INTER + INTRA:          -8.037
REMARK INTER:                  -7.413
REMARK INTRA:                  -0.623
REMARK UNBOUND:                -0.573
REMARK SMILES COc1ccc(-c2cc3cc(O)c(OC)cc3o2)c(O)c1
REMARK SMILES IDX 7 1 8 2 9 3 10 4 11 5 13 6 16 7 17 8 18 9 6 10 3 11 21 12
REMARK SMILES IDX 4 13 19 14 5 15 2 16 1 17 20 18 12 20 14 22 15 23
REMARK H PARENT 20 19 12 21
REMARK Flexibility Score: inf
ROOT
ATOM      1  C   UNL     1       8.059   0.777  28.829  1.00  0.00     0.139 A 
ATOM      2  C   UNL     1       8.449   0.912  30.162  1.00  0.00     0.060 A 
ATOM      3  C   UNL     1       8.887  -0.341  30.519  1.00  0.00     0.025 A 
ATOM      4  C   UNL     1       9.392  -0.821  31.723  1.00  0.00     0.062 A 
ATOM      5  C   UNL     1       9.766  -2.180  31.787  1.00  0.00     0.158 A 
ATOM      6  C   UNL     1       9.626  -3.019  30.652  1.00  0.00     0.164 A 
ATOM      7  C   UNL     1       9.107  -2.488  29.444  1.00  0.00     0.098 A 
ATOM      8  C   UNL     1       8.750  -1.143  29.422  1.00  0.00     0.138 A 
ATOM      9  O   UNL     1       8.256  -0.463  28.416  1.00  0.00    -0.456 OA
ENDROOT
BRANCH   1  10
ATOM     10  C   UNL     1       7.530   1.862  27.972  1.00  0.00     0.059 A 
ATOM     11  C   UNL     1       6.607   4.047  26.437  1.00  0.00     0.122 A 
ATOM     12  C   UNL     1       7.343   3.014  25.832  1.00  0.00     0.093 A 
ATOM     13  C   UNL     1       6.326   3.973  27.803  1.00  0.00     0.047 A 
ATOM     14  C   UNL     1       7.790   1.918  26.580  1.00  0.00     0.130 A 
ATOM     15  C   UNL     1       6.781   2.894  28.564  1.00  0.00     0.020 A 
BRANCH  11  16
ATOM     16  O   UNL     1       6.135   5.157  25.720  1.00  0.00    -0.497 OA
ATOM     17  C   UNL     1       5.336   6.195  26.280  1.00  0.00     0.278 C 
ENDBRANCH  11  16
BRANCH  14  18
ATOM     18  O   UNL     1       8.456   0.895  25.901  1.00  0.00    -0.507 OA
ATOM     19  H   UNL     1       8.199   0.580  24.976  1.00  0.00     0.293 HD
ENDBRANCH  14  18
ENDBRANCH   1  10
BRANCH   5  20
ATOM     20  O   UNL     1      10.276  -2.708  32.970  1.00  0.00    -0.504 OA
ATOM     21  H   UNL     1       9.713  -2.761  33.813  1.00  0.00     0.293 HD
ENDBRANCH   5  20
BRANCH   6  22
ATOM     22  O   UNL     1      10.012  -4.364  30.765  1.00  0.00    -0.493 OA
ATOM     23  C   UNL     1      11.243  -4.890  30.280  1.00  0.00     0.278 C 
ENDBRANCH   6  22
TORSDOF 5
ENDMDL
MODEL 9
REMARK VINA RESULT:    -6.008      4.020      5.864
REMARK INTER + INTRA:          -7.985
REMARK INTER:                  -7.377
REMARK INTRA:                  -0.608
REMARK UNBOUND:                -0.573
REMARK SMILES COc1ccc(-c2cc3cc(O)c(OC)cc3o2)c(O)c1
REMARK SMILES IDX 7 1 8 2 9 3 10 4 11 5 13 6 16 7 17 8 18 9 6 10 3 11 21 12
REMARK SMILES IDX 4 13 19 14 5 15 2 16 1 17 20 18 12 20 14 22 15 23
REMARK H PARENT 20 19 12 21
REMARK Flexibility Score: inf
ROOT
ATOM      1  C   UNL     1       8.961  -0.258  30.143  1.00  0.00     0.139 A 
ATOM      2  C   UNL     1       9.897  -0.088  31.163  1.00  0.00     0.060 A 
ATOM      3  C   UNL     1      10.280  -1.365  31.494  1.00  0.00     0.025 A 
ATOM      4  C   UNL     1      11.184  -1.829  32.444  1.00  0.00     0.062 A 
ATOM      5  C   UNL     1      11.370  -3.224  32.553  1.00  0.00     0.158 A 
ATOM      6  C   UNL     1      10.652  -4.113  31.715  1.00  0.00     0.164 A 
ATOM      7  C   UNL     1       9.740  -3.598  30.759  1.00  0.00     0.098 A 
ATOM      8  C   UNL     1       9.584  -2.217  30.683  1.00  0.00     0.138 A 
ATOM      9  O   UNL     1       8.801  -1.543  29.877  1.00  0.00    -0.456 OA
ENDROOT
BRANCH   1  10
ATOM     10  C   UNL     1       8.261   0.831  29.424  1.00  0.00     0.059 A 
ATOM     11  C   UNL     1       7.053   2.902  27.930  1.00  0.00     0.122 A 
ATOM     12  C   UNL     1       6.341   1.724  28.219  1.00  0.00     0.093 A 
ATOM     13  C   UNL     1       8.360   3.040  28.402  1.00  0.00     0.047 A 
ATOM     14  C   UNL     1       6.925   0.700  28.974  1.00  0.00     0.130 A 
ATOM     15  C   UNL     1       8.959   2.018  29.140  1.00  0.00     0.020 A 
BRANCH  11  16
ATOM     16  O   UNL     1       6.500   3.954  27.185  1.00  0.00    -0.497 OA
ATOM     17  C   UNL     1       6.589   4.068  25.768  1.00  0.00     0.278 C 
ENDBRANCH  11  16
BRANCH  14  18
ATOM     18  O   UNL     1       6.136  -0.411  29.282  1.00  0.00    -0.507 OA
ATOM     19  H   UNL     1       5.274  -0.634  28.802  1.00  0.00     0.293 HD
ENDBRANCH  14  18
ENDBRANCH   1  10
BRANCH   5  20
ATOM     20  O   UNL     1      12.264  -3.736  33.490  1.00  0.00    -0.504 OA
ATOM     21  H   UNL     1      13.268  -3.658  33.364  1.00  0.00     0.293 HD
ENDBRANCH   5  20
BRANCH   6  22
ATOM     22  O   UNL     1      10.872  -5.492  31.862  1.00  0.00    -0.493 OA
ATOM     23  C   UNL     1      11.567  -6.299  30.917  1.00  0.00     0.278 C 
ENDBRANCH   6  22
TORSDOF 5
ENDMDL
