MODEL 1
REMARK VINA RESULT:    -4.484      0.000      0.000
REMARK INTER + INTRA:          -6.770
REMARK INTER:                  -6.057
REMARK INTRA:                  -0.713
REMARK UNBOUND:                -0.713
REMARK SMILES CCCCCCC=CC(=O)[O-]
REMARK SMILES IDX 5 1 6 2 7 3 8 4 9 5 10 6 11 7 4 8 3 9 2 10 1 11
REMARK H PARENT
REMARK Flexibility Score: inf
ROOT
ATOM      1  C   UNL     1     -11.701 -25.742 -33.909  1.00  0.00     0.004 C 
ENDROOT
BRANCH   1   2
ATOM      2  C   UNL     1     -11.156 -25.815 -32.469  1.00  0.00     0.027 C 
BRANCH   2   3
ATOM      3  C   UNL     1     -12.242 -25.692 -31.432  1.00  0.00    -0.025 C 
ATOM      4  C   UNL     1     -12.702 -26.682 -30.649  1.00  0.00     0.020 C 
BRANCH   4   5
ATOM      5  C   UNL     1     -12.207 -28.073 -30.601  1.00  0.00     0.064 C 
ATOM      6  O   UNL     1     -11.072 -28.363 -30.144  1.00  0.00    -0.545 OA
ATOM      7  O   UNL     1     -13.035 -29.095 -31.046  1.00  0.00    -0.545 OA
ENDBRANCH   4   5
ENDBRANCH   2   3
ENDBRANCH   1   2
BRANCH   1   8
ATOM      8  C   UNL     1     -11.426 -27.001 -34.751  1.00  0.00     0.000 C 
BRANCH   8   9
ATOM      9  C   UNL     1     -12.376 -28.161 -34.420  1.00  0.00    -0.000 C 
BRANCH   9  10
ATOM     10  C   UNL     1     -13.811 -27.657 -34.227  1.00  0.00    -0.003 C 
ATOM     11  C   UNL     1     -14.554 -27.585 -35.558  1.00  0.00     0.004 C 
ENDBRANCH   9  10
ENDBRANCH   8   9
ENDBRANCH   1   8
TORSDOF 6
ENDMDL
MODEL 2
REMARK VINA RESULT:    -4.434      2.788      4.755
REMARK INTER + INTRA:          -6.703
REMARK INTER:                  -5.894
REMARK INTRA:                  -0.809
REMARK UNBOUND:                -0.713
REMARK SMILES CCCCCCC=CC(=O)[O-]
REMARK SMILES IDX 5 1 6 2 7 3 8 4 9 5 10 6 11 7 4 8 3 9 2 10 1 11
REMARK H PARENT
REMARK Flexibility Score: inf
ROOT
ATOM      1  C   UNL     1     -13.373 -27.740 -32.949  1.00  0.00     0.004 C 
ENDROOT
BRANCH   1   2
ATOM      2  C   UNL     1     -12.924 -28.244 -34.334  1.00  0.00     0.027 C 
BRANCH   2   3
ATOM      3  C   UNL     1     -11.569 -27.717 -34.731  1.00  0.00    -0.025 C 
ATOM      4  C   UNL     1     -11.300 -26.475 -35.165  1.00  0.00     0.020 C 
BRANCH   4   5
ATOM      5  C   UNL     1     -12.257 -25.356 -35.290  1.00  0.00     0.064 C 
ATOM      6  O   UNL     1     -13.014 -25.232 -36.287  1.00  0.00    -0.545 OA
ATOM      7  O   UNL     1     -12.345 -24.431 -34.259  1.00  0.00    -0.545 OA
ENDBRANCH   4   5
ENDBRANCH   2   3
ENDBRANCH   1   2
BRANCH   1   8
ATOM      8  C   UNL     1     -12.899 -28.618 -31.776  1.00  0.00     0.000 C 
BRANCH   8   9
ATOM      9  C   UNL     1     -11.737 -27.992 -30.992  1.00  0.00    -0.000 C 
BRANCH   9  10
ATOM     10  C   UNL     1     -11.710 -26.469 -31.174  1.00  0.00    -0.003 C 
ATOM     11  C   UNL     1     -10.317 -25.984 -31.565  1.00  0.00     0.004 C 
ENDBRANCH   9  10
ENDBRANCH   8   9
ENDBRANCH   1   8
TORSDOF 6
ENDMDL
MODEL 3
REMARK VINA RESULT:    -4.378      1.678      2.553
REMARK INTER + INTRA:          -6.626
REMARK INTER:                  -5.903
REMARK INTRA:                  -0.723
REMARK UNBOUND:                -0.713
REMARK SMILES CCCCCCC=CC(=O)[O-]
REMARK SMILES IDX 5 1 6 2 7 3 8 4 9 5 10 6 11 7 4 8 3 9 2 10 1 11
REMARK H PARENT
REMARK Flexibility Score: inf
ROOT
ATOM      1  C   UNL     1     -12.826 -27.901 -34.606  1.00  0.00     0.004 C 
ENDROOT
BRANCH   1   2
ATOM      2  C   UNL     1     -13.064 -28.142 -33.103  1.00  0.00     0.027 C 
BRANCH   2   3
ATOM      3  C   UNL     1     -13.271 -26.861 -32.336  1.00  0.00    -0.025 C 
ATOM      4  C   UNL     1     -12.382 -26.280 -31.516  1.00  0.00     0.020 C 
BRANCH   4   5
ATOM      5  C   UNL     1     -11.004 -26.738 -31.238  1.00  0.00     0.064 C 
ATOM      6  O   UNL     1      -9.995 -26.106 -31.642  1.00  0.00    -0.545 OA
ATOM      7  O   UNL     1     -10.820 -27.886 -30.479  1.00  0.00    -0.545 OA
ENDBRANCH   4   5
ENDBRANCH   2   3
ENDBRANCH   1   2
BRANCH   1   8
ATOM      8  C   UNL     1     -11.383 -27.496 -34.959  1.00  0.00     0.000 C 
BRANCH   8   9
ATOM      9  C   UNL     1     -11.261 -26.022 -35.375  1.00  0.00    -0.000 C 
BRANCH   9  10
ATOM     10  C   UNL     1     -12.615 -25.469 -35.836  1.00  0.00    -0.003 C 
ATOM     11  C   UNL     1     -12.650 -23.946 -35.737  1.00  0.00     0.004 C 
ENDBRANCH   9  10
ENDBRANCH   8   9
ENDBRANCH   1   8
TORSDOF 6
ENDMDL
MODEL 4
REMARK VINA RESULT:    -4.369      2.782      4.739
REMARK INTER + INTRA:          -6.614
REMARK INTER:                  -5.964
REMARK INTRA:                  -0.650
REMARK UNBOUND:                -0.713
REMARK SMILES CCCCCCC=CC(=O)[O-]
REMARK SMILES IDX 5 1 6 2 7 3 8 4 9 5 10 6 11 7 4 8 3 9 2 10 1 11
REMARK H PARENT
REMARK Flexibility Score: inf
ROOT
ATOM      1  C   UNL     1     -12.886 -28.683 -31.184  1.00  0.00     0.004 C 
ENDROOT
BRANCH   1   2
ATOM      2  C   UNL     1     -13.267 -28.001 -32.512  1.00  0.00     0.027 C 
BRANCH   2   3
ATOM      3  C   UNL     1     -12.297 -28.311 -33.623  1.00  0.00    -0.025 C 
ATOM      4  C   UNL     1     -12.434 -27.962 -34.912  1.00  0.00     0.020 C 
BRANCH   4   5
ATOM      5  C   UNL     1     -13.526 -27.158 -35.498  1.00  0.00     0.064 C 
ATOM      6  O   UNL     1     -13.357 -25.967 -35.866  1.00  0.00    -0.545 OA
ATOM      7  O   UNL     1     -14.771 -27.747 -35.677  1.00  0.00    -0.545 OA
ENDBRANCH   4   5
ENDBRANCH   2   3
ENDBRANCH   1   2
BRANCH   1   8
ATOM      8  C   UNL     1     -11.499 -28.285 -30.647  1.00  0.00     0.000 C 
BRANCH   8   9
ATOM      9  C   UNL     1     -11.378 -26.781 -30.361  1.00  0.00    -0.000 C 
BRANCH   9  10
ATOM     10  C   UNL     1     -10.295 -26.142 -31.239  1.00  0.00    -0.003 C 
ATOM     11  C   UNL     1     -10.895 -25.118 -32.198  1.00  0.00     0.004 C 
ENDBRANCH   9  10
ENDBRANCH   8   9
ENDBRANCH   1   8
TORSDOF 6
ENDMDL
MODEL 5
REMARK VINA RESULT:    -4.231      2.283      3.047
REMARK INTER + INTRA:          -6.428
REMARK INTER:                  -5.847
REMARK INTRA:                  -0.581
REMARK UNBOUND:                -0.713
REMARK SMILES CCCCCCC=CC(=O)[O-]
REMARK SMILES IDX 5 1 6 2 7 3 8 4 9 5 10 6 11 7 4 8 3 9 2 10 1 11
REMARK H PARENT
REMARK Flexibility Score: inf
ROOT
ATOM      1  C   UNL     1     -12.886 -28.529 -31.398  1.00  0.00     0.004 C 
ENDROOT
BRANCH   1   2
ATOM      2  C   UNL     1     -12.197 -27.513 -30.467  1.00  0.00     0.027 C 
BRANCH   2   3
ATOM      3  C   UNL     1     -10.708 -27.440 -30.689  1.00  0.00    -0.025 C 
ATOM      4  C   UNL     1     -10.046 -26.431 -31.276  1.00  0.00     0.020 C 
BRANCH   4   5
ATOM      5  C   UNL     1     -10.623 -25.165 -31.773  1.00  0.00     0.064 C 
ATOM      6  O   UNL     1     -10.538 -24.091 -31.124  1.00  0.00    -0.545 OA
ATOM      7  O   UNL     1     -11.253 -25.156 -33.010  1.00  0.00    -0.545 OA
ENDBRANCH   4   5
ENDBRANCH   2   3
ENDBRANCH   1   2
BRANCH   1   8
ATOM      8  C   UNL     1     -13.321 -27.947 -32.755  1.00  0.00     0.000 C 
BRANCH   8   9
ATOM      9  C   UNL     1     -12.407 -28.376 -33.911  1.00  0.00    -0.000 C 
BRANCH   9  10
ATOM     10  C   UNL     1     -12.853 -27.736 -35.230  1.00  0.00    -0.003 C 
ATOM     11  C   UNL     1     -14.371 -27.579 -35.282  1.00  0.00     0.004 C 
ENDBRANCH   9  10
ENDBRANCH   8   9
ENDBRANCH   1   8
TORSDOF 6
ENDMDL
MODEL 6
REMARK VINA RESULT:    -4.120      2.030      3.572
REMARK INTER + INTRA:          -6.278
REMARK INTER:                  -5.568
REMARK INTRA:                  -0.710
REMARK UNBOUND:                -0.713
REMARK SMILES CCCCCCC=CC(=O)[O-]
REMARK SMILES IDX 5 1 6 2 7 3 8 4 9 5 10 6 11 7 4 8 3 9 2 10 1 11
REMARK H PARENT
REMARK Flexibility Score: inf
ROOT
ATOM      1  C   UNL     1     -13.095 -27.429 -35.208  1.00  0.00     0.004 C 
ENDROOT
BRANCH   1   2
ATOM      2  C   UNL     1     -11.852 -26.519 -35.157  1.00  0.00     0.027 C 
BRANCH   2   3
ATOM      3  C   UNL     1     -12.206 -25.063 -34.995  1.00  0.00    -0.025 C 
ATOM      4  C   UNL     1     -12.219 -24.377 -33.841  1.00  0.00     0.020 C 
BRANCH   4   5
ATOM      5  C   UNL     1     -11.837 -24.885 -32.506  1.00  0.00     0.064 C 
ATOM      6  O   UNL     1     -10.646 -25.163 -32.212  1.00  0.00    -0.545 OA
ATOM      7  O   UNL     1     -12.821 -25.030 -31.538  1.00  0.00    -0.545 OA
ENDBRANCH   4   5
ENDBRANCH   2   3
ENDBRANCH   1   2
BRANCH   1   8
ATOM      8  C   UNL     1     -13.599 -27.884 -33.826  1.00  0.00     0.000 C 
BRANCH   8   9
ATOM      9  C   UNL     1     -12.483 -28.455 -32.940  1.00  0.00    -0.000 C 
BRANCH   9  10
ATOM     10  C   UNL     1     -12.935 -28.543 -31.478  1.00  0.00    -0.003 C 
ATOM     11  C   UNL     1     -11.765 -28.316 -30.524  1.00  0.00     0.004 C 
ENDBRANCH   9  10
ENDBRANCH   8   9
ENDBRANCH   1   8
TORSDOF 6
ENDMDL
MODEL 7
REMARK VINA RESULT:    -4.102      2.558      4.378
REMARK INTER + INTRA:          -6.254
REMARK INTER:                  -5.599
REMARK INTRA:                  -0.655
REMARK UNBOUND:                -0.713
REMARK SMILES CCCCCCC=CC(=O)[O-]
REMARK SMILES IDX 5 1 6 2 7 3 8 4 9 5 10 6 11 7 4 8 3 9 2 10 1 11
REMARK H PARENT
REMARK Flexibility Score: inf
ROOT
ATOM      1  C   UNL     1     -11.259 -25.367 -31.805  1.00  0.00     0.004 C 
ENDROOT
BRANCH   1   2
ATOM      2  C   UNL     1     -11.789 -25.403 -33.251  1.00  0.00     0.027 C 
BRANCH   2   3
ATOM      3  C   UNL     1     -11.447 -26.686 -33.963  1.00  0.00    -0.025 C 
ATOM      4  C   UNL     1     -12.197 -27.298 -34.894  1.00  0.00     0.020 C 
BRANCH   4   5
ATOM      5  C   UNL     1     -13.478 -26.817 -35.452  1.00  0.00     0.064 C 
ATOM      6  O   UNL     1     -14.563 -27.421 -35.254  1.00  0.00    -0.545 OA
ATOM      7  O   UNL     1     -13.487 -25.642 -36.193  1.00  0.00    -0.545 OA
ENDBRANCH   4   5
ENDBRANCH   2   3
ENDBRANCH   1   2
BRANCH   1   8
ATOM      8  C   UNL     1     -10.455 -26.616 -31.399  1.00  0.00     0.000 C 
BRANCH   8   9
ATOM      9  C   UNL     1     -11.038 -27.328 -30.169  1.00  0.00    -0.000 C 
BRANCH   9  10
ATOM     10  C   UNL     1     -12.557 -27.489 -30.298  1.00  0.00    -0.003 C 
ATOM     11  C   UNL     1     -12.913 -28.729 -31.115  1.00  0.00     0.004 C 
ENDBRANCH   9  10
ENDBRANCH   8   9
ENDBRANCH   1   8
TORSDOF 6
ENDMDL
MODEL 8
REMARK VINA RESULT:    -4.099      2.306      3.670
REMARK INTER + INTRA:          -6.250
REMARK INTER:                  -5.799
REMARK INTRA:                  -0.451
REMARK UNBOUND:                -0.713
REMARK SMILES CCCCCCC=CC(=O)[O-]
REMARK SMILES IDX 5 1 6 2 7 3 8 4 9 5 10 6 11 7 4 8 3 9 2 10 1 11
REMARK H PARENT
REMARK Flexibility Score: inf
ROOT
ATOM      1  C   UNL     1     -11.212 -26.073 -35.366  1.00  0.00     0.004 C 
ENDROOT
BRANCH   1   2
ATOM      2  C   UNL     1     -11.525 -27.554 -35.080  1.00  0.00     0.027 C 
BRANCH   2   3
ATOM      3  C   UNL     1     -13.002 -27.819 -34.945  1.00  0.00    -0.025 C 
ATOM      4  C   UNL     1     -13.706 -27.809 -33.802  1.00  0.00     0.020 C 
BRANCH   4   5
ATOM      5  C   UNL     1     -13.196 -27.483 -32.454  1.00  0.00     0.064 C 
ATOM      6  O   UNL     1     -13.012 -26.297 -32.077  1.00  0.00    -0.545 OA
ATOM      7  O   UNL     1     -12.942 -28.519 -31.564  1.00  0.00    -0.545 OA
ENDBRANCH   4   5
ENDBRANCH   2   3
ENDBRANCH   1   2
BRANCH   1   8
ATOM      8  C   UNL     1     -12.414 -25.265 -35.888  1.00  0.00     0.000 C 
BRANCH   8   9
ATOM      9  C   UNL     1     -12.780 -24.084 -34.978  1.00  0.00    -0.000 C 
BRANCH   9  10
ATOM     10  C   UNL     1     -12.533 -22.747 -35.687  1.00  0.00    -0.003 C 
ATOM     11  C   UNL     1     -13.099 -21.581 -34.881  1.00  0.00     0.004 C 
ENDBRANCH   9  10
ENDBRANCH   8   9
ENDBRANCH   1   8
TORSDOF 6
ENDMDL
MODEL 9
REMARK VINA RESULT:    -4.010      2.863      4.738
REMARK INTER + INTRA:          -6.129
REMARK INTER:                  -5.458
REMARK INTRA:                  -0.671
REMARK UNBOUND:                -0.713
REMARK SMILES CCCCCCC=CC(=O)[O-]
REMARK SMILES IDX 5 1 6 2 7 3 8 4 9 5 10 6 11 7 4 8 3 9 2 10 1 11
REMARK H PARENT
REMARK Flexibility Score: inf
ROOT
ATOM      1  C   UNL     1     -12.588 -28.147 -32.715  1.00  0.00     0.004 C 
ENDROOT
BRANCH   1   2
ATOM      2  C   UNL     1     -13.793 -27.389 -33.304  1.00  0.00     0.027 C 
BRANCH   2   3
ATOM      3  C   UNL     1     -13.978 -27.650 -34.777  1.00  0.00    -0.025 C 
ATOM      4  C   UNL     1     -13.460 -26.923 -35.780  1.00  0.00     0.020 C 
BRANCH   4   5
ATOM      5  C   UNL     1     -12.560 -25.758 -35.652  1.00  0.00     0.064 C 
ATOM      6  O   UNL     1     -12.976 -24.576 -35.766  1.00  0.00    -0.545 OA
ATOM      7  O   UNL     1     -11.219 -25.975 -35.367  1.00  0.00    -0.545 OA
ENDBRANCH   4   5
ENDBRANCH   2   3
ENDBRANCH   1   2
BRANCH   1   8
ATOM      8  C   UNL     1     -11.886 -27.411 -31.559  1.00  0.00     0.000 C 
BRANCH   8   9
ATOM      9  C   UNL     1     -10.754 -26.489 -32.037  1.00  0.00    -0.000 C 
BRANCH   9  10
ATOM     10  C   UNL     1     -10.947 -25.064 -31.506  1.00  0.00    -0.003 C 
ATOM     11  C   UNL     1     -12.095 -24.359 -32.224  1.00  0.00     0.004 C 
ENDBRANCH   9  10
ENDBRANCH   8   9
ENDBRANCH   1   8
TORSDOF 6
ENDMDL
