MODEL 1
REMARK VINA RESULT:    -3.405      0.000      0.000
REMARK INTER + INTRA:          -6.761
REMARK INTER:                  -5.992
REMARK INTRA:                  -0.768
REMARK UNBOUND:                -0.768
REMARK SMILES CCCCCCC=CCCCCCCCC(=O)[O-]
REMARK SMILES IDX 10 1 11 2 12 3 13 4 14 5 15 6 16 7 17 8 18 9 9 10 8 11 7 12
REMARK SMILES IDX 6 13 5 14 4 15 3 16 2 17 1 18
REMARK H PARENT
REMARK Flexibility Score: inf
ROOT
ATOM      1  C   UNL     1     -21.462   2.818   8.822  1.00  0.00     0.004 C 
ENDROOT
BRANCH   1   2
ATOM      2  C   UNL     1     -21.922   1.853   9.926  1.00  0.00     0.000 C 
BRANCH   2   3
ATOM      3  C   UNL     1     -21.109   2.005  11.224  1.00  0.00     0.000 C 
BRANCH   3   4
ATOM      4  C   UNL     1     -21.819   1.394  12.443  1.00  0.00     0.000 C 
BRANCH   4   5
ATOM      5  C   UNL     1     -20.834   0.834  13.480  1.00  0.00     0.006 C 
BRANCH   5   6
ATOM      6  C   UNL     1     -21.314  -0.518  14.017  1.00  0.00     0.053 C 
BRANCH   6   7
ATOM      7  C   UNL     1     -20.877  -1.626  13.111  1.00  0.00     0.041 C 
ATOM      8  O   UNL     1     -20.094  -1.389  12.153  1.00  0.00    -0.550 OA
ATOM      9  O   UNL     1     -21.291  -2.928  13.356  1.00  0.00    -0.550 OA
ENDBRANCH   6   7
ENDBRANCH   5   6
ENDBRANCH   4   5
ENDBRANCH   3   4
ENDBRANCH   2   3
ENDBRANCH   1   2
BRANCH   1  10
ATOM     10  C   UNL     1     -20.740   2.098   7.673  1.00  0.00     0.027 C 
BRANCH  10  11
ATOM     11  C   UNL     1     -20.411   0.678   8.046  1.00  0.00    -0.031 C 
ATOM     12  C   UNL     1     -20.449  -0.312   7.142  1.00  0.00    -0.031 C 
BRANCH  12  13
ATOM     13  C   UNL     1     -20.115  -1.731   7.514  1.00  0.00     0.027 C 
BRANCH  13  14
ATOM     14  C   UNL     1     -19.824  -1.855   9.017  1.00  0.00     0.004 C 
BRANCH  14  15
ATOM     15  C   UNL     1     -19.326  -3.255   9.411  1.00  0.00     0.000 C 
BRANCH  15  16
ATOM     16  C   UNL     1     -19.292  -4.226   8.220  1.00  0.00    -0.000 C 
BRANCH  16  17
ATOM     17  C   UNL     1     -19.365  -5.681   8.699  1.00  0.00    -0.003 C 
ATOM     18  C   UNL     1     -20.809  -6.104   8.957  1.00  0.00     0.004 C 
ENDBRANCH  16  17
ENDBRANCH  15  16
ENDBRANCH  14  15
ENDBRANCH  13  14
ENDBRANCH  12  13
ENDBRANCH  10  11
ENDBRANCH   1  10
TORSDOF 13
ENDMDL
MODEL 2
REMARK VINA RESULT:    -3.338      1.076      1.957
REMARK INTER + INTRA:          -6.643
REMARK INTER:                  -5.383
REMARK INTRA:                  -1.260
REMARK UNBOUND:                -0.768
REMARK SMILES CCCCCCC=CCCCCCCCC(=O)[O-]
REMARK SMILES IDX 10 1 11 2 12 3 13 4 14 5 15 6 16 7 17 8 18 9 9 10 8 11 7 12
REMARK SMILES IDX 6 13 5 14 4 15 3 16 2 17 1 18
REMARK H PARENT
REMARK Flexibility Score: inf
ROOT
ATOM      1  C   UNL     1     -20.051   1.397   7.632  1.00  0.00     0.004 C 
ENDROOT
BRANCH   1   2
ATOM      2  C   UNL     1     -21.213   2.326   8.018  1.00  0.00     0.000 C 
BRANCH   2   3
ATOM      3  C   UNL     1     -21.243   2.643   9.524  1.00  0.00     0.000 C 
BRANCH   3   4
ATOM      4  C   UNL     1     -21.994   1.578  10.338  1.00  0.00     0.000 C 
BRANCH   4   5
ATOM      5  C   UNL     1     -21.078   0.830  11.319  1.00  0.00     0.006 C 
BRANCH   5   6
ATOM      6  C   UNL     1     -21.485   1.110  12.769  1.00  0.00     0.053 C 
BRANCH   6   7
ATOM      7  C   UNL     1     -21.039  -0.005  13.662  1.00  0.00     0.041 C 
ATOM      8  O   UNL     1     -20.769   0.221  14.872  1.00  0.00    -0.550 OA
ATOM      9  O   UNL     1     -20.973  -1.303  13.174  1.00  0.00    -0.550 OA
ENDBRANCH   6   7
ENDBRANCH   5   6
ENDBRANCH   4   5
ENDBRANCH   3   4
ENDBRANCH   2   3
ENDBRANCH   1   2
BRANCH   1  10
ATOM     10  C   UNL     1     -20.503   0.222   6.752  1.00  0.00     0.027 C 
BRANCH  10  11
ATOM     11  C   UNL     1     -20.628  -1.041   7.558  1.00  0.00    -0.031 C 
ATOM     12  C   UNL     1     -20.141  -1.130   8.805  1.00  0.00    -0.031 C 
BRANCH  12  13
ATOM     13  C   UNL     1     -20.270  -2.393   9.612  1.00  0.00     0.027 C 
BRANCH  13  14
ATOM     14  C   UNL     1     -18.976  -3.219   9.559  1.00  0.00     0.004 C 
BRANCH  14  15
ATOM     15  C   UNL     1     -18.935  -4.181   8.361  1.00  0.00     0.000 C 
BRANCH  15  16
ATOM     16  C   UNL     1     -19.265  -5.628   8.756  1.00  0.00    -0.000 C 
BRANCH  16  17
ATOM     17  C   UNL     1     -20.679  -6.010   8.303  1.00  0.00    -0.003 C 
ATOM     18  C   UNL     1     -21.598  -6.244   9.499  1.00  0.00     0.004 C 
ENDBRANCH  16  17
ENDBRANCH  15  16
ENDBRANCH  14  15
ENDBRANCH  13  14
ENDBRANCH  12  13
ENDBRANCH  10  11
ENDBRANCH   1  10
TORSDOF 13
ENDMDL
MODEL 3
REMARK VINA RESULT:    -3.222      2.010      5.280
REMARK INTER + INTRA:          -6.439
REMARK INTER:                  -5.278
REMARK INTRA:                  -1.162
REMARK UNBOUND:                -0.768
REMARK SMILES CCCCCCC=CCCCCCCCC(=O)[O-]
REMARK SMILES IDX 10 1 11 2 12 3 13 4 14 5 15 6 16 7 17 8 18 9 9 10 8 11 7 12
REMARK SMILES IDX 6 13 5 14 4 15 3 16 2 17 1 18
REMARK H PARENT
REMARK Flexibility Score: inf
ROOT
ATOM      1  C   UNL     1     -19.892   0.930   7.434  1.00  0.00     0.004 C 
ENDROOT
BRANCH   1   2
ATOM      2  C   UNL     1     -20.685  -0.201   6.760  1.00  0.00     0.000 C 
BRANCH   2   3
ATOM      3  C   UNL     1     -20.352  -1.587   7.342  1.00  0.00     0.000 C 
BRANCH   3   4
ATOM      4  C   UNL     1     -19.959  -1.526   8.827  1.00  0.00     0.000 C 
BRANCH   4   5
ATOM      5  C   UNL     1     -19.858  -2.919   9.467  1.00  0.00     0.006 C 
BRANCH   5   6
ATOM      6  C   UNL     1     -18.928  -3.828   8.657  1.00  0.00     0.053 C 
BRANCH   6   7
ATOM      7  C   UNL     1     -19.455  -5.228   8.633  1.00  0.00     0.041 C 
ATOM      8  O   UNL     1     -18.833  -6.128   8.010  1.00  0.00    -0.550 OA
ATOM      9  O   UNL     1     -20.603  -5.550   9.345  1.00  0.00    -0.550 OA
ENDBRANCH   6   7
ENDBRANCH   5   6
ENDBRANCH   4   5
ENDBRANCH   3   4
ENDBRANCH   2   3
ENDBRANCH   1   2
BRANCH   1  10
ATOM     10  C   UNL     1     -20.736   2.196   7.647  1.00  0.00     0.027 C 
BRANCH  10  11
ATOM     11  C   UNL     1     -21.493   2.131   8.945  1.00  0.00    -0.031 C 
ATOM     12  C   UNL     1     -21.052   1.399   9.979  1.00  0.00    -0.031 C 
BRANCH  12  13
ATOM     13  C   UNL     1     -21.807   1.337  11.278  1.00  0.00     0.027 C 
BRANCH  13  14
ATOM     14  C   UNL     1     -20.910   1.738  12.459  1.00  0.00     0.004 C 
BRANCH  14  15
ATOM     15  C   UNL     1     -21.410   1.176  13.800  1.00  0.00     0.000 C 
BRANCH  15  16
ATOM     16  C   UNL     1     -20.574  -0.016  14.289  1.00  0.00    -0.000 C 
BRANCH  16  17
ATOM     17  C   UNL     1     -21.260  -1.343  13.945  1.00  0.00    -0.003 C 
ATOM     18  C   UNL     1     -20.629  -1.987  12.713  1.00  0.00     0.004 C 
ENDBRANCH  16  17
ENDBRANCH  15  16
ENDBRANCH  14  15
ENDBRANCH  13  14
ENDBRANCH  12  13
ENDBRANCH  10  11
ENDBRANCH   1  10
TORSDOF 13
ENDMDL
MODEL 4
REMARK VINA RESULT:    -3.164      1.802      5.676
REMARK INTER + INTRA:          -6.338
REMARK INTER:                  -5.488
REMARK INTRA:                  -0.850
REMARK UNBOUND:                -0.768
REMARK SMILES CCCCCCC=CCCCCCCCC(=O)[O-]
REMARK SMILES IDX 10 1 11 2 12 3 13 4 14 5 15 6 16 7 17 8 18 9 9 10 8 11 7 12
REMARK SMILES IDX 6 13 5 14 4 15 3 16 2 17 1 18
REMARK H PARENT
REMARK Flexibility Score: inf
ROOT
ATOM      1  C   UNL     1     -19.580  -2.924   8.760  1.00  0.00     0.004 C 
ENDROOT
BRANCH   1   2
ATOM      2  C   UNL     1     -19.353  -2.092  10.032  1.00  0.00     0.000 C 
BRANCH   2   3
ATOM      3  C   UNL     1     -20.491  -2.254  11.057  1.00  0.00     0.000 C 
BRANCH   3   4
ATOM      4  C   UNL     1     -20.069  -1.850  12.478  1.00  0.00     0.000 C 
BRANCH   4   5
ATOM      5  C   UNL     1     -21.268  -1.519  13.378  1.00  0.00     0.006 C 
BRANCH   5   6
ATOM      6  C   UNL     1     -20.985  -0.279  14.233  1.00  0.00     0.053 C 
BRANCH   6   7
ATOM      7  C   UNL     1     -21.176   0.967  13.426  1.00  0.00     0.041 C 
ATOM      8  O   UNL     1     -20.649   2.049  13.797  1.00  0.00    -0.550 OA
ATOM      9  O   UNL     1     -21.891   0.922  12.237  1.00  0.00    -0.550 OA
ENDBRANCH   6   7
ENDBRANCH   5   6
ENDBRANCH   4   5
ENDBRANCH   3   4
ENDBRANCH   2   3
ENDBRANCH   1   2
BRANCH   1  10
ATOM     10  C   UNL     1     -20.054  -2.071   7.574  1.00  0.00     0.027 C 
BRANCH  10  11
ATOM     11  C   UNL     1     -20.440  -0.688   8.022  1.00  0.00    -0.031 C 
ATOM     12  C   UNL     1     -20.334   0.370   7.204  1.00  0.00    -0.031 C 
BRANCH  12  13
ATOM     13  C   UNL     1     -20.724   1.753   7.651  1.00  0.00     0.027 C 
BRANCH  13  14
ATOM     14  C   UNL     1     -21.211   1.747   9.108  1.00  0.00     0.004 C 
BRANCH  14  15
ATOM     15  C   UNL     1     -21.964   3.032   9.486  1.00  0.00     0.000 C 
BRANCH  15  16
ATOM     16  C   UNL     1     -21.775   4.153   8.453  1.00  0.00    -0.000 C 
BRANCH  16  17
ATOM     17  C   UNL     1     -21.759   5.527   9.133  1.00  0.00    -0.003 C 
ATOM     18  C   UNL     1     -20.402   5.811   9.770  1.00  0.00     0.004 C 
ENDBRANCH  16  17
ENDBRANCH  15  16
ENDBRANCH  14  15
ENDBRANCH  13  14
ENDBRANCH  12  13
ENDBRANCH  10  11
ENDBRANCH   1  10
TORSDOF 13
ENDMDL
MODEL 5
REMARK VINA RESULT:    -3.081      2.206      4.403
REMARK INTER + INTRA:          -6.191
REMARK INTER:                  -5.162
REMARK INTRA:                  -1.028
REMARK UNBOUND:                -0.768
REMARK SMILES CCCCCCC=CCCCCCCCC(=O)[O-]
REMARK SMILES IDX 10 1 11 2 12 3 13 4 14 5 15 6 16 7 17 8 18 9 9 10 8 11 7 12
REMARK SMILES IDX 6 13 5 14 4 15 3 16 2 17 1 18
REMARK H PARENT
REMARK Flexibility Score: inf
ROOT
ATOM      1  C   UNL     1     -20.815   0.702  13.704  1.00  0.00     0.004 C 
ENDROOT
BRANCH   1   2
ATOM      2  C   UNL     1     -21.759   1.038  12.539  1.00  0.00     0.000 C 
BRANCH   2   3
ATOM      3  C   UNL     1     -21.124   2.004  11.522  1.00  0.00     0.000 C 
BRANCH   3   4
ATOM      4  C   UNL     1     -21.659   1.797  10.096  1.00  0.00     0.000 C 
BRANCH   4   5
ATOM      5  C   UNL     1     -20.838   0.771   9.301  1.00  0.00     0.006 C 
BRANCH   5   6
ATOM      6  C   UNL     1     -20.567   1.270   7.878  1.00  0.00     0.053 C 
BRANCH   6   7
ATOM      7  C   UNL     1     -20.354   0.116   6.950  1.00  0.00     0.041 C 
ATOM      8  O   UNL     1     -19.274   0.007   6.313  1.00  0.00    -0.550 OA
ATOM      9  O   UNL     1     -21.326  -0.868   6.831  1.00  0.00    -0.550 OA
ENDBRANCH   6   7
ENDBRANCH   5   6
ENDBRANCH   4   5
ENDBRANCH   3   4
ENDBRANCH   2   3
ENDBRANCH   1   2
BRANCH   1  10
ATOM     10  C   UNL     1     -20.970  -0.748  14.189  1.00  0.00     0.027 C 
BRANCH  10  11
ATOM     11  C   UNL     1     -21.129  -1.692  13.029  1.00  0.00    -0.031 C 
ATOM     12  C   UNL     1     -20.192  -1.798  12.076  1.00  0.00    -0.031 C 
BRANCH  12  13
ATOM     13  C   UNL     1     -20.349  -2.746  10.919  1.00  0.00     0.027 C 
BRANCH  13  14
ATOM     14  C   UNL     1     -19.642  -2.212   9.664  1.00  0.00     0.004 C 
BRANCH  14  15
ATOM     15  C   UNL     1     -19.622  -3.232   8.515  1.00  0.00     0.000 C 
BRANCH  15  16
ATOM     16  C   UNL     1     -18.646  -4.390   8.771  1.00  0.00    -0.000 C 
BRANCH  16  17
ATOM     17  C   UNL     1     -19.311  -5.740   8.480  1.00  0.00    -0.003 C 
ATOM     18  C   UNL     1     -20.737  -5.780   9.022  1.00  0.00     0.004 C 
ENDBRANCH  16  17
ENDBRANCH  15  16
ENDBRANCH  14  15
ENDBRANCH  13  14
ENDBRANCH  12  13
ENDBRANCH  10  11
ENDBRANCH   1  10
TORSDOF 13
ENDMDL
MODEL 6
REMARK VINA RESULT:    -2.949      2.001      5.338
REMARK INTER + INTRA:          -5.959
REMARK INTER:                  -4.964
REMARK INTRA:                  -0.995
REMARK UNBOUND:                -0.768
REMARK SMILES CCCCCCC=CCCCCCCCC(=O)[O-]
REMARK SMILES IDX 10 1 11 2 12 3 13 4 14 5 15 6 16 7 17 8 18 9 9 10 8 11 7 12
REMARK SMILES IDX 6 13 5 14 4 15 3 16 2 17 1 18
REMARK H PARENT
REMARK Flexibility Score: inf
ROOT
ATOM      1  C   UNL     1     -21.092  -0.840  14.011  1.00  0.00     0.004 C 
ENDROOT
BRANCH   1   2
ATOM      2  C   UNL     1     -21.010  -1.859  12.863  1.00  0.00     0.000 C 
BRANCH   2   3
ATOM      3  C   UNL     1     -19.800  -1.619  11.942  1.00  0.00     0.000 C 
BRANCH   3   4
ATOM      4  C   UNL     1     -20.088  -1.987  10.478  1.00  0.00     0.000 C 
BRANCH   4   5
ATOM      5  C   UNL     1     -19.050  -2.959   9.898  1.00  0.00     0.006 C 
BRANCH   5   6
ATOM      6  C   UNL     1     -19.554  -3.582   8.592  1.00  0.00     0.053 C 
BRANCH   6   7
ATOM      7  C   UNL     1     -19.532  -5.076   8.683  1.00  0.00     0.041 C 
ATOM      8  O   UNL     1     -18.569  -5.726   8.199  1.00  0.00    -0.550 OA
ATOM      9  O   UNL     1     -20.548  -5.746   9.352  1.00  0.00    -0.550 OA
ENDBRANCH   6   7
ENDBRANCH   5   6
ENDBRANCH   4   5
ENDBRANCH   3   4
ENDBRANCH   2   3
ENDBRANCH   1   2
BRANCH   1  10
ATOM     10  C   UNL     1     -20.781   0.592  13.551  1.00  0.00     0.027 C 
BRANCH  10  11
ATOM     11  C   UNL     1     -21.727   1.030  12.466  1.00  0.00    -0.031 C 
ATOM     12  C   UNL     1     -21.306   1.750  11.415  1.00  0.00    -0.031 C 
BRANCH  12  13
ATOM     13  C   UNL     1     -22.251   2.184  10.329  1.00  0.00     0.027 C 
BRANCH  13  14
ATOM     14  C   UNL     1     -21.517   2.350   8.990  1.00  0.00     0.004 C 
BRANCH  14  15
ATOM     15  C   UNL     1     -20.769   1.077   8.562  1.00  0.00     0.000 C 
BRANCH  15  16
ATOM     16  C   UNL     1     -19.956   1.275   7.274  1.00  0.00    -0.000 C 
BRANCH  16  17
ATOM     17  C   UNL     1     -19.830  -0.041   6.497  1.00  0.00    -0.003 C 
ATOM     18  C   UNL     1     -20.791  -1.096   7.041  1.00  0.00     0.004 C 
ENDBRANCH  16  17
ENDBRANCH  15  16
ENDBRANCH  14  15
ENDBRANCH  13  14
ENDBRANCH  12  13
ENDBRANCH  10  11
ENDBRANCH   1  10
TORSDOF 13
ENDMDL
MODEL 7
REMARK VINA RESULT:    -2.948      1.885      5.816
REMARK INTER + INTRA:          -5.957
REMARK INTER:                  -5.277
REMARK INTRA:                  -0.681
REMARK UNBOUND:                -0.768
REMARK SMILES CCCCCCC=CCCCCCCCC(=O)[O-]
REMARK SMILES IDX 10 1 11 2 12 3 13 4 14 5 15 6 16 7 17 8 18 9 9 10 8 11 7 12
REMARK SMILES IDX 6 13 5 14 4 15 3 16 2 17 1 18
REMARK H PARENT
REMARK Flexibility Score: inf
ROOT
ATOM      1  C   UNL     1     -20.286  -1.618   7.391  1.00  0.00     0.004 C 
ENDROOT
BRANCH   1   2
ATOM      2  C   UNL     1     -19.996  -1.542   8.899  1.00  0.00     0.000 C 
BRANCH   2   3
ATOM      3  C   UNL     1     -19.604  -2.905   9.497  1.00  0.00     0.000 C 
BRANCH   3   4
ATOM      4  C   UNL     1     -19.128  -3.904   8.430  1.00  0.00     0.000 C 
BRANCH   4   5
ATOM      5  C   UNL     1     -19.271  -5.364   8.884  1.00  0.00     0.006 C 
BRANCH   5   6
ATOM      6  C   UNL     1     -20.468  -6.035   8.202  1.00  0.00     0.053 C 
BRANCH   6   7
ATOM      7  C   UNL     1     -21.551  -6.310   9.197  1.00  0.00     0.041 C 
ATOM      8  O   UNL     1     -21.527  -5.757  10.328  1.00  0.00    -0.550 OA
ATOM      9  O   UNL     1     -22.617  -7.132   8.855  1.00  0.00    -0.550 OA
ENDBRANCH   6   7
ENDBRANCH   5   6
ENDBRANCH   4   5
ENDBRANCH   3   4
ENDBRANCH   2   3
ENDBRANCH   1   2
BRANCH   1  10
ATOM     10  C   UNL     1     -19.930  -0.316   6.656  1.00  0.00     0.027 C 
BRANCH  10  11
ATOM     11  C   UNL     1     -20.789   0.824   7.129  1.00  0.00    -0.031 C 
ATOM     12  C   UNL     1     -20.579   1.418   8.313  1.00  0.00    -0.031 C 
BRANCH  12  13
ATOM     13  C   UNL     1     -21.435   2.561   8.784  1.00  0.00     0.027 C 
BRANCH  13  14
ATOM     14  C   UNL     1     -21.988   2.297  10.192  1.00  0.00     0.004 C 
BRANCH  14  15
ATOM     15  C   UNL     1     -21.121   1.313  10.994  1.00  0.00     0.000 C 
BRANCH  15  16
ATOM     16  C   UNL     1     -21.493   1.278  12.484  1.00  0.00    -0.000 C 
BRANCH  16  17
ATOM     17  C   UNL     1     -21.231  -0.110  13.081  1.00  0.00    -0.003 C 
ATOM     18  C   UNL     1     -20.801  -0.010  14.542  1.00  0.00     0.004 C 
ENDBRANCH  16  17
ENDBRANCH  15  16
ENDBRANCH  14  15
ENDBRANCH  13  14
ENDBRANCH  12  13
ENDBRANCH  10  11
ENDBRANCH   1  10
TORSDOF 13
ENDMDL
MODEL 8
REMARK VINA RESULT:    -2.943      3.051      5.833
REMARK INTER + INTRA:          -5.948
REMARK INTER:                  -4.787
REMARK INTRA:                  -1.161
REMARK UNBOUND:                -0.768
REMARK SMILES CCCCCCC=CCCCCCCCC(=O)[O-]
REMARK SMILES IDX 10 1 11 2 12 3 13 4 14 5 15 6 16 7 17 8 18 9 9 10 8 11 7 12
REMARK SMILES IDX 6 13 5 14 4 15 3 16 2 17 1 18
REMARK H PARENT
REMARK Flexibility Score: inf
ROOT
ATOM      1  C   UNL     1     -20.914  -0.760   7.334  1.00  0.00     0.004 C 
ENDROOT
BRANCH   1   2
ATOM      2  C   UNL     1     -20.135   0.520   6.989  1.00  0.00     0.000 C 
BRANCH   2   3
ATOM      3  C   UNL     1     -20.728   1.773   7.658  1.00  0.00     0.000 C 
BRANCH   3   4
ATOM      4  C   UNL     1     -21.050   1.553   9.144  1.00  0.00     0.000 C 
BRANCH   4   5
ATOM      5  C   UNL     1     -21.798   2.741   9.768  1.00  0.00     0.006 C 
BRANCH   5   6
ATOM      6  C   UNL     1     -22.167   3.777   8.701  1.00  0.00     0.053 C 
BRANCH   6   7
ATOM      7  C   UNL     1     -21.614   5.120   9.063  1.00  0.00     0.041 C 
ATOM      8  O   UNL     1     -20.769   5.229   9.990  1.00  0.00    -0.550 OA
ATOM      9  O   UNL     1     -21.991   6.244   8.340  1.00  0.00    -0.550 OA
ENDBRANCH   6   7
ENDBRANCH   5   6
ENDBRANCH   4   5
ENDBRANCH   3   4
ENDBRANCH   2   3
ENDBRANCH   1   2
BRANCH   1  10
ATOM     10  C   UNL     1     -20.012  -2.002   7.387  1.00  0.00     0.027 C 
BRANCH  10  11
ATOM     11  C   UNL     1     -19.665  -2.359   8.806  1.00  0.00    -0.031 C 
ATOM     12  C   UNL     1     -20.014  -1.571   9.834  1.00  0.00    -0.031 C 
BRANCH  12  13
ATOM     13  C   UNL     1     -19.671  -1.930  11.254  1.00  0.00     0.027 C 
BRANCH  13  14
ATOM     14  C   UNL     1     -20.929  -2.308  12.050  1.00  0.00     0.004 C 
BRANCH  14  15
ATOM     15  C   UNL     1     -20.776  -2.049  13.557  1.00  0.00     0.000 C 
BRANCH  15  16
ATOM     16  C   UNL     1     -21.607  -0.850  14.037  1.00  0.00    -0.000 C 
BRANCH  16  17
ATOM     17  C   UNL     1     -20.778   0.439  14.003  1.00  0.00    -0.003 C 
ATOM     18  C   UNL     1     -21.259   1.376  12.898  1.00  0.00     0.004 C 
ENDBRANCH  16  17
ENDBRANCH  15  16
ENDBRANCH  14  15
ENDBRANCH  13  14
ENDBRANCH  12  13
ENDBRANCH  10  11
ENDBRANCH   1  10
TORSDOF 13
ENDMDL
MODEL 9
REMARK VINA RESULT:    -2.928      2.838      6.943
REMARK INTER + INTRA:          -5.921
REMARK INTER:                  -4.677
REMARK INTRA:                  -1.245
REMARK UNBOUND:                -0.768
REMARK SMILES CCCCCCC=CCCCCCCCC(=O)[O-]
REMARK SMILES IDX 10 1 11 2 12 3 13 4 14 5 15 6 16 7 17 8 18 9 9 10 8 11 7 12
REMARK SMILES IDX 6 13 5 14 4 15 3 16 2 17 1 18
REMARK H PARENT
REMARK Flexibility Score: inf
ROOT
ATOM      1  C   UNL     1     -21.423  -1.440  13.554  1.00  0.00     0.004 C 
ENDROOT
BRANCH   1   2
ATOM      2  C   UNL     1     -20.228  -1.910  12.709  1.00  0.00     0.000 C 
BRANCH   2   3
ATOM      3  C   UNL     1     -20.647  -2.409  11.314  1.00  0.00     0.000 C 
BRANCH   3   4
ATOM      4  C   UNL     1     -19.707  -1.917  10.202  1.00  0.00     0.000 C 
BRANCH   4   5
ATOM      5  C   UNL     1     -20.343  -0.823   9.332  1.00  0.00     0.006 C 
BRANCH   5   6
ATOM      6  C   UNL     1     -20.218  -1.166   7.844  1.00  0.00     0.053 C 
BRANCH   6   7
ATOM      7  C   UNL     1     -20.341   0.071   7.010  1.00  0.00     0.041 C 
ATOM      8  O   UNL     1     -21.281   0.183   6.179  1.00  0.00    -0.550 OA
ATOM      9  O   UNL     1     -19.452   1.122   7.190  1.00  0.00    -0.550 OA
ENDBRANCH   6   7
ENDBRANCH   5   6
ENDBRANCH   4   5
ENDBRANCH   3   4
ENDBRANCH   2   3
ENDBRANCH   1   2
BRANCH   1  10
ATOM     10  C   UNL     1     -21.133  -0.135  14.310  1.00  0.00     0.027 C 
BRANCH  10  11
ATOM     11  C   UNL     1     -20.790   0.978  13.359  1.00  0.00    -0.031 C 
ATOM     12  C   UNL     1     -21.493   1.184  12.235  1.00  0.00    -0.031 C 
BRANCH  12  13
ATOM     13  C   UNL     1     -21.152   2.300  11.286  1.00  0.00     0.027 C 
BRANCH  13  14
ATOM     14  C   UNL     1     -21.872   2.122   9.941  1.00  0.00     0.004 C 
BRANCH  14  15
ATOM     15  C   UNL     1     -21.457   3.176   8.902  1.00  0.00     0.000 C 
BRANCH  15  16
ATOM     16  C   UNL     1     -22.411   4.380   8.870  1.00  0.00    -0.000 C 
BRANCH  16  17
ATOM     17  C   UNL     1     -21.629   5.698   8.865  1.00  0.00    -0.003 C 
ATOM     18  C   UNL     1     -20.530   5.692   9.926  1.00  0.00     0.004 C 
ENDBRANCH  16  17
ENDBRANCH  15  16
ENDBRANCH  14  15
ENDBRANCH  13  14
ENDBRANCH  12  13
ENDBRANCH  10  11
ENDBRANCH   1  10
TORSDOF 13
ENDMDL
