MODEL 1
REMARK VINA RESULT:    -5.593      0.000      0.000
REMARK INTER + INTRA:         -11.053
REMARK INTER:                 -10.170
REMARK INTRA:                  -0.884
REMARK UNBOUND:                -0.884
REMARK SMILES CCCCCCCCCCCCCCCC(=O)[O-]
REMARK SMILES IDX 9 1 10 2 11 3 12 4 13 5 14 6 15 7 16 8 17 9 18 10 8 11 7 12
REMARK SMILES IDX 6 13 5 14 4 15 3 16 2 17 1 18
REMARK H PARENT
REMARK Flexibility Score: inf
ROOT
ATOM      1  C   UNL     1       0.401  -2.498   3.115  1.00  0.00     0.000 C 
ENDROOT
BRANCH   1   2
ATOM      2  C   UNL     1       0.823  -3.342   1.899  1.00  0.00     0.000 C 
BRANCH   2   3
ATOM      3  C   UNL     1       1.027  -2.493   0.634  1.00  0.00     0.000 C 
BRANCH   3   4
ATOM      4  C   UNL     1       0.316  -1.130   0.712  1.00  0.00     0.000 C 
BRANCH   4   5
ATOM      5  C   UNL     1      -0.994  -1.100  -0.091  1.00  0.00     0.000 C 
BRANCH   5   6
ATOM      6  C   UNL     1      -1.429  -2.499  -0.563  1.00  0.00     0.006 C 
BRANCH   6   7
ATOM      7  C   UNL     1      -2.951  -2.606  -0.730  1.00  0.00     0.053 C 
BRANCH   7   8
ATOM      8  C   UNL     1      -3.410  -2.047  -2.042  1.00  0.00     0.041 C 
ATOM      9  O   UNL     1      -3.769  -0.844  -2.126  1.00  0.00    -0.550 OA
ATOM     10  O   UNL     1      -3.408  -2.846  -3.178  1.00  0.00    -0.550 OA
ENDBRANCH   7   8
ENDBRANCH   6   7
ENDBRANCH   5   6
ENDBRANCH   4   5
ENDBRANCH   3   4
ENDBRANCH   2   3
ENDBRANCH   1   2
BRANCH   1  11
ATOM     11  C   UNL     1      -0.254  -3.343   4.220  1.00  0.00     0.000 C 
BRANCH  11  12
ATOM     12  C   UNL     1      -0.031  -2.757   5.626  1.00  0.00    -0.000 C 
BRANCH  12  13
ATOM     13  C   UNL     1      -0.396  -3.751   6.741  1.00  0.00    -0.000 C 
BRANCH  13  14
ATOM     14  C   UNL     1       0.765  -3.984   7.724  1.00  0.00    -0.000 C 
BRANCH  14  15
ATOM     15  C   UNL     1       1.456  -2.676   8.139  1.00  0.00    -0.000 C 
BRANCH  15  16
ATOM     16  C   UNL     1       1.287  -2.370   9.638  1.00  0.00    -0.000 C 
BRANCH  16  17
ATOM     17  C   UNL     1       0.574  -1.032   9.889  1.00  0.00    -0.003 C 
ATOM     18  C   UNL     1      -0.071  -0.462   8.627  1.00  0.00     0.004 C 
ENDBRANCH  16  17
ENDBRANCH  15  16
ENDBRANCH  14  15
ENDBRANCH  13  14
ENDBRANCH  12  13
ENDBRANCH  11  12
ENDBRANCH   1  11
TORSDOF 14
ENDMDL
MODEL 2
REMARK VINA RESULT:    -5.146      0.864      1.152
REMARK INTER + INTRA:         -10.241
REMARK INTER:                  -9.394
REMARK INTRA:                  -0.847
REMARK UNBOUND:                -0.884
REMARK SMILES CCCCCCCCCCCCCCCC(=O)[O-]
REMARK SMILES IDX 9 1 10 2 11 3 12 4 13 5 14 6 15 7 16 8 17 9 18 10 8 11 7 12
REMARK SMILES IDX 6 13 5 14 4 15 3 16 2 17 1 18
REMARK H PARENT
REMARK Flexibility Score: inf
ROOT
ATOM      1  C   UNL     1       0.612  -3.375   2.387  1.00  0.00     0.000 C 
ENDROOT
BRANCH   1   2
ATOM      2  C   UNL     1       1.570  -2.610   1.457  1.00  0.00     0.000 C 
BRANCH   2   3
ATOM      3  C   UNL     1       0.880  -1.443   0.732  1.00  0.00     0.000 C 
BRANCH   3   4
ATOM      4  C   UNL     1      -0.275  -1.906  -0.174  1.00  0.00     0.000 C 
BRANCH   4   5
ATOM      5  C   UNL     1      -1.450  -0.915  -0.187  1.00  0.00     0.000 C 
BRANCH   5   6
ATOM      6  C   UNL     1      -2.777  -1.579  -0.594  1.00  0.00     0.006 C 
BRANCH   6   7
ATOM      7  C   UNL     1      -2.572  -3.002  -1.130  1.00  0.00     0.053 C 
BRANCH   7   8
ATOM      8  C   UNL     1      -3.036  -3.138  -2.548  1.00  0.00     0.041 C 
ATOM      9  O   UNL     1      -3.795  -2.269  -3.051  1.00  0.00    -0.550 OA
ATOM     10  O   UNL     1      -2.604  -4.207  -3.322  1.00  0.00    -0.550 OA
ENDBRANCH   7   8
ENDBRANCH   6   7
ENDBRANCH   5   6
ENDBRANCH   4   5
ENDBRANCH   3   4
ENDBRANCH   2   3
ENDBRANCH   1   2
BRANCH   1  11
ATOM     11  C   UNL     1       0.276  -2.588   3.664  1.00  0.00     0.000 C 
BRANCH  11  12
ATOM     12  C   UNL     1      -0.395  -3.459   4.740  1.00  0.00    -0.000 C 
BRANCH  12  13
ATOM     13  C   UNL     1      -0.038  -3.011   6.167  1.00  0.00    -0.000 C 
BRANCH  13  14
ATOM     14  C   UNL     1       0.311  -4.195   7.086  1.00  0.00    -0.000 C 
BRANCH  14  15
ATOM     15  C   UNL     1       1.125  -3.764   8.316  1.00  0.00    -0.000 C 
BRANCH  15  16
ATOM     16  C   UNL     1       1.516  -2.276   8.272  1.00  0.00    -0.000 C 
BRANCH  16  17
ATOM     17  C   UNL     1       0.794  -1.446   9.346  1.00  0.00    -0.003 C 
ATOM     18  C   UNL     1      -0.214  -0.463   8.751  1.00  0.00     0.004 C 
ENDBRANCH  16  17
ENDBRANCH  15  16
ENDBRANCH  14  15
ENDBRANCH  13  14
ENDBRANCH  12  13
ENDBRANCH  11  12
ENDBRANCH   1  11
TORSDOF 14
ENDMDL
MODEL 3
REMARK VINA RESULT:    -4.934      4.100      8.980
REMARK INTER + INTRA:          -9.855
REMARK INTER:                  -9.020
REMARK INTRA:                  -0.835
REMARK UNBOUND:                -0.884
REMARK SMILES CCCCCCCCCCCCCCCC(=O)[O-]
REMARK SMILES IDX 9 1 10 2 11 3 12 4 13 5 14 6 15 7 16 8 17 9 18 10 8 11 7 12
REMARK SMILES IDX 6 13 5 14 4 15 3 16 2 17 1 18
REMARK H PARENT
REMARK Flexibility Score: inf
ROOT
ATOM      1  C   UNL     1       0.705  -3.419   2.284  1.00  0.00     0.000 C 
ENDROOT
BRANCH   1   2
ATOM      2  C   UNL     1       0.260  -2.619   3.520  1.00  0.00     0.000 C 
BRANCH   2   3
ATOM      3  C   UNL     1      -0.403  -3.504   4.588  1.00  0.00     0.000 C 
BRANCH   3   4
ATOM      4  C   UNL     1      -0.251  -2.934   6.010  1.00  0.00     0.000 C 
BRANCH   4   5
ATOM      5  C   UNL     1       0.111  -4.011   7.044  1.00  0.00     0.000 C 
BRANCH   5   6
ATOM      6  C   UNL     1       1.084  -3.494   8.118  1.00  0.00     0.006 C 
BRANCH   6   7
ATOM      7  C   UNL     1       1.360  -1.990   7.974  1.00  0.00     0.053 C 
BRANCH   7   8
ATOM      8  C   UNL     1       0.489  -1.174   8.881  1.00  0.00     0.041 C 
ATOM      9  O   UNL     1       0.678  -1.193  10.125  1.00  0.00    -0.550 OA
ATOM     10  O   UNL     1      -0.509  -0.370   8.347  1.00  0.00    -0.550 OA
ENDBRANCH   7   8
ENDBRANCH   6   7
ENDBRANCH   5   6
ENDBRANCH   4   5
ENDBRANCH   3   4
ENDBRANCH   2   3
ENDBRANCH   1   2
BRANCH   1  11
ATOM     11  C   UNL     1       1.645  -2.617   1.369  1.00  0.00     0.000 C 
BRANCH  11  12
ATOM     12  C   UNL     1       1.171  -2.592  -0.095  1.00  0.00    -0.000 C 
BRANCH  12  13
ATOM     13  C   UNL     1      -0.361  -2.557  -0.217  1.00  0.00    -0.000 C 
BRANCH  13  14
ATOM     14  C   UNL     1      -0.922  -1.124  -0.181  1.00  0.00    -0.000 C 
BRANCH  14  15
ATOM     15  C   UNL     1      -2.452  -1.087  -0.319  1.00  0.00    -0.000 C 
BRANCH  15  16
ATOM     16  C   UNL     1      -3.035  -2.435  -0.781  1.00  0.00    -0.000 C 
BRANCH  16  17
ATOM     17  C   UNL     1      -3.414  -2.433  -2.271  1.00  0.00    -0.003 C 
ATOM     18  C   UNL     1      -2.801  -3.605  -3.037  1.00  0.00     0.004 C 
ENDBRANCH  16  17
ENDBRANCH  15  16
ENDBRANCH  14  15
ENDBRANCH  13  14
ENDBRANCH  12  13
ENDBRANCH  11  12
ENDBRANCH   1  11
TORSDOF 14
ENDMDL
MODEL 4
REMARK VINA RESULT:    -4.562      4.098      8.952
REMARK INTER + INTRA:          -9.180
REMARK INTER:                  -8.516
REMARK INTRA:                  -0.664
REMARK UNBOUND:                -0.884
REMARK SMILES CCCCCCCCCCCCCCCC(=O)[O-]
REMARK SMILES IDX 9 1 10 2 11 3 12 4 13 5 14 6 15 7 16 8 17 9 18 10 8 11 7 12
REMARK SMILES IDX 6 13 5 14 4 15 3 16 2 17 1 18
REMARK H PARENT
REMARK Flexibility Score: inf
ROOT
ATOM      1  C   UNL     1       0.807  -3.574   1.883  1.00  0.00     0.000 C 
ENDROOT
BRANCH   1   2
ATOM      2  C   UNL     1       0.561  -2.729   3.144  1.00  0.00     0.000 C 
BRANCH   2   3
ATOM      3  C   UNL     1      -0.308  -3.459   4.182  1.00  0.00     0.000 C 
BRANCH   3   4
ATOM      4  C   UNL     1      -0.279  -2.781   5.563  1.00  0.00     0.000 C 
BRANCH   4   5
ATOM      5  C   UNL     1      -0.145  -3.790   6.715  1.00  0.00     0.000 C 
BRANCH   5   6
ATOM      6  C   UNL     1       0.901  -3.360   7.758  1.00  0.00     0.006 C 
BRANCH   6   7
ATOM      7  C   UNL     1       1.187  -1.853   7.703  1.00  0.00     0.053 C 
BRANCH   7   8
ATOM      8  C   UNL     1       0.390  -1.095   8.721  1.00  0.00     0.041 C 
ATOM      9  O   UNL     1      -0.523  -0.311   8.354  1.00  0.00    -0.550 OA
ATOM     10  O   UNL     1       0.636  -1.281  10.075  1.00  0.00    -0.550 OA
ENDBRANCH   7   8
ENDBRANCH   6   7
ENDBRANCH   5   6
ENDBRANCH   4   5
ENDBRANCH   3   4
ENDBRANCH   2   3
ENDBRANCH   1   2
BRANCH   1  11
ATOM     11  C   UNL     1       1.205  -2.719   0.669  1.00  0.00     0.000 C 
BRANCH  11  12
ATOM     12  C   UNL     1       1.024  -1.211   0.920  1.00  0.00    -0.000 C 
BRANCH  12  13
ATOM     13  C   UNL     1      -0.420  -0.744   0.677  1.00  0.00    -0.000 C 
BRANCH  13  14
ATOM     14  C   UNL     1      -1.148  -1.602  -0.373  1.00  0.00    -0.000 C 
BRANCH  14  15
ATOM     15  C   UNL     1      -2.629  -1.221  -0.520  1.00  0.00    -0.000 C 
BRANCH  15  16
ATOM     16  C   UNL     1      -3.287  -1.875  -1.749  1.00  0.00    -0.000 C 
BRANCH  16  17
ATOM     17  C   UNL     1      -2.624  -3.208  -2.131  1.00  0.00    -0.003 C 
ATOM     18  C   UNL     1      -3.253  -3.845  -3.370  1.00  0.00     0.004 C 
ENDBRANCH  16  17
ENDBRANCH  15  16
ENDBRANCH  14  15
ENDBRANCH  13  14
ENDBRANCH  12  13
ENDBRANCH  11  12
ENDBRANCH   1  11
TORSDOF 14
ENDMDL
MODEL 5
REMARK VINA RESULT:    -4.549      3.716      8.717
REMARK INTER + INTRA:          -9.155
REMARK INTER:                  -8.183
REMARK INTRA:                  -0.973
REMARK UNBOUND:                -0.884
REMARK SMILES CCCCCCCCCCCCCCCC(=O)[O-]
REMARK SMILES IDX 9 1 10 2 11 3 12 4 13 5 14 6 15 7 16 8 17 9 18 10 8 11 7 12
REMARK SMILES IDX 6 13 5 14 4 15 3 16 2 17 1 18
REMARK H PARENT
REMARK Flexibility Score: inf
ROOT
ATOM      1  C   UNL     1       0.318  -3.273   4.222  1.00  0.00     0.000 C 
ENDROOT
BRANCH   1   2
ATOM      2  C   UNL     1      -0.552  -2.670   5.338  1.00  0.00     0.000 C 
BRANCH   2   3
ATOM      3  C   UNL     1      -0.735  -3.629   6.526  1.00  0.00     0.000 C 
BRANCH   3   4
ATOM      4  C   UNL     1       0.579  -4.313   6.945  1.00  0.00     0.000 C 
BRANCH   4   5
ATOM      5  C   UNL     1       0.978  -3.992   8.394  1.00  0.00     0.000 C 
BRANCH   5   6
ATOM      6  C   UNL     1       1.633  -2.607   8.532  1.00  0.00     0.006 C 
BRANCH   6   7
ATOM      7  C   UNL     1       0.698  -1.587   9.196  1.00  0.00     0.053 C 
BRANCH   7   8
ATOM      8  C   UNL     1       0.139  -0.613   8.203  1.00  0.00     0.041 C 
ATOM      9  O   UNL     1      -1.039  -0.188   8.327  1.00  0.00    -0.550 OA
ATOM     10  O   UNL     1       0.931  -0.152   7.159  1.00  0.00    -0.550 OA
ENDBRANCH   7   8
ENDBRANCH   6   7
ENDBRANCH   5   6
ENDBRANCH   4   5
ENDBRANCH   3   4
ENDBRANCH   2   3
ENDBRANCH   1   2
BRANCH   1  11
ATOM     11  C   UNL     1       0.152  -2.537   2.883  1.00  0.00     0.000 C 
BRANCH  11  12
ATOM     12  C   UNL     1       0.754  -3.315   1.698  1.00  0.00    -0.000 C 
BRANCH  12  13
ATOM     13  C   UNL     1       0.669  -2.533   0.377  1.00  0.00    -0.000 C 
BRANCH  13  14
ATOM     14  C   UNL     1      -0.168  -1.248   0.506  1.00  0.00    -0.000 C 
BRANCH  14  15
ATOM     15  C   UNL     1      -1.409  -1.262  -0.400  1.00  0.00    -0.000 C 
BRANCH  15  16
ATOM     16  C   UNL     1      -1.780  -2.680  -0.871  1.00  0.00    -0.000 C 
BRANCH  16  17
ATOM     17  C   UNL     1      -2.930  -2.680  -1.890  1.00  0.00    -0.003 C 
ATOM     18  C   UNL     1      -3.682  -1.350  -1.930  1.00  0.00     0.004 C 
ENDBRANCH  16  17
ENDBRANCH  15  16
ENDBRANCH  14  15
ENDBRANCH  13  14
ENDBRANCH  12  13
ENDBRANCH  11  12
ENDBRANCH   1  11
TORSDOF 14
ENDMDL
MODEL 6
REMARK VINA RESULT:    -3.965      1.097      2.667
REMARK INTER + INTRA:          -8.094
REMARK INTER:                  -7.391
REMARK INTRA:                  -0.704
REMARK UNBOUND:                -0.884
REMARK SMILES CCCCCCCCCCCCCCCC(=O)[O-]
REMARK SMILES IDX 9 1 10 2 11 3 12 4 13 5 14 6 15 7 16 8 17 9 18 10 8 11 7 12
REMARK SMILES IDX 6 13 5 14 4 15 3 16 2 17 1 18
REMARK H PARENT
REMARK Flexibility Score: inf
ROOT
ATOM      1  C   UNL     1       2.477  -2.604   0.680  1.00  0.00     0.000 C 
ENDROOT
BRANCH   1   2
ATOM      2  C   UNL     1       2.322  -1.074   0.637  1.00  0.00     0.000 C 
BRANCH   2   3
ATOM      3  C   UNL     1       1.165  -0.574   1.518  1.00  0.00     0.000 C 
BRANCH   3   4
ATOM      4  C   UNL     1       0.114   0.220   0.723  1.00  0.00     0.000 C 
BRANCH   4   5
ATOM      5  C   UNL     1      -1.245  -0.495   0.660  1.00  0.00     0.000 C 
BRANCH   5   6
ATOM      6  C   UNL     1      -1.365  -1.428  -0.557  1.00  0.00     0.006 C 
BRANCH   6   7
ATOM      7  C   UNL     1      -2.724  -2.140  -0.609  1.00  0.00     0.053 C 
BRANCH   7   8
ATOM      8  C   UNL     1      -3.421  -1.918  -1.917  1.00  0.00     0.041 C 
ATOM      9  O   UNL     1      -4.032  -0.840  -2.134  1.00  0.00    -0.550 OA
ATOM     10  O   UNL     1      -3.367  -2.891  -2.907  1.00  0.00    -0.550 OA
ENDBRANCH   7   8
ENDBRANCH   6   7
ENDBRANCH   5   6
ENDBRANCH   4   5
ENDBRANCH   3   4
ENDBRANCH   2   3
ENDBRANCH   1   2
BRANCH   1  11
ATOM     11  C   UNL     1       1.128  -3.335   0.588  1.00  0.00     0.000 C 
BRANCH  11  12
ATOM     12  C   UNL     1       0.701  -3.966   1.926  1.00  0.00    -0.000 C 
BRANCH  12  13
ATOM     13  C   UNL     1      -0.061  -2.978   2.824  1.00  0.00    -0.000 C 
BRANCH  13  14
ATOM     14  C   UNL     1       0.450  -2.988   4.276  1.00  0.00    -0.000 C 
BRANCH  14  15
ATOM     15  C   UNL     1      -0.692  -3.061   5.301  1.00  0.00    -0.000 C 
BRANCH  15  16
ATOM     16  C   UNL     1      -0.199  -3.462   6.704  1.00  0.00    -0.000 C 
BRANCH  16  17
ATOM     17  C   UNL     1       0.428  -2.283   7.466  1.00  0.00    -0.003 C 
ATOM     18  C   UNL     1       1.538  -2.722   8.420  1.00  0.00     0.004 C 
ENDBRANCH  16  17
ENDBRANCH  15  16
ENDBRANCH  14  15
ENDBRANCH  13  14
ENDBRANCH  12  13
ENDBRANCH  11  12
ENDBRANCH   1  11
TORSDOF 14
ENDMDL
MODEL 7
REMARK VINA RESULT:    -3.837      4.049      8.966
REMARK INTER + INTRA:          -7.862
REMARK INTER:                  -7.067
REMARK INTRA:                  -0.794
REMARK UNBOUND:                -0.884
REMARK SMILES CCCCCCCCCCCCCCCC(=O)[O-]
REMARK SMILES IDX 9 1 10 2 11 3 12 4 13 5 14 6 15 7 16 8 17 9 18 10 8 11 7 12
REMARK SMILES IDX 6 13 5 14 4 15 3 16 2 17 1 18
REMARK H PARENT
REMARK Flexibility Score: inf
ROOT
ATOM      1  C   UNL     1       1.064  -2.986   0.573  1.00  0.00     0.000 C 
ENDROOT
BRANCH   1   2
ATOM      2  C   UNL     1       0.715  -3.627   1.928  1.00  0.00     0.000 C 
BRANCH   2   3
ATOM      3  C   UNL     1       0.274  -2.590   2.974  1.00  0.00     0.000 C 
BRANCH   3   4
ATOM      4  C   UNL     1       0.447  -3.093   4.419  1.00  0.00     0.000 C 
BRANCH   4   5
ATOM      5  C   UNL     1      -0.818  -2.895   5.269  1.00  0.00     0.000 C 
BRANCH   5   6
ATOM      6  C   UNL     1      -0.618  -3.327   6.732  1.00  0.00     0.006 C 
BRANCH   6   7
ATOM      7  C   UNL     1       0.729  -2.854   7.297  1.00  0.00     0.053 C 
BRANCH   7   8
ATOM      8  C   UNL     1       0.560  -1.736   8.280  1.00  0.00     0.041 C 
ATOM      9  O   UNL     1       1.075  -1.818   9.425  1.00  0.00    -0.550 OA
ATOM     10  O   UNL     1      -0.138  -0.592   7.919  1.00  0.00    -0.550 OA
ENDBRANCH   7   8
ENDBRANCH   6   7
ENDBRANCH   5   6
ENDBRANCH   4   5
ENDBRANCH   3   4
ENDBRANCH   2   3
ENDBRANCH   1   2
BRANCH   1  11
ATOM     11  C   UNL     1      -0.169  -2.406  -0.139  1.00  0.00     0.000 C 
BRANCH  11  12
ATOM     12  C   UNL     1      -0.391  -0.916   0.177  1.00  0.00    -0.000 C 
BRANCH  12  13
ATOM     13  C   UNL     1      -1.860  -0.492   0.012  1.00  0.00    -0.000 C 
BRANCH  13  14
ATOM     14  C   UNL     1      -2.763  -1.658  -0.427  1.00  0.00    -0.000 C 
BRANCH  14  15
ATOM     15  C   UNL     1      -3.629  -1.304  -1.646  1.00  0.00    -0.000 C 
BRANCH  15  16
ATOM     16  C   UNL     1      -3.563  -2.379  -2.747  1.00  0.00    -0.000 C 
BRANCH  16  17
ATOM     17  C   UNL     1      -2.676  -3.571  -2.355  1.00  0.00    -0.003 C 
ATOM     18  C   UNL     1      -2.547  -4.603  -3.474  1.00  0.00     0.004 C 
ENDBRANCH  16  17
ENDBRANCH  15  16
ENDBRANCH  14  15
ENDBRANCH  13  14
ENDBRANCH  12  13
ENDBRANCH  11  12
ENDBRANCH   1  11
TORSDOF 14
ENDMDL
MODEL 8
REMARK VINA RESULT:    -3.759      1.377      2.401
REMARK INTER + INTRA:          -7.719
REMARK INTER:                  -7.078
REMARK INTRA:                  -0.641
REMARK UNBOUND:                -0.884
REMARK SMILES CCCCCCCCCCCCCCCC(=O)[O-]
REMARK SMILES IDX 9 1 10 2 11 3 12 4 13 5 14 6 15 7 16 8 17 9 18 10 8 11 7 12
REMARK SMILES IDX 6 13 5 14 4 15 3 16 2 17 1 18
REMARK H PARENT
REMARK Flexibility Score: inf
ROOT
ATOM      1  C   UNL     1       1.464  -2.999   1.015  1.00  0.00     0.000 C 
ENDROOT
BRANCH   1   2
ATOM      2  C   UNL     1       0.256  -2.963   0.063  1.00  0.00     0.000 C 
BRANCH   2   3
ATOM      3  C   UNL     1      -0.360  -1.559  -0.055  1.00  0.00     0.000 C 
BRANCH   3   4
ATOM      4  C   UNL     1      -1.870  -1.596  -0.352  1.00  0.00     0.000 C 
BRANCH   4   5
ATOM      5  C   UNL     1      -2.288  -2.850  -1.136  1.00  0.00     0.000 C 
BRANCH   5   6
ATOM      6  C   UNL     1      -3.384  -2.558  -2.176  1.00  0.00     0.006 C 
BRANCH   6   7
ATOM      7  C   UNL     1      -3.754  -1.069  -2.223  1.00  0.00     0.053 C 
BRANCH   7   8
ATOM      8  C   UNL     1      -5.028  -0.786  -1.485  1.00  0.00     0.041 C 
ATOM      9  O   UNL     1      -6.024  -0.321  -2.097  1.00  0.00    -0.550 OA
ATOM     10  O   UNL     1      -5.122  -1.068  -0.129  1.00  0.00    -0.550 OA
ENDBRANCH   7   8
ENDBRANCH   6   7
ENDBRANCH   5   6
ENDBRANCH   4   5
ENDBRANCH   3   4
ENDBRANCH   2   3
ENDBRANCH   1   2
BRANCH   1  11
ATOM     11  C   UNL     1       1.168  -2.331   2.367  1.00  0.00     0.000 C 
BRANCH  11  12
ATOM     12  C   UNL     1       0.222  -3.167   3.248  1.00  0.00    -0.000 C 
BRANCH  12  13
ATOM     13  C   UNL     1       0.019  -2.551   4.642  1.00  0.00    -0.000 C 
BRANCH  13  14
ATOM     14  C   UNL     1      -0.698  -3.508   5.610  1.00  0.00    -0.000 C 
BRANCH  14  15
ATOM     15  C   UNL     1       0.016  -3.617   6.967  1.00  0.00    -0.000 C 
BRANCH  15  16
ATOM     16  C   UNL     1       0.629  -2.279   7.419  1.00  0.00    -0.000 C 
BRANCH  16  17
ATOM     17  C   UNL     1       1.378  -2.397   8.756  1.00  0.00    -0.003 C 
ATOM     18  C   UNL     1       0.809  -1.473   9.832  1.00  0.00     0.004 C 
ENDBRANCH  16  17
ENDBRANCH  15  16
ENDBRANCH  14  15
ENDBRANCH  13  14
ENDBRANCH  12  13
ENDBRANCH  11  12
ENDBRANCH   1  11
TORSDOF 14
ENDMDL
MODEL 9
REMARK VINA RESULT:    -2.882     10.574     13.873
REMARK INTER + INTRA:          -6.125
REMARK INTER:                  -5.438
REMARK INTRA:                  -0.687
REMARK UNBOUND:                -0.884
REMARK SMILES CCCCCCCCCCCCCCCC(=O)[O-]
REMARK SMILES IDX 9 1 10 2 11 3 12 4 13 5 14 6 15 7 16 8 17 9 18 10 8 11 7 12
REMARK SMILES IDX 6 13 5 14 4 15 3 16 2 17 1 18
REMARK H PARENT
REMARK Flexibility Score: inf
ROOT
ATOM      1  C   UNL     1       6.091  -9.513  -2.159  1.00  0.00     0.000 C 
ENDROOT
BRANCH   1   2
ATOM      2  C   UNL     1       7.548  -9.816  -2.548  1.00  0.00     0.000 C 
BRANCH   2   3
ATOM      3  C   UNL     1       8.520  -9.652  -1.367  1.00  0.00     0.000 C 
BRANCH   3   4
ATOM      4  C   UNL     1       7.828  -9.809  -0.002  1.00  0.00     0.000 C 
BRANCH   4   5
ATOM      5  C   UNL     1       8.694  -9.303   1.162  1.00  0.00     0.000 C 
BRANCH   5   6
ATOM      6  C   UNL     1       9.510  -8.052   0.790  1.00  0.00     0.006 C 
BRANCH   6   7
ATOM      7  C   UNL     1      10.098  -7.356   2.025  1.00  0.00     0.053 C 
BRANCH   7   8
ATOM      8  C   UNL     1       9.516  -5.989   2.225  1.00  0.00     0.041 C 
ATOM      9  O   UNL     1       8.674  -5.534   1.408  1.00  0.00    -0.550 OA
ATOM     10  O   UNL     1       9.881  -5.233   3.331  1.00  0.00    -0.550 OA
ENDBRANCH   7   8
ENDBRANCH   6   7
ENDBRANCH   5   6
ENDBRANCH   4   5
ENDBRANCH   3   4
ENDBRANCH   2   3
ENDBRANCH   1   2
BRANCH   1  11
ATOM     11  C   UNL     1       5.080 -10.125  -3.141  1.00  0.00     0.000 C 
BRANCH  11  12
ATOM     12  C   UNL     1       3.683  -9.486  -3.032  1.00  0.00    -0.000 C 
BRANCH  12  13
ATOM     13  C   UNL     1       2.747  -9.920  -4.171  1.00  0.00    -0.000 C 
BRANCH  13  14
ATOM     14  C   UNL     1       3.465  -9.987  -5.530  1.00  0.00    -0.000 C 
BRANCH  14  15
ATOM     15  C   UNL     1       2.677  -9.285  -6.647  1.00  0.00    -0.000 C 
BRANCH  15  16
ATOM     16  C   UNL     1       1.481 -10.120  -7.139  1.00  0.00    -0.000 C 
BRANCH  16  17
ATOM     17  C   UNL     1       0.163  -9.719  -6.457  1.00  0.00    -0.003 C 
ATOM     18  C   UNL     1       0.110  -8.234  -6.103  1.00  0.00     0.004 C 
ENDBRANCH  16  17
ENDBRANCH  15  16
ENDBRANCH  14  15
ENDBRANCH  13  14
ENDBRANCH  12  13
ENDBRANCH  11  12
ENDBRANCH   1  11
TORSDOF 14
ENDMDL
