MODEL 1
REMARK VINA RESULT:    -3.762      0.000      0.000
REMARK INTER + INTRA:          -9.332
REMARK INTER:                  -6.840
REMARK INTRA:                  -2.492
REMARK UNBOUND:                -2.492
REMARK SMILES CCCCCC=CCC=CCCCCCCCC(=O)[O-]
REMARK SMILES IDX 11 1 12 2 13 3 14 4 15 5 16 6 17 7 18 8 19 9 20 10 10 11
REMARK SMILES IDX 9 12 8 13 7 14 6 15 5 16 4 17 3 18 2 19 1 20
REMARK H PARENT
REMARK Flexibility Score: inf
ROOT
ATOM      1  C   UNL     1      41.534  20.926  -1.110  1.00  0.00     0.027 C 
ENDROOT
BRANCH   1   2
ATOM      2  C   UNL     1      40.416  19.884  -0.946  1.00  0.00     0.004 C 
BRANCH   2   3
ATOM      3  C   UNL     1      39.880  19.313  -2.277  1.00  0.00     0.000 C 
BRANCH   3   4
ATOM      4  C   UNL     1      40.337  17.877  -2.608  1.00  0.00     0.000 C 
BRANCH   4   5
ATOM      5  C   UNL     1      40.986  17.702  -3.996  1.00  0.00     0.000 C 
BRANCH   5   6
ATOM      6  C   UNL     1      42.040  16.585  -4.083  1.00  0.00     0.006 C 
BRANCH   6   7
ATOM      7  C   UNL     1      42.964  16.542  -2.858  1.00  0.00     0.053 C 
BRANCH   7   8
ATOM      8  C   UNL     1      43.927  15.401  -2.966  1.00  0.00     0.041 C 
ATOM      9  O   UNL     1      45.140  15.562  -2.671  1.00  0.00    -0.550 OA
ATOM     10  O   UNL     1      43.494  14.169  -3.445  1.00  0.00    -0.550 OA
ENDBRANCH   7   8
ENDBRANCH   6   7
ENDBRANCH   5   6
ENDBRANCH   4   5
ENDBRANCH   3   4
ENDBRANCH   2   3
ENDBRANCH   1   2
BRANCH   1  11
ATOM     11  C   UNL     1      42.885  20.293  -1.340  1.00  0.00    -0.031 C 
ATOM     12  C   UNL     1      43.486  20.244  -2.542  1.00  0.00    -0.027 C 
BRANCH  12  13
ATOM     13  C   UNL     1      42.923  20.853  -3.805  1.00  0.00     0.054 C 
BRANCH  13  14
ATOM     14  C   UNL     1      43.690  20.426  -5.023  1.00  0.00    -0.027 C 
ATOM     15  C   UNL     1      44.246  19.208  -5.114  1.00  0.00    -0.031 C 
BRANCH  15  16
ATOM     16  C   UNL     1      44.948  18.756  -6.365  1.00  0.00     0.027 C 
BRANCH  16  17
ATOM     17  C   UNL     1      44.861  17.235  -6.562  1.00  0.00     0.004 C 
BRANCH  17  18
ATOM     18  C   UNL     1      46.036  16.497  -5.896  1.00  0.00     0.000 C 
BRANCH  18  19
ATOM     19  C   UNL     1      47.324  17.335  -5.874  1.00  0.00    -0.003 C 
ATOM     20  C   UNL     1      48.554  16.525  -5.467  1.00  0.00     0.004 C 
ENDBRANCH  18  19
ENDBRANCH  17  18
ENDBRANCH  16  17
ENDBRANCH  15  16
ENDBRANCH  13  14
ENDBRANCH  12  13
ENDBRANCH   1  11
TORSDOF 14
ENDMDL
MODEL 2
REMARK VINA RESULT:    -3.688      2.182      7.185
REMARK INTER + INTRA:          -9.199
REMARK INTER:                  -7.839
REMARK INTRA:                  -1.360
REMARK UNBOUND:                -2.492
REMARK SMILES CCCCCC=CCC=CCCCCCCCC(=O)[O-]
REMARK SMILES IDX 11 1 12 2 13 3 14 4 15 5 16 6 17 7 18 8 19 9 20 10 10 11
REMARK SMILES IDX 9 12 8 13 7 14 6 15 5 16 4 17 3 18 2 19 1 20
REMARK H PARENT
REMARK Flexibility Score: inf
ROOT
ATOM      1  C   UNL     1      48.216  17.137  -5.983  1.00  0.00     0.027 C 
ENDROOT
BRANCH   1   2
ATOM      2  C   UNL     1      49.603  16.525  -6.235  1.00  0.00     0.004 C 
BRANCH   2   3
ATOM      3  C   UNL     1      50.150  15.684  -5.060  1.00  0.00     0.000 C 
BRANCH   3   4
ATOM      4  C   UNL     1      50.790  14.337  -5.459  1.00  0.00     0.000 C 
BRANCH   4   5
ATOM      5  C   UNL     1      50.006  13.086  -5.014  1.00  0.00     0.000 C 
BRANCH   5   6
ATOM      6  C   UNL     1      49.108  13.289  -3.782  1.00  0.00     0.006 C 
BRANCH   6   7
ATOM      7  C   UNL     1      47.698  12.712  -3.972  1.00  0.00     0.053 C 
BRANCH   7   8
ATOM      8  C   UNL     1      46.771  13.235  -2.919  1.00  0.00     0.041 C 
ATOM      9  O   UNL     1      47.229  13.814  -1.899  1.00  0.00    -0.550 OA
ATOM     10  O   UNL     1      45.400  13.036  -3.038  1.00  0.00    -0.550 OA
ENDBRANCH   7   8
ENDBRANCH   6   7
ENDBRANCH   5   6
ENDBRANCH   4   5
ENDBRANCH   3   4
ENDBRANCH   2   3
ENDBRANCH   1   2
BRANCH   1  11
ATOM     11  C   UNL     1      47.464  16.430  -4.881  1.00  0.00    -0.031 C 
ATOM     12  C   UNL     1      46.129  16.497  -4.733  1.00  0.00    -0.027 C 
BRANCH  12  13
ATOM     13  C   UNL     1      45.202  17.240  -5.665  1.00  0.00     0.054 C 
BRANCH  13  14
ATOM     14  C   UNL     1      44.410  18.294  -4.945  1.00  0.00    -0.027 C 
ATOM     15  C   UNL     1      44.289  19.537  -5.433  1.00  0.00    -0.031 C 
BRANCH  15  16
ATOM     16  C   UNL     1      43.434  20.570  -4.750  1.00  0.00     0.027 C 
BRANCH  16  17
ATOM     17  C   UNL     1      43.397  20.378  -3.227  1.00  0.00     0.004 C 
BRANCH  17  18
ATOM     18  C   UNL     1      42.018  20.721  -2.633  1.00  0.00     0.000 C 
BRANCH  18  19
ATOM     19  C   UNL     1      41.969  20.535  -1.109  1.00  0.00    -0.003 C 
ATOM     20  C   UNL     1      40.553  20.300  -0.584  1.00  0.00     0.004 C 
ENDBRANCH  18  19
ENDBRANCH  17  18
ENDBRANCH  16  17
ENDBRANCH  15  16
ENDBRANCH  13  14
ENDBRANCH  12  13
ENDBRANCH   1  11
TORSDOF 14
ENDMDL
MODEL 3
REMARK VINA RESULT:    -3.633      1.705      5.988
REMARK INTER + INTRA:          -9.099
REMARK INTER:                  -7.234
REMARK INTRA:                  -1.865
REMARK UNBOUND:                -2.492
REMARK SMILES CCCCCC=CCC=CCCCCCCCC(=O)[O-]
REMARK SMILES IDX 11 1 12 2 13 3 14 4 15 5 16 6 17 7 18 8 19 9 20 10 10 11
REMARK SMILES IDX 9 12 8 13 7 14 6 15 5 16 4 17 3 18 2 19 1 20
REMARK H PARENT
REMARK Flexibility Score: inf
ROOT
ATOM      1  C   UNL     1      47.498  16.513  -4.796  1.00  0.00     0.027 C 
ENDROOT
BRANCH   1   2
ATOM      2  C   UNL     1      47.617  14.992  -4.989  1.00  0.00     0.004 C 
BRANCH   2   3
ATOM      3  C   UNL     1      46.445  14.182  -4.393  1.00  0.00     0.000 C 
BRANCH   3   4
ATOM      4  C   UNL     1      45.858  14.744  -3.081  1.00  0.00     0.000 C 
BRANCH   4   5
ATOM      5  C   UNL     1      44.335  14.989  -3.099  1.00  0.00     0.000 C 
BRANCH   5   6
ATOM      6  C   UNL     1      43.913  16.457  -2.918  1.00  0.00     0.006 C 
BRANCH   6   7
ATOM      7  C   UNL     1      42.570  16.604  -2.190  1.00  0.00     0.053 C 
BRANCH   7   8
ATOM      8  C   UNL     1      41.473  16.896  -3.166  1.00  0.00     0.041 C 
ATOM      9  O   UNL     1      41.601  16.583  -4.379  1.00  0.00    -0.550 OA
ATOM     10  O   UNL     1      40.327  17.562  -2.746  1.00  0.00    -0.550 OA
ENDBRANCH   7   8
ENDBRANCH   6   7
ENDBRANCH   5   6
ENDBRANCH   4   5
ENDBRANCH   3   4
ENDBRANCH   2   3
ENDBRANCH   1   2
BRANCH   1  11
ATOM     11  C   UNL     1      47.762  17.279  -6.069  1.00  0.00    -0.031 C 
ATOM     12  C   UNL     1      46.788  17.792  -6.842  1.00  0.00    -0.027 C 
BRANCH  12  13
ATOM     13  C   UNL     1      45.314  17.716  -6.522  1.00  0.00     0.054 C 
BRANCH  13  14
ATOM     14  C   UNL     1      44.780  19.029  -6.027  1.00  0.00    -0.027 C 
ATOM     15  C   UNL     1      43.922  19.097  -4.998  1.00  0.00    -0.031 C 
BRANCH  15  16
ATOM     16  C   UNL     1      43.447  20.417  -4.455  1.00  0.00     0.027 C 
BRANCH  16  17
ATOM     17  C   UNL     1      43.366  20.418  -2.921  1.00  0.00     0.004 C 
BRANCH  17  18
ATOM     18  C   UNL     1      41.934  20.677  -2.418  1.00  0.00     0.000 C 
BRANCH  18  19
ATOM     19  C   UNL     1      41.773  20.378  -0.919  1.00  0.00    -0.003 C 
ATOM     20  C   UNL     1      40.310  20.310  -0.481  1.00  0.00     0.004 C 
ENDBRANCH  18  19
ENDBRANCH  17  18
ENDBRANCH  16  17
ENDBRANCH  15  16
ENDBRANCH  13  14
ENDBRANCH  12  13
ENDBRANCH   1  11
TORSDOF 14
ENDMDL
MODEL 4
REMARK VINA RESULT:    -3.542      2.946      6.546
REMARK INTER + INTRA:          -8.933
REMARK INTER:                  -7.464
REMARK INTRA:                  -1.470
REMARK UNBOUND:                -2.492
REMARK SMILES CCCCCC=CCC=CCCCCCCCC(=O)[O-]
REMARK SMILES IDX 11 1 12 2 13 3 14 4 15 5 16 6 17 7 18 8 19 9 20 10 10 11
REMARK SMILES IDX 9 12 8 13 7 14 6 15 5 16 4 17 3 18 2 19 1 20
REMARK H PARENT
REMARK Flexibility Score: inf
ROOT
ATOM      1  C   UNL     1      45.093  16.063  -4.018  1.00  0.00     0.027 C 
ENDROOT
BRANCH   1   2
ATOM      2  C   UNL     1      45.360  15.013  -2.928  1.00  0.00     0.004 C 
BRANCH   2   3
ATOM      3  C   UNL     1      45.308  13.552  -3.426  1.00  0.00     0.000 C 
BRANCH   3   4
ATOM      4  C   UNL     1      46.426  12.634  -2.886  1.00  0.00     0.000 C 
BRANCH   4   5
ATOM      5  C   UNL     1      47.769  13.339  -2.603  1.00  0.00     0.000 C 
BRANCH   5   6
ATOM      6  C   UNL     1      48.868  13.079  -3.647  1.00  0.00     0.006 C 
BRANCH   6   7
ATOM      7  C   UNL     1      49.174  14.312  -4.509  1.00  0.00     0.053 C 
BRANCH   7   8
ATOM      8  C   UNL     1      50.602  14.295  -4.961  1.00  0.00     0.041 C 
ATOM      9  O   UNL     1      51.151  13.211  -5.292  1.00  0.00    -0.550 OA
ATOM     10  O   UNL     1      51.343  15.471  -4.968  1.00  0.00    -0.550 OA
ENDBRANCH   7   8
ENDBRANCH   6   7
ENDBRANCH   5   6
ENDBRANCH   4   5
ENDBRANCH   3   4
ENDBRANCH   2   3
ENDBRANCH   1   2
BRANCH   1  11
ATOM     11  C   UNL     1      46.356  16.503  -4.718  1.00  0.00    -0.031 C 
ATOM     12  C   UNL     1      46.362  17.234  -5.847  1.00  0.00    -0.027 C 
BRANCH  12  13
ATOM     13  C   UNL     1      45.122  17.750  -6.538  1.00  0.00     0.054 C 
BRANCH  13  14
ATOM     14  C   UNL     1      44.777  19.144  -6.101  1.00  0.00    -0.027 C 
ATOM     15  C   UNL     1      43.907  19.375  -5.107  1.00  0.00    -0.031 C 
BRANCH  15  16
ATOM     16  C   UNL     1      43.620  20.769  -4.620  1.00  0.00     0.027 C 
BRANCH  16  17
ATOM     17  C   UNL     1      43.124  20.786  -3.167  1.00  0.00     0.004 C 
BRANCH  17  18
ATOM     18  C   UNL     1      43.028  19.369  -2.571  1.00  0.00     0.000 C 
BRANCH  18  19
ATOM     19  C   UNL     1      41.888  19.235  -1.549  1.00  0.00    -0.003 C 
ATOM     20  C   UNL     1      41.509  20.568  -0.904  1.00  0.00     0.004 C 
ENDBRANCH  18  19
ENDBRANCH  17  18
ENDBRANCH  16  17
ENDBRANCH  15  16
ENDBRANCH  13  14
ENDBRANCH  12  13
ENDBRANCH   1  11
TORSDOF 14
ENDMDL
MODEL 5
REMARK VINA RESULT:    -3.496      1.225      2.109
REMARK INTER + INTRA:          -8.850
REMARK INTER:                  -7.101
REMARK INTRA:                  -1.748
REMARK UNBOUND:                -2.492
REMARK SMILES CCCCCC=CCC=CCCCCCCCC(=O)[O-]
REMARK SMILES IDX 11 1 12 2 13 3 14 4 15 5 16 6 17 7 18 8 19 9 20 10 10 11
REMARK SMILES IDX 9 12 8 13 7 14 6 15 5 16 4 17 3 18 2 19 1 20
REMARK H PARENT
REMARK Flexibility Score: inf
ROOT
ATOM      1  C   UNL     1      43.091  20.018  -2.123  1.00  0.00     0.027 C 
ENDROOT
BRANCH   1   2
ATOM      2  C   UNL     1      42.011  20.530  -1.156  1.00  0.00     0.004 C 
BRANCH   2   3
ATOM      3  C   UNL     1      40.672  19.764  -1.236  1.00  0.00     0.000 C 
BRANCH   3   4
ATOM      4  C   UNL     1      40.283  19.267  -2.644  1.00  0.00     0.000 C 
BRANCH   4   5
ATOM      5  C   UNL     1      40.058  17.746  -2.760  1.00  0.00     0.000 C 
BRANCH   5   6
ATOM      6  C   UNL     1      41.255  16.955  -3.315  1.00  0.00     0.006 C 
BRANCH   6   7
ATOM      7  C   UNL     1      42.048  16.229  -2.219  1.00  0.00     0.053 C 
BRANCH   7   8
ATOM      8  C   UNL     1      43.393  15.816  -2.731  1.00  0.00     0.041 C 
ATOM      9  O   UNL     1      43.567  14.663  -3.206  1.00  0.00    -0.550 OA
ATOM     10  O   UNL     1      44.471  16.689  -2.634  1.00  0.00    -0.550 OA
ENDBRANCH   7   8
ENDBRANCH   6   7
ENDBRANCH   5   6
ENDBRANCH   4   5
ENDBRANCH   3   4
ENDBRANCH   2   3
ENDBRANCH   1   2
BRANCH   1  11
ATOM     11  C   UNL     1      43.366  20.988  -3.247  1.00  0.00    -0.031 C 
ATOM     12  C   UNL     1      43.608  20.606  -4.514  1.00  0.00    -0.027 C 
BRANCH  12  13
ATOM     13  C   UNL     1      43.592  19.173  -4.992  1.00  0.00     0.054 C 
BRANCH  13  14
ATOM     14  C   UNL     1      44.780  18.858  -5.855  1.00  0.00    -0.027 C 
ATOM     15  C   UNL     1      45.489  17.731  -5.692  1.00  0.00    -0.031 C 
BRANCH  15  16
ATOM     16  C   UNL     1      46.631  17.380  -6.605  1.00  0.00     0.027 C 
BRANCH  16  17
ATOM     17  C   UNL     1      47.856  16.868  -5.833  1.00  0.00     0.004 C 
BRANCH  17  18
ATOM     18  C   UNL     1      47.461  16.163  -4.522  1.00  0.00     0.000 C 
BRANCH  18  19
ATOM     19  C   UNL     1      47.619  14.637  -4.603  1.00  0.00    -0.003 C 
ATOM     20  C   UNL     1      47.891  13.995  -3.242  1.00  0.00     0.004 C 
ENDBRANCH  18  19
ENDBRANCH  17  18
ENDBRANCH  16  17
ENDBRANCH  15  16
ENDBRANCH  13  14
ENDBRANCH  12  13
ENDBRANCH   1  11
TORSDOF 14
ENDMDL
MODEL 6
REMARK VINA RESULT:    -3.482      2.447      5.081
REMARK INTER + INTRA:          -8.824
REMARK INTER:                  -6.881
REMARK INTRA:                  -1.943
REMARK UNBOUND:                -2.492
REMARK SMILES CCCCCC=CCC=CCCCCCCCC(=O)[O-]
REMARK SMILES IDX 11 1 12 2 13 3 14 4 15 5 16 6 17 7 18 8 19 9 20 10 10 11
REMARK SMILES IDX 9 12 8 13 7 14 6 15 5 16 4 17 3 18 2 19 1 20
REMARK H PARENT
REMARK Flexibility Score: inf
ROOT
ATOM      1  C   UNL     1      43.000  16.249  -4.191  1.00  0.00     0.027 C 
ENDROOT
BRANCH   1   2
ATOM      2  C   UNL     1      43.139  17.177  -5.409  1.00  0.00     0.004 C 
BRANCH   2   3
ATOM      3  C   UNL     1      44.303  18.187  -5.308  1.00  0.00     0.000 C 
BRANCH   3   4
ATOM      4  C   UNL     1      44.020  19.577  -5.916  1.00  0.00     0.000 C 
BRANCH   4   5
ATOM      5  C   UNL     1      43.905  20.726  -4.892  1.00  0.00     0.000 C 
BRANCH   5   6
ATOM      6  C   UNL     1      42.789  20.553  -3.848  1.00  0.00     0.006 C 
BRANCH   6   7
ATOM      7  C   UNL     1      43.331  20.355  -2.426  1.00  0.00     0.053 C 
BRANCH   7   8
ATOM      8  C   UNL     1      42.218  20.013  -1.483  1.00  0.00     0.041 C 
ATOM      9  O   UNL     1      41.835  18.820  -1.358  1.00  0.00    -0.550 OA
ATOM     10  O   UNL     1      41.567  21.021  -0.781  1.00  0.00    -0.550 OA
ENDBRANCH   7   8
ENDBRANCH   6   7
ENDBRANCH   5   6
ENDBRANCH   4   5
ENDBRANCH   3   4
ENDBRANCH   2   3
ENDBRANCH   1   2
BRANCH   1  11
ATOM     11  C   UNL     1      43.981  16.584  -3.094  1.00  0.00    -0.031 C 
ATOM     12  C   UNL     1      45.115  15.894  -2.875  1.00  0.00    -0.027 C 
BRANCH  12  13
ATOM     13  C   UNL     1      45.582  14.731  -3.718  1.00  0.00     0.054 C 
BRANCH  13  14
ATOM     14  C   UNL     1      46.611  15.150  -4.728  1.00  0.00    -0.027 C 
ATOM     15  C   UNL     1      47.350  16.257  -4.564  1.00  0.00    -0.031 C 
BRANCH  15  16
ATOM     16  C   UNL     1      48.431  16.634  -5.538  1.00  0.00     0.027 C 
BRANCH  16  17
ATOM     17  C   UNL     1      48.995  15.413  -6.281  1.00  0.00     0.004 C 
BRANCH  17  18
ATOM     18  C   UNL     1      50.518  15.278  -6.099  1.00  0.00     0.000 C 
BRANCH  18  19
ATOM     19  C   UNL     1      50.892  14.428  -4.875  1.00  0.00    -0.003 C 
ATOM     20  C   UNL     1      49.870  13.331  -4.578  1.00  0.00     0.004 C 
ENDBRANCH  18  19
ENDBRANCH  17  18
ENDBRANCH  16  17
ENDBRANCH  15  16
ENDBRANCH  13  14
ENDBRANCH  12  13
ENDBRANCH   1  11
TORSDOF 14
ENDMDL
MODEL 7
REMARK VINA RESULT:    -3.481      3.293      7.382
REMARK INTER + INTRA:          -8.823
REMARK INTER:                  -7.379
REMARK INTRA:                  -1.444
REMARK UNBOUND:                -2.492
REMARK SMILES CCCCCC=CCC=CCCCCCCCC(=O)[O-]
REMARK SMILES IDX 11 1 12 2 13 3 14 4 15 5 16 6 17 7 18 8 19 9 20 10 10 11
REMARK SMILES IDX 9 12 8 13 7 14 6 15 5 16 4 17 3 18 2 19 1 20
REMARK H PARENT
REMARK Flexibility Score: inf
ROOT
ATOM      1  C   UNL     1      45.891  15.320  -4.087  1.00  0.00     0.027 C 
ENDROOT
BRANCH   1   2
ATOM      2  C   UNL     1      46.468  13.912  -3.866  1.00  0.00     0.004 C 
BRANCH   2   3
ATOM      3  C   UNL     1      47.767  13.881  -3.031  1.00  0.00     0.000 C 
BRANCH   3   4
ATOM      4  C   UNL     1      48.992  13.273  -3.746  1.00  0.00     0.000 C 
BRANCH   4   5
ATOM      5  C   UNL     1      48.842  13.109  -5.272  1.00  0.00     0.000 C 
BRANCH   5   6
ATOM      6  C   UNL     1      49.501  14.217  -6.110  1.00  0.00     0.006 C 
BRANCH   6   7
ATOM      7  C   UNL     1      50.407  15.135  -5.278  1.00  0.00     0.053 C 
BRANCH   7   8
ATOM      8  C   UNL     1      51.808  15.107  -5.804  1.00  0.00     0.041 C 
ATOM      9  O   UNL     1      52.473  16.172  -5.899  1.00  0.00    -0.550 OA
ATOM     10  O   UNL     1      52.363  13.909  -6.241  1.00  0.00    -0.550 OA
ENDBRANCH   7   8
ENDBRANCH   6   7
ENDBRANCH   5   6
ENDBRANCH   4   5
ENDBRANCH   3   4
ENDBRANCH   2   3
ENDBRANCH   1   2
BRANCH   1  11
ATOM     11  C   UNL     1      46.910  16.280  -4.651  1.00  0.00    -0.031 C 
ATOM     12  C   UNL     1      46.619  17.212  -5.575  1.00  0.00    -0.027 C 
BRANCH  12  13
ATOM     13  C   UNL     1      45.238  17.458  -6.136  1.00  0.00     0.054 C 
BRANCH  13  14
ATOM     14  C   UNL     1      44.773  18.863  -5.882  1.00  0.00    -0.027 C 
ATOM     15  C   UNL     1      43.968  19.163  -4.852  1.00  0.00    -0.031 C 
BRANCH  15  16
ATOM     16  C   UNL     1      43.564  20.581  -4.555  1.00  0.00     0.027 C 
BRANCH  16  17
ATOM     17  C   UNL     1      42.452  20.659  -3.499  1.00  0.00     0.004 C 
BRANCH  17  18
ATOM     18  C   UNL     1      42.980  20.378  -2.080  1.00  0.00     0.000 C 
BRANCH  18  19
ATOM     19  C   UNL     1      41.979  19.587  -1.224  1.00  0.00    -0.003 C 
ATOM     20  C   UNL     1      40.816  20.444  -0.724  1.00  0.00     0.004 C 
ENDBRANCH  18  19
ENDBRANCH  17  18
ENDBRANCH  16  17
ENDBRANCH  15  16
ENDBRANCH  13  14
ENDBRANCH  12  13
ENDBRANCH   1  11
TORSDOF 14
ENDMDL
MODEL 8
REMARK VINA RESULT:    -3.460      2.531      6.115
REMARK INTER + INTRA:          -8.785
REMARK INTER:                  -6.593
REMARK INTRA:                  -2.192
REMARK UNBOUND:                -2.492
REMARK SMILES CCCCCC=CCC=CCCCCCCCC(=O)[O-]
REMARK SMILES IDX 11 1 12 2 13 3 14 4 15 5 16 6 17 7 18 8 19 9 20 10 10 11
REMARK SMILES IDX 9 12 8 13 7 14 6 15 5 16 4 17 3 18 2 19 1 20
REMARK H PARENT
REMARK Flexibility Score: inf
ROOT
ATOM      1  C   UNL     1      45.137  17.101  -4.961  1.00  0.00     0.027 C 
ENDROOT
BRANCH   1   2
ATOM      2  C   UNL     1      46.382  16.565  -5.686  1.00  0.00     0.004 C 
BRANCH   2   3
ATOM      3  C   UNL     1      47.623  16.403  -4.781  1.00  0.00     0.000 C 
BRANCH   3   4
ATOM      4  C   UNL     1      48.158  14.961  -4.653  1.00  0.00     0.000 C 
BRANCH   4   5
ATOM      5  C   UNL     1      47.145  13.855  -5.015  1.00  0.00     0.000 C 
BRANCH   5   6
ATOM      6  C   UNL     1      46.459  13.186  -3.811  1.00  0.00     0.006 C 
BRANCH   6   7
ATOM      7  C   UNL     1      47.121  13.544  -2.474  1.00  0.00     0.053 C 
BRANCH   7   8
ATOM      8  C   UNL     1      47.789  12.342  -1.880  1.00  0.00     0.041 C 
ATOM      9  O   UNL     1      48.831  11.869  -2.406  1.00  0.00    -0.550 OA
ATOM     10  O   UNL     1      47.230  11.711  -0.775  1.00  0.00    -0.550 OA
ENDBRANCH   7   8
ENDBRANCH   6   7
ENDBRANCH   5   6
ENDBRANCH   4   5
ENDBRANCH   3   4
ENDBRANCH   2   3
ENDBRANCH   1   2
BRANCH   1  11
ATOM     11  C   UNL     1      45.028  16.589  -3.545  1.00  0.00    -0.031 C 
ATOM     12  C   UNL     1      43.881  16.141  -3.004  1.00  0.00    -0.027 C 
BRANCH  12  13
ATOM     13  C   UNL     1      42.568  16.043  -3.745  1.00  0.00     0.054 C 
BRANCH  13  14
ATOM     14  C   UNL     1      41.692  17.236  -3.492  1.00  0.00    -0.027 C 
ATOM     15  C   UNL     1      41.557  17.763  -2.266  1.00  0.00    -0.031 C 
BRANCH  15  16
ATOM     16  C   UNL     1      40.739  19.003  -2.029  1.00  0.00     0.027 C 
BRANCH  16  17
ATOM     17  C   UNL     1      41.601  20.186  -1.563  1.00  0.00     0.004 C 
BRANCH  17  18
ATOM     18  C   UNL     1      42.117  21.027  -2.745  1.00  0.00     0.000 C 
BRANCH  18  19
ATOM     19  C   UNL     1      43.534  20.623  -3.182  1.00  0.00    -0.003 C 
ATOM     20  C   UNL     1      43.653  20.412  -4.691  1.00  0.00     0.004 C 
ENDBRANCH  18  19
ENDBRANCH  17  18
ENDBRANCH  16  17
ENDBRANCH  15  16
ENDBRANCH  13  14
ENDBRANCH  12  13
ENDBRANCH   1  11
TORSDOF 14
ENDMDL
MODEL 9
REMARK VINA RESULT:    -3.450      1.438      4.372
REMARK INTER + INTRA:          -8.765
REMARK INTER:                  -6.202
REMARK INTRA:                  -2.564
REMARK UNBOUND:                -2.492
REMARK SMILES CCCCCC=CCC=CCCCCCCCC(=O)[O-]
REMARK SMILES IDX 11 1 12 2 13 3 14 4 15 5 16 6 17 7 18 8 19 9 20 10 10 11
REMARK SMILES IDX 9 12 8 13 7 14 6 15 5 16 4 17 3 18 2 19 1 20
REMARK H PARENT
REMARK Flexibility Score: inf
ROOT
ATOM      1  C   UNL     1      42.881  20.924  -3.230  1.00  0.00     0.027 C 
ENDROOT
BRANCH   1   2
ATOM      2  C   UNL     1      43.609  20.246  -4.402  1.00  0.00     0.004 C 
BRANCH   2   3
ATOM      3  C   UNL     1      42.748  19.230  -5.183  1.00  0.00     0.000 C 
BRANCH   3   4
ATOM      4  C   UNL     1      43.530  18.297  -6.131  1.00  0.00     0.000 C 
BRANCH   4   5
ATOM      5  C   UNL     1      45.066  18.416  -6.042  1.00  0.00     0.000 C 
BRANCH   5   6
ATOM      6  C   UNL     1      45.825  17.081  -6.132  1.00  0.00     0.006 C 
BRANCH   6   7
ATOM      7  C   UNL     1      47.287  17.196  -5.679  1.00  0.00     0.053 C 
BRANCH   7   8
ATOM      8  C   UNL     1      47.702  15.969  -4.929  1.00  0.00     0.041 C 
ATOM      9  O   UNL     1      46.857  15.078  -4.650  1.00  0.00    -0.550 OA
ATOM     10  O   UNL     1      49.014  15.833  -4.490  1.00  0.00    -0.550 OA
ENDBRANCH   7   8
ENDBRANCH   6   7
ENDBRANCH   5   6
ENDBRANCH   4   5
ENDBRANCH   3   4
ENDBRANCH   2   3
ENDBRANCH   1   2
BRANCH   1  11
ATOM     11  C   UNL     1      43.121  20.221  -1.916  1.00  0.00    -0.031 C 
ATOM     12  C   UNL     1      42.134  19.854  -1.079  1.00  0.00    -0.027 C 
BRANCH  12  13
ATOM     13  C   UNL     1      40.662  20.050  -1.357  1.00  0.00     0.054 C 
BRANCH  13  14
ATOM     14  C   UNL     1      40.164  19.114  -2.420  1.00  0.00    -0.027 C 
ATOM     15  C   UNL     1      40.658  17.874  -2.554  1.00  0.00    -0.031 C 
BRANCH  15  16
ATOM     16  C   UNL     1      40.105  16.913  -3.570  1.00  0.00     0.027 C 
BRANCH  16  17
ATOM     17  C   UNL     1      41.186  15.979  -4.134  1.00  0.00     0.004 C 
BRANCH  17  18
ATOM     18  C   UNL     1      42.112  15.433  -3.032  1.00  0.00     0.000 C 
BRANCH  18  19
ATOM     19  C   UNL     1      43.598  15.525  -3.412  1.00  0.00    -0.003 C 
ATOM     20  C   UNL     1      44.288  16.753  -2.817  1.00  0.00     0.004 C 
ENDBRANCH  18  19
ENDBRANCH  17  18
ENDBRANCH  16  17
ENDBRANCH  15  16
ENDBRANCH  13  14
ENDBRANCH  12  13
ENDBRANCH   1  11
TORSDOF 14
ENDMDL
