MODEL 1
REMARK VINA RESULT:    14.201      0.000      0.000
REMARK INTER + INTRA:          32.953
REMARK INTER:                  32.466
REMARK INTRA:                   0.487
REMARK UNBOUND:                 0.487
REMARK SMILES CCCCCCCCCCCCCCCCCCCCCCCC(=O)[O-]
REMARK SMILES IDX 13 1 14 2 15 3 16 4 17 5 18 6 19 7 20 8 21 9 22 10 23 11
REMARK SMILES IDX 24 12 25 13 26 14 12 15 11 16 10 17 9 18 8 19 7 20 6 21 5 22
REMARK SMILES IDX 4 23 3 24 2 25 1 26
REMARK H PARENT
REMARK Flexibility Score: inf
ROOT
ATOM      1  C   UNL     1     -13.401  30.455 -20.726  1.00  0.00     0.000 C 
ENDROOT
BRANCH   1   2
ATOM      2  C   UNL     1     -13.530  31.665 -21.664  1.00  0.00     0.000 C 
BRANCH   2   3
ATOM      3  C   UNL     1     -12.860  32.905 -21.060  1.00  0.00     0.000 C 
BRANCH   3   4
ATOM      4  C   UNL     1     -11.837  33.512 -22.034  1.00  0.00     0.000 C 
BRANCH   4   5
ATOM      5  C   UNL     1     -10.574  34.028 -21.315  1.00  0.00     0.000 C 
BRANCH   5   6
ATOM      6  C   UNL     1     -10.419  33.505 -19.874  1.00  0.00     0.000 C 
BRANCH   6   7
ATOM      7  C   UNL     1      -8.979  33.602 -19.352  1.00  0.00     0.000 C 
BRANCH   7   8
ATOM      8  C   UNL     1      -8.952  33.909 -17.847  1.00  0.00     0.000 C 
BRANCH   8   9
ATOM      9  C   UNL     1      -7.899  33.076 -17.097  1.00  0.00     0.000 C 
BRANCH   9  10
ATOM     10  C   UNL     1      -7.469  33.720 -15.767  1.00  0.00     0.006 C 
BRANCH  10  11
ATOM     11  C   UNL     1      -6.081  34.369 -15.859  1.00  0.00     0.053 C 
BRANCH  11  12
ATOM     12  C   UNL     1      -6.012  35.397 -16.947  1.00  0.00     0.041 C 
ATOM     13  O   UNL     1      -5.876  36.615 -16.661  1.00  0.00    -0.550 OA
ATOM     14  O   UNL     1      -6.145  35.012 -18.276  1.00  0.00    -0.550 OA
ENDBRANCH  11  12
ENDBRANCH  10  11
ENDBRANCH   9  10
ENDBRANCH   8   9
ENDBRANCH   7   8
ENDBRANCH   6   7
ENDBRANCH   5   6
ENDBRANCH   4   5
ENDBRANCH   3   4
ENDBRANCH   2   3
ENDBRANCH   1   2
BRANCH   1  15
ATOM     15  C   UNL     1     -14.691  30.182 -19.925  1.00  0.00     0.000 C 
BRANCH  15  16
ATOM     16  C   UNL     1     -15.091  28.698 -19.861  1.00  0.00     0.000 C 
BRANCH  16  17
ATOM     17  C   UNL     1     -16.432  28.467 -19.148  1.00  0.00     0.000 C 
BRANCH  17  18
ATOM     18  C   UNL     1     -17.165  27.247 -19.720  1.00  0.00    -0.000 C 
BRANCH  18  19
ATOM     19  C   UNL     1     -16.458  25.944 -19.320  1.00  0.00    -0.000 C 
BRANCH  19  20
ATOM     20  C   UNL     1     -16.960  25.372 -17.982  1.00  0.00    -0.000 C 
BRANCH  20  21
ATOM     21  C   UNL     1     -16.206  24.101 -17.532  1.00  0.00    -0.000 C 
BRANCH  21  22
ATOM     22  C   UNL     1     -15.668  23.297 -18.729  1.00  0.00    -0.000 C 
BRANCH  22  23
ATOM     23  C   UNL     1     -16.667  23.231 -19.899  1.00  0.00    -0.000 C 
BRANCH  23  24
ATOM     24  C   UNL     1     -16.019  23.050 -21.284  1.00  0.00    -0.000 C 
BRANCH  24  25
ATOM     25  C   UNL     1     -14.494  23.244 -21.261  1.00  0.00    -0.003 C 
ATOM     26  C   UNL     1     -13.951  23.479 -22.667  1.00  0.00     0.004 C 
ENDBRANCH  24  25
ENDBRANCH  23  24
ENDBRANCH  22  23
ENDBRANCH  21  22
ENDBRANCH  20  21
ENDBRANCH  19  20
ENDBRANCH  18  19
ENDBRANCH  17  18
ENDBRANCH  16  17
ENDBRANCH  15  16
ENDBRANCH   1  15
TORSDOF 22
ENDMDL
MODEL 2
REMARK VINA RESULT:    14.809      1.612      2.342
REMARK INTER + INTRA:          34.341
REMARK INTER:                  34.766
REMARK INTRA:                  -0.425
REMARK UNBOUND:                 0.487
REMARK SMILES CCCCCCCCCCCCCCCCCCCCCCCC(=O)[O-]
REMARK SMILES IDX 13 1 14 2 15 3 16 4 17 5 18 6 19 7 20 8 21 9 22 10 23 11
REMARK SMILES IDX 24 12 25 13 26 14 12 15 11 16 10 17 9 18 8 19 7 20 6 21 5 22
REMARK SMILES IDX 4 23 3 24 2 25 1 26
REMARK H PARENT
REMARK Flexibility Score: inf
ROOT
ATOM      1  C   UNL     1     -13.543  32.244 -20.966  1.00  0.00     0.000 C 
ENDROOT
BRANCH   1   2
ATOM      2  C   UNL     1     -12.246  32.655 -21.680  1.00  0.00     0.000 C 
BRANCH   2   3
ATOM      3  C   UNL     1     -11.494  33.730 -20.884  1.00  0.00     0.000 C 
BRANCH   3   4
ATOM      4  C   UNL     1     -10.066  33.272 -20.547  1.00  0.00     0.000 C 
BRANCH   4   5
ATOM      5  C   UNL     1      -9.196  34.418 -19.991  1.00  0.00     0.000 C 
BRANCH   5   6
ATOM      6  C   UNL     1      -8.647  34.154 -18.576  1.00  0.00     0.000 C 
BRANCH   6   7
ATOM      7  C   UNL     1      -7.113  34.152 -18.518  1.00  0.00     0.000 C 
BRANCH   7   8
ATOM      8  C   UNL     1      -6.576  35.473 -17.948  1.00  0.00     0.000 C 
BRANCH   8   9
ATOM      9  C   UNL     1      -6.365  35.413 -16.426  1.00  0.00     0.000 C 
BRANCH   9  10
ATOM     10  C   UNL     1      -6.332  33.973 -15.887  1.00  0.00     0.006 C 
BRANCH  10  11
ATOM     11  C   UNL     1      -7.618  33.605 -15.134  1.00  0.00     0.053 C 
BRANCH  11  12
ATOM     12  C   UNL     1      -8.256  32.366 -15.684  1.00  0.00     0.041 C 
ATOM     13  O   UNL     1      -7.756  31.785 -16.684  1.00  0.00    -0.550 OA
ATOM     14  O   UNL     1      -9.428  31.878 -15.120  1.00  0.00    -0.550 OA
ENDBRANCH  11  12
ENDBRANCH  10  11
ENDBRANCH   9  10
ENDBRANCH   8   9
ENDBRANCH   7   8
ENDBRANCH   6   7
ENDBRANCH   5   6
ENDBRANCH   4   5
ENDBRANCH   3   4
ENDBRANCH   2   3
ENDBRANCH   1   2
BRANCH   1  15
ATOM     15  C   UNL     1     -13.766  30.718 -20.967  1.00  0.00     0.000 C 
BRANCH  15  16
ATOM     16  C   UNL     1     -14.442  30.178 -19.695  1.00  0.00     0.000 C 
BRANCH  16  17
ATOM     17  C   UNL     1     -15.676  29.313 -19.990  1.00  0.00     0.000 C 
BRANCH  17  18
ATOM     18  C   UNL     1     -16.031  28.421 -18.795  1.00  0.00    -0.000 C 
BRANCH  18  19
ATOM     19  C   UNL     1     -16.897  27.232 -19.234  1.00  0.00    -0.000 C 
BRANCH  19  20
ATOM     20  C   UNL     1     -16.947  26.103 -18.188  1.00  0.00    -0.000 C 
BRANCH  20  21
ATOM     21  C   UNL     1     -16.992  24.690 -18.809  1.00  0.00    -0.000 C 
BRANCH  21  22
ATOM     22  C   UNL     1     -15.748  23.861 -18.445  1.00  0.00    -0.000 C 
BRANCH  22  23
ATOM     23  C   UNL     1     -15.198  23.057 -19.637  1.00  0.00    -0.000 C 
BRANCH  23  24
ATOM     24  C   UNL     1     -15.941  23.293 -20.965  1.00  0.00    -0.000 C 
BRANCH  24  25
ATOM     25  C   UNL     1     -15.088  22.951 -22.197  1.00  0.00    -0.003 C 
ATOM     26  C   UNL     1     -13.607  22.876 -21.835  1.00  0.00     0.004 C 
ENDBRANCH  24  25
ENDBRANCH  23  24
ENDBRANCH  22  23
ENDBRANCH  21  22
ENDBRANCH  20  21
ENDBRANCH  19  20
ENDBRANCH  18  19
ENDBRANCH  17  18
ENDBRANCH  16  17
ENDBRANCH  15  16
ENDBRANCH   1  15
TORSDOF 22
ENDMDL
MODEL 3
REMARK VINA RESULT:    15.407      1.787      2.068
REMARK INTER + INTRA:          35.708
REMARK INTER:                  37.055
REMARK INTRA:                  -1.347
REMARK UNBOUND:                 0.487
REMARK SMILES CCCCCCCCCCCCCCCCCCCCCCCC(=O)[O-]
REMARK SMILES IDX 13 1 14 2 15 3 16 4 17 5 18 6 19 7 20 8 21 9 22 10 23 11
REMARK SMILES IDX 24 12 25 13 26 14 12 15 11 16 10 17 9 18 8 19 7 20 6 21 5 22
REMARK SMILES IDX 4 23 3 24 2 25 1 26
REMARK H PARENT
REMARK Flexibility Score: inf
ROOT
ATOM      1  C   UNL     1     -14.144  30.843 -20.226  1.00  0.00     0.000 C 
ENDROOT
BRANCH   1   2
ATOM      2  C   UNL     1     -12.842  31.341 -20.871  1.00  0.00     0.000 C 
BRANCH   2   3
ATOM      3  C   UNL     1     -13.033  32.724 -21.506  1.00  0.00     0.000 C 
BRANCH   3   4
ATOM      4  C   UNL     1     -11.836  33.641 -21.208  1.00  0.00     0.000 C 
BRANCH   4   5
ATOM      5  C   UNL     1     -10.663  32.882 -20.554  1.00  0.00     0.000 C 
BRANCH   5   6
ATOM      6  C   UNL     1      -9.423  33.759 -20.291  1.00  0.00     0.000 C 
BRANCH   6   7
ATOM      7  C   UNL     1      -8.987  33.756 -18.820  1.00  0.00     0.000 C 
BRANCH   7   8
ATOM      8  C   UNL     1      -7.525  34.205 -18.672  1.00  0.00     0.000 C 
BRANCH   8   9
ATOM      9  C   UNL     1      -7.253  34.880 -17.317  1.00  0.00     0.000 C 
BRANCH   9  10
ATOM     10  C   UNL     1      -6.802  33.881 -16.236  1.00  0.00     0.006 C 
BRANCH  10  11
ATOM     11  C   UNL     1      -7.948  33.494 -15.291  1.00  0.00     0.053 C 
BRANCH  11  12
ATOM     12  C   UNL     1      -8.375  32.070 -15.481  1.00  0.00     0.041 C 
ATOM     13  O   UNL     1      -7.575  31.129 -15.235  1.00  0.00    -0.550 OA
ATOM     14  O   UNL     1      -9.643  31.785 -15.974  1.00  0.00    -0.550 OA
ENDBRANCH  11  12
ENDBRANCH  10  11
ENDBRANCH   9  10
ENDBRANCH   8   9
ENDBRANCH   7   8
ENDBRANCH   6   7
ENDBRANCH   5   6
ENDBRANCH   4   5
ENDBRANCH   3   4
ENDBRANCH   2   3
ENDBRANCH   1   2
BRANCH   1  15
ATOM     15  C   UNL     1     -14.417  29.351 -20.510  1.00  0.00     0.000 C 
BRANCH  15  16
ATOM     16  C   UNL     1     -15.436  28.704 -19.556  1.00  0.00     0.000 C 
BRANCH  16  17
ATOM     17  C   UNL     1     -16.751  28.319 -20.250  1.00  0.00     0.000 C 
BRANCH  17  18
ATOM     18  C   UNL     1     -17.345  27.040 -19.649  1.00  0.00    -0.000 C 
BRANCH  18  19
ATOM     19  C   UNL     1     -16.857  26.832 -18.208  1.00  0.00    -0.000 C 
BRANCH  19  20
ATOM     20  C   UNL     1     -17.013  25.379 -17.723  1.00  0.00    -0.000 C 
BRANCH  20  21
ATOM     21  C   UNL     1     -15.929  24.426 -18.275  1.00  0.00    -0.000 C 
BRANCH  21  22
ATOM     22  C   UNL     1     -16.537  23.137 -18.853  1.00  0.00    -0.000 C 
BRANCH  22  23
ATOM     23  C   UNL     1     -16.137  22.895 -20.320  1.00  0.00    -0.000 C 
BRANCH  23  24
ATOM     24  C   UNL     1     -14.939  23.734 -20.803  1.00  0.00    -0.000 C 
BRANCH  24  25
ATOM     25  C   UNL     1     -14.901  23.900 -22.330  1.00  0.00    -0.003 C 
ATOM     26  C   UNL     1     -13.931  22.910 -22.966  1.00  0.00     0.004 C 
ENDBRANCH  24  25
ENDBRANCH  23  24
ENDBRANCH  22  23
ENDBRANCH  21  22
ENDBRANCH  20  21
ENDBRANCH  19  20
ENDBRANCH  18  19
ENDBRANCH  17  18
ENDBRANCH  16  17
ENDBRANCH  15  16
ENDBRANCH   1  15
TORSDOF 22
ENDMDL
MODEL 4
REMARK VINA RESULT:    16.016      4.381     11.685
REMARK INTER + INTRA:          37.102
REMARK INTER:                  38.172
REMARK INTRA:                  -1.070
REMARK UNBOUND:                 0.487
REMARK SMILES CCCCCCCCCCCCCCCCCCCCCCCC(=O)[O-]
REMARK SMILES IDX 13 1 14 2 15 3 16 4 17 5 18 6 19 7 20 8 21 9 22 10 23 11
REMARK SMILES IDX 24 12 25 13 26 14 12 15 11 16 10 17 9 18 8 19 7 20 6 21 5 22
REMARK SMILES IDX 4 23 3 24 2 25 1 26
REMARK H PARENT
REMARK Flexibility Score: inf
ROOT
ATOM      1  C   UNL     1     -13.132  32.379 -21.913  1.00  0.00     0.000 C 
ENDROOT
BRANCH   1   2
ATOM      2  C   UNL     1     -13.372  30.945 -21.417  1.00  0.00     0.000 C 
BRANCH   2   3
ATOM      3  C   UNL     1     -14.538  30.892 -20.422  1.00  0.00     0.000 C 
BRANCH   3   4
ATOM      4  C   UNL     1     -14.523  29.580 -19.621  1.00  0.00     0.000 C 
BRANCH   4   5
ATOM      5  C   UNL     1     -15.857  29.322 -18.890  1.00  0.00     0.000 C 
BRANCH   5   6
ATOM      6  C   UNL     1     -16.296  27.845 -18.896  1.00  0.00     0.000 C 
BRANCH   6   7
ATOM      7  C   UNL     1     -16.652  27.329 -20.297  1.00  0.00     0.000 C 
BRANCH   7   8
ATOM      8  C   UNL     1     -16.280  25.847 -20.455  1.00  0.00     0.000 C 
BRANCH   8   9
ATOM      9  C   UNL     1     -15.972  25.172 -19.108  1.00  0.00     0.000 C 
BRANCH   9  10
ATOM     10  C   UNL     1     -16.255  23.659 -19.123  1.00  0.00     0.006 C 
BRANCH  10  11
ATOM     11  C   UNL     1     -16.377  23.106 -20.550  1.00  0.00     0.053 C 
BRANCH  11  12
ATOM     12  C   UNL     1     -15.043  22.991 -21.223  1.00  0.00     0.041 C 
ATOM     13  O   UNL     1     -13.987  22.967 -20.538  1.00  0.00    -0.550 OA
ATOM     14  O   UNL     1     -14.965  22.957 -22.610  1.00  0.00    -0.550 OA
ENDBRANCH  11  12
ENDBRANCH  10  11
ENDBRANCH   9  10
ENDBRANCH   8   9
ENDBRANCH   7   8
ENDBRANCH   6   7
ENDBRANCH   5   6
ENDBRANCH   4   5
ENDBRANCH   3   4
ENDBRANCH   2   3
ENDBRANCH   1   2
BRANCH   1  15
ATOM     15  C   UNL     1     -12.371  33.244 -20.888  1.00  0.00     0.000 C 
BRANCH  15  16
ATOM     16  C   UNL     1     -10.968  33.678 -21.348  1.00  0.00     0.000 C 
BRANCH  16  17
ATOM     17  C   UNL     1      -9.840  33.007 -20.550  1.00  0.00     0.000 C 
BRANCH  17  18
ATOM     18  C   UNL     1      -9.178  33.995 -19.581  1.00  0.00    -0.000 C 
BRANCH  18  19
ATOM     19  C   UNL     1      -9.389  33.560 -18.124  1.00  0.00    -0.000 C 
BRANCH  19  20
ATOM     20  C   UNL     1      -8.152  32.878 -17.513  1.00  0.00    -0.000 C 
BRANCH  20  21
ATOM     21  C   UNL     1      -8.251  32.674 -15.985  1.00  0.00    -0.000 C 
BRANCH  21  22
ATOM     22  C   UNL     1      -7.475  33.753 -15.209  1.00  0.00    -0.000 C 
BRANCH  22  23
ATOM     23  C   UNL     1      -6.121  34.095 -15.858  1.00  0.00    -0.000 C 
BRANCH  23  24
ATOM     24  C   UNL     1      -6.038  35.511 -16.456  1.00  0.00    -0.000 C 
BRANCH  24  25
ATOM     25  C   UNL     1      -6.025  35.512 -17.993  1.00  0.00    -0.003 C 
ATOM     26  C   UNL     1      -6.191  36.926 -18.542  1.00  0.00     0.004 C 
ENDBRANCH  24  25
ENDBRANCH  23  24
ENDBRANCH  22  23
ENDBRANCH  21  22
ENDBRANCH  20  21
ENDBRANCH  19  20
ENDBRANCH  18  19
ENDBRANCH  17  18
ENDBRANCH  16  17
ENDBRANCH  15  16
ENDBRANCH   1  15
TORSDOF 22
ENDMDL
MODEL 5
REMARK VINA RESULT:    16.137      4.355     11.264
REMARK INTER + INTRA:          37.379
REMARK INTER:                  35.989
REMARK INTRA:                   1.390
REMARK UNBOUND:                 0.487
REMARK SMILES CCCCCCCCCCCCCCCCCCCCCCCC(=O)[O-]
REMARK SMILES IDX 13 1 14 2 15 3 16 4 17 5 18 6 19 7 20 8 21 9 22 10 23 11
REMARK SMILES IDX 24 12 25 13 26 14 12 15 11 16 10 17 9 18 8 19 7 20 6 21 5 22
REMARK SMILES IDX 4 23 3 24 2 25 1 26
REMARK H PARENT
REMARK Flexibility Score: inf
ROOT
ATOM      1  C   UNL     1     -13.628  31.720 -20.635  1.00  0.00     0.000 C 
ENDROOT
BRANCH   1   2
ATOM      2  C   UNL     1     -13.871  30.244 -20.986  1.00  0.00     0.000 C 
BRANCH   2   3
ATOM      3  C   UNL     1     -14.137  29.413 -19.724  1.00  0.00     0.000 C 
BRANCH   3   4
ATOM      4  C   UNL     1     -15.645  29.235 -19.485  1.00  0.00     0.000 C 
BRANCH   4   5
ATOM      5  C   UNL     1     -16.210  27.987 -20.194  1.00  0.00     0.000 C 
BRANCH   5   6
ATOM      6  C   UNL     1     -17.260  27.222 -19.366  1.00  0.00     0.000 C 
BRANCH   6   7
ATOM      7  C   UNL     1     -16.653  26.470 -18.173  1.00  0.00     0.000 C 
BRANCH   7   8
ATOM      8  C   UNL     1     -16.414  24.991 -18.511  1.00  0.00     0.000 C 
BRANCH   8   9
ATOM      9  C   UNL     1     -16.429  24.725 -20.026  1.00  0.00     0.000 C 
BRANCH   9  10
ATOM     10  C   UNL     1     -16.187  23.246 -20.373  1.00  0.00     0.006 C 
BRANCH  10  11
ATOM     11  C   UNL     1     -14.692  22.908 -20.463  1.00  0.00     0.053 C 
BRANCH  11  12
ATOM     12  C   UNL     1     -14.173  23.030 -21.863  1.00  0.00     0.041 C 
ATOM     13  O   UNL     1     -14.971  23.189 -22.824  1.00  0.00    -0.550 OA
ATOM     14  O   UNL     1     -12.810  22.924 -22.112  1.00  0.00    -0.550 OA
ENDBRANCH  11  12
ENDBRANCH  10  11
ENDBRANCH   9  10
ENDBRANCH   8   9
ENDBRANCH   7   8
ENDBRANCH   6   7
ENDBRANCH   5   6
ENDBRANCH   4   5
ENDBRANCH   3   4
ENDBRANCH   2   3
ENDBRANCH   1   2
BRANCH   1  15
ATOM     15  C   UNL     1     -13.419  32.602 -21.883  1.00  0.00     0.000 C 
BRANCH  15  16
ATOM     16  C   UNL     1     -12.049  33.301 -21.938  1.00  0.00     0.000 C 
BRANCH  16  17
ATOM     17  C   UNL     1     -11.235  33.132 -20.647  1.00  0.00     0.000 C 
BRANCH  17  18
ATOM     18  C   UNL     1      -9.864  33.811 -20.759  1.00  0.00    -0.000 C 
BRANCH  18  19
ATOM     19  C   UNL     1      -9.171  33.878 -19.390  1.00  0.00    -0.000 C 
BRANCH  19  20
ATOM     20  C   UNL     1      -9.006  32.498 -18.729  1.00  0.00    -0.000 C 
BRANCH  20  21
ATOM     21  C   UNL     1      -8.147  32.528 -17.446  1.00  0.00    -0.000 C 
BRANCH  21  22
ATOM     22  C   UNL     1      -8.851  31.836 -16.266  1.00  0.00    -0.000 C 
BRANCH  22  23
ATOM     23  C   UNL     1      -8.209  32.174 -14.908  1.00  0.00    -0.000 C 
BRANCH  23  24
ATOM     24  C   UNL     1      -7.642  33.602 -14.807  1.00  0.00    -0.000 C 
BRANCH  24  25
ATOM     25  C   UNL     1      -7.732  34.378 -16.130  1.00  0.00    -0.003 C 
ATOM     26  C   UNL     1      -6.343  34.687 -16.680  1.00  0.00     0.004 C 
ENDBRANCH  24  25
ENDBRANCH  23  24
ENDBRANCH  22  23
ENDBRANCH  21  22
ENDBRANCH  20  21
ENDBRANCH  19  20
ENDBRANCH  18  19
ENDBRANCH  17  18
ENDBRANCH  16  17
ENDBRANCH  15  16
ENDBRANCH   1  15
TORSDOF 22
ENDMDL
MODEL 6
REMARK VINA RESULT:    16.544      4.366     11.384
REMARK INTER + INTRA:          38.309
REMARK INTER:                  38.074
REMARK INTRA:                   0.235
REMARK UNBOUND:                 0.487
REMARK SMILES CCCCCCCCCCCCCCCCCCCCCCCC(=O)[O-]
REMARK SMILES IDX 13 1 14 2 15 3 16 4 17 5 18 6 19 7 20 8 21 9 22 10 23 11
REMARK SMILES IDX 24 12 25 13 26 14 12 15 11 16 10 17 9 18 8 19 7 20 6 21 5 22
REMARK SMILES IDX 4 23 3 24 2 25 1 26
REMARK H PARENT
REMARK Flexibility Score: inf
ROOT
ATOM      1  C   UNL     1     -13.444  32.413 -20.805  1.00  0.00     0.000 C 
ENDROOT
BRANCH   1   2
ATOM      2  C   UNL     1     -13.655  30.895 -20.700  1.00  0.00     0.000 C 
BRANCH   2   3
ATOM      3  C   UNL     1     -15.061  30.567 -20.182  1.00  0.00     0.000 C 
BRANCH   3   4
ATOM      4  C   UNL     1     -15.098  29.180 -19.520  1.00  0.00     0.000 C 
BRANCH   4   5
ATOM      5  C   UNL     1     -16.234  28.295 -20.071  1.00  0.00     0.000 C 
BRANCH   5   6
ATOM      6  C   UNL     1     -16.779  27.274 -19.054  1.00  0.00     0.000 C 
BRANCH   6   7
ATOM      7  C   UNL     1     -16.686  25.825 -19.549  1.00  0.00     0.000 C 
BRANCH   7   8
ATOM      8  C   UNL     1     -16.108  24.903 -18.464  1.00  0.00     0.000 C 
BRANCH   8   9
ATOM      9  C   UNL     1     -16.384  23.417 -18.748  1.00  0.00     0.000 C 
BRANCH   9  10
ATOM     10  C   UNL     1     -15.923  22.984 -20.151  1.00  0.00     0.006 C 
BRANCH  10  11
ATOM     11  C   UNL     1     -15.409  24.167 -20.983  1.00  0.00     0.053 C 
BRANCH  11  12
ATOM     12  C   UNL     1     -14.318  23.758 -21.924  1.00  0.00     0.041 C 
ATOM     13  O   UNL     1     -14.312  24.179 -23.111  1.00  0.00    -0.550 OA
ATOM     14  O   UNL     1     -13.330  22.876 -21.503  1.00  0.00    -0.550 OA
ENDBRANCH  11  12
ENDBRANCH  10  11
ENDBRANCH   9  10
ENDBRANCH   8   9
ENDBRANCH   7   8
ENDBRANCH   6   7
ENDBRANCH   5   6
ENDBRANCH   4   5
ENDBRANCH   3   4
ENDBRANCH   2   3
ENDBRANCH   1   2
BRANCH   1  15
ATOM     15  C   UNL     1     -12.306  32.791 -21.775  1.00  0.00     0.000 C 
BRANCH  15  16
ATOM     16  C   UNL     1     -10.906  32.792 -21.136  1.00  0.00     0.000 C 
BRANCH  16  17
ATOM     17  C   UNL     1     -10.370  34.206 -20.865  1.00  0.00     0.000 C 
BRANCH  17  18
ATOM     18  C   UNL     1      -9.864  34.343 -19.424  1.00  0.00    -0.000 C 
BRANCH  18  19
ATOM     19  C   UNL     1      -9.239  33.029 -18.933  1.00  0.00    -0.000 C 
BRANCH  19  20
ATOM     20  C   UNL     1      -7.778  33.190 -18.477  1.00  0.00    -0.000 C 
BRANCH  20  21
ATOM     21  C   UNL     1      -7.476  34.569 -17.850  1.00  0.00    -0.000 C 
BRANCH  21  22
ATOM     22  C   UNL     1      -6.399  34.480 -16.755  1.00  0.00    -0.000 C 
BRANCH  22  23
ATOM     23  C   UNL     1      -6.990  34.202 -15.360  1.00  0.00    -0.000 C 
BRANCH  23  24
ATOM     24  C   UNL     1      -8.476  33.800 -15.363  1.00  0.00    -0.000 C 
BRANCH  24  25
ATOM     25  C   UNL     1      -8.702  32.342 -14.931  1.00  0.00    -0.003 C 
ATOM     26  C   UNL     1      -7.930  31.378 -15.826  1.00  0.00     0.004 C 
ENDBRANCH  24  25
ENDBRANCH  23  24
ENDBRANCH  22  23
ENDBRANCH  21  22
ENDBRANCH  20  21
ENDBRANCH  19  20
ENDBRANCH  18  19
ENDBRANCH  17  18
ENDBRANCH  16  17
ENDBRANCH  15  16
ENDBRANCH   1  15
TORSDOF 22
ENDMDL
MODEL 7
REMARK VINA RESULT:    16.818      1.515      3.106
REMARK INTER + INTRA:          38.936
REMARK INTER:                  40.111
REMARK INTRA:                  -1.175
REMARK UNBOUND:                 0.487
REMARK SMILES CCCCCCCCCCCCCCCCCCCCCCCC(=O)[O-]
REMARK SMILES IDX 13 1 14 2 15 3 16 4 17 5 18 6 19 7 20 8 21 9 22 10 23 11
REMARK SMILES IDX 24 12 25 13 26 14 12 15 11 16 10 17 9 18 8 19 7 20 6 21 5 22
REMARK SMILES IDX 4 23 3 24 2 25 1 26
REMARK H PARENT
REMARK Flexibility Score: inf
ROOT
ATOM      1  C   UNL     1     -15.812  28.960 -19.264  1.00  0.00     0.000 C 
ENDROOT
BRANCH   1   2
ATOM      2  C   UNL     1     -14.603  29.298 -20.152  1.00  0.00     0.000 C 
BRANCH   2   3
ATOM      3  C   UNL     1     -14.459  30.814 -20.333  1.00  0.00     0.000 C 
BRANCH   3   4
ATOM      4  C   UNL     1     -13.067  31.176 -20.876  1.00  0.00     0.000 C 
BRANCH   4   5
ATOM      5  C   UNL     1     -13.067  32.507 -21.656  1.00  0.00     0.000 C 
BRANCH   5   6
ATOM      6  C   UNL     1     -12.343  33.656 -20.928  1.00  0.00     0.000 C 
BRANCH   6   7
ATOM      7  C   UNL     1     -10.854  33.751 -21.287  1.00  0.00     0.000 C 
BRANCH   7   8
ATOM      8  C   UNL     1     -10.002  34.065 -20.048  1.00  0.00     0.000 C 
BRANCH   8   9
ATOM      9  C   UNL     1      -8.854  33.059 -19.855  1.00  0.00     0.000 C 
BRANCH   9  10
ATOM     10  C   UNL     1      -8.668  32.645 -18.385  1.00  0.00     0.006 C 
BRANCH  10  11
ATOM     11  C   UNL     1      -7.418  33.277 -17.758  1.00  0.00     0.053 C 
BRANCH  11  12
ATOM     12  C   UNL     1      -7.719  33.931 -16.444  1.00  0.00     0.041 C 
ATOM     13  O   UNL     1      -6.968  34.839 -16.000  1.00  0.00    -0.550 OA
ATOM     14  O   UNL     1      -8.804  33.506 -15.687  1.00  0.00    -0.550 OA
ENDBRANCH  11  12
ENDBRANCH  10  11
ENDBRANCH   9  10
ENDBRANCH   8   9
ENDBRANCH   7   8
ENDBRANCH   6   7
ENDBRANCH   5   6
ENDBRANCH   4   5
ENDBRANCH   3   4
ENDBRANCH   2   3
ENDBRANCH   1   2
BRANCH   1  15
ATOM     15  C   UNL     1     -16.594  27.730 -19.767  1.00  0.00     0.000 C 
BRANCH  15  16
ATOM     16  C   UNL     1     -17.332  26.957 -18.660  1.00  0.00     0.000 C 
BRANCH  16  17
ATOM     17  C   UNL     1     -16.449  25.908 -17.967  1.00  0.00     0.000 C 
BRANCH  17  18
ATOM     18  C   UNL     1     -17.153  24.548 -17.894  1.00  0.00    -0.000 C 
BRANCH  18  19
ATOM     19  C   UNL     1     -17.082  23.819 -19.244  1.00  0.00    -0.000 C 
BRANCH  19  20
ATOM     20  C   UNL     1     -15.695  23.907 -19.905  1.00  0.00    -0.000 C 
BRANCH  20  21
ATOM     21  C   UNL     1     -15.533  22.974 -21.125  1.00  0.00    -0.000 C 
BRANCH  21  22
ATOM     22  C   UNL     1     -14.550  23.546 -22.160  1.00  0.00    -0.000 C 
BRANCH  22  23
ATOM     23  C   UNL     1     -13.152  22.907 -22.071  1.00  0.00    -0.000 C 
BRANCH  23  24
ATOM     24  C   UNL     1     -12.029  23.731 -22.726  1.00  0.00    -0.000 C 
BRANCH  24  25
ATOM     25  C   UNL     1     -12.472  25.153 -23.105  1.00  0.00    -0.003 C 
ATOM     26  C   UNL     1     -11.400  26.176 -22.744  1.00  0.00     0.004 C 
ENDBRANCH  24  25
ENDBRANCH  23  24
ENDBRANCH  22  23
ENDBRANCH  21  22
ENDBRANCH  20  21
ENDBRANCH  19  20
ENDBRANCH  18  19
ENDBRANCH  17  18
ENDBRANCH  16  17
ENDBRANCH  15  16
ENDBRANCH   1  15
TORSDOF 22
ENDMDL
