MODEL 1
REMARK VINA RESULT:    -4.791      0.000      0.000
REMARK INTER + INTRA:         -13.198
REMARK INTER:                 -10.393
REMARK INTRA:                  -2.806
REMARK UNBOUND:                -2.806
REMARK SMILES CCCCCCCCCCCCCCCCCCCCCC(=O)[O-]
REMARK SMILES IDX 12 1 11 2 10 3 9 4 8 5 7 6 6 7 5 8 4 9 3 10 2 11 1 12 13 13
REMARK SMILES IDX 14 14 15 15 16 16 17 17 18 18 19 19 20 20 21 21 22 22 23 23
REMARK SMILES IDX 24 24
REMARK H PARENT
REMARK Flexibility Score: inf
ROOT
ATOM      1  C   UNL     1      24.934   8.180   9.498  1.00  0.00     0.000 C 
ENDROOT
BRANCH   1   2
ATOM      2  C   UNL     1      24.047   9.258  10.142  1.00  0.00     0.000 C 
BRANCH   2   3
ATOM      3  C   UNL     1      22.774   9.541   9.328  1.00  0.00     0.000 C 
BRANCH   3   4
ATOM      4  C   UNL     1      21.485   9.271  10.120  1.00  0.00    -0.000 C 
BRANCH   4   5
ATOM      5  C   UNL     1      21.802   8.638  11.484  1.00  0.00    -0.000 C 
BRANCH   5   6
ATOM      6  C   UNL     1      21.107   7.282  11.687  1.00  0.00    -0.000 C 
BRANCH   6   7
ATOM      7  C   UNL     1      19.627   7.305  11.263  1.00  0.00    -0.000 C 
BRANCH   7   8
ATOM      8  C   UNL     1      19.090   5.905  10.924  1.00  0.00    -0.000 C 
BRANCH   8   9
ATOM      9  C   UNL     1      19.119   5.606   9.417  1.00  0.00    -0.000 C 
BRANCH   9  10
ATOM     10  C   UNL     1      19.928   6.672   8.664  1.00  0.00    -0.000 C 
BRANCH  10  11
ATOM     11  C   UNL     1      19.217   7.169   7.396  1.00  0.00    -0.003 C 
ATOM     12  C   UNL     1      19.801   8.477   6.864  1.00  0.00     0.004 C 
ENDBRANCH  10  11
ENDBRANCH   9  10
ENDBRANCH   8   9
ENDBRANCH   7   8
ENDBRANCH   6   7
ENDBRANCH   5   6
ENDBRANCH   4   5
ENDBRANCH   3   4
ENDBRANCH   2   3
ENDBRANCH   1   2
BRANCH   1  13
ATOM     13  C   UNL     1      24.710   6.782  10.105  1.00  0.00     0.000 C 
BRANCH  13  14
ATOM     14  C   UNL     1      25.952   6.150  10.768  1.00  0.00     0.000 C 
BRANCH  14  15
ATOM     15  C   UNL     1      25.872   5.990  12.300  1.00  0.00     0.000 C 
BRANCH  15  16
ATOM     16  C   UNL     1      24.446   5.931  12.879  1.00  0.00     0.000 C 
BRANCH  16  17
ATOM     17  C   UNL     1      24.154   7.074  13.865  1.00  0.00     0.000 C 
BRANCH  17  18
ATOM     18  C   UNL     1      25.274   8.127  13.896  1.00  0.00     0.000 C 
BRANCH  18  19
ATOM     19  C   UNL     1      24.803   9.513  13.433  1.00  0.00     0.000 C 
BRANCH  19  20
ATOM     20  C   UNL     1      25.997  10.463  13.246  1.00  0.00     0.006 C 
BRANCH  20  21
ATOM     21  C   UNL     1      25.644  11.676  12.376  1.00  0.00     0.053 C 
BRANCH  21  22
ATOM     22  C   UNL     1      25.430  12.909  13.199  1.00  0.00     0.041 C 
ATOM     23  O   UNL     1      25.780  14.035  12.758  1.00  0.00    -0.550 OA
ATOM     24  O   UNL     1      24.817  12.817  14.443  1.00  0.00    -0.550 OA
ENDBRANCH  21  22
ENDBRANCH  20  21
ENDBRANCH  19  20
ENDBRANCH  18  19
ENDBRANCH  17  18
ENDBRANCH  16  17
ENDBRANCH  15  16
ENDBRANCH  14  15
ENDBRANCH  13  14
ENDBRANCH   1  13
TORSDOF 20
ENDMDL
MODEL 2
REMARK VINA RESULT:    -4.545      3.356      4.771
REMARK INTER + INTRA:         -12.664
REMARK INTER:                  -9.718
REMARK INTRA:                  -2.946
REMARK UNBOUND:                -2.806
REMARK SMILES CCCCCCCCCCCCCCCCCCCCCC(=O)[O-]
REMARK SMILES IDX 12 1 11 2 10 3 9 4 8 5 7 6 6 7 5 8 4 9 3 10 2 11 1 12 13 13
REMARK SMILES IDX 14 14 15 15 16 16 17 17 18 18 19 19 20 20 21 21 22 22 23 23
REMARK SMILES IDX 24 24
REMARK H PARENT
REMARK Flexibility Score: inf
ROOT
ATOM      1  C   UNL     1      24.964   9.528  10.658  1.00  0.00     0.000 C 
ENDROOT
BRANCH   1   2
ATOM      2  C   UNL     1      24.681   8.161  10.013  1.00  0.00     0.000 C 
BRANCH   2   3
ATOM      3  C   UNL     1      23.186   7.800  10.026  1.00  0.00     0.000 C 
BRANCH   3   4
ATOM      4  C   UNL     1      22.281   9.012  10.298  1.00  0.00    -0.000 C 
BRANCH   4   5
ATOM      5  C   UNL     1      21.341   8.740  11.483  1.00  0.00    -0.000 C 
BRANCH   5   6
ATOM      6  C   UNL     1      20.949   7.258  11.604  1.00  0.00    -0.000 C 
BRANCH   6   7
ATOM      7  C   UNL     1      19.470   7.007  11.259  1.00  0.00    -0.000 C 
BRANCH   7   8
ATOM      8  C   UNL     1      19.238   5.624  10.629  1.00  0.00    -0.000 C 
BRANCH   8   9
ATOM      9  C   UNL     1      18.996   5.693   9.113  1.00  0.00    -0.000 C 
BRANCH   9  10
ATOM     10  C   UNL     1      19.991   6.653   8.445  1.00  0.00    -0.000 C 
BRANCH  10  11
ATOM     11  C   UNL     1      19.366   8.017   8.114  1.00  0.00    -0.003 C 
ATOM     12  C   UNL     1      19.744   8.518   6.721  1.00  0.00     0.004 C 
ENDBRANCH  10  11
ENDBRANCH   9  10
ENDBRANCH   8   9
ENDBRANCH   7   8
ENDBRANCH   6   7
ENDBRANCH   5   6
ENDBRANCH   4   5
ENDBRANCH   3   4
ENDBRANCH   2   3
ENDBRANCH   1   2
BRANCH   1  13
ATOM     13  C   UNL     1      26.077   9.467  11.721  1.00  0.00     0.000 C 
BRANCH  13  14
ATOM     14  C   UNL     1      25.666   9.953  13.126  1.00  0.00     0.000 C 
BRANCH  14  15
ATOM     15  C   UNL     1      24.147  10.048  13.374  1.00  0.00     0.000 C 
BRANCH  15  16
ATOM     16  C   UNL     1      23.570   8.980  14.322  1.00  0.00     0.000 C 
BRANCH  16  17
ATOM     17  C   UNL     1      24.657   8.244  15.124  1.00  0.00     0.000 C 
BRANCH  17  18
ATOM     18  C   UNL     1      25.008   6.873  14.523  1.00  0.00     0.000 C 
BRANCH  18  19
ATOM     19  C   UNL     1      24.028   6.435  13.425  1.00  0.00     0.000 C 
BRANCH  19  20
ATOM     20  C   UNL     1      24.469   5.104  12.796  1.00  0.00     0.006 C 
BRANCH  20  21
ATOM     21  C   UNL     1      24.476   3.955  13.813  1.00  0.00     0.053 C 
BRANCH  21  22
ATOM     22  C   UNL     1      25.068   2.706  13.238  1.00  0.00     0.041 C 
ATOM     23  O   UNL     1      26.036   2.773  12.435  1.00  0.00    -0.550 OA
ATOM     24  O   UNL     1      24.568   1.463  13.609  1.00  0.00    -0.550 OA
ENDBRANCH  21  22
ENDBRANCH  20  21
ENDBRANCH  19  20
ENDBRANCH  18  19
ENDBRANCH  17  18
ENDBRANCH  16  17
ENDBRANCH  15  16
ENDBRANCH  14  15
ENDBRANCH  13  14
ENDBRANCH   1  13
TORSDOF 20
ENDMDL
MODEL 3
REMARK VINA RESULT:    -4.512      1.256      1.975
REMARK INTER + INTRA:         -12.593
REMARK INTER:                  -9.927
REMARK INTRA:                  -2.665
REMARK UNBOUND:                -2.806
REMARK SMILES CCCCCCCCCCCCCCCCCCCCCC(=O)[O-]
REMARK SMILES IDX 12 1 11 2 10 3 9 4 8 5 7 6 6 7 5 8 4 9 3 10 2 11 1 12 13 13
REMARK SMILES IDX 14 14 15 15 16 16 17 17 18 18 19 19 20 20 21 21 22 22 23 23
REMARK SMILES IDX 24 24
REMARK H PARENT
REMARK Flexibility Score: inf
ROOT
ATOM      1  C   UNL     1      24.213   8.310   9.926  1.00  0.00     0.000 C 
ENDROOT
BRANCH   1   2
ATOM      2  C   UNL     1      23.265   9.385   9.369  1.00  0.00     0.000 C 
BRANCH   2   3
ATOM      3  C   UNL     1      21.962   9.501  10.178  1.00  0.00     0.000 C 
BRANCH   3   4
ATOM      4  C   UNL     1      21.472   8.148  10.718  1.00  0.00    -0.000 C 
BRANCH   4   5
ATOM      5  C   UNL     1      20.305   8.340  11.699  1.00  0.00    -0.000 C 
BRANCH   5   6
ATOM      6  C   UNL     1      18.960   7.865  11.125  1.00  0.00    -0.000 C 
BRANCH   6   7
ATOM      7  C   UNL     1      18.834   6.331  11.102  1.00  0.00    -0.000 C 
BRANCH   7   8
ATOM      8  C   UNL     1      19.440   5.709   9.833  1.00  0.00    -0.000 C 
BRANCH   8   9
ATOM      9  C   UNL     1      18.973   6.408   8.547  1.00  0.00    -0.000 C 
BRANCH   9  10
ATOM     10  C   UNL     1      20.174   6.841   7.693  1.00  0.00    -0.000 C 
BRANCH  10  11
ATOM     11  C   UNL     1      20.104   8.319   7.280  1.00  0.00    -0.003 C 
ATOM     12  C   UNL     1      18.710   8.736   6.811  1.00  0.00     0.004 C 
ENDBRANCH  10  11
ENDBRANCH   9  10
ENDBRANCH   8   9
ENDBRANCH   7   8
ENDBRANCH   6   7
ENDBRANCH   5   6
ENDBRANCH   4   5
ENDBRANCH   3   4
ENDBRANCH   2   3
ENDBRANCH   1   2
BRANCH   1  13
ATOM     13  C   UNL     1      25.025   8.801  11.140  1.00  0.00     0.000 C 
BRANCH  13  14
ATOM     14  C   UNL     1      25.250   7.748  12.245  1.00  0.00     0.000 C 
BRANCH  14  15
ATOM     15  C   UNL     1      24.116   7.627  13.282  1.00  0.00     0.000 C 
BRANCH  15  16
ATOM     16  C   UNL     1      23.366   8.938  13.589  1.00  0.00     0.000 C 
BRANCH  16  17
ATOM     17  C   UNL     1      23.623   9.453  15.015  1.00  0.00     0.000 C 
BRANCH  17  18
ATOM     18  C   UNL     1      24.196  10.879  15.033  1.00  0.00     0.000 C 
BRANCH  18  19
ATOM     19  C   UNL     1      25.443  11.033  14.149  1.00  0.00     0.000 C 
BRANCH  19  20
ATOM     20  C   UNL     1      25.172  11.998  12.984  1.00  0.00     0.006 C 
BRANCH  20  21
ATOM     21  C   UNL     1      25.943  13.317  13.131  1.00  0.00     0.053 C 
BRANCH  21  22
ATOM     22  C   UNL     1      25.044  14.445  13.533  1.00  0.00     0.041 C 
ATOM     23  O   UNL     1      23.839  14.223  13.826  1.00  0.00    -0.550 OA
ATOM     24  O   UNL     1      25.543  15.740  13.610  1.00  0.00    -0.550 OA
ENDBRANCH  21  22
ENDBRANCH  20  21
ENDBRANCH  19  20
ENDBRANCH  18  19
ENDBRANCH  17  18
ENDBRANCH  16  17
ENDBRANCH  15  16
ENDBRANCH  14  15
ENDBRANCH  13  14
ENDBRANCH   1  13
TORSDOF 20
ENDMDL
MODEL 4
REMARK VINA RESULT:    -4.436      1.237      4.937
REMARK INTER + INTRA:         -12.429
REMARK INTER:                  -9.691
REMARK INTRA:                  -2.738
REMARK UNBOUND:                -2.806
REMARK SMILES CCCCCCCCCCCCCCCCCCCCCC(=O)[O-]
REMARK SMILES IDX 12 1 11 2 10 3 9 4 8 5 7 6 6 7 5 8 4 9 3 10 2 11 1 12 13 13
REMARK SMILES IDX 14 14 15 15 16 16 17 17 18 18 19 19 20 20 21 21 22 22 23 23
REMARK SMILES IDX 24 24
REMARK H PARENT
REMARK Flexibility Score: inf
ROOT
ATOM      1  C   UNL     1      19.210   7.143   7.771  1.00  0.00     0.000 C 
ENDROOT
BRANCH   1   2
ATOM      2  C   UNL     1      19.933   6.181   8.728  1.00  0.00     0.000 C 
BRANCH   2   3
ATOM      3  C   UNL     1      19.052   5.754   9.913  1.00  0.00     0.000 C 
BRANCH   3   4
ATOM      4  C   UNL     1      19.259   6.629  11.159  1.00  0.00    -0.000 C 
BRANCH   4   5
ATOM      5  C   UNL     1      20.748   6.956  11.357  1.00  0.00    -0.000 C 
BRANCH   5   6
ATOM      6  C   UNL     1      20.971   8.246  12.164  1.00  0.00    -0.000 C 
BRANCH   6   7
ATOM      7  C   UNL     1      22.259   8.204  13.005  1.00  0.00    -0.000 C 
BRANCH   7   8
ATOM      8  C   UNL     1      23.071   6.918  12.777  1.00  0.00    -0.000 C 
BRANCH   8   9
ATOM      9  C   UNL     1      24.469   6.976  13.411  1.00  0.00    -0.000 C 
BRANCH   9  10
ATOM     10  C   UNL     1      24.932   5.577  13.842  1.00  0.00    -0.000 C 
BRANCH  10  11
ATOM     11  C   UNL     1      23.867   4.498  13.589  1.00  0.00    -0.003 C 
ATOM     12  C   UNL     1      24.345   3.096  13.966  1.00  0.00     0.004 C 
ENDBRANCH  10  11
ENDBRANCH   9  10
ENDBRANCH   8   9
ENDBRANCH   7   8
ENDBRANCH   6   7
ENDBRANCH   5   6
ENDBRANCH   4   5
ENDBRANCH   3   4
ENDBRANCH   2   3
ENDBRANCH   1   2
BRANCH   1  13
ATOM     13  C   UNL     1      20.077   8.351   7.370  1.00  0.00     0.000 C 
BRANCH  13  14
ATOM     14  C   UNL     1      20.755   9.088   8.544  1.00  0.00     0.000 C 
BRANCH  14  15
ATOM     15  C   UNL     1      22.270   9.329   8.386  1.00  0.00     0.000 C 
BRANCH  15  16
ATOM     16  C   UNL     1      23.015   9.688   9.686  1.00  0.00     0.000 C 
BRANCH  16  17
ATOM     17  C   UNL     1      24.269   8.828   9.912  1.00  0.00     0.000 C 
BRANCH  17  18
ATOM     18  C   UNL     1      25.328   9.542  10.768  1.00  0.00     0.000 C 
BRANCH  18  19
ATOM     19  C   UNL     1      24.716  10.366  11.911  1.00  0.00     0.000 C 
BRANCH  19  20
ATOM     20  C   UNL     1      25.813  10.946  12.817  1.00  0.00     0.006 C 
BRANCH  20  21
ATOM     21  C   UNL     1      25.910  12.473  12.708  1.00  0.00     0.053 C 
BRANCH  21  22
ATOM     22  C   UNL     1      24.930  13.158  13.610  1.00  0.00     0.041 C 
ATOM     23  O   UNL     1      24.490  14.301  13.317  1.00  0.00    -0.550 OA
ATOM     24  O   UNL     1      24.482  12.523  14.762  1.00  0.00    -0.550 OA
ENDBRANCH  21  22
ENDBRANCH  20  21
ENDBRANCH  19  20
ENDBRANCH  18  19
ENDBRANCH  17  18
ENDBRANCH  16  17
ENDBRANCH  15  16
ENDBRANCH  14  15
ENDBRANCH  13  14
ENDBRANCH   1  13
TORSDOF 20
ENDMDL
MODEL 5
REMARK VINA RESULT:    -4.194      3.214      6.853
REMARK INTER + INTRA:         -11.904
REMARK INTER:                  -9.376
REMARK INTRA:                  -2.528
REMARK UNBOUND:                -2.806
REMARK SMILES CCCCCCCCCCCCCCCCCCCCCC(=O)[O-]
REMARK SMILES IDX 12 1 11 2 10 3 9 4 8 5 7 6 6 7 5 8 4 9 3 10 2 11 1 12 13 13
REMARK SMILES IDX 14 14 15 15 16 16 17 17 18 18 19 19 20 20 21 21 22 22 23 23
REMARK SMILES IDX 24 24
REMARK H PARENT
REMARK Flexibility Score: inf
ROOT
ATOM      1  C   UNL     1      25.278   9.147  11.120  1.00  0.00     0.000 C 
ENDROOT
BRANCH   1   2
ATOM      2  C   UNL     1      25.138  10.594  11.620  1.00  0.00     0.000 C 
BRANCH   2   3
ATOM      3  C   UNL     1      25.076  10.686  13.154  1.00  0.00     0.000 C 
BRANCH   3   4
ATOM      4  C   UNL     1      24.012   9.760  13.765  1.00  0.00    -0.000 C 
BRANCH   4   5
ATOM      5  C   UNL     1      24.613   8.901  14.889  1.00  0.00    -0.000 C 
BRANCH   5   6
ATOM      6  C   UNL     1      26.002   8.345  14.535  1.00  0.00    -0.000 C 
BRANCH   6   7
ATOM      7  C   UNL     1      25.952   6.881  14.062  1.00  0.00    -0.000 C 
BRANCH   7   8
ATOM      8  C   UNL     1      24.648   6.176  14.467  1.00  0.00    -0.000 C 
BRANCH   8   9
ATOM      9  C   UNL     1      24.114   5.237  13.374  1.00  0.00    -0.000 C 
BRANCH   9  10
ATOM     10  C   UNL     1      23.747   3.866  13.962  1.00  0.00    -0.000 C 
BRANCH  10  11
ATOM     11  C   UNL     1      24.977   2.979  14.206  1.00  0.00    -0.003 C 
ATOM     12  C   UNL     1      25.009   1.750  13.297  1.00  0.00     0.004 C 
ENDBRANCH  10  11
ENDBRANCH   9  10
ENDBRANCH   8   9
ENDBRANCH   7   8
ENDBRANCH   6   7
ENDBRANCH   5   6
ENDBRANCH   4   5
ENDBRANCH   3   4
ENDBRANCH   2   3
ENDBRANCH   1   2
BRANCH   1  13
ATOM     13  C   UNL     1      24.377   8.845   9.907  1.00  0.00     0.000 C 
BRANCH  13  14
ATOM     14  C   UNL     1      22.864   8.818  10.207  1.00  0.00     0.000 C 
BRANCH  14  15
ATOM     15  C   UNL     1      22.407   7.732  11.202  1.00  0.00     0.000 C 
BRANCH  15  16
ATOM     16  C   UNL     1      21.155   8.084  12.027  1.00  0.00     0.000 C 
BRANCH  16  17
ATOM     17  C   UNL     1      19.845   7.835  11.260  1.00  0.00     0.000 C 
BRANCH  17  18
ATOM     18  C   UNL     1      19.355   6.384  11.384  1.00  0.00     0.000 C 
BRANCH  18  19
ATOM     19  C   UNL     1      19.058   5.736  10.023  1.00  0.00     0.000 C 
BRANCH  19  20
ATOM     20  C   UNL     1      19.978   6.306   8.932  1.00  0.00     0.006 C 
BRANCH  20  21
ATOM     21  C   UNL     1      19.200   6.732   7.680  1.00  0.00     0.053 C 
BRANCH  21  22
ATOM     22  C   UNL     1      19.487   8.152   7.303  1.00  0.00     0.041 C 
ATOM     23  O   UNL     1      18.645   8.816   6.642  1.00  0.00    -0.550 OA
ATOM     24  O   UNL     1      20.674   8.753   7.704  1.00  0.00    -0.550 OA
ENDBRANCH  21  22
ENDBRANCH  20  21
ENDBRANCH  19  20
ENDBRANCH  18  19
ENDBRANCH  17  18
ENDBRANCH  16  17
ENDBRANCH  15  16
ENDBRANCH  14  15
ENDBRANCH  13  14
ENDBRANCH   1  13
TORSDOF 20
ENDMDL
MODEL 6
REMARK VINA RESULT:    -4.100      1.330      4.579
REMARK INTER + INTRA:         -11.700
REMARK INTER:                  -9.435
REMARK INTRA:                  -2.266
REMARK UNBOUND:                -2.806
REMARK SMILES CCCCCCCCCCCCCCCCCCCCCC(=O)[O-]
REMARK SMILES IDX 12 1 11 2 10 3 9 4 8 5 7 6 6 7 5 8 4 9 3 10 2 11 1 12 13 13
REMARK SMILES IDX 14 14 15 15 16 16 17 17 18 18 19 19 20 20 21 21 22 22 23 23
REMARK SMILES IDX 24 24
REMARK H PARENT
REMARK Flexibility Score: inf
ROOT
ATOM      1  C   UNL     1      20.448   8.525   7.208  1.00  0.00     0.000 C 
ENDROOT
BRANCH   1   2
ATOM      2  C   UNL     1      19.796   7.136   7.301  1.00  0.00     0.000 C 
BRANCH   2   3
ATOM      3  C   UNL     1      18.971   6.956   8.586  1.00  0.00     0.000 C 
BRANCH   3   4
ATOM      4  C   UNL     1      19.440   5.764   9.436  1.00  0.00    -0.000 C 
BRANCH   4   5
ATOM      5  C   UNL     1      19.235   6.044  10.933  1.00  0.00    -0.000 C 
BRANCH   5   6
ATOM      6  C   UNL     1      19.922   7.339  11.396  1.00  0.00    -0.000 C 
BRANCH   6   7
ATOM      7  C   UNL     1      21.444   7.176  11.562  1.00  0.00    -0.000 C 
BRANCH   7   8
ATOM      8  C   UNL     1      22.011   8.052  12.690  1.00  0.00    -0.000 C 
BRANCH   8   9
ATOM      9  C   UNL     1      23.346   7.525  13.239  1.00  0.00    -0.000 C 
BRANCH   9  10
ATOM     10  C   UNL     1      23.464   6.009  13.025  1.00  0.00    -0.000 C 
BRANCH  10  11
ATOM     11  C   UNL     1      24.529   5.365  13.926  1.00  0.00    -0.003 C 
ATOM     12  C   UNL     1      24.602   3.847  13.765  1.00  0.00     0.004 C 
ENDBRANCH  10  11
ENDBRANCH   9  10
ENDBRANCH   8   9
ENDBRANCH   7   8
ENDBRANCH   6   7
ENDBRANCH   5   6
ENDBRANCH   4   5
ENDBRANCH   3   4
ENDBRANCH   2   3
ENDBRANCH   1   2
BRANCH   1  13
ATOM     13  C   UNL     1      21.066   8.986   8.542  1.00  0.00     0.000 C 
BRANCH  13  14
ATOM     14  C   UNL     1      22.527   9.472   8.452  1.00  0.00     0.000 C 
BRANCH  14  15
ATOM     15  C   UNL     1      23.272   9.576   9.798  1.00  0.00     0.000 C 
BRANCH  15  16
ATOM     16  C   UNL     1      24.518   8.679   9.928  1.00  0.00     0.000 C 
BRANCH  16  17
ATOM     17  C   UNL     1      25.489   9.160  11.020  1.00  0.00     0.000 C 
BRANCH  17  18
ATOM     18  C   UNL     1      25.152  10.570  11.530  1.00  0.00     0.000 C 
BRANCH  18  19
ATOM     19  C   UNL     1      25.007  10.634  13.058  1.00  0.00     0.000 C 
BRANCH  19  20
ATOM     20  C   UNL     1      25.831  11.793  13.639  1.00  0.00     0.006 C 
BRANCH  20  21
ATOM     21  C   UNL     1      25.521  13.129  12.950  1.00  0.00     0.053 C 
BRANCH  21  22
ATOM     22  C   UNL     1      24.641  13.999  13.793  1.00  0.00     0.041 C 
ATOM     23  O   UNL     1      23.832  13.483  14.608  1.00  0.00    -0.550 OA
ATOM     24  O   UNL     1      24.734  15.383  13.698  1.00  0.00    -0.550 OA
ENDBRANCH  21  22
ENDBRANCH  20  21
ENDBRANCH  19  20
ENDBRANCH  18  19
ENDBRANCH  17  18
ENDBRANCH  16  17
ENDBRANCH  15  16
ENDBRANCH  14  15
ENDBRANCH  13  14
ENDBRANCH   1  13
TORSDOF 20
ENDMDL
MODEL 7
REMARK VINA RESULT:    -4.062      2.918      7.048
REMARK INTER + INTRA:         -11.616
REMARK INTER:                  -8.714
REMARK INTRA:                  -2.902
REMARK UNBOUND:                -2.806
REMARK SMILES CCCCCCCCCCCCCCCCCCCCCC(=O)[O-]
REMARK SMILES IDX 12 1 11 2 10 3 9 4 8 5 7 6 6 7 5 8 4 9 3 10 2 11 1 12 13 13
REMARK SMILES IDX 14 14 15 15 16 16 17 17 18 18 19 19 20 20 21 21 22 22 23 23
REMARK SMILES IDX 24 24
REMARK H PARENT
REMARK Flexibility Score: inf
ROOT
ATOM      1  C   UNL     1      25.835   6.713  10.156  1.00  0.00     0.000 C 
ENDROOT
BRANCH   1   2
ATOM      2  C   UNL     1      25.586   5.817  11.381  1.00  0.00     0.000 C 
BRANCH   2   3
ATOM      3  C   UNL     1      25.625   6.601  12.703  1.00  0.00     0.000 C 
BRANCH   3   4
ATOM      4  C   UNL     1      24.345   6.432  13.537  1.00  0.00    -0.000 C 
BRANCH   4   5
ATOM      5  C   UNL     1      23.120   6.961  12.775  1.00  0.00    -0.000 C 
BRANCH   5   6
ATOM      6  C   UNL     1      22.745   8.397  13.174  1.00  0.00    -0.000 C 
BRANCH   6   7
ATOM      7  C   UNL     1      23.262   8.777  14.573  1.00  0.00    -0.000 C 
BRANCH   7   8
ATOM      8  C   UNL     1      23.952  10.151  14.594  1.00  0.00    -0.000 C 
BRANCH   8   9
ATOM      9  C   UNL     1      25.271  10.166  13.806  1.00  0.00    -0.000 C 
BRANCH   9  10
ATOM     10  C   UNL     1      25.338  11.386  12.875  1.00  0.00    -0.000 C 
BRANCH  10  11
ATOM     11  C   UNL     1      25.025  12.702  13.602  1.00  0.00    -0.003 C 
ATOM     12  C   UNL     1      25.761  13.899  13.001  1.00  0.00     0.004 C 
ENDBRANCH  10  11
ENDBRANCH   9  10
ENDBRANCH   8   9
ENDBRANCH   7   8
ENDBRANCH   6   7
ENDBRANCH   5   6
ENDBRANCH   4   5
ENDBRANCH   3   4
ENDBRANCH   2   3
ENDBRANCH   1   2
BRANCH   1  13
ATOM     13  C   UNL     1      26.051   8.191  10.531  1.00  0.00     0.000 C 
BRANCH  13  14
ATOM     14  C   UNL     1      24.828   9.107  10.312  1.00  0.00     0.000 C 
BRANCH  14  15
ATOM     15  C   UNL     1      23.684   8.492   9.481  1.00  0.00     0.000 C 
BRANCH  15  16
ATOM     16  C   UNL     1      22.515   9.446   9.170  1.00  0.00     0.000 C 
BRANCH  16  17
ATOM     17  C   UNL     1      21.140   8.825   9.473  1.00  0.00     0.000 C 
BRANCH  17  18
ATOM     18  C   UNL     1      20.238   8.755   8.230  1.00  0.00     0.000 C 
BRANCH  18  19
ATOM     19  C   UNL     1      19.810   7.321   7.884  1.00  0.00     0.000 C 
BRANCH  19  20
ATOM     20  C   UNL     1      20.209   6.345   9.002  1.00  0.00     0.006 C 
BRANCH  20  21
ATOM     21  C   UNL     1      18.994   5.643   9.622  1.00  0.00     0.053 C 
BRANCH  21  22
ATOM     22  C   UNL     1      18.703   6.146  11.002  1.00  0.00     0.041 C 
ATOM     23  O   UNL     1      18.540   5.336  11.951  1.00  0.00    -0.550 OA
ATOM     24  O   UNL     1      18.640   7.513  11.245  1.00  0.00    -0.550 OA
ENDBRANCH  21  22
ENDBRANCH  20  21
ENDBRANCH  19  20
ENDBRANCH  18  19
ENDBRANCH  17  18
ENDBRANCH  16  17
ENDBRANCH  15  16
ENDBRANCH  14  15
ENDBRANCH  13  14
ENDBRANCH   1  13
TORSDOF 20
ENDMDL
MODEL 8
REMARK VINA RESULT:    -4.012      1.778      3.383
REMARK INTER + INTRA:         -11.509
REMARK INTER:                  -8.728
REMARK INTRA:                  -2.781
REMARK UNBOUND:                -2.806
REMARK SMILES CCCCCCCCCCCCCCCCCCCCCC(=O)[O-]
REMARK SMILES IDX 12 1 11 2 10 3 9 4 8 5 7 6 6 7 5 8 4 9 3 10 2 11 1 12 13 13
REMARK SMILES IDX 14 14 15 15 16 16 17 17 18 18 19 19 20 20 21 21 22 22 23 23
REMARK SMILES IDX 24 24
REMARK H PARENT
REMARK Flexibility Score: inf
ROOT
ATOM      1  C   UNL     1      24.118   6.431  12.453  1.00  0.00     0.000 C 
ENDROOT
BRANCH   1   2
ATOM      2  C   UNL     1      25.389   6.563  11.598  1.00  0.00     0.000 C 
BRANCH   2   3
ATOM      3  C   UNL     1      25.097   7.084  10.181  1.00  0.00     0.000 C 
BRANCH   3   4
ATOM      4  C   UNL     1      23.618   7.442   9.969  1.00  0.00    -0.000 C 
BRANCH   4   5
ATOM      5  C   UNL     1      23.422   8.966   9.934  1.00  0.00    -0.000 C 
BRANCH   5   6
ATOM      6  C   UNL     1      21.971   9.386  10.224  1.00  0.00    -0.000 C 
BRANCH   6   7
ATOM      7  C   UNL     1      21.391   8.693  11.469  1.00  0.00    -0.000 C 
BRANCH   7   8
ATOM      8  C   UNL     1      20.039   8.015  11.191  1.00  0.00    -0.000 C 
BRANCH   8   9
ATOM      9  C   UNL     1      20.182   6.709  10.394  1.00  0.00    -0.000 C 
BRANCH   9  10
ATOM     10  C   UNL     1      19.328   6.751   9.118  1.00  0.00    -0.000 C 
BRANCH  10  11
ATOM     11  C   UNL     1      20.116   7.248   7.896  1.00  0.00    -0.003 C 
ATOM     12  C   UNL     1      19.287   8.155   6.987  1.00  0.00     0.004 C 
ENDBRANCH  10  11
ENDBRANCH   9  10
ENDBRANCH   8   9
ENDBRANCH   7   8
ENDBRANCH   6   7
ENDBRANCH   5   6
ENDBRANCH   4   5
ENDBRANCH   3   4
ENDBRANCH   2   3
ENDBRANCH   1   2
BRANCH   1  13
ATOM     13  C   UNL     1      24.229   7.163  13.804  1.00  0.00     0.000 C 
BRANCH  13  14
ATOM     14  C   UNL     1      24.296   8.702  13.710  1.00  0.00     0.000 C 
BRANCH  14  15
ATOM     15  C   UNL     1      25.717   9.298  13.649  1.00  0.00     0.000 C 
BRANCH  15  16
ATOM     16  C   UNL     1      26.008  10.171  12.413  1.00  0.00     0.000 C 
BRANCH  16  17
ATOM     17  C   UNL     1      25.043  11.362  12.284  1.00  0.00     0.000 C 
BRANCH  17  18
ATOM     18  C   UNL     1      25.468  12.563  13.145  1.00  0.00     0.000 C 
BRANCH  18  19
ATOM     19  C   UNL     1      24.638  12.698  14.431  1.00  0.00     0.000 C 
BRANCH  19  20
ATOM     20  C   UNL     1      24.768  14.112  15.020  1.00  0.00     0.006 C 
BRANCH  20  21
ATOM     21  C   UNL     1      24.745  15.198  13.936  1.00  0.00     0.053 C 
BRANCH  21  22
ATOM     22  C   UNL     1      24.339  16.528  14.489  1.00  0.00     0.041 C 
ATOM     23  O   UNL     1      25.194  17.440  14.643  1.00  0.00    -0.550 OA
ATOM     24  O   UNL     1      23.008  16.772  14.811  1.00  0.00    -0.550 OA
ENDBRANCH  21  22
ENDBRANCH  20  21
ENDBRANCH  19  20
ENDBRANCH  18  19
ENDBRANCH  17  18
ENDBRANCH  16  17
ENDBRANCH  15  16
ENDBRANCH  14  15
ENDBRANCH  13  14
ENDBRANCH   1  13
TORSDOF 20
ENDMDL
MODEL 9
REMARK VINA RESULT:    -3.163      3.058      6.995
REMARK INTER + INTRA:          -9.666
REMARK INTER:                  -6.581
REMARK INTRA:                  -3.085
REMARK UNBOUND:                -2.806
REMARK SMILES CCCCCCCCCCCCCCCCCCCCCC(=O)[O-]
REMARK SMILES IDX 12 1 11 2 10 3 9 4 8 5 7 6 6 7 5 8 4 9 3 10 2 11 1 12 13 13
REMARK SMILES IDX 14 14 15 15 16 16 17 17 18 18 19 19 20 20 21 21 22 22 23 23
REMARK SMILES IDX 24 24
REMARK H PARENT
REMARK Flexibility Score: inf
ROOT
ATOM      1  C   UNL     1      24.744   8.640  10.023  1.00  0.00     0.000 C 
ENDROOT
BRANCH   1   2
ATOM      2  C   UNL     1      26.026   8.747  10.867  1.00  0.00     0.000 C 
BRANCH   2   3
ATOM      3  C   UNL     1      26.041   7.761  12.046  1.00  0.00     0.000 C 
BRANCH   3   4
ATOM      4  C   UNL     1      25.075   6.582  11.852  1.00  0.00    -0.000 C 
BRANCH   4   5
ATOM      5  C   UNL     1      24.238   6.344  13.119  1.00  0.00    -0.000 C 
BRANCH   5   6
ATOM      6  C   UNL     1      24.402   7.464  14.159  1.00  0.00    -0.000 C 
BRANCH   6   7
ATOM      7  C   UNL     1      23.310   8.544  14.044  1.00  0.00    -0.000 C 
BRANCH   7   8
ATOM      8  C   UNL     1      23.877   9.969  14.143  1.00  0.00    -0.000 C 
BRANCH   8   9
ATOM      9  C   UNL     1      25.311  10.001  14.694  1.00  0.00    -0.000 C 
BRANCH   9  10
ATOM     10  C   UNL     1      26.125  11.124  14.033  1.00  0.00    -0.000 C 
BRANCH  10  11
ATOM     11  C   UNL     1      25.375  11.791  12.870  1.00  0.00    -0.003 C 
ATOM     12  C   UNL     1      25.939  13.166  12.514  1.00  0.00     0.004 C 
ENDBRANCH  10  11
ENDBRANCH   9  10
ENDBRANCH   8   9
ENDBRANCH   7   8
ENDBRANCH   6   7
ENDBRANCH   5   6
ENDBRANCH   4   5
ENDBRANCH   3   4
ENDBRANCH   2   3
ENDBRANCH   1   2
BRANCH   1  13
ATOM     13  C   UNL     1      23.750   9.783  10.300  1.00  0.00     0.000 C 
BRANCH  13  14
ATOM     14  C   UNL     1      22.262   9.410  10.132  1.00  0.00     0.000 C 
BRANCH  14  15
ATOM     15  C   UNL     1      21.750   8.296  11.068  1.00  0.00     0.000 C 
BRANCH  15  16
ATOM     16  C   UNL     1      20.376   8.563  11.712  1.00  0.00     0.000 C 
BRANCH  16  17
ATOM     17  C   UNL     1      19.301   7.559  11.261  1.00  0.00     0.000 C 
BRANCH  17  18
ATOM     18  C   UNL     1      19.902   6.237  10.756  1.00  0.00     0.000 C 
BRANCH  18  19
ATOM     19  C   UNL     1      18.975   5.494   9.783  1.00  0.00     0.000 C 
BRANCH  19  20
ATOM     20  C   UNL     1      18.940   6.196   8.416  1.00  0.00     0.006 C 
BRANCH  20  21
ATOM     21  C   UNL     1      20.198   7.035   8.161  1.00  0.00     0.053 C 
BRANCH  21  22
ATOM     22  C   UNL     1      19.918   8.201   7.264  1.00  0.00     0.041 C 
ATOM     23  O   UNL     1      20.849   8.977   6.922  1.00  0.00    -0.550 OA
ATOM     24  O   UNL     1      18.632   8.416   6.782  1.00  0.00    -0.550 OA
ENDBRANCH  21  22
ENDBRANCH  20  21
ENDBRANCH  19  20
ENDBRANCH  18  19
ENDBRANCH  17  18
ENDBRANCH  16  17
ENDBRANCH  15  16
ENDBRANCH  14  15
ENDBRANCH  13  14
ENDBRANCH   1  13
TORSDOF 20
ENDMDL
