MODEL 1
REMARK VINA RESULT:    -6.136      0.000      0.000
REMARK INTER + INTRA:          -7.691
REMARK INTER:                  -7.571
REMARK INTRA:                  -0.120
REMARK UNBOUND:                -0.120
REMARK SMILES O=c1c(O)c(-c2cc(O)c(O)c(O)c2)oc2cc(O)cc(O)c12
REMARK SMILES IDX 5 1 3 2 2 3 1 4 23 5 21 6 20 7 18 8 17 9 16 10 15 11 6 12
REMARK SMILES IDX 7 13 8 14 14 15 10 16 12 17 9 18 11 20 13 22 4 24 22 26
REMARK SMILES IDX 19 28
REMARK H PARENT 9 19 11 21 13 23 4 25 22 27 19 29
REMARK Flexibility Score: inf
ROOT
ATOM      1  C   UNL     1      -4.642   9.078   5.161  1.00  0.00     0.180 A 
ATOM      2  C   UNL     1      -3.339   9.203   5.679  1.00  0.00     0.208 A 
ATOM      3  C   UNL     1      -3.176   9.473   7.047  1.00  0.00     0.238 A 
ATOM      4  O   UNL     1      -2.013   9.576   7.525  1.00  0.00    -0.285 OA
ATOM      5  C   UNL     1      -4.312   9.633   7.867  1.00  0.00     0.111 A 
ATOM      6  C   UNL     1      -4.236   9.910   9.252  1.00  0.00     0.134 A 
ATOM      7  C   UNL     1      -5.413  10.065   9.998  1.00  0.00     0.093 A 
ATOM      8  C   UNL     1      -6.666   9.948   9.383  1.00  0.00     0.123 A 
ATOM      9  C   UNL     1      -6.747   9.674   8.018  1.00  0.00     0.094 A 
ATOM     10  C   UNL     1      -5.584   9.515   7.258  1.00  0.00     0.146 A 
ATOM     11  O   UNL     1      -5.690   9.250   5.961  1.00  0.00    -0.452 OA
ENDROOT
BRANCH   1  12
ATOM     12  C   UNL     1      -4.896   8.776   3.734  1.00  0.00     0.029 A 
ATOM     13  C   UNL     1      -5.588   7.605   3.389  1.00  0.00     0.062 A 
ATOM     14  C   UNL     1      -5.822   7.285   2.044  1.00  0.00     0.162 A 
ATOM     15  C   UNL     1      -4.407   9.608   2.712  1.00  0.00     0.062 A 
ATOM     16  C   UNL     1      -5.349   8.134   1.030  1.00  0.00     0.200 A 
ATOM     17  C   UNL     1      -4.637   9.292   1.366  1.00  0.00     0.162 A 
BRANCH  14  18
ATOM     18  O   UNL     1      -6.524   6.126   1.713  1.00  0.00    -0.504 OA
ATOM     19  H   UNL     1      -6.354   5.631   0.846  1.00  0.00     0.293 HD
ENDBRANCH  14  18
BRANCH  16  20
ATOM     20  O   UNL     1      -5.572   7.838  -0.315  1.00  0.00    -0.502 OA
ATOM     21  H   UNL     1      -6.037   8.486  -0.939  1.00  0.00     0.293 HD
ENDBRANCH  16  20
BRANCH  17  22
ATOM     22  O   UNL     1      -4.157  10.124   0.357  1.00  0.00    -0.504 OA
ATOM     23  H   UNL     1      -3.648  10.974   0.567  1.00  0.00     0.293 HD
ENDBRANCH  17  22
ENDBRANCH   1  12
BRANCH   2  24
ATOM     24  O   UNL     1      -2.230   9.089   4.837  1.00  0.00    -0.502 OA
ATOM     25  H   UNL     1      -2.220   9.471   3.898  1.00  0.00     0.293 HD
ENDBRANCH   2  24
BRANCH   6  26
ATOM     26  O   UNL     1      -3.002  10.033   9.892  1.00  0.00    -0.507 OA
ATOM     27  H   UNL     1      -2.870   9.751  10.857  1.00  0.00     0.293 HD
ENDBRANCH   6  26
BRANCH   8  28
ATOM     28  O   UNL     1      -7.837  10.103  10.123  1.00  0.00    -0.508 OA
ATOM     29  H   UNL     1      -8.184   9.366  10.725  1.00  0.00     0.293 HD
ENDBRANCH   8  28
TORSDOF 7
ENDMDL
MODEL 2
REMARK VINA RESULT:    -5.850     15.141     16.874
REMARK INTER + INTRA:          -7.338
REMARK INTER:                  -7.048
REMARK INTRA:                  -0.290
REMARK UNBOUND:                -0.120
REMARK SMILES O=c1c(O)c(-c2cc(O)c(O)c(O)c2)oc2cc(O)cc(O)c12
REMARK SMILES IDX 5 1 3 2 2 3 1 4 23 5 21 6 20 7 18 8 17 9 16 10 15 11 6 12
REMARK SMILES IDX 7 13 8 14 14 15 10 16 12 17 9 18 11 20 13 22 4 24 22 26
REMARK SMILES IDX 19 28
REMARK H PARENT 9 19 11 21 13 23 4 25 22 27 19 29
REMARK Flexibility Score: inf
ROOT
ATOM      1  C   UNL     1      -4.212  -6.502   7.665  1.00  0.00     0.180 A 
ATOM      2  C   UNL     1      -3.437  -6.702   8.823  1.00  0.00     0.208 A 
ATOM      3  C   UNL     1      -2.298  -7.519   8.746  1.00  0.00     0.238 A 
ATOM      4  O   UNL     1      -1.589  -7.697   9.773  1.00  0.00    -0.285 OA
ATOM      5  C   UNL     1      -1.966  -8.138   7.522  1.00  0.00     0.111 A 
ATOM      6  C   UNL     1      -0.841  -8.979   7.359  1.00  0.00     0.134 A 
ATOM      7  C   UNL     1      -0.583  -9.566   6.112  1.00  0.00     0.093 A 
ATOM      8  C   UNL     1      -1.432  -9.326   5.024  1.00  0.00     0.123 A 
ATOM      9  C   UNL     1      -2.543  -8.497   5.179  1.00  0.00     0.094 A 
ATOM     10  C   UNL     1      -2.815  -7.903   6.414  1.00  0.00     0.146 A 
ATOM     11  O   UNL     1      -3.877  -7.114   6.533  1.00  0.00    -0.452 OA
ENDROOT
BRANCH   1  12
ATOM     12  C   UNL     1      -5.415  -5.639   7.663  1.00  0.00     0.029 A 
ATOM     13  C   UNL     1      -6.682  -6.223   7.522  1.00  0.00     0.062 A 
ATOM     14  C   UNL     1      -7.836  -5.426   7.496  1.00  0.00     0.162 A 
ATOM     15  C   UNL     1      -5.311  -4.239   7.741  1.00  0.00     0.062 A 
ATOM     16  C   UNL     1      -7.725  -4.029   7.595  1.00  0.00     0.200 A 
ATOM     17  C   UNL     1      -6.461  -3.438   7.713  1.00  0.00     0.162 A 
BRANCH  14  18
ATOM     18  O   UNL     1      -9.092  -6.019   7.370  1.00  0.00    -0.504 OA
ATOM     19  H   UNL     1      -9.739  -5.743   6.641  1.00  0.00     0.293 HD
ENDBRANCH  14  18
BRANCH  16  20
ATOM     20  O   UNL     1      -8.858  -3.216   7.575  1.00  0.00    -0.502 OA
ATOM     21  H   UNL     1      -8.978  -2.476   6.894  1.00  0.00     0.293 HD
ENDBRANCH  16  20
BRANCH  17  22
ATOM     22  O   UNL     1      -6.354  -2.051   7.798  1.00  0.00    -0.504 OA
ATOM     23  H   UNL     1      -5.678  -1.607   8.409  1.00  0.00     0.293 HD
ENDBRANCH  17  22
ENDBRANCH   1  12
BRANCH   2  24
ATOM     24  O   UNL     1      -3.814  -6.117  10.035  1.00  0.00    -0.502 OA
ATOM     25  H   UNL     1      -3.545  -5.174  10.289  1.00  0.00     0.293 HD
ENDBRANCH   2  24
BRANCH   6  26
ATOM     26  O   UNL     1       0.023  -9.238   8.426  1.00  0.00    -0.507 OA
ATOM     27  H   UNL     1       0.546  -8.497   8.880  1.00  0.00     0.293 HD
ENDBRANCH   6  26
BRANCH   8  28
ATOM     28  O   UNL     1      -1.178  -9.909   3.784  1.00  0.00    -0.508 OA
ATOM     29  H   UNL     1      -1.769 -10.644   3.414  1.00  0.00     0.293 HD
ENDBRANCH   8  28
TORSDOF 7
ENDMDL
MODEL 3
REMARK VINA RESULT:    -5.834     15.171     16.977
REMARK INTER + INTRA:          -7.318
REMARK INTER:                  -7.033
REMARK INTRA:                  -0.285
REMARK UNBOUND:                -0.120
REMARK SMILES O=c1c(O)c(-c2cc(O)c(O)c(O)c2)oc2cc(O)cc(O)c12
REMARK SMILES IDX 5 1 3 2 2 3 1 4 23 5 21 6 20 7 18 8 17 9 16 10 15 11 6 12
REMARK SMILES IDX 7 13 8 14 14 15 10 16 12 17 9 18 11 20 13 22 4 24 22 26
REMARK SMILES IDX 19 28
REMARK H PARENT 9 19 11 21 13 23 4 25 22 27 19 29
REMARK Flexibility Score: inf
ROOT
ATOM      1  C   UNL     1      -4.228  -6.529   7.684  1.00  0.00     0.180 A 
ATOM      2  C   UNL     1      -3.473  -6.718   8.857  1.00  0.00     0.208 A 
ATOM      3  C   UNL     1      -2.328  -7.528   8.804  1.00  0.00     0.238 A 
ATOM      4  O   UNL     1      -1.636  -7.695   9.845  1.00  0.00    -0.285 OA
ATOM      5  C   UNL     1      -1.969  -8.150   7.590  1.00  0.00     0.111 A 
ATOM      6  C   UNL     1      -0.834  -8.983   7.452  1.00  0.00     0.134 A 
ATOM      7  C   UNL     1      -0.550  -9.573   6.212  1.00  0.00     0.093 A 
ATOM      8  C   UNL     1      -1.380  -9.345   5.108  1.00  0.00     0.123 A 
ATOM      9  C   UNL     1      -2.500  -8.524   5.239  1.00  0.00     0.094 A 
ATOM     10  C   UNL     1      -2.799  -7.926   6.466  1.00  0.00     0.146 A 
ATOM     11  O   UNL     1      -3.869  -7.144   6.561  1.00  0.00    -0.452 OA
ENDROOT
BRANCH   1  12
ATOM     12  C   UNL     1      -5.437  -5.675   7.656  1.00  0.00     0.029 A 
ATOM     13  C   UNL     1      -5.298  -4.281   7.710  1.00  0.00     0.062 A 
ATOM     14  C   UNL     1      -6.428  -3.450   7.707  1.00  0.00     0.162 A 
ATOM     15  C   UNL     1      -6.727  -6.234   7.634  1.00  0.00     0.062 A 
ATOM     16  C   UNL     1      -7.713  -4.016   7.663  1.00  0.00     0.200 A 
ATOM     17  C   UNL     1      -7.859  -5.409   7.631  1.00  0.00     0.162 A 
BRANCH  14  18
ATOM     18  O   UNL     1      -6.277  -2.064   7.747  1.00  0.00    -0.504 OA
ATOM     19  H   UNL     1      -6.747  -1.498   8.443  1.00  0.00     0.293 HD
ENDBRANCH  14  18
BRANCH  16  20
ATOM     20  O   UNL     1      -8.851  -3.211   7.655  1.00  0.00    -0.502 OA
ATOM     21  H   UNL     1      -9.710  -3.495   7.200  1.00  0.00     0.293 HD
ENDBRANCH  16  20
BRANCH  17  22
ATOM     22  O   UNL     1      -9.136  -5.966   7.601  1.00  0.00    -0.504 OA
ATOM     23  H   UNL     1      -9.378  -6.705   6.952  1.00  0.00     0.293 HD
ENDBRANCH  17  22
ENDBRANCH   1  12
BRANCH   2  24
ATOM     24  O   UNL     1      -3.876  -6.131  10.059  1.00  0.00    -0.502 OA
ATOM     25  H   UNL     1      -3.811  -5.133  10.224  1.00  0.00     0.293 HD
ENDBRANCH   2  24
BRANCH   6  26
ATOM     26  O   UNL     1       0.011  -9.230   8.535  1.00  0.00    -0.507 OA
ATOM     27  H   UNL     1       0.979  -8.926   8.537  1.00  0.00     0.293 HD
ENDBRANCH   6  26
BRANCH   8  28
ATOM     28  O   UNL     1      -1.099  -9.932   3.875  1.00  0.00    -0.508 OA
ATOM     29  H   UNL     1      -0.161 -10.224   3.630  1.00  0.00     0.293 HD
ENDBRANCH   8  28
TORSDOF 7
ENDMDL
MODEL 4
REMARK VINA RESULT:    -5.236     13.059     16.778
REMARK INTER + INTRA:          -6.580
REMARK INTER:                  -6.218
REMARK INTRA:                  -0.361
REMARK UNBOUND:                -0.120
REMARK SMILES O=c1c(O)c(-c2cc(O)c(O)c(O)c2)oc2cc(O)cc(O)c12
REMARK SMILES IDX 5 1 3 2 2 3 1 4 23 5 21 6 20 7 18 8 17 9 16 10 15 11 6 12
REMARK SMILES IDX 7 13 8 14 14 15 10 16 12 17 9 18 11 20 13 22 4 24 22 26
REMARK SMILES IDX 19 28
REMARK H PARENT 9 19 11 21 13 23 4 25 22 27 19 29
REMARK Flexibility Score: inf
ROOT
ATOM      1  C   UNL     1       6.540   7.047  -4.620  1.00  0.00     0.180 A 
ATOM      2  C   UNL     1       7.365   7.663  -5.581  1.00  0.00     0.208 A 
ATOM      3  C   UNL     1       7.469   7.088  -6.856  1.00  0.00     0.238 A 
ATOM      4  O   UNL     1       8.196   7.636  -7.729  1.00  0.00    -0.285 OA
ATOM      5  C   UNL     1       6.766   5.899  -7.144  1.00  0.00     0.111 A 
ATOM      6  C   UNL     1       6.819   5.252  -8.401  1.00  0.00     0.134 A 
ATOM      7  C   UNL     1       6.098   4.067  -8.606  1.00  0.00     0.093 A 
ATOM      8  C   UNL     1       5.325   3.517  -7.577  1.00  0.00     0.123 A 
ATOM      9  C   UNL     1       5.269   4.151  -6.335  1.00  0.00     0.094 A 
ATOM     10  C   UNL     1       5.980   5.334  -6.112  1.00  0.00     0.146 A 
ATOM     11  O   UNL     1       5.904   5.919  -4.922  1.00  0.00    -0.452 OA
ENDROOT
BRANCH   1  12
ATOM     12  C   UNL     1       6.365   7.605  -3.260  1.00  0.00     0.029 A 
ATOM     13  C   UNL     1       7.108   7.074  -2.196  1.00  0.00     0.062 A 
ATOM     14  C   UNL     1       6.946   7.569  -0.894  1.00  0.00     0.162 A 
ATOM     15  C   UNL     1       5.425   8.617  -3.000  1.00  0.00     0.062 A 
ATOM     16  C   UNL     1       6.020   8.596  -0.647  1.00  0.00     0.200 A 
ATOM     17  C   UNL     1       5.257   9.115  -1.701  1.00  0.00     0.162 A 
BRANCH  14  18
ATOM     18  O   UNL     1       7.701   7.043   0.154  1.00  0.00    -0.504 OA
ATOM     19  H   UNL     1       7.281   6.804   1.044  1.00  0.00     0.293 HD
ENDBRANCH  14  18
BRANCH  16  20
ATOM     20  O   UNL     1       5.843   9.107   0.639  1.00  0.00    -0.502 OA
ATOM     21  H   UNL     1       6.447   8.850   1.409  1.00  0.00     0.293 HD
ENDBRANCH  16  20
BRANCH  17  22
ATOM     22  O   UNL     1       4.330  10.124  -1.449  1.00  0.00    -0.504 OA
ATOM     23  H   UNL     1       4.518  10.864  -0.781  1.00  0.00     0.293 HD
ENDBRANCH  17  22
ENDBRANCH   1  12
BRANCH   2  24
ATOM     24  O   UNL     1       8.090   8.813  -5.255  1.00  0.00    -0.502 OA
ATOM     25  H   UNL     1       8.773   8.830  -4.508  1.00  0.00     0.293 HD
ENDBRANCH   2  24
BRANCH   6  26
ATOM     26  O   UNL     1       7.582   5.776  -9.446  1.00  0.00    -0.507 OA
ATOM     27  H   UNL     1       7.243   5.784 -10.402  1.00  0.00     0.293 HD
ENDBRANCH   6  26
BRANCH   8  28
ATOM     28  O   UNL     1       4.609   2.339  -7.779  1.00  0.00    -0.508 OA
ATOM     29  H   UNL     1       4.375   2.014  -8.710  1.00  0.00     0.293 HD
ENDBRANCH   8  28
TORSDOF 7
ENDMDL
MODEL 5
REMARK VINA RESULT:    -5.195     13.004     16.774
REMARK INTER + INTRA:          -6.529
REMARK INTER:                  -6.208
REMARK INTRA:                  -0.321
REMARK UNBOUND:                -0.120
REMARK SMILES O=c1c(O)c(-c2cc(O)c(O)c(O)c2)oc2cc(O)cc(O)c12
REMARK SMILES IDX 5 1 3 2 2 3 1 4 23 5 21 6 20 7 18 8 17 9 16 10 15 11 6 12
REMARK SMILES IDX 7 13 8 14 14 15 10 16 12 17 9 18 11 20 13 22 4 24 22 26
REMARK SMILES IDX 19 28
REMARK H PARENT 9 19 11 21 13 23 4 25 22 27 19 29
REMARK Flexibility Score: inf
ROOT
ATOM      1  C   UNL     1       6.459   7.054  -4.609  1.00  0.00     0.180 A 
ATOM      2  C   UNL     1       7.197   7.751  -5.584  1.00  0.00     0.208 A 
ATOM      3  C   UNL     1       7.281   7.220  -6.880  1.00  0.00     0.238 A 
ATOM      4  O   UNL     1       7.930   7.841  -7.766  1.00  0.00    -0.285 OA
ATOM      5  C   UNL     1       6.646   5.995  -7.174  1.00  0.00     0.111 A 
ATOM      6  C   UNL     1       6.686   5.389  -8.452  1.00  0.00     0.134 A 
ATOM      7  C   UNL     1       6.036   4.164  -8.662  1.00  0.00     0.093 A 
ATOM      8  C   UNL     1       5.349   3.534  -7.618  1.00  0.00     0.123 A 
ATOM      9  C   UNL     1       5.307   4.127  -6.356  1.00  0.00     0.094 A 
ATOM     10  C   UNL     1       5.947   5.349  -6.127  1.00  0.00     0.146 A 
ATOM     11  O   UNL     1       5.887   5.894  -4.918  1.00  0.00    -0.452 OA
ENDROOT
BRANCH   1  12
ATOM     12  C   UNL     1       6.309   7.559  -3.225  1.00  0.00     0.029 A 
ATOM     13  C   UNL     1       5.398   8.594  -2.964  1.00  0.00     0.062 A 
ATOM     14  C   UNL     1       5.252   9.106  -1.667  1.00  0.00     0.162 A 
ATOM     15  C   UNL     1       7.101   7.064  -2.175  1.00  0.00     0.062 A 
ATOM     16  C   UNL     1       6.033   8.590  -0.619  1.00  0.00     0.200 A 
ATOM     17  C   UNL     1       6.960   7.573  -0.877  1.00  0.00     0.162 A 
BRANCH  14  18
ATOM     18  O   UNL     1       4.333  10.125  -1.416  1.00  0.00    -0.504 OA
ATOM     19  H   UNL     1       3.433  10.154  -1.879  1.00  0.00     0.293 HD
ENDBRANCH  14  18
BRANCH  16  20
ATOM     20  O   UNL     1       5.903   9.080   0.680  1.00  0.00    -0.502 OA
ATOM     21  H   UNL     1       5.167   8.769   1.303  1.00  0.00     0.293 HD
ENDBRANCH  16  20
BRANCH  17  22
ATOM     22  O   UNL     1       7.742   7.073   0.163  1.00  0.00    -0.504 OA
ATOM     23  H   UNL     1       7.560   7.317   1.129  1.00  0.00     0.293 HD
ENDBRANCH  17  22
ENDBRANCH   1  12
BRANCH   2  24
ATOM     24  O   UNL     1       7.857   8.938  -5.255  1.00  0.00    -0.502 OA
ATOM     25  H   UNL     1       7.889   9.733  -5.882  1.00  0.00     0.293 HD
ENDBRANCH   2  24
BRANCH   6  26
ATOM     26  O   UNL     1       7.364   5.992  -9.512  1.00  0.00    -0.507 OA
ATOM     27  H   UNL     1       8.333   6.278  -9.432  1.00  0.00     0.293 HD
ENDBRANCH   6  26
BRANCH   8  28
ATOM     28  O   UNL     1       4.705   2.315  -7.825  1.00  0.00    -0.508 OA
ATOM     29  H   UNL     1       4.081   1.922  -7.131  1.00  0.00     0.293 HD
ENDBRANCH   8  28
TORSDOF 7
ENDMDL
MODEL 6
REMARK VINA RESULT:    -5.093     15.501     17.069
REMARK INTER + INTRA:          -6.404
REMARK INTER:                  -6.049
REMARK INTRA:                  -0.355
REMARK UNBOUND:                -0.120
REMARK SMILES O=c1c(O)c(-c2cc(O)c(O)c(O)c2)oc2cc(O)cc(O)c12
REMARK SMILES IDX 5 1 3 2 2 3 1 4 23 5 21 6 20 7 18 8 17 9 16 10 15 11 6 12
REMARK SMILES IDX 7 13 8 14 14 15 10 16 12 17 9 18 11 20 13 22 4 24 22 26
REMARK SMILES IDX 19 28
REMARK H PARENT 9 19 11 21 13 23 4 25 22 27 19 29
REMARK Flexibility Score: inf
ROOT
ATOM      1  C   UNL     1      -4.250  -7.541   7.103  1.00  0.00     0.180 A 
ATOM      2  C   UNL     1      -5.390  -8.290   7.455  1.00  0.00     0.208 A 
ATOM      3  C   UNL     1      -6.567  -7.610   7.803  1.00  0.00     0.238 A 
ATOM      4  O   UNL     1      -7.598  -8.270   8.108  1.00  0.00    -0.285 OA
ATOM      5  C   UNL     1      -6.581  -6.200   7.815  1.00  0.00     0.111 A 
ATOM      6  C   UNL     1      -7.723  -5.438   8.159  1.00  0.00     0.134 A 
ATOM      7  C   UNL     1      -7.654  -4.038   8.156  1.00  0.00     0.093 A 
ATOM      8  C   UNL     1      -6.462  -3.385   7.818  1.00  0.00     0.123 A 
ATOM      9  C   UNL     1      -5.334  -4.131   7.478  1.00  0.00     0.094 A 
ATOM     10  C   UNL     1      -5.384  -5.528   7.474  1.00  0.00     0.146 A 
ATOM     11  O   UNL     1      -4.295  -6.213   7.141  1.00  0.00    -0.452 OA
ENDROOT
BRANCH   1  12
ATOM     12  C   UNL     1      -2.978  -8.185   6.706  1.00  0.00     0.029 A 
ATOM     13  C   UNL     1      -1.938  -8.294   7.641  1.00  0.00     0.062 A 
ATOM     14  C   UNL     1      -0.715  -8.880   7.285  1.00  0.00     0.162 A 
ATOM     15  C   UNL     1      -2.767  -8.641   5.393  1.00  0.00     0.062 A 
ATOM     16  C   UNL     1      -0.521  -9.352   5.976  1.00  0.00     0.200 A 
ATOM     17  C   UNL     1      -1.547  -9.226   5.030  1.00  0.00     0.162 A 
BRANCH  14  18
ATOM     18  O   UNL     1       0.307  -8.996   8.227  1.00  0.00    -0.504 OA
ATOM     19  H   UNL     1       0.169  -9.487   9.102  1.00  0.00     0.293 HD
ENDBRANCH  14  18
BRANCH  16  20
ATOM     20  O   UNL     1       0.685  -9.941   5.598  1.00  0.00    -0.502 OA
ATOM     21  H   UNL     1       0.821 -10.353   4.682  1.00  0.00     0.293 HD
ENDBRANCH  16  20
BRANCH  17  22
ATOM     22  O   UNL     1      -1.345  -9.683   3.729  1.00  0.00    -0.504 OA
ATOM     23  H   UNL     1      -1.148 -10.657   3.533  1.00  0.00     0.293 HD
ENDBRANCH  17  22
ENDBRANCH   1  12
BRANCH   2  24
ATOM     24  O   UNL     1      -5.337  -9.686   7.482  1.00  0.00    -0.502 OA
ATOM     25  H   UNL     1      -4.479 -10.193   7.666  1.00  0.00     0.293 HD
ENDBRANCH   2  24
BRANCH   6  26
ATOM     26  O   UNL     1      -8.924  -6.061   8.502  1.00  0.00    -0.507 OA
ATOM     27  H   UNL     1      -9.157  -6.991   8.171  1.00  0.00     0.293 HD
ENDBRANCH   6  26
BRANCH   8  28
ATOM     28  O   UNL     1      -6.392  -1.993   7.816  1.00  0.00    -0.508 OA
ATOM     29  H   UNL     1      -7.194  -1.423   7.578  1.00  0.00     0.293 HD
ENDBRANCH   8  28
TORSDOF 7
ENDMDL
MODEL 7
REMARK VINA RESULT:    -5.093     16.318     19.145
REMARK INTER + INTRA:          -6.403
REMARK INTER:                  -6.049
REMARK INTRA:                  -0.354
REMARK UNBOUND:                -0.120
REMARK SMILES O=c1c(O)c(-c2cc(O)c(O)c(O)c2)oc2cc(O)cc(O)c12
REMARK SMILES IDX 5 1 3 2 2 3 1 4 23 5 21 6 20 7 18 8 17 9 16 10 15 11 6 12
REMARK SMILES IDX 7 13 8 14 14 15 10 16 12 17 9 18 11 20 13 22 4 24 22 26
REMARK SMILES IDX 19 28
REMARK H PARENT 9 19 11 21 13 23 4 25 22 27 19 29
REMARK Flexibility Score: inf
ROOT
ATOM      1  C   UNL     1       6.362   3.226  -7.573  1.00  0.00     0.180 A 
ATOM      2  C   UNL     1       5.594   2.935  -8.717  1.00  0.00     0.208 A 
ATOM      3  C   UNL     1       5.207   1.608  -8.954  1.00  0.00     0.238 A 
ATOM      4  O   UNL     1       4.509   1.336  -9.969  1.00  0.00    -0.285 OA
ATOM      5  C   UNL     1       5.608   0.593  -8.059  1.00  0.00     0.111 A 
ATOM      6  C   UNL     1       5.264  -0.769  -8.228  1.00  0.00     0.134 A 
ATOM      7  C   UNL     1       5.711  -1.720  -7.299  1.00  0.00     0.093 A 
ATOM      8  C   UNL     1       6.495  -1.334  -6.205  1.00  0.00     0.123 A 
ATOM      9  C   UNL     1       6.836   0.008  -6.035  1.00  0.00     0.094 A 
ATOM     10  C   UNL     1       6.400   0.971  -6.949  1.00  0.00     0.146 A 
ATOM     11  O   UNL     1       6.735   2.242  -6.760  1.00  0.00    -0.452 OA
ENDROOT
BRANCH   1  12
ATOM     12  C   UNL     1       6.793   4.604  -7.244  1.00  0.00     0.029 A 
ATOM     13  C   UNL     1       7.986   5.102  -7.788  1.00  0.00     0.062 A 
ATOM     14  C   UNL     1       8.428   6.395  -7.476  1.00  0.00     0.162 A 
ATOM     15  C   UNL     1       6.061   5.406  -6.351  1.00  0.00     0.062 A 
ATOM     16  C   UNL     1       7.679   7.198  -6.600  1.00  0.00     0.200 A 
ATOM     17  C   UNL     1       6.499   6.699  -6.035  1.00  0.00     0.162 A 
BRANCH  14  18
ATOM     18  O   UNL     1       9.609   6.885  -8.035  1.00  0.00    -0.504 OA
ATOM     19  H   UNL     1      10.158   7.600  -7.573  1.00  0.00     0.293 HD
ENDBRANCH  14  18
BRANCH  16  20
ATOM     20  O   UNL     1       8.096   8.489  -6.277  1.00  0.00    -0.502 OA
ATOM     21  H   UNL     1       8.449   9.133  -6.975  1.00  0.00     0.293 HD
ENDBRANCH  16  20
BRANCH  17  22
ATOM     22  O   UNL     1       5.766   7.494  -5.155  1.00  0.00    -0.504 OA
ATOM     23  H   UNL     1       6.075   7.658  -4.204  1.00  0.00     0.293 HD
ENDBRANCH  17  22
ENDBRANCH   1  12
BRANCH   2  24
ATOM     24  O   UNL     1       5.251   3.951  -9.613  1.00  0.00    -0.502 OA
ATOM     25  H   UNL     1       4.854   3.758 -10.525  1.00  0.00     0.293 HD
ENDBRANCH   2  24
BRANCH   6  26
ATOM     26  O   UNL     1       4.485  -1.185  -9.309  1.00  0.00    -0.507 OA
ATOM     27  H   UNL     1       4.865  -1.251 -10.246  1.00  0.00     0.293 HD
ENDBRANCH   6  26
BRANCH   8  28
ATOM     28  O   UNL     1       6.940  -2.278  -5.282  1.00  0.00    -0.508 OA
ATOM     29  H   UNL     1       7.621  -2.984  -5.534  1.00  0.00     0.293 HD
ENDBRANCH   8  28
TORSDOF 7
ENDMDL
MODEL 8
REMARK VINA RESULT:    -4.656     13.287     15.662
REMARK INTER + INTRA:          -5.864
REMARK INTER:                  -5.562
REMARK INTRA:                  -0.302
REMARK UNBOUND:                -0.120
REMARK SMILES O=c1c(O)c(-c2cc(O)c(O)c(O)c2)oc2cc(O)cc(O)c12
REMARK SMILES IDX 5 1 3 2 2 3 1 4 23 5 21 6 20 7 18 8 17 9 16 10 15 11 6 12
REMARK SMILES IDX 7 13 8 14 14 15 10 16 12 17 9 18 11 20 13 22 4 24 22 26
REMARK SMILES IDX 19 28
REMARK H PARENT 9 19 11 21 13 23 4 25 22 27 19 29
REMARK Flexibility Score: inf
ROOT
ATOM      1  C   UNL     1       6.806   6.395  -4.879  1.00  0.00     0.180 A 
ATOM      2  C   UNL     1       8.198   6.356  -4.670  1.00  0.00     0.208 A 
ATOM      3  C   UNL     1       8.741   7.062  -3.586  1.00  0.00     0.238 A 
ATOM      4  O   UNL     1       9.985   7.025  -3.381  1.00  0.00    -0.285 OA
ATOM      5  C   UNL     1       7.891   7.809  -2.743  1.00  0.00     0.111 A 
ATOM      6  C   UNL     1       8.358   8.552  -1.633  1.00  0.00     0.134 A 
ATOM      7  C   UNL     1       7.450   9.278  -0.849  1.00  0.00     0.093 A 
ATOM      8  C   UNL     1       6.084   9.275  -1.156  1.00  0.00     0.123 A 
ATOM      9  C   UNL     1       5.619   8.545  -2.249  1.00  0.00     0.094 A 
ATOM     10  C   UNL     1       6.508   7.814  -3.042  1.00  0.00     0.146 A 
ATOM     11  O   UNL     1       6.038   7.123  -4.074  1.00  0.00    -0.452 OA
ENDROOT
BRANCH   1  12
ATOM     12  C   UNL     1       6.157   5.662  -5.989  1.00  0.00     0.029 A 
ATOM     13  C   UNL     1       6.223   6.180  -7.291  1.00  0.00     0.062 A 
ATOM     14  C   UNL     1       5.599   5.516  -8.356  1.00  0.00     0.162 A 
ATOM     15  C   UNL     1       5.424   4.485  -5.758  1.00  0.00     0.062 A 
ATOM     16  C   UNL     1       4.886   4.329  -8.120  1.00  0.00     0.200 A 
ATOM     17  C   UNL     1       4.796   3.818  -6.819  1.00  0.00     0.162 A 
BRANCH  14  18
ATOM     18  O   UNL     1       5.684   6.033  -9.649  1.00  0.00    -0.504 OA
ATOM     19  H   UNL     1       5.990   6.984  -9.822  1.00  0.00     0.293 HD
ENDBRANCH  14  18
BRANCH  16  20
ATOM     20  O   UNL     1       4.259   3.649  -9.164  1.00  0.00    -0.502 OA
ATOM     21  H   UNL     1       4.044   4.097 -10.046  1.00  0.00     0.293 HD
ENDBRANCH  16  20
BRANCH  17  22
ATOM     22  O   UNL     1       4.077   2.647  -6.587  1.00  0.00    -0.504 OA
ATOM     23  H   UNL     1       4.203   1.823  -7.162  1.00  0.00     0.293 HD
ENDBRANCH  17  22
ENDBRANCH   1  12
BRANCH   2  24
ATOM     24  O   UNL     1       9.024   5.648  -5.547  1.00  0.00    -0.502 OA
ATOM     25  H   UNL     1       9.898   6.026  -5.893  1.00  0.00     0.293 HD
ENDBRANCH   2  24
BRANCH   6  26
ATOM     26  O   UNL     1       9.714   8.575  -1.303  1.00  0.00    -0.507 OA
ATOM     27  H   UNL     1      10.095   7.987  -0.570  1.00  0.00     0.293 HD
ENDBRANCH   6  26
BRANCH   8  28
ATOM     28  O   UNL     1       5.180   9.997  -0.378  1.00  0.00    -0.508 OA
ATOM     29  H   UNL     1       4.374   9.554   0.046  1.00  0.00     0.293 HD
ENDBRANCH   8  28
TORSDOF 7
ENDMDL
MODEL 9
REMARK VINA RESULT:    -4.576     12.955     14.979
REMARK INTER + INTRA:          -5.766
REMARK INTER:                  -5.432
REMARK INTRA:                  -0.334
REMARK UNBOUND:                -0.120
REMARK SMILES O=c1c(O)c(-c2cc(O)c(O)c(O)c2)oc2cc(O)cc(O)c12
REMARK SMILES IDX 5 1 3 2 2 3 1 4 23 5 21 6 20 7 18 8 17 9 16 10 15 11 6 12
REMARK SMILES IDX 7 13 8 14 14 15 10 16 12 17 9 18 11 20 13 22 4 24 22 26
REMARK SMILES IDX 19 28
REMARK H PARENT 9 19 11 21 13 23 4 25 22 27 19 29
REMARK Flexibility Score: inf
ROOT
ATOM      1  C   UNL     1       7.197   7.437  -3.780  1.00  0.00     0.180 A 
ATOM      2  C   UNL     1       8.506   7.177  -3.331  1.00  0.00     0.208 A 
ATOM      3  C   UNL     1       8.854   7.526  -2.017  1.00  0.00     0.238 A 
ATOM      4  O   UNL     1      10.020   7.288  -1.600  1.00  0.00    -0.285 OA
ATOM      5  C   UNL     1       7.899   8.144  -1.183  1.00  0.00     0.111 A 
ATOM      6  C   UNL     1       8.170   8.531   0.151  1.00  0.00     0.134 A 
ATOM      7  C   UNL     1       7.169   9.150   0.913  1.00  0.00     0.093 A 
ATOM      8  C   UNL     1       5.903   9.390   0.366  1.00  0.00     0.123 A 
ATOM      9  C   UNL     1       5.631   9.011  -0.949  1.00  0.00     0.094 A 
ATOM     10  C   UNL     1       6.615   8.391  -1.724  1.00  0.00     0.146 A 
ATOM     11  O   UNL     1       6.328   8.035  -2.971  1.00  0.00    -0.452 OA
ENDROOT
BRANCH   1  12
ATOM     12  C   UNL     1       6.748   7.081  -5.145  1.00  0.00     0.029 A 
ATOM     13  C   UNL     1       6.381   5.757  -5.429  1.00  0.00     0.062 A 
ATOM     14  C   UNL     1       5.973   5.389  -6.718  1.00  0.00     0.162 A 
ATOM     15  C   UNL     1       6.736   8.030  -6.182  1.00  0.00     0.062 A 
ATOM     16  C   UNL     1       5.944   6.349  -7.744  1.00  0.00     0.200 A 
ATOM     17  C   UNL     1       6.331   7.668  -7.474  1.00  0.00     0.162 A 
BRANCH  14  18
ATOM     18  O   UNL     1       5.597   4.072  -6.985  1.00  0.00    -0.504 OA
ATOM     19  H   UNL     1       5.841   3.314  -6.359  1.00  0.00     0.293 HD
ENDBRANCH  14  18
BRANCH  16  20
ATOM     20  O   UNL     1       5.539   6.008  -9.034  1.00  0.00    -0.502 OA
ATOM     21  H   UNL     1       4.845   6.544  -9.540  1.00  0.00     0.293 HD
ENDBRANCH  16  20
BRANCH  17  22
ATOM     22  O   UNL     1       6.313   8.614  -8.497  1.00  0.00    -0.504 OA
ATOM     23  H   UNL     1       6.782   8.450  -9.380  1.00  0.00     0.293 HD
ENDBRANCH  17  22
ENDBRANCH   1  12
BRANCH   2  24
ATOM     24  O   UNL     1       9.448   6.608  -4.193  1.00  0.00    -0.502 OA
ATOM     25  H   UNL     1       9.210   5.871  -4.846  1.00  0.00     0.293 HD
ENDBRANCH   2  24
BRANCH   6  26
ATOM     26  O   UNL     1       9.423   8.306   0.723  1.00  0.00    -0.507 OA
ATOM     27  H   UNL     1       9.980   9.064   1.103  1.00  0.00     0.293 HD
ENDBRANCH   6  26
BRANCH   8  28
ATOM     28  O   UNL     1       4.908  10.006   1.122  1.00  0.00    -0.508 OA
ATOM     29  H   UNL     1       4.152   9.474   1.536  1.00  0.00     0.293 HD
ENDBRANCH   8  28
TORSDOF 7
ENDMDL
