MODEL 1
REMARK VINA RESULT:    -2.279      0.000      0.000
REMARK INTER + INTRA:          -3.426
REMARK INTER:                  -3.078
REMARK INTRA:                  -0.347
REMARK UNBOUND:                -0.347
REMARK SMILES CC(=O)CCC=C(C)CCC=C(C)C
REMARK SMILES IDX 7 1 6 2 8 3 9 4 10 5 11 6 13 7 12 8 14 9 5 10 4 11 2 12 3 13
REMARK SMILES IDX 1 14
REMARK H PARENT
REMARK Flexibility Score: inf
ROOT
ATOM      1  C   UNL     1      30.958  24.646  31.415  1.00  0.00    -0.077 C 
ATOM      2  C   UNL     1      31.134  24.897  30.099  1.00  0.00    -0.028 C 
ATOM      3  C   UNL     1      29.699  23.992  31.930  1.00  0.00     0.039 C 
ENDROOT
BRANCH   1   4
ATOM      4  C   UNL     1      32.042  25.041  32.396  1.00  0.00     0.034 C 
BRANCH   4   5
ATOM      5  C   UNL     1      33.418  25.118  31.721  1.00  0.00     0.032 C 
BRANCH   5   6
ATOM      6  C   UNL     1      34.527  25.079  32.745  1.00  0.00    -0.028 C 
ATOM      7  C   UNL     1      36.829  25.124  33.602  1.00  0.00     0.039 C 
ATOM      8  C   UNL     1      35.847  25.109  32.458  1.00  0.00    -0.080 C 
ATOM      9  C   UNL     1      36.362  25.125  31.039  1.00  0.00     0.039 C 
ENDBRANCH   5   6
ENDBRANCH   4   5
ENDBRANCH   1   4
BRANCH   2  10
ATOM     10  C   UNL     1      30.099  24.565  29.052  1.00  0.00     0.035 C 
BRANCH  10  11
ATOM     11  C   UNL     1      30.697  24.625  27.643  1.00  0.00     0.079 C 
BRANCH  11  12
ATOM     12  C   UNL     1      32.130  24.161  27.653  1.00  0.00     0.130 C 
ATOM     13  O   UNL     1      32.380  22.990  27.894  1.00  0.00    -0.300 OA
ATOM     14  C   UNL     1      33.259  25.103  27.359  1.00  0.00     0.087 C 
ENDBRANCH  11  12
ENDBRANCH  10  11
ENDBRANCH   2  10
TORSDOF 6
ENDMDL
MODEL 2
REMARK VINA RESULT:    -2.250      2.270      3.952
REMARK INTER + INTRA:          -3.386
REMARK INTER:                  -2.569
REMARK INTRA:                  -0.817
REMARK UNBOUND:                -0.347
REMARK SMILES CC(=O)CCC=C(C)CCC=C(C)C
REMARK SMILES IDX 7 1 6 2 8 3 9 4 10 5 11 6 13 7 12 8 14 9 5 10 4 11 2 12 3 13
REMARK SMILES IDX 1 14
REMARK H PARENT
REMARK Flexibility Score: inf
ROOT
ATOM      1  C   UNL     1      32.250  23.256  27.706  1.00  0.00    -0.077 C 
ATOM      2  C   UNL     1      31.147  24.011  27.505  1.00  0.00    -0.028 C 
ATOM      3  C   UNL     1      32.277  22.164  28.747  1.00  0.00     0.039 C 
ENDROOT
BRANCH   1   4
ATOM      4  C   UNL     1      33.488  23.520  26.875  1.00  0.00     0.034 C 
BRANCH   4   5
ATOM      5  C   UNL     1      34.035  24.934  27.104  1.00  0.00     0.032 C 
BRANCH   5   6
ATOM      6  C   UNL     1      34.754  25.030  28.429  1.00  0.00    -0.028 C 
ATOM      7  C   UNL     1      36.599  24.790  30.033  1.00  0.00     0.039 C 
ATOM      8  C   UNL     1      35.998  24.560  28.670  1.00  0.00    -0.080 C 
ATOM      9  C   UNL     1      36.795  23.818  27.624  1.00  0.00     0.039 C 
ENDBRANCH   5   6
ENDBRANCH   4   5
ENDBRANCH   1   4
BRANCH   2  10
ATOM     10  C   UNL     1      29.876  23.840  28.302  1.00  0.00     0.035 C 
BRANCH  10  11
ATOM     11  C   UNL     1      29.555  25.101  29.110  1.00  0.00     0.079 C 
BRANCH  11  12
ATOM     12  C   UNL     1      30.112  24.997  30.505  1.00  0.00     0.130 C 
ATOM     13  O   UNL     1      29.354  24.793  31.441  1.00  0.00    -0.300 OA
ATOM     14  C   UNL     1      31.583  25.125  30.772  1.00  0.00     0.087 C 
ENDBRANCH  11  12
ENDBRANCH  10  11
ENDBRANCH   2  10
TORSDOF 6
ENDMDL
MODEL 3
REMARK VINA RESULT:    -1.746      2.395      5.117
REMARK INTER + INTRA:          -2.706
REMARK INTER:                  -2.223
REMARK INTRA:                  -0.482
REMARK UNBOUND:                -0.347
REMARK SMILES CC(=O)CCC=C(C)CCC=C(C)C
REMARK SMILES IDX 7 1 6 2 8 3 9 4 10 5 11 6 13 7 12 8 14 9 5 10 4 11 2 12 3 13
REMARK SMILES IDX 1 14
REMARK H PARENT
REMARK Flexibility Score: inf
ROOT
ATOM      1  C   UNL     1      31.491  24.846  32.558  1.00  0.00    -0.077 C 
ATOM      2  C   UNL     1      32.840  24.927  32.532  1.00  0.00    -0.028 C 
ATOM      3  C   UNL     1      30.721  24.964  33.851  1.00  0.00     0.039 C 
ENDROOT
BRANCH   1   4
ATOM      4  C   UNL     1      30.738  24.619  31.264  1.00  0.00     0.034 C 
BRANCH   4   5
ATOM      5  C   UNL     1      31.581  25.000  30.041  1.00  0.00     0.032 C 
BRANCH   5   6
ATOM      6  C   UNL     1      31.749  23.824  29.109  1.00  0.00    -0.028 C 
ATOM      7  C   UNL     1      32.916  22.244  27.634  1.00  0.00     0.039 C 
ATOM      8  C   UNL     1      32.900  23.486  28.487  1.00  0.00    -0.080 C 
ATOM      9  C   UNL     1      34.158  24.310  28.621  1.00  0.00     0.039 C 
ENDBRANCH   5   6
ENDBRANCH   4   5
ENDBRANCH   1   4
BRANCH   2  10
ATOM     10  C   UNL     1      33.677  25.125  33.772  1.00  0.00     0.035 C 
BRANCH  10  11
ATOM     11  C   UNL     1      34.810  24.096  33.845  1.00  0.00     0.079 C 
BRANCH  11  12
ATOM     12  C   UNL     1      36.030  24.596  33.117  1.00  0.00     0.130 C 
ATOM     13  O   UNL     1      37.117  24.566  33.674  1.00  0.00    -0.300 OA
ATOM     14  C   UNL     1      35.944  25.121  31.715  1.00  0.00     0.087 C 
ENDBRANCH  11  12
ENDBRANCH  10  11
ENDBRANCH   2  10
TORSDOF 6
ENDMDL
MODEL 4
REMARK VINA RESULT:    -0.852      2.204      5.709
REMARK INTER + INTRA:          -1.498
REMARK INTER:                  -2.652
REMARK INTRA:                   1.155
REMARK UNBOUND:                -0.347
REMARK SMILES CC(=O)CCC=C(C)CCC=C(C)C
REMARK SMILES IDX 7 1 6 2 8 3 9 4 10 5 11 6 13 7 12 8 14 9 5 10 4 11 2 12 3 13
REMARK SMILES IDX 1 14
REMARK H PARENT
REMARK Flexibility Score: inf
ROOT
ATOM      1  C   UNL     1      31.755  24.959  32.272  1.00  0.00    -0.077 C 
ATOM      2  C   UNL     1      31.867  24.840  33.613  1.00  0.00    -0.028 C 
ATOM      3  C   UNL     1      32.970  25.125  31.392  1.00  0.00     0.039 C 
ENDROOT
BRANCH   1   4
ATOM      4  C   UNL     1      30.379  24.937  31.639  1.00  0.00     0.034 C 
BRANCH   4   5
ATOM      5  C   UNL     1      30.230  23.780  30.644  1.00  0.00     0.032 C 
BRANCH   5   6
ATOM      6  C   UNL     1      30.080  24.295  29.232  1.00  0.00    -0.028 C 
ATOM      7  C   UNL     1      30.704  24.733  26.896  1.00  0.00     0.039 C 
ATOM      8  C   UNL     1      31.034  24.227  28.277  1.00  0.00    -0.080 C 
ATOM      9  C   UNL     1      32.408  23.665  28.552  1.00  0.00     0.039 C 
ENDBRANCH   5   6
ENDBRANCH   4   5
ENDBRANCH   1   4
BRANCH   2  10
ATOM     10  C   UNL     1      33.192  24.878  34.335  1.00  0.00     0.035 C 
BRANCH  10  11
ATOM     11  C   UNL     1      34.348  25.122  33.360  1.00  0.00     0.079 C 
BRANCH  11  12
ATOM     12  C   UNL     1      35.538  24.273  33.721  1.00  0.00     0.130 C 
ATOM     13  O   UNL     1      35.364  23.127  34.106  1.00  0.00    -0.300 OA
ATOM     14  C   UNL     1      36.938  24.800  33.607  1.00  0.00     0.087 C 
ENDBRANCH  11  12
ENDBRANCH  10  11
ENDBRANCH   2  10
TORSDOF 6
ENDMDL
MODEL 5
REMARK VINA RESULT:    -0.132      2.092      2.867
REMARK INTER + INTRA:          -0.525
REMARK INTER:                   0.060
REMARK INTRA:                  -0.585
REMARK UNBOUND:                -0.347
REMARK SMILES CC(=O)CCC=C(C)CCC=C(C)C
REMARK SMILES IDX 7 1 6 2 8 3 9 4 10 5 11 6 13 7 12 8 14 9 5 10 4 11 2 12 3 13
REMARK SMILES IDX 1 14
REMARK H PARENT
REMARK Flexibility Score: inf
ROOT
ATOM      1  C   UNL     1      31.474  24.381  31.130  1.00  0.00    -0.077 C 
ATOM      2  C   UNL     1      30.803  25.112  30.213  1.00  0.00    -0.028 C 
ATOM      3  C   UNL     1      30.749  23.498  32.117  1.00  0.00     0.039 C 
ENDROOT
BRANCH   1   4
ATOM      4  C   UNL     1      32.986  24.459  31.177  1.00  0.00     0.034 C 
BRANCH   4   5
ATOM      5  C   UNL     1      33.559  25.125  29.919  1.00  0.00     0.032 C 
BRANCH   5   6
ATOM      6  C   UNL     1      34.942  24.602  29.612  1.00  0.00    -0.028 C 
ATOM      7  C   UNL     1      36.725  23.525  28.309  1.00  0.00     0.039 C 
ATOM      8  C   UNL     1      35.283  23.926  28.493  1.00  0.00    -0.080 C 
ATOM      9  C   UNL     1      34.272  23.563  27.432  1.00  0.00     0.039 C 
ENDBRANCH   5   6
ENDBRANCH   4   5
ENDBRANCH   1   4
BRANCH   2  10
ATOM     10  C   UNL     1      29.297  25.119  30.109  1.00  0.00     0.035 C 
BRANCH  10  11
ATOM     11  C   UNL     1      28.843  25.123  28.646  1.00  0.00     0.079 C 
BRANCH  11  12
ATOM     12  C   UNL     1      29.628  24.121  27.842  1.00  0.00     0.130 C 
ATOM     13  O   UNL     1      29.290  22.947  27.849  1.00  0.00    -0.300 OA
ATOM     14  C   UNL     1      30.813  24.533  27.020  1.00  0.00     0.087 C 
ENDBRANCH  11  12
ENDBRANCH  10  11
ENDBRANCH   2  10
TORSDOF 6
ENDMDL
MODEL 6
REMARK VINA RESULT:    -0.013      2.559      6.227
REMARK INTER + INTRA:          -0.364
REMARK INTER:                   0.229
REMARK INTRA:                  -0.593
REMARK UNBOUND:                -0.347
REMARK SMILES CC(=O)CCC=C(C)CCC=C(C)C
REMARK SMILES IDX 7 1 6 2 8 3 9 4 10 5 11 6 13 7 12 8 14 9 5 10 4 11 2 12 3 13
REMARK SMILES IDX 1 14
REMARK H PARENT
REMARK Flexibility Score: inf
ROOT
ATOM      1  C   UNL     1      33.985  24.340  29.240  1.00  0.00    -0.077 C 
ATOM      2  C   UNL     1      32.982  24.448  30.139  1.00  0.00    -0.028 C 
ATOM      3  C   UNL     1      35.369  24.862  29.537  1.00  0.00     0.039 C 
ENDROOT
BRANCH   1   4
ATOM      4  C   UNL     1      33.709  23.691  27.899  1.00  0.00     0.034 C 
BRANCH   4   5
ATOM      5  C   UNL     1      32.451  24.266  27.237  1.00  0.00     0.032 C 
BRANCH   5   6
ATOM      6  C   UNL     1      31.284  23.317  27.372  1.00  0.00    -0.028 C 
ATOM      7  C   UNL     1      28.950  22.619  27.686  1.00  0.00     0.039 C 
ATOM      8  C   UNL     1      30.013  23.686  27.644  1.00  0.00    -0.080 C 
ATOM      9  C   UNL     1      29.631  25.123  27.906  1.00  0.00     0.039 C 
ENDBRANCH   5   6
ENDBRANCH   4   5
ENDBRANCH   1   4
BRANCH   2  10
ATOM     10  C   UNL     1      33.154  25.103  31.488  1.00  0.00     0.035 C 
BRANCH  10  11
ATOM     11  C   UNL     1      32.006  24.736  32.433  1.00  0.00     0.079 C 
BRANCH  11  12
ATOM     12  C   UNL     1      32.414  24.936  33.869  1.00  0.00     0.130 C 
ATOM     13  O   UNL     1      31.555  25.125  34.717  1.00  0.00    -0.300 OA
ATOM     14  C   UNL     1      33.854  24.897  34.286  1.00  0.00     0.087 C 
ENDBRANCH  11  12
ENDBRANCH  10  11
ENDBRANCH   2  10
TORSDOF 6
ENDMDL
MODEL 7
REMARK VINA RESULT:     0.134      2.918      5.088
REMARK INTER + INTRA:          -0.166
REMARK INTER:                  -1.490
REMARK INTRA:                   1.324
REMARK UNBOUND:                -0.347
REMARK SMILES CC(=O)CCC=C(C)CCC=C(C)C
REMARK SMILES IDX 7 1 6 2 8 3 9 4 10 5 11 6 13 7 12 8 14 9 5 10 4 11 2 12 3 13
REMARK SMILES IDX 1 14
REMARK H PARENT
REMARK Flexibility Score: inf
ROOT
ATOM      1  C   UNL     1      33.674  24.870  29.303  1.00  0.00    -0.077 C 
ATOM      2  C   UNL     1      32.358  24.875  29.611  1.00  0.00    -0.028 C 
ATOM      3  C   UNL     1      34.730  25.102  30.356  1.00  0.00     0.039 C 
ENDROOT
BRANCH   1   4
ATOM      4  C   UNL     1      34.097  24.637  27.868  1.00  0.00     0.034 C 
BRANCH   4   5
ATOM      5  C   UNL     1      33.621  23.275  27.348  1.00  0.00     0.032 C 
BRANCH   5   6
ATOM      6  C   UNL     1      34.790  22.413  26.935  1.00  0.00    -0.028 C 
ATOM      7  C   UNL     1      37.113  21.613  26.876  1.00  0.00     0.039 C 
ATOM      8  C   UNL     1      36.069  22.602  27.330  1.00  0.00    -0.080 C 
ATOM      9  C   UNL     1      36.479  23.763  28.203  1.00  0.00     0.039 C 
ENDBRANCH   5   6
ENDBRANCH   4   5
ENDBRANCH   1   4
BRANCH   2  10
ATOM     10  C   UNL     1      31.841  25.125  31.007  1.00  0.00     0.035 C 
BRANCH  10  11
ATOM     11  C   UNL     1      30.320  24.955  31.072  1.00  0.00     0.079 C 
BRANCH  11  12
ATOM     12  C   UNL     1      29.886  24.570  32.462  1.00  0.00     0.130 C 
ATOM     13  O   UNL     1      28.695  24.511  32.726  1.00  0.00    -0.300 OA
ATOM     14  C   UNL     1      30.887  24.244  33.531  1.00  0.00     0.087 C 
ENDBRANCH  11  12
ENDBRANCH  10  11
ENDBRANCH   2  10
TORSDOF 6
ENDMDL
