MODEL 1
REMARK VINA RESULT:    -4.328      0.000      0.000
REMARK INTER + INTRA:          -6.327
REMARK INTER:                  -5.846
REMARK INTRA:                  -0.481
REMARK UNBOUND:                -0.481
REMARK SMILES CCCCCCCC(=O)[O-]
REMARK SMILES IDX 5 1 6 2 7 3 8 4 9 5 10 6 4 7 3 8 2 9 1 10
REMARK H PARENT
REMARK Flexibility Score: inf
ROOT
ATOM      1  C   UNL     1    -105.543 -84.367  39.519  1.00  0.00     0.000 C 
ENDROOT
BRANCH   1   2
ATOM      2  C   UNL     1    -104.681 -85.626  39.702  1.00  0.00     0.006 C 
BRANCH   2   3
ATOM      3  C   UNL     1    -103.903 -85.998  38.434  1.00  0.00     0.053 C 
BRANCH   3   4
ATOM      4  C   UNL     1    -104.825 -86.583  37.411  1.00  0.00     0.041 C 
ATOM      5  O   UNL     1    -105.201 -87.780  37.507  1.00  0.00    -0.550 OA
ATOM      6  O   UNL     1    -105.231 -85.819  36.324  1.00  0.00    -0.550 OA
ENDBRANCH   3   4
ENDBRANCH   2   3
ENDBRANCH   1   2
BRANCH   1   7
ATOM      7  C   UNL     1    -104.773 -83.211  38.863  1.00  0.00     0.000 C 
BRANCH   7   8
ATOM      8  C   UNL     1    -104.427 -82.127  39.895  1.00  0.00    -0.000 C 
BRANCH   8   9
ATOM      9  C   UNL     1    -102.921 -81.829  39.957  1.00  0.00    -0.003 C 
ATOM     10  C   UNL     1    -102.077 -83.088  40.147  1.00  0.00     0.004 C 
ENDBRANCH   8   9
ENDBRANCH   7   8
ENDBRANCH   1   7
TORSDOF 6
ENDMDL
MODEL 2
REMARK VINA RESULT:    -4.275      1.475      2.601
REMARK INTER + INTRA:          -6.256
REMARK INTER:                  -5.951
REMARK INTRA:                  -0.305
REMARK UNBOUND:                -0.481
REMARK SMILES CCCCCCCC(=O)[O-]
REMARK SMILES IDX 5 1 6 2 7 3 8 4 9 5 10 6 4 7 3 8 2 9 1 10
REMARK H PARENT
REMARK Flexibility Score: inf
ROOT
ATOM      1  C   UNL     1    -103.930 -86.307  38.490  1.00  0.00     0.000 C 
ENDROOT
BRANCH   1   2
ATOM      2  C   UNL     1    -104.989 -86.088  37.397  1.00  0.00     0.006 C 
BRANCH   2   3
ATOM      3  C   UNL     1    -105.314 -87.374  36.626  1.00  0.00     0.053 C 
BRANCH   3   4
ATOM      4  C   UNL     1    -105.593 -87.061  35.189  1.00  0.00     0.041 C 
ATOM      5  O   UNL     1    -104.922 -86.180  34.590  1.00  0.00    -0.550 OA
ATOM      6  O   UNL     1    -106.626 -87.710  34.524  1.00  0.00    -0.550 OA
ENDBRANCH   3   4
ENDBRANCH   2   3
ENDBRANCH   1   2
BRANCH   1   7
ATOM      7  C   UNL     1    -104.218 -85.499  39.765  1.00  0.00     0.000 C 
BRANCH   7   8
ATOM      8  C   UNL     1    -105.416 -84.560  39.560  1.00  0.00    -0.000 C 
BRANCH   8   9
ATOM      9  C   UNL     1    -105.003 -83.082  39.482  1.00  0.00    -0.003 C 
ATOM     10  C   UNL     1    -103.513 -82.871  39.750  1.00  0.00     0.004 C 
ENDBRANCH   8   9
ENDBRANCH   7   8
ENDBRANCH   1   7
TORSDOF 6
ENDMDL
MODEL 3
REMARK VINA RESULT:    -4.182      2.651      4.824
REMARK INTER + INTRA:          -6.130
REMARK INTER:                  -5.798
REMARK INTRA:                  -0.332
REMARK UNBOUND:                -0.481
REMARK SMILES CCCCCCCC(=O)[O-]
REMARK SMILES IDX 5 1 6 2 7 3 8 4 9 5 10 6 4 7 3 8 2 9 1 10
REMARK H PARENT
REMARK Flexibility Score: inf
ROOT
ATOM      1  C   UNL     1    -103.903 -86.081  38.402  1.00  0.00     0.000 C 
ENDROOT
BRANCH   1   2
ATOM      2  C   UNL     1    -104.518 -85.593  39.723  1.00  0.00     0.006 C 
BRANCH   2   3
ATOM      3  C   UNL     1    -105.528 -84.456  39.518  1.00  0.00     0.053 C 
BRANCH   3   4
ATOM      4  C   UNL     1    -104.832 -83.131  39.546  1.00  0.00     0.041 C 
ATOM      5  O   UNL     1    -103.666 -83.037  40.012  1.00  0.00    -0.550 OA
ATOM      6  O   UNL     1    -105.490 -81.991  39.102  1.00  0.00    -0.550 OA
ENDBRANCH   3   4
ENDBRANCH   2   3
ENDBRANCH   1   2
BRANCH   1   7
ATOM      7  C   UNL     1    -104.326 -87.514  38.045  1.00  0.00     0.000 C 
BRANCH   7   8
ATOM      8  C   UNL     1    -105.154 -87.535  36.752  1.00  0.00    -0.000 C 
BRANCH   8   9
ATOM      9  C   UNL     1    -105.219 -86.160  36.069  1.00  0.00    -0.003 C 
ATOM     10  C   UNL     1    -105.233 -86.258  34.544  1.00  0.00     0.004 C 
ENDBRANCH   8   9
ENDBRANCH   7   8
ENDBRANCH   1   7
TORSDOF 6
ENDMDL
MODEL 4
REMARK VINA RESULT:    -4.175      2.381      4.764
REMARK INTER + INTRA:          -6.121
REMARK INTER:                  -5.728
REMARK INTRA:                  -0.393
REMARK UNBOUND:                -0.481
REMARK SMILES CCCCCCCC(=O)[O-]
REMARK SMILES IDX 5 1 6 2 7 3 8 4 9 5 10 6 4 7 3 8 2 9 1 10
REMARK H PARENT
REMARK Flexibility Score: inf
ROOT
ATOM      1  C   UNL     1    -104.679 -85.546  39.748  1.00  0.00     0.000 C 
ENDROOT
BRANCH   1   2
ATOM      2  C   UNL     1    -105.408 -84.287  39.254  1.00  0.00     0.006 C 
BRANCH   2   3
ATOM      3  C   UNL     1    -104.686 -82.993  39.650  1.00  0.00     0.053 C 
BRANCH   3   4
ATOM      4  C   UNL     1    -103.324 -82.946  39.031  1.00  0.00     0.041 C 
ATOM      5  O   UNL     1    -103.195 -82.993  37.779  1.00  0.00    -0.550 OA
ATOM      6  O   UNL     1    -102.195 -82.900  39.837  1.00  0.00    -0.550 OA
ENDBRANCH   3   4
ENDBRANCH   2   3
ENDBRANCH   1   2
BRANCH   1   7
ATOM      7  C   UNL     1    -104.321 -86.511  38.608  1.00  0.00     0.000 C 
BRANCH   7   8
ATOM      8  C   UNL     1    -104.984 -86.074  37.292  1.00  0.00    -0.000 C 
BRANCH   8   9
ATOM      9  C   UNL     1    -105.279 -87.258  36.358  1.00  0.00    -0.003 C 
ATOM     10  C   UNL     1    -105.731 -86.814  34.967  1.00  0.00     0.004 C 
ENDBRANCH   8   9
ENDBRANCH   7   8
ENDBRANCH   1   7
TORSDOF 6
ENDMDL
MODEL 5
REMARK VINA RESULT:    -4.170      0.851      2.068
REMARK INTER + INTRA:          -6.114
REMARK INTER:                  -5.605
REMARK INTRA:                  -0.510
REMARK UNBOUND:                -0.481
REMARK SMILES CCCCCCCC(=O)[O-]
REMARK SMILES IDX 5 1 6 2 7 3 8 4 9 5 10 6 4 7 3 8 2 9 1 10
REMARK H PARENT
REMARK Flexibility Score: inf
ROOT
ATOM      1  C   UNL     1    -102.595 -85.591  39.127  1.00  0.00     0.000 C 
ENDROOT
BRANCH   1   2
ATOM      2  C   UNL     1    -103.996 -85.945  39.650  1.00  0.00     0.006 C 
BRANCH   2   3
ATOM      3  C   UNL     1    -105.111 -85.504  38.694  1.00  0.00     0.053 C 
BRANCH   3   4
ATOM      4  C   UNL     1    -105.073 -86.318  37.438  1.00  0.00     0.041 C 
ATOM      5  O   UNL     1    -105.100 -85.752  36.315  1.00  0.00    -0.550 OA
ATOM      6  O   UNL     1    -105.055 -87.705  37.510  1.00  0.00    -0.550 OA
ENDBRANCH   3   4
ENDBRANCH   2   3
ENDBRANCH   1   2
BRANCH   1   7
ATOM      7  C   UNL     1    -102.419 -84.085  38.876  1.00  0.00     0.000 C 
BRANCH   7   8
ATOM      8  C   UNL     1    -102.190 -83.332  40.195  1.00  0.00    -0.000 C 
BRANCH   8   9
ATOM      9  C   UNL     1    -102.933 -81.988  40.245  1.00  0.00    -0.003 C 
ATOM     10  C   UNL     1    -104.405 -82.112  39.855  1.00  0.00     0.004 C 
ENDBRANCH   8   9
ENDBRANCH   7   8
ENDBRANCH   1   7
TORSDOF 6
ENDMDL
MODEL 6
REMARK VINA RESULT:    -4.144      1.862      2.857
REMARK INTER + INTRA:          -6.078
REMARK INTER:                  -5.412
REMARK INTRA:                  -0.667
REMARK UNBOUND:                -0.481
REMARK SMILES CCCCCCCC(=O)[O-]
REMARK SMILES IDX 5 1 6 2 7 3 8 4 9 5 10 6 4 7 3 8 2 9 1 10
REMARK H PARENT
REMARK Flexibility Score: inf
ROOT
ATOM      1  C   UNL     1    -104.166 -86.498  38.512  1.00  0.00     0.000 C 
ENDROOT
BRANCH   1   2
ATOM      2  C   UNL     1    -105.079 -86.085  37.347  1.00  0.00     0.006 C 
BRANCH   2   3
ATOM      3  C   UNL     1    -104.293 -85.751  36.072  1.00  0.00     0.053 C 
BRANCH   3   4
ATOM      4  C   UNL     1    -103.536 -84.472  36.248  1.00  0.00     0.041 C 
ATOM      5  O   UNL     1    -104.131 -83.366  36.162  1.00  0.00    -0.550 OA
ATOM      6  O   UNL     1    -102.164 -84.500  36.460  1.00  0.00    -0.550 OA
ENDBRANCH   3   4
ENDBRANCH   2   3
ENDBRANCH   1   2
BRANCH   1   7
ATOM      7  C   UNL     1    -104.379 -85.636  39.766  1.00  0.00     0.000 C 
BRANCH   7   8
ATOM      8  C   UNL     1    -105.445 -84.559  39.517  1.00  0.00    -0.000 C 
BRANCH   8   9
ATOM      9  C   UNL     1    -104.875 -83.134  39.594  1.00  0.00    -0.003 C 
ATOM     10  C   UNL     1    -103.355 -83.114  39.746  1.00  0.00     0.004 C 
ENDBRANCH   8   9
ENDBRANCH   7   8
ENDBRANCH   1   7
TORSDOF 6
ENDMDL
MODEL 7
REMARK VINA RESULT:    -4.139      2.225      3.748
REMARK INTER + INTRA:          -6.072
REMARK INTER:                  -5.447
REMARK INTRA:                  -0.624
REMARK UNBOUND:                -0.481
REMARK SMILES CCCCCCCC(=O)[O-]
REMARK SMILES IDX 5 1 6 2 7 3 8 4 9 5 10 6 4 7 3 8 2 9 1 10
REMARK H PARENT
REMARK Flexibility Score: inf
ROOT
ATOM      1  C   UNL     1    -104.832 -83.673  39.421  1.00  0.00     0.000 C 
ENDROOT
BRANCH   1   2
ATOM      2  C   UNL     1    -103.565 -83.243  38.665  1.00  0.00     0.006 C 
BRANCH   2   3
ATOM      3  C   UNL     1    -103.640 -83.553  37.164  1.00  0.00     0.053 C 
BRANCH   3   4
ATOM      4  C   UNL     1    -102.447 -84.351  36.738  1.00  0.00     0.041 C 
ATOM      5  O   UNL     1    -101.583 -84.699  37.584  1.00  0.00    -0.550 OA
ATOM      6  O   UNL     1    -102.267 -84.669  35.399  1.00  0.00    -0.550 OA
ENDBRANCH   3   4
ENDBRANCH   2   3
ENDBRANCH   1   2
BRANCH   1   7
ATOM      7  C   UNL     1    -105.134 -85.172  39.269  1.00  0.00     0.000 C 
BRANCH   7   8
ATOM      8  C   UNL     1    -104.014 -86.022  39.888  1.00  0.00    -0.000 C 
BRANCH   8   9
ATOM      9  C   UNL     1    -103.530 -87.137  38.948  1.00  0.00    -0.003 C 
ATOM     10  C   UNL     1    -104.511 -87.419  37.811  1.00  0.00     0.004 C 
ENDBRANCH   8   9
ENDBRANCH   7   8
ENDBRANCH   1   7
TORSDOF 6
ENDMDL
MODEL 8
REMARK VINA RESULT:    -4.121      1.190      2.005
REMARK INTER + INTRA:          -6.047
REMARK INTER:                  -5.728
REMARK INTRA:                  -0.320
REMARK UNBOUND:                -0.481
REMARK SMILES CCCCCCCC(=O)[O-]
REMARK SMILES IDX 5 1 6 2 7 3 8 4 9 5 10 6 4 7 3 8 2 9 1 10
REMARK H PARENT
REMARK Flexibility Score: inf
ROOT
ATOM      1  C   UNL     1    -104.886 -83.115  39.368  1.00  0.00     0.000 C 
ENDROOT
BRANCH   1   2
ATOM      2  C   UNL     1    -105.529 -84.500  39.549  1.00  0.00     0.006 C 
BRANCH   2   3
ATOM      3  C   UNL     1    -104.513 -85.643  39.424  1.00  0.00     0.053 C 
BRANCH   3   4
ATOM      4  C   UNL     1    -104.706 -86.371  38.131  1.00  0.00     0.041 C 
ATOM      5  O   UNL     1    -105.240 -85.791  37.150  1.00  0.00    -0.550 OA
ATOM      6  O   UNL     1    -104.338 -87.706  38.024  1.00  0.00    -0.550 OA
ENDBRANCH   3   4
ENDBRANCH   2   3
ENDBRANCH   1   2
BRANCH   1   7
ATOM      7  C   UNL     1    -103.362 -83.140  39.558  1.00  0.00     0.000 C 
BRANCH   7   8
ATOM      8  C   UNL     1    -102.876 -81.863  40.260  1.00  0.00    -0.000 C 
BRANCH   8   9
ATOM      9  C   UNL     1    -103.916 -80.733  40.217  1.00  0.00    -0.003 C 
ATOM     10  C   UNL     1    -103.946 -79.909  41.503  1.00  0.00     0.004 C 
ENDBRANCH   8   9
ENDBRANCH   7   8
ENDBRANCH   1   7
TORSDOF 6
ENDMDL
MODEL 9
REMARK VINA RESULT:    -3.972      2.450      4.409
REMARK INTER + INTRA:          -5.846
REMARK INTER:                  -5.314
REMARK INTRA:                  -0.532
REMARK UNBOUND:                -0.481
REMARK SMILES CCCCCCCC(=O)[O-]
REMARK SMILES IDX 5 1 6 2 7 3 8 4 9 5 10 6 4 7 3 8 2 9 1 10
REMARK H PARENT
REMARK Flexibility Score: inf
ROOT
ATOM      1  C   UNL     1    -105.010 -85.957  38.387  1.00  0.00     0.000 C 
ENDROOT
BRANCH   1   2
ATOM      2  C   UNL     1    -104.044 -85.757  39.566  1.00  0.00     0.006 C 
BRANCH   2   3
ATOM      3  C   UNL     1    -103.387 -84.371  39.561  1.00  0.00     0.053 C 
BRANCH   3   4
ATOM      4  C   UNL     1    -102.748 -84.102  38.235  1.00  0.00     0.041 C 
ATOM      5  O   UNL     1    -103.192 -83.189  37.491  1.00  0.00    -0.550 OA
ATOM      6  O   UNL     1    -101.692 -84.892  37.800  1.00  0.00    -0.550 OA
ENDBRANCH   3   4
ENDBRANCH   2   3
ENDBRANCH   1   2
BRANCH   1   7
ATOM      7  C   UNL     1    -104.765 -87.276  37.638  1.00  0.00     0.000 C 
BRANCH   7   8
ATOM      8  C   UNL     1    -105.131 -87.138  36.152  1.00  0.00    -0.000 C 
BRANCH   8   9
ATOM      9  C   UNL     1    -105.156 -85.675  35.683  1.00  0.00    -0.003 C 
ATOM     10  C   UNL     1    -104.010 -85.342  34.728  1.00  0.00     0.004 C 
ENDBRANCH   8   9
ENDBRANCH   7   8
ENDBRANCH   1   7
TORSDOF 6
ENDMDL
