MODEL 1
REMARK VINA RESULT:    -4.454      0.000      0.000
REMARK INTER + INTRA:          -4.454
REMARK INTER:                  -4.454
REMARK INTRA:                   0.000
REMARK UNBOUND:                 0.000
REMARK SMILES C=C1CCC[C@@]2(C)CC(=O)C(=C(C)C)C[C@@H]12
REMARK SMILES IDX 13 1 12 2 11 3 15 4 16 5 2 6 1 7 3 8 4 9 5 10 6 11 8 12 9 13
REMARK SMILES IDX 10 14 7 15 14 16
REMARK H PARENT
REMARK Flexibility Score: inf
ROOT
ATOM      1  C   UNL     1      19.763  47.875   0.048  1.00  0.00     0.039 C 
ATOM      2  C   UNL     1      19.891  48.999   1.050  1.00  0.00    -0.070 C 
ATOM      3  C   UNL     1      21.006  49.781   1.093  1.00  0.00    -0.006 C 
ATOM      4  C   UNL     1      21.208  50.880   2.111  1.00  0.00     0.047 C 
ATOM      5  C   UNL     1      22.598  50.792   2.784  1.00  0.00     0.025 C 
ATOM      6  C   UNL     1      22.651  49.686   3.833  1.00  0.00    -0.073 C 
ATOM      7  C   UNL     1      21.869  49.750   4.925  1.00  0.00     0.008 C 
ATOM      8  C   UNL     1      23.617  48.539   3.675  1.00  0.00     0.031 C 
ATOM      9  C   UNL     1      25.027  49.008   3.267  1.00  0.00     0.005 C 
ATOM     10  C   UNL     1      25.080  50.352   2.499  1.00  0.00     0.008 C 
ATOM     11  C   UNL     1      23.773  50.708   1.740  1.00  0.00    -0.018 C 
ATOM     12  C   UNL     1      23.525  49.665   0.603  1.00  0.00     0.088 C 
ATOM     13  C   UNL     1      22.108  49.642   0.119  1.00  0.00     0.159 C 
ATOM     14  O   UNL     1      21.872  49.479  -1.109  1.00  0.00    -0.295 OA
ATOM     15  C   UNL     1      23.973  52.098   1.083  1.00  0.00     0.012 C 
ATOM     16  C   UNL     1      18.759  49.188   2.032  1.00  0.00     0.039 C 
ENDROOT
TORSDOF 0
ENDMDL
MODEL 2
REMARK VINA RESULT:    -4.319      1.449      4.324
REMARK INTER + INTRA:          -4.319
REMARK INTER:                  -4.319
REMARK INTRA:                   0.000
REMARK UNBOUND:                 0.000
REMARK SMILES C=C1CCC[C@@]2(C)CC(=O)C(=C(C)C)C[C@@H]12
REMARK SMILES IDX 13 1 12 2 11 3 15 4 16 5 2 6 1 7 3 8 4 9 5 10 6 11 8 12 9 13
REMARK SMILES IDX 10 14 7 15 14 16
REMARK H PARENT
REMARK Flexibility Score: inf
ROOT
ATOM      1  C   UNL     1      24.512  53.585  -0.503  1.00  0.00     0.039 C 
ATOM      2  C   UNL     1      24.793  52.375   0.359  1.00  0.00    -0.070 C 
ATOM      3  C   UNL     1      24.136  51.198   0.158  1.00  0.00    -0.006 C 
ATOM      4  C   UNL     1      24.338  49.978   1.025  1.00  0.00     0.047 C 
ATOM      5  C   UNL     1      22.993  49.368   1.483  1.00  0.00     0.025 C 
ATOM      6  C   UNL     1      22.358  50.175   2.610  1.00  0.00    -0.073 C 
ATOM      7  C   UNL     1      22.979  50.284   3.798  1.00  0.00     0.008 C 
ATOM      8  C   UNL     1      21.007  50.816   2.414  1.00  0.00     0.031 C 
ATOM      9  C   UNL     1      19.994  49.862   1.753  1.00  0.00     0.005 C 
ATOM     10  C   UNL     1      20.611  48.755   0.864  1.00  0.00     0.008 C 
ATOM     11  C   UNL     1      22.008  49.103   0.284  1.00  0.00    -0.018 C 
ATOM     12  C   UNL     1      21.882  50.311  -0.700  1.00  0.00     0.088 C 
ATOM     13  C   UNL     1      23.185  51.003  -0.956  1.00  0.00     0.159 C 
ATOM     14  O   UNL     1      23.443  51.434  -2.113  1.00  0.00    -0.295 OA
ATOM     15  C   UNL     1      22.503  47.875  -0.523  1.00  0.00     0.012 C 
ATOM     16  C   UNL     1      25.791  52.536   1.480  1.00  0.00     0.039 C 
ENDROOT
TORSDOF 0
ENDMDL
MODEL 3
REMARK VINA RESULT:    -4.289      6.069      8.682
REMARK INTER + INTRA:          -4.289
REMARK INTER:                  -4.289
REMARK INTRA:                   0.000
REMARK UNBOUND:                 0.000
REMARK SMILES C=C1CCC[C@@]2(C)CC(=O)C(=C(C)C)C[C@@H]12
REMARK SMILES IDX 13 1 12 2 11 3 15 4 16 5 2 6 1 7 3 8 4 9 5 10 6 11 8 12 9 13
REMARK SMILES IDX 10 14 7 15 14 16
REMARK H PARENT
REMARK Flexibility Score: inf
ROOT
ATOM      1  C   UNL     1      25.014  48.153  -2.725  1.00  0.00     0.039 C 
ATOM      2  C   UNL     1      25.133  48.668  -4.141  1.00  0.00    -0.070 C 
ATOM      3  C   UNL     1      24.243  49.571  -4.640  1.00  0.00    -0.006 C 
ATOM      4  C   UNL     1      24.284  50.074  -6.064  1.00  0.00     0.047 C 
ATOM      5  C   UNL     1      22.894  50.003  -6.739  1.00  0.00     0.025 C 
ATOM      6  C   UNL     1      22.538  48.580  -7.156  1.00  0.00    -0.073 C 
ATOM      7  C   UNL     1      23.277  47.940  -8.080  1.00  0.00     0.008 C 
ATOM      8  C   UNL     1      21.326  47.900  -6.571  1.00  0.00     0.031 C 
ATOM      9  C   UNL     1      20.088  48.817  -6.554  1.00  0.00     0.005 C 
ATOM     10  C   UNL     1      20.390  50.335  -6.504  1.00  0.00     0.008 C 
ATOM     11  C   UNL     1      21.768  50.694  -5.884  1.00  0.00    -0.018 C 
ATOM     12  C   UNL     1      21.788  50.284  -4.376  1.00  0.00     0.088 C 
ATOM     13  C   UNL     1      23.172  50.165  -3.814  1.00  0.00     0.159 C 
ATOM     14  O   UNL     1      23.399  50.550  -2.635  1.00  0.00    -0.295 OA
ATOM     15  C   UNL     1      21.935  52.233  -5.966  1.00  0.00     0.012 C 
ATOM     16  C   UNL     1      26.245  48.106  -4.995  1.00  0.00     0.039 C 
ENDROOT
TORSDOF 0
ENDMDL
MODEL 4
REMARK VINA RESULT:    -4.280      2.838      5.159
REMARK INTER + INTRA:          -4.280
REMARK INTER:                  -4.280
REMARK INTRA:                   0.000
REMARK UNBOUND:                 0.000
REMARK SMILES C=C1CCC[C@@]2(C)CC(=O)C(=C(C)C)C[C@@H]12
REMARK SMILES IDX 13 1 12 2 11 3 15 4 16 5 2 6 1 7 3 8 4 9 5 10 6 11 8 12 9 13
REMARK SMILES IDX 10 14 7 15 14 16
REMARK H PARENT
REMARK Flexibility Score: inf
ROOT
ATOM      1  C   UNL     1      21.516  51.231   1.518  1.00  0.00     0.039 C 
ATOM      2  C   UNL     1      21.493  49.839   0.930  1.00  0.00    -0.070 C 
ATOM      3  C   UNL     1      22.467  49.419   0.075  1.00  0.00    -0.006 C 
ATOM      4  C   UNL     1      22.460  48.059  -0.584  1.00  0.00     0.047 C 
ATOM      5  C   UNL     1      22.715  48.156  -2.106  1.00  0.00     0.025 C 
ATOM      6  C   UNL     1      21.476  48.627  -2.860  1.00  0.00    -0.073 C 
ATOM      7  C   UNL     1      20.358  47.880  -2.860  1.00  0.00     0.008 C 
ATOM      8  C   UNL     1      21.514  49.911  -3.650  1.00  0.00     0.031 C 
ATOM      9  C   UNL     1      22.787  50.037  -4.509  1.00  0.00     0.005 C 
ATOM     10  C   UNL     1      24.018  49.258  -3.983  1.00  0.00     0.008 C 
ATOM     11  C   UNL     1      24.003  48.992  -2.454  1.00  0.00    -0.018 C 
ATOM     12  C   UNL     1      24.093  50.349  -1.683  1.00  0.00     0.088 C 
ATOM     13  C   UNL     1      23.640  50.252  -0.259  1.00  0.00     0.159 C 
ATOM     14  O   UNL     1      24.249  50.903   0.633  1.00  0.00    -0.295 OA
ATOM     15  C   UNL     1      25.263  48.157  -2.108  1.00  0.00     0.012 C 
ATOM     16  C   UNL     1      20.324  48.952   1.288  1.00  0.00     0.039 C 
ENDROOT
TORSDOF 0
ENDMDL
MODEL 5
REMARK VINA RESULT:    -4.230      2.296      5.312
REMARK INTER + INTRA:          -4.230
REMARK INTER:                  -4.230
REMARK INTRA:                   0.000
REMARK UNBOUND:                 0.000
REMARK SMILES C=C1CCC[C@@]2(C)CC(=O)C(=C(C)C)C[C@@H]12
REMARK SMILES IDX 13 1 12 2 11 3 15 4 16 5 2 6 1 7 3 8 4 9 5 10 6 11 8 12 9 13
REMARK SMILES IDX 10 14 7 15 14 16
REMARK H PARENT
REMARK Flexibility Score: inf
ROOT
ATOM      1  C   UNL     1      26.186  52.589   1.212  1.00  0.00     0.039 C 
ATOM      2  C   UNL     1      24.900  52.771   0.438  1.00  0.00    -0.070 C 
ATOM      3  C   UNL     1      23.878  51.876   0.549  1.00  0.00    -0.006 C 
ATOM      4  C   UNL     1      22.596  51.981  -0.244  1.00  0.00     0.047 C 
ATOM      5  C   UNL     1      22.223  50.637  -0.913  1.00  0.00     0.025 C 
ATOM      6  C   UNL     1      23.072  50.364  -2.150  1.00  0.00    -0.073 C 
ATOM      7  C   UNL     1      22.999  51.181  -3.216  1.00  0.00     0.008 C 
ATOM      8  C   UNL     1      23.961  49.148  -2.204  1.00  0.00     0.031 C 
ATOM      9  C   UNL     1      23.249  47.875  -1.707  1.00  0.00     0.005 C 
ATOM     10  C   UNL     1      22.096  48.113  -0.702  1.00  0.00     0.008 C 
ATOM     11  C   UNL     1      22.211  49.436   0.103  1.00  0.00    -0.018 C 
ATOM     12  C   UNL     1      23.473  49.383   1.024  1.00  0.00     0.088 C 
ATOM     13  C   UNL     1      23.924  50.735   1.486  1.00  0.00     0.159 C 
ATOM     14  O   UNL     1      24.361  50.876   2.660  1.00  0.00    -0.295 OA
ATOM     15  C   UNL     1      20.958  49.546   1.010  1.00  0.00     0.012 C 
ATOM     16  C   UNL     1      24.812  53.953  -0.498  1.00  0.00     0.039 C 
ENDROOT
TORSDOF 0
ENDMDL
MODEL 6
REMARK VINA RESULT:    -4.193      2.373      4.453
REMARK INTER + INTRA:          -4.193
REMARK INTER:                  -4.193
REMARK INTRA:                   0.000
REMARK UNBOUND:                 0.000
REMARK SMILES C=C1CCC[C@@]2(C)CC(=O)C(=C(C)C)C[C@@H]12
REMARK SMILES IDX 13 1 12 2 11 3 15 4 16 5 2 6 1 7 3 8 4 9 5 10 6 11 8 12 9 13
REMARK SMILES IDX 10 14 7 15 14 16
REMARK H PARENT
REMARK Flexibility Score: inf
ROOT
ATOM      1  C   UNL     1      21.271  49.758  -4.239  1.00  0.00     0.039 C 
ATOM      2  C   UNL     1      22.590  49.790  -3.501  1.00  0.00    -0.070 C 
ATOM      3  C   UNL     1      22.692  49.335  -2.221  1.00  0.00    -0.006 C 
ATOM      4  C   UNL     1      23.971  49.396  -1.419  1.00  0.00     0.047 C 
ATOM      5  C   UNL     1      23.739  49.990  -0.011  1.00  0.00     0.025 C 
ATOM      6  C   UNL     1      23.586  51.507  -0.053  1.00  0.00    -0.073 C 
ATOM      7  C   UNL     1      24.607  52.280  -0.464  1.00  0.00     0.008 C 
ATOM      8  C   UNL     1      22.306  52.152   0.414  1.00  0.00     0.031 C 
ATOM      9  C   UNL     1      21.802  51.563   1.746  1.00  0.00     0.005 C 
ATOM     10  C   UNL     1      22.242  50.107   2.034  1.00  0.00     0.008 C 
ATOM     11  C   UNL     1      22.572  49.275   0.766  1.00  0.00    -0.018 C 
ATOM     12  C   UNL     1      21.277  49.085  -0.090  1.00  0.00     0.088 C 
ATOM     13  C   UNL     1      21.558  48.706  -1.512  1.00  0.00     0.159 C 
ATOM     14  O   UNL     1      20.808  47.876  -2.093  1.00  0.00    -0.295 OA
ATOM     15  C   UNL     1      23.050  47.875   1.231  1.00  0.00     0.012 C 
ATOM     16  C   UNL     1      23.775  50.391  -4.218  1.00  0.00     0.039 C 
ENDROOT
TORSDOF 0
ENDMDL
MODEL 7
REMARK VINA RESULT:    -4.030      6.173      8.539
REMARK INTER + INTRA:          -4.030
REMARK INTER:                  -4.030
REMARK INTRA:                   0.000
REMARK UNBOUND:                 0.000
REMARK SMILES C=C1CCC[C@@]2(C)CC(=O)C(=C(C)C)C[C@@H]12
REMARK SMILES IDX 13 1 12 2 11 3 15 4 16 5 2 6 1 7 3 8 4 9 5 10 6 11 8 12 9 13
REMARK SMILES IDX 10 14 7 15 14 16
REMARK H PARENT
REMARK Flexibility Score: inf
ROOT
ATOM      1  C   UNL     1      26.608  48.514  -5.778  1.00  0.00     0.039 C 
ATOM      2  C   UNL     1      25.401  48.171  -4.936  1.00  0.00    -0.070 C 
ATOM      3  C   UNL     1      24.147  48.164  -5.470  1.00  0.00    -0.006 C 
ATOM      4  C   UNL     1      22.903  47.884  -4.660  1.00  0.00     0.047 C 
ATOM      5  C   UNL     1      21.801  48.939  -4.914  1.00  0.00     0.025 C 
ATOM      6  C   UNL     1      22.090  50.247  -4.185  1.00  0.00    -0.073 C 
ATOM      7  C   UNL     1      22.135  50.278  -2.841  1.00  0.00     0.008 C 
ATOM      8  C   UNL     1      22.278  51.523  -4.966  1.00  0.00     0.031 C 
ATOM      9  C   UNL     1      21.213  51.704  -6.063  1.00  0.00     0.005 C 
ATOM     10  C   UNL     1      20.590  50.393  -6.603  1.00  0.00     0.008 C 
ATOM     11  C   UNL     1      21.495  49.142  -6.444  1.00  0.00    -0.018 C 
ATOM     12  C   UNL     1      22.779  49.307  -7.321  1.00  0.00     0.088 C 
ATOM     13  C   UNL     1      23.898  48.401  -6.907  1.00  0.00     0.159 C 
ATOM     14  O   UNL     1      24.630  47.875  -7.789  1.00  0.00    -0.295 OA
ATOM     15  C   UNL     1      20.704  47.918  -6.974  1.00  0.00     0.012 C 
ATOM     16  C   UNL     1      25.632  47.884  -3.471  1.00  0.00     0.039 C 
ENDROOT
TORSDOF 0
ENDMDL
