MODEL 1
REMARK VINA RESULT:    34.495      0.000      0.000
REMARK INTER + INTRA:          40.346
REMARK INTER:                  40.545
REMARK INTRA:                  -0.199
REMARK UNBOUND:                -0.199
REMARK SMILES O=c1c(O)c(-c2ccc(O)cc2)oc2cc(O)cc(O)c12
REMARK SMILES IDX 5 1 3 2 2 3 1 4 21 5 19 6 18 7 16 8 15 9 14 10 13 11 6 12
REMARK SMILES IDX 7 13 8 14 9 15 12 16 11 17 10 18 4 20 20 22 17 24
REMARK H PARENT 10 19 4 21 20 23 17 25
REMARK Flexibility Score: inf
ROOT
ATOM      1  C   UNL     1      10.907   1.742  18.949  1.00  0.00     0.180 A 
ATOM      2  C   UNL     1      10.067   0.638  19.180  1.00  0.00     0.208 A 
ATOM      3  C   UNL     1       9.670  -0.155  18.091  1.00  0.00     0.238 A 
ATOM      4  O   UNL     1       8.963  -1.173  18.311  1.00  0.00    -0.285 OA
ATOM      5  C   UNL     1      10.104   0.174  16.785  1.00  0.00     0.111 A 
ATOM      6  C   UNL     1       9.731  -0.536  15.604  1.00  0.00     0.134 A 
ATOM      7  C   UNL     1      10.324  -0.201  14.380  1.00  0.00     0.093 A 
ATOM      8  C   UNL     1      11.225   0.857  14.282  1.00  0.00     0.123 A 
ATOM      9  C   UNL     1      11.553   1.597  15.420  1.00  0.00     0.094 A 
ATOM     10  C   UNL     1      11.005   1.264  16.661  1.00  0.00     0.146 A 
ATOM     11  O   UNL     1      11.350   1.985  17.721  1.00  0.00    -0.452 OA
ENDROOT
BRANCH   1  12
ATOM     12  C   UNL     1      11.347   2.639  20.042  1.00  0.00     0.021 A 
ATOM     13  C   UNL     1      12.313   2.190  20.958  1.00  0.00     0.016 A 
ATOM     14  C   UNL     1      12.760   3.029  21.984  1.00  0.00     0.047 A 
ATOM     15  C   UNL     1      12.260   4.329  22.098  1.00  0.00     0.115 A 
ATOM     16  C   UNL     1      10.864   3.955  20.149  1.00  0.00     0.016 A 
ATOM     17  C   UNL     1      11.313   4.792  21.175  1.00  0.00     0.047 A 
BRANCH  15  18
ATOM     18  O   UNL     1      12.714   5.153  23.125  1.00  0.00    -0.508 OA
ATOM     19  H   UNL     1      12.101   5.450  23.876  1.00  0.00     0.293 HD
ENDBRANCH  15  18
ENDBRANCH   1  12
BRANCH   2  20
ATOM     20  O   UNL     1       9.669   0.318  20.480  1.00  0.00    -0.502 OA
ATOM     21  H   UNL     1       8.911  -0.325  20.675  1.00  0.00     0.293 HD
ENDBRANCH   2  20
BRANCH   6  22
ATOM     22  O   UNL     1       8.770  -1.551  15.574  1.00  0.00    -0.507 OA
ATOM     23  H   UNL     1       8.208  -1.788  14.770  1.00  0.00     0.293 HD
ENDBRANCH   6  22
BRANCH   8  24
ATOM     24  O   UNL     1      11.784   1.173  13.046  1.00  0.00    -0.508 OA
ATOM     25  H   UNL     1      12.310   2.028  12.904  1.00  0.00     0.293 HD
ENDBRANCH   8  24
TORSDOF 5
ENDMDL
