MODEL 1
REMARK VINA RESULT:    -5.313      0.000      0.000
REMARK INTER + INTRA:          -9.243
REMARK INTER:                  -8.419
REMARK INTRA:                  -0.824
REMARK UNBOUND:                -0.824
REMARK SMILES CCCCCCCCCCCC(=O)[O-]
REMARK SMILES IDX 7 1 8 2 9 3 10 4 11 5 12 6 13 7 14 8 6 9 5 10 4 11 3 12 2 13
REMARK SMILES IDX 1 14
REMARK H PARENT
REMARK Flexibility Score: inf
ROOT
ATOM      1  C   UNL     1      89.054 326.476 195.267  1.00  0.00     0.000 C 
ENDROOT
BRANCH   1   2
ATOM      2  C   UNL     1      88.335 325.827 196.469  1.00  0.00     0.000 C 
BRANCH   2   3
ATOM      3  C   UNL     1      88.493 326.651 197.759  1.00  0.00     0.000 C 
BRANCH   3   4
ATOM      4  C   UNL     1      88.883 325.789 198.970  1.00  0.00     0.006 C 
BRANCH   4   5
ATOM      5  C   UNL     1      89.594 326.595 200.066  1.00  0.00     0.053 C 
BRANCH   5   6
ATOM      6  C   UNL     1      89.026 326.262 201.409  1.00  0.00     0.041 C 
ATOM      7  O   UNL     1      88.042 325.484 201.506  1.00  0.00    -0.550 OA
ATOM      8  O   UNL     1      89.555 326.849 202.552  1.00  0.00    -0.550 OA
ENDBRANCH   5   6
ENDBRANCH   4   5
ENDBRANCH   3   4
ENDBRANCH   2   3
ENDBRANCH   1   2
BRANCH   1   9
ATOM      9  C   UNL     1      88.129 326.747 194.064  1.00  0.00     0.000 C 
BRANCH   9  10
ATOM     10  C   UNL     1      86.732 326.106 194.161  1.00  0.00    -0.000 C 
BRANCH  10  11
ATOM     11  C   UNL     1      86.500 324.915 193.212  1.00  0.00    -0.000 C 
BRANCH  11  12
ATOM     12  C   UNL     1      87.737 324.578 192.362  1.00  0.00    -0.000 C 
BRANCH  12  13
ATOM     13  C   UNL     1      88.254 323.153 192.614  1.00  0.00    -0.003 C 
ATOM     14  C   UNL     1      88.693 322.932 194.061  1.00  0.00     0.004 C 
ENDBRANCH  12  13
ENDBRANCH  11  12
ENDBRANCH  10  11
ENDBRANCH   9  10
ENDBRANCH   1   9
TORSDOF 10
ENDMDL
MODEL 2
REMARK VINA RESULT:    -5.273     19.907     20.826
REMARK INTER + INTRA:          -9.180
REMARK INTER:                  -8.771
REMARK INTRA:                  -0.408
REMARK UNBOUND:                -0.824
REMARK SMILES CCCCCCCCCCCC(=O)[O-]
REMARK SMILES IDX 7 1 8 2 9 3 10 4 11 5 12 6 13 7 14 8 6 9 5 10 4 11 3 12 2 13
REMARK SMILES IDX 1 14
REMARK H PARENT
REMARK Flexibility Score: inf
ROOT
ATOM      1  C   UNL     1     103.548 311.984 194.724  1.00  0.00     0.000 C 
ENDROOT
BRANCH   1   2
ATOM      2  C   UNL     1     104.533 311.934 195.912  1.00  0.00     0.000 C 
BRANCH   2   3
ATOM      3  C   UNL     1     103.919 311.261 197.152  1.00  0.00     0.000 C 
BRANCH   3   4
ATOM      4  C   UNL     1     103.706 312.243 198.316  1.00  0.00     0.006 C 
BRANCH   4   5
ATOM      5  C   UNL     1     103.227 311.547 199.597  1.00  0.00     0.053 C 
BRANCH   5   6
ATOM      6  C   UNL     1     104.128 311.885 200.742  1.00  0.00     0.041 C 
ATOM      7  O   UNL     1     105.043 312.738 200.598  1.00  0.00    -0.550 OA
ATOM      8  O   UNL     1     103.989 311.223 201.955  1.00  0.00    -0.550 OA
ENDBRANCH   5   6
ENDBRANCH   4   5
ENDBRANCH   3   4
ENDBRANCH   2   3
ENDBRANCH   1   2
BRANCH   1   9
ATOM      9  C   UNL     1     104.148 311.469 193.401  1.00  0.00     0.000 C 
BRANCH   9  10
ATOM     10  C   UNL     1     105.532 312.045 193.046  1.00  0.00    -0.000 C 
BRANCH  10  11
ATOM     11  C   UNL     1     105.504 313.244 192.079  1.00  0.00    -0.000 C 
BRANCH  11  12
ATOM     12  C   UNL     1     104.153 313.404 191.364  1.00  0.00    -0.000 C 
BRANCH  12  13
ATOM     13  C   UNL     1     103.963 314.809 190.772  1.00  0.00    -0.003 C 
ATOM     14  C   UNL     1     103.486 314.777 189.321  1.00  0.00     0.004 C 
ENDBRANCH  12  13
ENDBRANCH  11  12
ENDBRANCH  10  11
ENDBRANCH   9  10
ENDBRANCH   1   9
TORSDOF 10
ENDMDL
MODEL 3
REMARK VINA RESULT:    -5.238     19.503     20.603
REMARK INTER + INTRA:          -9.124
REMARK INTER:                  -8.267
REMARK INTRA:                  -0.857
REMARK UNBOUND:                -0.824
REMARK SMILES CCCCCCCCCCCC(=O)[O-]
REMARK SMILES IDX 7 1 8 2 9 3 10 4 11 5 12 6 13 7 14 8 6 9 5 10 4 11 3 12 2 13
REMARK SMILES IDX 1 14
REMARK H PARENT
REMARK Flexibility Score: inf
ROOT
ATOM      1  C   UNL     1     105.605 311.735 193.237  1.00  0.00     0.000 C 
ENDROOT
BRANCH   1   2
ATOM      2  C   UNL     1     104.107 311.363 193.223  1.00  0.00     0.000 C 
BRANCH   2   3
ATOM      3  C   UNL     1     103.426 311.626 194.577  1.00  0.00     0.000 C 
BRANCH   3   4
ATOM      4  C   UNL     1     104.429 311.976 195.688  1.00  0.00     0.006 C 
BRANCH   4   5
ATOM      5  C   UNL     1     103.919 313.083 196.619  1.00  0.00     0.053 C 
BRANCH   5   6
ATOM      6  C   UNL     1     103.828 312.582 198.025  1.00  0.00     0.041 C 
ATOM      7  O   UNL     1     103.496 311.389 198.253  1.00  0.00    -0.550 OA
ATOM      8  O   UNL     1     104.064 313.446 199.088  1.00  0.00    -0.550 OA
ENDBRANCH   5   6
ENDBRANCH   4   5
ENDBRANCH   3   4
ENDBRANCH   2   3
ENDBRANCH   1   2
BRANCH   1   9
ATOM      9  C   UNL     1     105.950 312.954 192.361  1.00  0.00     0.000 C 
BRANCH   9  10
ATOM     10  C   UNL     1     105.304 314.280 192.807  1.00  0.00    -0.000 C 
BRANCH  10  11
ATOM     11  C   UNL     1     104.059 314.695 192.001  1.00  0.00    -0.000 C 
BRANCH  11  12
ATOM     12  C   UNL     1     103.948 313.964 190.653  1.00  0.00    -0.000 C 
BRANCH  12  13
ATOM     13  C   UNL     1     103.953 314.930 189.458  1.00  0.00    -0.003 C 
ATOM     14  C   UNL     1     102.749 314.736 188.538  1.00  0.00     0.004 C 
ENDBRANCH  12  13
ENDBRANCH  11  12
ENDBRANCH  10  11
ENDBRANCH   9  10
ENDBRANCH   1   9
TORSDOF 10
ENDMDL
MODEL 4
REMARK VINA RESULT:    -5.165      1.775      2.779
REMARK INTER + INTRA:          -9.008
REMARK INTER:                  -8.384
REMARK INTRA:                  -0.624
REMARK UNBOUND:                -0.824
REMARK SMILES CCCCCCCCCCCC(=O)[O-]
REMARK SMILES IDX 7 1 8 2 9 3 10 4 11 5 12 6 13 7 14 8 6 9 5 10 4 11 3 12 2 13
REMARK SMILES IDX 1 14
REMARK H PARENT
REMARK Flexibility Score: inf
ROOT
ATOM      1  C   UNL     1      87.928 326.607 194.083  1.00  0.00     0.000 C 
ENDROOT
BRANCH   1   2
ATOM      2  C   UNL     1      86.553 326.546 194.782  1.00  0.00     0.000 C 
BRANCH   2   3
ATOM      3  C   UNL     1      86.674 326.583 196.315  1.00  0.00     0.000 C 
BRANCH   3   4
ATOM      4  C   UNL     1      87.973 325.936 196.824  1.00  0.00     0.006 C 
BRANCH   4   5
ATOM      5  C   UNL     1      88.739 326.837 197.801  1.00  0.00     0.053 C 
BRANCH   5   6
ATOM      6  C   UNL     1      89.049 326.094 199.062  1.00  0.00     0.041 C 
ATOM      7  O   UNL     1      89.498 326.708 200.065  1.00  0.00    -0.550 OA
ATOM      8  O   UNL     1      88.888 324.715 199.113  1.00  0.00    -0.550 OA
ENDBRANCH   5   6
ENDBRANCH   4   5
ENDBRANCH   3   4
ENDBRANCH   2   3
ENDBRANCH   1   2
BRANCH   1   9
ATOM      9  C   UNL     1      88.128 325.519 193.011  1.00  0.00     0.000 C 
BRANCH   9  10
ATOM     10  C   UNL     1      88.426 324.111 193.561  1.00  0.00    -0.000 C 
BRANCH  10  11
ATOM     11  C   UNL     1      88.249 322.969 192.543  1.00  0.00    -0.000 C 
BRANCH  11  12
ATOM     12  C   UNL     1      87.496 323.408 191.276  1.00  0.00    -0.000 C 
BRANCH  12  13
ATOM     13  C   UNL     1      88.357 323.291 190.009  1.00  0.00    -0.003 C 
ATOM     14  C   UNL     1      87.706 322.426 188.931  1.00  0.00     0.004 C 
ENDBRANCH  12  13
ENDBRANCH  11  12
ENDBRANCH  10  11
ENDBRANCH   9  10
ENDBRANCH   1   9
TORSDOF 10
ENDMDL
MODEL 5
REMARK VINA RESULT:    -5.162     19.512     20.849
REMARK INTER + INTRA:          -9.003
REMARK INTER:                  -8.472
REMARK INTRA:                  -0.531
REMARK UNBOUND:                -0.824
REMARK SMILES CCCCCCCCCCCC(=O)[O-]
REMARK SMILES IDX 7 1 8 2 9 3 10 4 11 5 12 6 13 7 14 8 6 9 5 10 4 11 3 12 2 13
REMARK SMILES IDX 1 14
REMARK H PARENT
REMARK Flexibility Score: inf
ROOT
ATOM      1  C   UNL     1     104.138 312.349 195.655  1.00  0.00     0.000 C 
ENDROOT
BRANCH   1   2
ATOM      2  C   UNL     1     104.134 311.521 196.958  1.00  0.00     0.000 C 
BRANCH   2   3
ATOM      3  C   UNL     1     103.694 312.350 198.177  1.00  0.00     0.000 C 
BRANCH   3   4
ATOM      4  C   UNL     1     103.343 311.478 199.393  1.00  0.00     0.006 C 
BRANCH   4   5
ATOM      5  C   UNL     1     104.178 311.827 200.632  1.00  0.00     0.053 C 
BRANCH   5   6
ATOM      6  C   UNL     1     103.497 311.341 201.873  1.00  0.00     0.041 C 
ATOM      7  O   UNL     1     102.251 311.169 201.886  1.00  0.00    -0.550 OA
ATOM      8  O   UNL     1     104.235 311.123 203.030  1.00  0.00    -0.550 OA
ENDBRANCH   5   6
ENDBRANCH   4   5
ENDBRANCH   3   4
ENDBRANCH   2   3
ENDBRANCH   1   2
BRANCH   1   9
ATOM      9  C   UNL     1     103.481 311.630 194.461  1.00  0.00     0.000 C 
BRANCH   9  10
ATOM     10  C   UNL     1     104.406 311.402 193.250  1.00  0.00    -0.000 C 
BRANCH  10  11
ATOM     11  C   UNL     1     105.682 312.265 193.240  1.00  0.00    -0.000 C 
BRANCH  11  12
ATOM     12  C   UNL     1     105.724 313.258 192.067  1.00  0.00    -0.000 C 
BRANCH  12  13
ATOM     13  C   UNL     1     104.326 313.583 191.519  1.00  0.00    -0.003 C 
ATOM     14  C   UNL     1     103.767 314.894 192.069  1.00  0.00     0.004 C 
ENDBRANCH  12  13
ENDBRANCH  11  12
ENDBRANCH  10  11
ENDBRANCH   9  10
ENDBRANCH   1   9
TORSDOF 10
ENDMDL
MODEL 6
REMARK VINA RESULT:    -5.117      5.346      8.326
REMARK INTER + INTRA:          -8.932
REMARK INTER:                  -8.175
REMARK INTRA:                  -0.757
REMARK UNBOUND:                -0.824
REMARK SMILES CCCCCCCCCCCC(=O)[O-]
REMARK SMILES IDX 7 1 8 2 9 3 10 4 11 5 12 6 13 7 14 8 6 9 5 10 4 11 3 12 2 13
REMARK SMILES IDX 1 14
REMARK H PARENT
REMARK Flexibility Score: inf
ROOT
ATOM      1  C   UNL     1      86.679 324.185 193.533  1.00  0.00     0.000 C 
ENDROOT
BRANCH   1   2
ATOM      2  C   UNL     1      86.629 323.830 192.032  1.00  0.00     0.000 C 
BRANCH   2   3
ATOM      3  C   UNL     1      87.984 324.041 191.335  1.00  0.00     0.000 C 
BRANCH   3   4
ATOM      4  C   UNL     1      88.442 322.806 190.542  1.00  0.00     0.006 C 
BRANCH   4   5
ATOM      5  C   UNL     1      87.935 322.811 189.094  1.00  0.00     0.053 C 
BRANCH   5   6
ATOM      6  C   UNL     1      86.837 321.809 188.923  1.00  0.00     0.041 C 
ATOM      7  O   UNL     1      86.134 321.812 187.879  1.00  0.00    -0.550 OA
ATOM      8  O   UNL     1      86.559 320.903 189.939  1.00  0.00    -0.550 OA
ENDBRANCH   5   6
ENDBRANCH   4   5
ENDBRANCH   3   4
ENDBRANCH   2   3
ENDBRANCH   1   2
BRANCH   1   9
ATOM      9  C   UNL     1      85.875 325.448 193.899  1.00  0.00     0.000 C 
BRANCH   9  10
ATOM     10  C   UNL     1      86.713 326.612 194.461  1.00  0.00    -0.000 C 
BRANCH  10  11
ATOM     11  C   UNL     1      88.227 326.504 194.197  1.00  0.00    -0.000 C 
BRANCH  11  12
ATOM     12  C   UNL     1      89.062 326.517 195.489  1.00  0.00    -0.000 C 
BRANCH  12  13
ATOM     13  C   UNL     1      88.459 325.631 196.589  1.00  0.00    -0.003 C 
ATOM     14  C   UNL     1      88.531 326.276 197.972  1.00  0.00     0.004 C 
ENDBRANCH  12  13
ENDBRANCH  11  12
ENDBRANCH  10  11
ENDBRANCH   9  10
ENDBRANCH   1   9
TORSDOF 10
ENDMDL
MODEL 7
REMARK VINA RESULT:    -5.097     19.111     21.195
REMARK INTER + INTRA:          -8.900
REMARK INTER:                  -7.545
REMARK INTRA:                  -1.355
REMARK UNBOUND:                -0.824
REMARK SMILES CCCCCCCCCCCC(=O)[O-]
REMARK SMILES IDX 7 1 8 2 9 3 10 4 11 5 12 6 13 7 14 8 6 9 5 10 4 11 3 12 2 13
REMARK SMILES IDX 1 14
REMARK H PARENT
REMARK Flexibility Score: inf
ROOT
ATOM      1  C   UNL     1     105.713 311.844 193.275  1.00  0.00     0.000 C 
ENDROOT
BRANCH   1   2
ATOM      2  C   UNL     1     105.968 313.005 192.290  1.00  0.00     0.000 C 
BRANCH   2   3
ATOM      3  C   UNL     1     105.305 314.316 192.746  1.00  0.00     0.000 C 
BRANCH   3   4
ATOM      4  C   UNL     1     103.995 314.611 191.997  1.00  0.00     0.006 C 
BRANCH   4   5
ATOM      5  C   UNL     1     103.906 313.879 190.651  1.00  0.00     0.053 C 
BRANCH   5   6
ATOM      6  C   UNL     1     103.937 314.860 189.522  1.00  0.00     0.041 C 
ATOM      7  O   UNL     1     102.923 315.023 188.795  1.00  0.00    -0.550 OA
ATOM      8  O   UNL     1     105.105 315.559 189.241  1.00  0.00    -0.550 OA
ENDBRANCH   5   6
ENDBRANCH   4   5
ENDBRANCH   3   4
ENDBRANCH   2   3
ENDBRANCH   1   2
BRANCH   1   9
ATOM      9  C   UNL     1     104.252 311.354 193.291  1.00  0.00     0.000 C 
BRANCH   9  10
ATOM     10  C   UNL     1     103.491 311.621 194.604  1.00  0.00    -0.000 C 
BRANCH  10  11
ATOM     11  C   UNL     1     104.381 312.020 195.797  1.00  0.00    -0.000 C 
BRANCH  11  12
ATOM     12  C   UNL     1     104.146 313.466 196.262  1.00  0.00    -0.000 C 
BRANCH  12  13
ATOM     13  C   UNL     1     102.779 314.012 195.821  1.00  0.00    -0.003 C 
ATOM     14  C   UNL     1     102.845 315.467 195.361  1.00  0.00     0.004 C 
ENDBRANCH  12  13
ENDBRANCH  11  12
ENDBRANCH  10  11
ENDBRANCH   9  10
ENDBRANCH   1   9
TORSDOF 10
ENDMDL
MODEL 8
REMARK VINA RESULT:    -5.089     18.911     20.517
REMARK INTER + INTRA:          -8.888
REMARK INTER:                  -7.826
REMARK INTRA:                  -1.063
REMARK UNBOUND:                -0.824
REMARK SMILES CCCCCCCCCCCC(=O)[O-]
REMARK SMILES IDX 7 1 8 2 9 3 10 4 11 5 12 6 13 7 14 8 6 9 5 10 4 11 3 12 2 13
REMARK SMILES IDX 1 14
REMARK H PARENT
REMARK Flexibility Score: inf
ROOT
ATOM      1  C   UNL     1     104.081 311.358 193.296  1.00  0.00     0.000 C 
ENDROOT
BRANCH   1   2
ATOM      2  C   UNL     1     103.490 311.681 194.685  1.00  0.00     0.000 C 
BRANCH   2   3
ATOM      3  C   UNL     1     104.500 312.398 195.598  1.00  0.00     0.000 C 
BRANCH   3   4
ATOM      4  C   UNL     1     103.933 312.691 196.996  1.00  0.00     0.006 C 
BRANCH   4   5
ATOM      5  C   UNL     1     103.861 311.439 197.880  1.00  0.00     0.053 C 
BRANCH   5   6
ATOM      6  C   UNL     1     103.534 311.815 199.291  1.00  0.00     0.041 C 
ATOM      7  O   UNL     1     102.348 312.084 199.617  1.00  0.00    -0.550 OA
ATOM      8  O   UNL     1     104.547 311.916 200.236  1.00  0.00    -0.550 OA
ENDBRANCH   5   6
ENDBRANCH   4   5
ENDBRANCH   3   4
ENDBRANCH   2   3
ENDBRANCH   1   2
BRANCH   1   9
ATOM      9  C   UNL     1     105.504 311.908 193.085  1.00  0.00     0.000 C 
BRANCH   9  10
ATOM     10  C   UNL     1     105.597 313.129 192.149  1.00  0.00    -0.000 C 
BRANCH  10  11
ATOM     11  C   UNL     1     104.267 313.539 191.489  1.00  0.00    -0.000 C 
BRANCH  11  12
ATOM     12  C   UNL     1     103.825 314.963 191.866  1.00  0.00    -0.000 C 
BRANCH  12  13
ATOM     13  C   UNL     1     103.433 315.085 193.346  1.00  0.00    -0.003 C 
ATOM     14  C   UNL     1     104.217 316.175 194.076  1.00  0.00     0.004 C 
ENDBRANCH  12  13
ENDBRANCH  11  12
ENDBRANCH  10  11
ENDBRANCH   9  10
ENDBRANCH   1   9
TORSDOF 10
ENDMDL
MODEL 9
REMARK VINA RESULT:    -5.048     20.103     21.747
REMARK INTER + INTRA:          -8.823
REMARK INTER:                  -8.266
REMARK INTRA:                  -0.557
REMARK UNBOUND:                -0.824
REMARK SMILES CCCCCCCCCCCC(=O)[O-]
REMARK SMILES IDX 7 1 8 2 9 3 10 4 11 5 12 6 13 7 14 8 6 9 5 10 4 11 3 12 2 13
REMARK SMILES IDX 1 14
REMARK H PARENT
REMARK Flexibility Score: inf
ROOT
ATOM      1  C   UNL     1     104.019 313.035 192.195  1.00  0.00     0.000 C 
ENDROOT
BRANCH   1   2
ATOM      2  C   UNL     1     105.246 313.827 191.695  1.00  0.00     0.000 C 
BRANCH   2   3
ATOM      3  C   UNL     1     104.969 314.557 190.369  1.00  0.00     0.000 C 
BRANCH   3   4
ATOM      4  C   UNL     1     103.506 314.428 189.915  1.00  0.00     0.006 C 
BRANCH   4   5
ATOM      5  C   UNL     1     103.302 314.846 188.452  1.00  0.00     0.053 C 
BRANCH   5   6
ATOM      6  C   UNL     1     104.010 316.134 188.175  1.00  0.00     0.041 C 
ATOM      7  O   UNL     1     103.597 317.208 188.687  1.00  0.00    -0.550 OA
ATOM      8  O   UNL     1     105.098 316.158 187.311  1.00  0.00    -0.550 OA
ENDBRANCH   5   6
ENDBRANCH   4   5
ENDBRANCH   3   4
ENDBRANCH   2   3
ENDBRANCH   1   2
BRANCH   1   9
ATOM      9  C   UNL     1     104.381 311.722 192.917  1.00  0.00     0.000 C 
BRANCH   9  10
ATOM     10  C   UNL     1     105.774 311.705 193.576  1.00  0.00    -0.000 C 
BRANCH  10  11
ATOM     11  C   UNL     1     105.763 311.519 195.105  1.00  0.00    -0.000 C 
BRANCH  11  12
ATOM     12  C   UNL     1     104.585 312.236 195.786  1.00  0.00    -0.000 C 
BRANCH  12  13
ATOM     13  C   UNL     1     103.884 311.354 196.830  1.00  0.00    -0.003 C 
ATOM     14  C   UNL     1     103.838 312.001 198.213  1.00  0.00     0.004 C 
ENDBRANCH  12  13
ENDBRANCH  11  12
ENDBRANCH  10  11
ENDBRANCH   9  10
ENDBRANCH   1   9
TORSDOF 10
ENDMDL
