MODEL 1
REMARK VINA RESULT:    10.010      0.000      0.000
REMARK INTER + INTRA:          25.275
REMARK INTER:                  26.395
REMARK INTRA:                  -1.119
REMARK UNBOUND:                -1.119
REMARK SMILES CCCCCCCCCCCCCCCCCCCCCCCCCCCCCC(=O)[O-]
REMARK SMILES IDX 16 1 17 2 18 3 19 4 20 5 21 6 22 7 23 8 24 9 25 10 26 11
REMARK SMILES IDX 27 12 28 13 29 14 30 15 31 16 32 17 15 18 14 19 13 20 12 21
REMARK SMILES IDX 11 22 10 23 9 24 8 25 7 26 6 27 5 28 4 29 3 30 2 31 1 32
REMARK H PARENT
REMARK Flexibility Score: inf
ROOT
ATOM      1  C   UNL     1       5.954  29.033  18.915  1.00  0.00     0.000 C 
ENDROOT
BRANCH   1   2
ATOM      2  C   UNL     1       4.499  29.263  19.358  1.00  0.00     0.000 C 
BRANCH   2   3
ATOM      3  C   UNL     1       3.516  28.298  18.674  1.00  0.00     0.000 C 
BRANCH   3   4
ATOM      4  C   UNL     1       3.713  28.248  17.148  1.00  0.00     0.000 C 
BRANCH   4   5
ATOM      5  C   UNL     1       2.633  27.420  16.435  1.00  0.00     0.000 C 
BRANCH   5   6
ATOM      6  C   UNL     1       3.175  26.086  15.890  1.00  0.00     0.000 C 
BRANCH   6   7
ATOM      7  C   UNL     1       4.349  26.288  14.914  1.00  0.00     0.000 C 
BRANCH   7   8
ATOM      8  C   UNL     1       4.610  25.038  14.054  1.00  0.00     0.000 C 
BRANCH   8   9
ATOM      9  C   UNL     1       5.637  25.292  12.935  1.00  0.00     0.000 C 
BRANCH   9  10
ATOM     10  C   UNL     1       5.011  25.600  11.564  1.00  0.00     0.000 C 
BRANCH  10  11
ATOM     11  C   UNL     1       6.063  25.921  10.475  1.00  0.00     0.000 C 
BRANCH  11  12
ATOM     12  C   UNL     1       5.523  26.831   9.358  1.00  0.00     0.000 C 
BRANCH  12  13
ATOM     13  C   UNL     1       4.050  27.254   9.553  1.00  0.00     0.006 C 
BRANCH  13  14
ATOM     14  C   UNL     1       3.412  27.888   8.301  1.00  0.00     0.053 C 
BRANCH  14  15
ATOM     15  C   UNL     1       2.807  29.231   8.582  1.00  0.00     0.041 C 
ATOM     16  O   UNL     1       1.559  29.390   8.528  1.00  0.00    -0.550 OA
ATOM     17  O   UNL     1       3.624  30.310   8.893  1.00  0.00    -0.550 OA
ENDBRANCH  14  15
ENDBRANCH  13  14
ENDBRANCH  12  13
ENDBRANCH  11  12
ENDBRANCH  10  11
ENDBRANCH   9  10
ENDBRANCH   8   9
ENDBRANCH   7   8
ENDBRANCH   6   7
ENDBRANCH   5   6
ENDBRANCH   4   5
ENDBRANCH   3   4
ENDBRANCH   2   3
ENDBRANCH   1   2
BRANCH   1  18
ATOM     18  C   UNL     1       6.921  30.077  19.497  1.00  0.00     0.000 C 
BRANCH  18  19
ATOM     19  C   UNL     1       8.304  30.040  18.824  1.00  0.00     0.000 C 
BRANCH  19  20
ATOM     20  C   UNL     1       9.394  30.714  19.671  1.00  0.00     0.000 C 
BRANCH  20  21
ATOM     21  C   UNL     1      10.669  31.013  18.864  1.00  0.00     0.000 C 
BRANCH  21  22
ATOM     22  C   UNL     1      11.946  30.835  19.702  1.00  0.00     0.000 C 
BRANCH  22  23
ATOM     23  C   UNL     1      12.989  29.943  19.007  1.00  0.00     0.000 C 
BRANCH  23  24
ATOM     24  C   UNL     1      14.435  30.381  19.299  1.00  0.00    -0.000 C 
BRANCH  24  25
ATOM     25  C   UNL     1      14.990  29.934  20.669  1.00  0.00    -0.000 C 
BRANCH  25  26
ATOM     26  C   UNL     1      13.934  29.453  21.682  1.00  0.00    -0.000 C 
BRANCH  26  27
ATOM     27  C   UNL     1      14.053  27.953  22.004  1.00  0.00    -0.000 C 
BRANCH  27  28
ATOM     28  C   UNL     1      13.750  27.640  23.479  1.00  0.00    -0.000 C 
BRANCH  28  29
ATOM     29  C   UNL     1      12.510  28.382  24.004  1.00  0.00    -0.000 C 
BRANCH  29  30
ATOM     30  C   UNL     1      12.800  29.147  25.314  1.00  0.00    -0.000 C 
BRANCH  30  31
ATOM     31  C   UNL     1      14.019  30.080  25.226  1.00  0.00    -0.003 C 
ATOM     32  C   UNL     1      14.985  29.917  26.399  1.00  0.00     0.004 C 
ENDBRANCH  30  31
ENDBRANCH  29  30
ENDBRANCH  28  29
ENDBRANCH  27  28
ENDBRANCH  26  27
ENDBRANCH  25  26
ENDBRANCH  24  25
ENDBRANCH  23  24
ENDBRANCH  22  23
ENDBRANCH  21  22
ENDBRANCH  20  21
ENDBRANCH  19  20
ENDBRANCH  18  19
ENDBRANCH   1  18
TORSDOF 28
ENDMDL
MODEL 2
REMARK VINA RESULT:    11.025      4.947     14.089
REMARK INTER + INTRA:          27.953
REMARK INTER:                  29.487
REMARK INTRA:                  -1.534
REMARK UNBOUND:                -1.119
REMARK SMILES CCCCCCCCCCCCCCCCCCCCCCCCCCCCCC(=O)[O-]
REMARK SMILES IDX 16 1 17 2 18 3 19 4 20 5 21 6 22 7 23 8 24 9 25 10 26 11
REMARK SMILES IDX 27 12 28 13 29 14 30 15 31 16 32 17 15 18 14 19 13 20 12 21
REMARK SMILES IDX 11 22 10 23 9 24 8 25 7 26 6 27 5 28 4 29 3 30 2 31 1 32
REMARK H PARENT
REMARK Flexibility Score: inf
ROOT
ATOM      1  C   UNL     1      11.905  21.732  19.454  1.00  0.00     0.000 C 
ENDROOT
BRANCH   1   2
ATOM      2  C   UNL     1      13.380  22.122  19.256  1.00  0.00     0.000 C 
BRANCH   2   3
ATOM      3  C   UNL     1      13.776  23.363  20.074  1.00  0.00     0.000 C 
BRANCH   3   4
ATOM      4  C   UNL     1      14.976  24.108  19.463  1.00  0.00     0.000 C 
BRANCH   4   5
ATOM      5  C   UNL     1      15.120  25.542  19.993  1.00  0.00     0.000 C 
BRANCH   5   6
ATOM      6  C   UNL     1      14.209  25.819  21.201  1.00  0.00     0.000 C 
BRANCH   6   7
ATOM      7  C   UNL     1      14.985  25.813  22.531  1.00  0.00     0.000 C 
BRANCH   7   8
ATOM      8  C   UNL     1      14.770  27.109  23.335  1.00  0.00     0.000 C 
BRANCH   8   9
ATOM      9  C   UNL     1      13.287  27.366  23.660  1.00  0.00     0.000 C 
BRANCH   9  10
ATOM     10  C   UNL     1      13.009  28.746  24.281  1.00  0.00     0.000 C 
BRANCH  10  11
ATOM     11  C   UNL     1      14.277  29.624  24.403  1.00  0.00     0.000 C 
BRANCH  11  12
ATOM     12  C   UNL     1      14.251  30.858  23.484  1.00  0.00     0.000 C 
BRANCH  12  13
ATOM     13  C   UNL     1      14.667  30.562  22.026  1.00  0.00     0.006 C 
BRANCH  13  14
ATOM     14  C   UNL     1      13.482  30.267  21.086  1.00  0.00     0.053 C 
BRANCH  14  15
ATOM     15  C   UNL     1      13.908  30.096  19.659  1.00  0.00     0.041 C 
ATOM     16  O   UNL     1      13.465  30.865  18.766  1.00  0.00    -0.550 OA
ATOM     17  O   UNL     1      14.789  29.079  19.314  1.00  0.00    -0.550 OA
ENDBRANCH  14  15
ENDBRANCH  13  14
ENDBRANCH  12  13
ENDBRANCH  11  12
ENDBRANCH  10  11
ENDBRANCH   9  10
ENDBRANCH   8   9
ENDBRANCH   7   8
ENDBRANCH   6   7
ENDBRANCH   5   6
ENDBRANCH   4   5
ENDBRANCH   3   4
ENDBRANCH   2   3
ENDBRANCH   1   2
BRANCH   1  18
ATOM     18  C   UNL     1      10.936  22.776  18.877  1.00  0.00     0.000 C 
BRANCH  18  19
ATOM     19  C   UNL     1      10.155  22.246  17.660  1.00  0.00     0.000 C 
BRANCH  19  20
ATOM     20  C   UNL     1       9.064  23.219  17.187  1.00  0.00     0.000 C 
BRANCH  20  21
ATOM     21  C   UNL     1       7.788  22.495  16.724  1.00  0.00     0.000 C 
BRANCH  21  22
ATOM     22  C   UNL     1       6.673  23.476  16.322  1.00  0.00     0.000 C 
BRANCH  22  23
ATOM     23  C   UNL     1       6.046  23.130  14.961  1.00  0.00     0.000 C 
BRANCH  23  24
ATOM     24  C   UNL     1       6.696  23.896  13.795  1.00  0.00    -0.000 C 
BRANCH  24  25
ATOM     25  C   UNL     1       5.844  25.043  13.210  1.00  0.00    -0.000 C 
BRANCH  25  26
ATOM     26  C   UNL     1       5.137  24.728  11.879  1.00  0.00    -0.000 C 
BRANCH  26  27
ATOM     27  C   UNL     1       5.737  25.493  10.686  1.00  0.00    -0.000 C 
BRANCH  27  28
ATOM     28  C   UNL     1       5.057  26.853  10.456  1.00  0.00    -0.000 C 
BRANCH  28  29
ATOM     29  C   UNL     1       4.925  27.210   8.966  1.00  0.00    -0.000 C 
BRANCH  29  30
ATOM     30  C   UNL     1       3.457  27.450   8.551  1.00  0.00    -0.000 C 
BRANCH  30  31
ATOM     31  C   UNL     1       3.105  28.934   8.362  1.00  0.00    -0.003 C 
ATOM     32  C   UNL     1       3.602  29.820   9.504  1.00  0.00     0.004 C 
ENDBRANCH  30  31
ENDBRANCH  29  30
ENDBRANCH  28  29
ENDBRANCH  27  28
ENDBRANCH  26  27
ENDBRANCH  25  26
ENDBRANCH  24  25
ENDBRANCH  23  24
ENDBRANCH  22  23
ENDBRANCH  21  22
ENDBRANCH  20  21
ENDBRANCH  19  20
ENDBRANCH  18  19
ENDBRANCH   1  18
TORSDOF 28
ENDMDL
MODEL 3
REMARK VINA RESULT:    12.342      5.994     14.750
REMARK INTER + INTRA:          31.424
REMARK INTER:                  32.770
REMARK INTRA:                  -1.346
REMARK UNBOUND:                -1.119
REMARK SMILES CCCCCCCCCCCCCCCCCCCCCCCCCCCCCC(=O)[O-]
REMARK SMILES IDX 16 1 17 2 18 3 19 4 20 5 21 6 22 7 23 8 24 9 25 10 26 11
REMARK SMILES IDX 27 12 28 13 29 14 30 15 31 16 32 17 15 18 14 19 13 20 12 21
REMARK SMILES IDX 11 22 10 23 9 24 8 25 7 26 6 27 5 28 4 29 3 30 2 31 1 32
REMARK H PARENT
REMARK Flexibility Score: inf
ROOT
ATOM      1  C   UNL     1      11.864  21.973  19.710  1.00  0.00     0.000 C 
ENDROOT
BRANCH   1   2
ATOM      2  C   UNL     1      13.277  21.913  19.102  1.00  0.00     0.000 C 
BRANCH   2   3
ATOM      3  C   UNL     1      14.222  22.968  19.702  1.00  0.00     0.000 C 
BRANCH   3   4
ATOM      4  C   UNL     1      14.619  24.046  18.678  1.00  0.00     0.000 C 
BRANCH   4   5
ATOM      5  C   UNL     1      15.050  25.364  19.338  1.00  0.00     0.000 C 
BRANCH   5   6
ATOM      6  C   UNL     1      14.606  25.461  20.809  1.00  0.00     0.000 C 
BRANCH   6   7
ATOM      7  C   UNL     1      15.123  26.741  21.491  1.00  0.00     0.000 C 
BRANCH   7   8
ATOM      8  C   UNL     1      14.396  28.001  20.988  1.00  0.00     0.000 C 
BRANCH   8   9
ATOM      9  C   UNL     1      13.497  28.638  22.063  1.00  0.00     0.000 C 
BRANCH   9  10
ATOM     10  C   UNL     1      13.353  30.165  21.941  1.00  0.00     0.000 C 
BRANCH  10  11
ATOM     11  C   UNL     1      13.478  30.897  23.298  1.00  0.00     0.000 C 
BRANCH  11  12
ATOM     12  C   UNL     1      14.822  30.647  24.002  1.00  0.00     0.000 C 
BRANCH  12  13
ATOM     13  C   UNL     1      14.756  30.766  25.541  1.00  0.00     0.006 C 
BRANCH  13  14
ATOM     14  C   UNL     1      14.646  29.412  26.268  1.00  0.00     0.053 C 
BRANCH  14  15
ATOM     15  C   UNL     1      13.430  28.636  25.857  1.00  0.00     0.041 C 
ATOM     16  O   UNL     1      12.296  29.185  25.853  1.00  0.00    -0.550 OA
ATOM     17  O   UNL     1      13.549  27.303  25.488  1.00  0.00    -0.550 OA
ENDBRANCH  14  15
ENDBRANCH  13  14
ENDBRANCH  12  13
ENDBRANCH  11  12
ENDBRANCH  10  11
ENDBRANCH   9  10
ENDBRANCH   8   9
ENDBRANCH   7   8
ENDBRANCH   6   7
ENDBRANCH   5   6
ENDBRANCH   4   5
ENDBRANCH   3   4
ENDBRANCH   2   3
ENDBRANCH   1   2
BRANCH   1  18
ATOM     18  C   UNL     1      10.948  22.967  18.978  1.00  0.00     0.000 C 
BRANCH  18  19
ATOM     19  C   UNL     1      10.172  22.312  17.822  1.00  0.00     0.000 C 
BRANCH  19  20
ATOM     20  C   UNL     1       9.068  23.220  17.259  1.00  0.00     0.000 C 
BRANCH  20  21
ATOM     21  C   UNL     1       7.897  22.424  16.659  1.00  0.00     0.000 C 
BRANCH  21  22
ATOM     22  C   UNL     1       6.836  23.336  16.020  1.00  0.00     0.000 C 
BRANCH  22  23
ATOM     23  C   UNL     1       6.465  22.899  14.593  1.00  0.00     0.000 C 
BRANCH  23  24
ATOM     24  C   UNL     1       6.666  24.020  13.557  1.00  0.00    -0.000 C 
BRANCH  24  25
ATOM     25  C   UNL     1       5.500  25.025  13.447  1.00  0.00    -0.000 C 
BRANCH  25  26
ATOM     26  C   UNL     1       5.038  25.345  12.012  1.00  0.00    -0.000 C 
BRANCH  26  27
ATOM     27  C   UNL     1       6.192  25.329  10.994  1.00  0.00    -0.000 C 
BRANCH  27  28
ATOM     28  C   UNL     1       5.996  26.352   9.863  1.00  0.00    -0.000 C 
BRANCH  28  29
ATOM     29  C   UNL     1       4.680  27.138   9.991  1.00  0.00    -0.000 C 
BRANCH  29  30
ATOM     30  C   UNL     1       4.504  28.169   8.855  1.00  0.00    -0.000 C 
BRANCH  30  31
ATOM     31  C   UNL     1       3.546  29.318   9.209  1.00  0.00    -0.003 C 
ATOM     32  C   UNL     1       2.588  29.672   8.072  1.00  0.00     0.004 C 
ENDBRANCH  30  31
ENDBRANCH  29  30
ENDBRANCH  28  29
ENDBRANCH  27  28
ENDBRANCH  26  27
ENDBRANCH  25  26
ENDBRANCH  24  25
ENDBRANCH  23  24
ENDBRANCH  22  23
ENDBRANCH  21  22
ENDBRANCH  20  21
ENDBRANCH  19  20
ENDBRANCH  18  19
ENDBRANCH   1  18
TORSDOF 28
ENDMDL
MODEL 4
REMARK VINA RESULT:    12.418      4.924     13.446
REMARK INTER + INTRA:          31.626
REMARK INTER:                  33.073
REMARK INTRA:                  -1.447
REMARK UNBOUND:                -1.119
REMARK SMILES CCCCCCCCCCCCCCCCCCCCCCCCCCCCCC(=O)[O-]
REMARK SMILES IDX 16 1 17 2 18 3 19 4 20 5 21 6 22 7 23 8 24 9 25 10 26 11
REMARK SMILES IDX 27 12 28 13 29 14 30 15 31 16 32 17 15 18 14 19 13 20 12 21
REMARK SMILES IDX 11 22 10 23 9 24 8 25 7 26 6 27 5 28 4 29 3 30 2 31 1 32
REMARK H PARENT
REMARK Flexibility Score: inf
ROOT
ATOM      1  C   UNL     1       4.277  29.225  18.859  1.00  0.00     0.000 C 
ENDROOT
BRANCH   1   2
ATOM      2  C   UNL     1       5.651  28.956  19.499  1.00  0.00     0.000 C 
BRANCH   2   3
ATOM      3  C   UNL     1       6.760  29.844  18.907  1.00  0.00     0.000 C 
BRANCH   3   4
ATOM      4  C   UNL     1       8.168  29.346  19.278  1.00  0.00     0.000 C 
BRANCH   4   5
ATOM      5  C   UNL     1       9.273  30.337  18.885  1.00  0.00     0.000 C 
BRANCH   5   6
ATOM      6  C   UNL     1      10.680  29.717  18.968  1.00  0.00     0.000 C 
BRANCH   6   7
ATOM      7  C   UNL     1      11.650  30.332  17.942  1.00  0.00     0.000 C 
BRANCH   7   8
ATOM      8  C   UNL     1      12.788  31.118  18.618  1.00  0.00     0.000 C 
BRANCH   8   9
ATOM      9  C   UNL     1      14.179  30.543  18.298  1.00  0.00     0.000 C 
BRANCH   9  10
ATOM     10  C   UNL     1      14.280  29.016  18.452  1.00  0.00     0.000 C 
BRANCH  10  11
ATOM     11  C   UNL     1      14.566  28.570  19.906  1.00  0.00     0.000 C 
BRANCH  11  12
ATOM     12  C   UNL     1      15.024  27.105  20.014  1.00  0.00     0.000 C 
BRANCH  12  13
ATOM     13  C   UNL     1      14.548  26.393  21.299  1.00  0.00     0.006 C 
BRANCH  13  14
ATOM     14  C   UNL     1      14.414  27.327  22.518  1.00  0.00     0.053 C 
BRANCH  14  15
ATOM     15  C   UNL     1      13.764  26.653  23.689  1.00  0.00     0.041 C 
ATOM     16  O   UNL     1      14.257  25.598  24.170  1.00  0.00    -0.550 OA
ATOM     17  O   UNL     1      12.607  27.186  24.243  1.00  0.00    -0.550 OA
ENDBRANCH  14  15
ENDBRANCH  13  14
ENDBRANCH  12  13
ENDBRANCH  11  12
ENDBRANCH  10  11
ENDBRANCH   9  10
ENDBRANCH   8   9
ENDBRANCH   7   8
ENDBRANCH   6   7
ENDBRANCH   5   6
ENDBRANCH   4   5
ENDBRANCH   3   4
ENDBRANCH   2   3
ENDBRANCH   1   2
BRANCH   1  18
ATOM     18  C   UNL     1       4.123  28.548  17.489  1.00  0.00     0.000 C 
BRANCH  18  19
ATOM     19  C   UNL     1       2.877  27.647  17.413  1.00  0.00     0.000 C 
BRANCH  19  20
ATOM     20  C   UNL     1       2.649  27.066  16.009  1.00  0.00     0.000 C 
BRANCH  20  21
ATOM     21  C   UNL     1       3.962  26.864  15.234  1.00  0.00     0.000 C 
BRANCH  21  22
ATOM     22  C   UNL     1       4.274  25.378  14.990  1.00  0.00     0.000 C 
BRANCH  22  23
ATOM     23  C   UNL     1       5.288  25.167  13.852  1.00  0.00     0.000 C 
BRANCH  23  24
ATOM     24  C   UNL     1       4.695  24.383  12.667  1.00  0.00    -0.000 C 
BRANCH  24  25
ATOM     25  C   UNL     1       4.506  25.200  11.371  1.00  0.00    -0.000 C 
BRANCH  25  26
ATOM     26  C   UNL     1       5.804  25.719  10.724  1.00  0.00    -0.000 C 
BRANCH  26  27
ATOM     27  C   UNL     1       5.560  26.428   9.379  1.00  0.00    -0.000 C 
BRANCH  27  28
ATOM     28  C   UNL     1       5.809  27.943   9.457  1.00  0.00    -0.000 C 
BRANCH  28  29
ATOM     29  C   UNL     1       4.539  28.770   9.193  1.00  0.00    -0.000 C 
BRANCH  29  30
ATOM     30  C   UNL     1       3.680  28.173   8.057  1.00  0.00    -0.000 C 
BRANCH  30  31
ATOM     31  C   UNL     1       2.324  28.875   7.875  1.00  0.00    -0.003 C 
ATOM     32  C   UNL     1       1.800  29.509   9.162  1.00  0.00     0.004 C 
ENDBRANCH  30  31
ENDBRANCH  29  30
ENDBRANCH  28  29
ENDBRANCH  27  28
ENDBRANCH  26  27
ENDBRANCH  25  26
ENDBRANCH  24  25
ENDBRANCH  23  24
ENDBRANCH  22  23
ENDBRANCH  21  22
ENDBRANCH  20  21
ENDBRANCH  19  20
ENDBRANCH  18  19
ENDBRANCH   1  18
TORSDOF 28
ENDMDL
MODEL 5
REMARK VINA RESULT:    12.543      6.455     13.569
REMARK INTER + INTRA:          31.955
REMARK INTER:                  33.465
REMARK INTRA:                  -1.510
REMARK UNBOUND:                -1.119
REMARK SMILES CCCCCCCCCCCCCCCCCCCCCCCCCCCCCC(=O)[O-]
REMARK SMILES IDX 16 1 17 2 18 3 19 4 20 5 21 6 22 7 23 8 24 9 25 10 26 11
REMARK SMILES IDX 27 12 28 13 29 14 30 15 31 16 32 17 15 18 14 19 13 20 12 21
REMARK SMILES IDX 11 22 10 23 9 24 8 25 7 26 6 27 5 28 4 29 3 30 2 31 1 32
REMARK H PARENT
REMARK Flexibility Score: inf
ROOT
ATOM      1  C   UNL     1      12.870  22.971  19.842  1.00  0.00     0.000 C 
ENDROOT
BRANCH   1   2
ATOM      2  C   UNL     1      14.374  23.151  20.119  1.00  0.00     0.000 C 
BRANCH   2   3
ATOM      3  C   UNL     1      14.916  24.485  19.578  1.00  0.00     0.000 C 
BRANCH   3   4
ATOM      4  C   UNL     1      15.123  25.527  20.692  1.00  0.00     0.000 C 
BRANCH   4   5
ATOM      5  C   UNL     1      13.812  26.190  21.138  1.00  0.00     0.000 C 
BRANCH   5   6
ATOM      6  C   UNL     1      13.971  26.999  22.437  1.00  0.00     0.000 C 
BRANCH   6   7
ATOM      7  C   UNL     1      14.274  26.100  23.651  1.00  0.00     0.000 C 
BRANCH   7   8
ATOM      8  C   UNL     1      14.764  26.910  24.865  1.00  0.00     0.000 C 
BRANCH   8   9
ATOM      9  C   UNL     1      13.979  28.220  25.061  1.00  0.00     0.000 C 
BRANCH   9  10
ATOM     10  C   UNL     1      14.866  29.469  25.207  1.00  0.00     0.000 C 
BRANCH  10  11
ATOM     11  C   UNL     1      15.012  30.267  23.889  1.00  0.00     0.000 C 
BRANCH  11  12
ATOM     12  C   UNL     1      13.691  30.405  23.113  1.00  0.00     0.000 C 
BRANCH  12  13
ATOM     13  C   UNL     1      13.839  31.103  21.743  1.00  0.00     0.006 C 
BRANCH  13  14
ATOM     14  C   UNL     1      13.617  30.168  20.538  1.00  0.00     0.053 C 
BRANCH  14  15
ATOM     15  C   UNL     1      12.318  30.431  19.838  1.00  0.00     0.041 C 
ATOM     16  O   UNL     1      12.143  30.041  18.653  1.00  0.00    -0.550 OA
ATOM     17  O   UNL     1      11.303  31.118  20.492  1.00  0.00    -0.550 OA
ENDBRANCH  14  15
ENDBRANCH  13  14
ENDBRANCH  12  13
ENDBRANCH  11  12
ENDBRANCH  10  11
ENDBRANCH   9  10
ENDBRANCH   8   9
ENDBRANCH   7   8
ENDBRANCH   6   7
ENDBRANCH   5   6
ENDBRANCH   4   5
ENDBRANCH   3   4
ENDBRANCH   2   3
ENDBRANCH   1   2
BRANCH   1  18
ATOM     18  C   UNL     1      12.465  21.494  19.718  1.00  0.00     0.000 C 
BRANCH  18  19
ATOM     19  C   UNL     1      11.862  21.162  18.341  1.00  0.00     0.000 C 
BRANCH  19  20
ATOM     20  C   UNL     1      10.357  21.461  18.265  1.00  0.00     0.000 C 
BRANCH  20  21
ATOM     21  C   UNL     1      10.060  22.843  17.658  1.00  0.00     0.000 C 
BRANCH  21  22
ATOM     22  C   UNL     1       8.588  23.254  17.833  1.00  0.00     0.000 C 
BRANCH  22  23
ATOM     23  C   UNL     1       7.655  22.537  16.842  1.00  0.00     0.000 C 
BRANCH  23  24
ATOM     24  C   UNL     1       6.206  22.443  17.354  1.00  0.00    -0.000 C 
BRANCH  24  25
ATOM     25  C   UNL     1       5.943  21.311  18.370  1.00  0.00    -0.000 C 
BRANCH  25  26
ATOM     26  C   UNL     1       6.200  19.885  17.849  1.00  0.00    -0.000 C 
BRANCH  26  27
ATOM     27  C   UNL     1       5.079  18.900  18.225  1.00  0.00    -0.000 C 
BRANCH  27  28
ATOM     28  C   UNL     1       5.621  17.544  18.707  1.00  0.00    -0.000 C 
BRANCH  28  29
ATOM     29  C   UNL     1       6.087  16.642  17.551  1.00  0.00    -0.000 C 
BRANCH  29  30
ATOM     30  C   UNL     1       7.158  17.327  16.674  1.00  0.00    -0.000 C 
BRANCH  30  31
ATOM     31  C   UNL     1       7.884  16.363  15.722  1.00  0.00    -0.003 C 
ATOM     32  C   UNL     1       9.404  16.405  15.868  1.00  0.00     0.004 C 
ENDBRANCH  30  31
ENDBRANCH  29  30
ENDBRANCH  28  29
ENDBRANCH  27  28
ENDBRANCH  26  27
ENDBRANCH  25  26
ENDBRANCH  24  25
ENDBRANCH  23  24
ENDBRANCH  22  23
ENDBRANCH  21  22
ENDBRANCH  20  21
ENDBRANCH  19  20
ENDBRANCH  18  19
ENDBRANCH   1  18
TORSDOF 28
ENDMDL
MODEL 6
REMARK VINA RESULT:    12.560      5.684     14.233
REMARK INTER + INTRA:          32.000
REMARK INTER:                  33.103
REMARK INTRA:                  -1.103
REMARK UNBOUND:                -1.119
REMARK SMILES CCCCCCCCCCCCCCCCCCCCCCCCCCCCCC(=O)[O-]
REMARK SMILES IDX 16 1 17 2 18 3 19 4 20 5 21 6 22 7 23 8 24 9 25 10 26 11
REMARK SMILES IDX 27 12 28 13 29 14 30 15 31 16 32 17 15 18 14 19 13 20 12 21
REMARK SMILES IDX 11 22 10 23 9 24 8 25 7 26 6 27 5 28 4 29 3 30 2 31 1 32
REMARK H PARENT
REMARK Flexibility Score: inf
ROOT
ATOM      1  C   UNL     1      10.121  22.170  17.692  1.00  0.00     0.000 C 
ENDROOT
BRANCH   1   2
ATOM      2  C   UNL     1      10.506  22.675  19.095  1.00  0.00     0.000 C 
BRANCH   2   3
ATOM      3  C   UNL     1      11.825  22.063  19.598  1.00  0.00     0.000 C 
BRANCH   3   4
ATOM      4  C   UNL     1      13.055  22.671  18.899  1.00  0.00     0.000 C 
BRANCH   4   5
ATOM      5  C   UNL     1      14.329  22.578  19.751  1.00  0.00     0.000 C 
BRANCH   5   6
ATOM      6  C   UNL     1      15.107  23.906  19.796  1.00  0.00     0.000 C 
BRANCH   6   7
ATOM      7  C   UNL     1      14.292  25.037  20.451  1.00  0.00     0.000 C 
BRANCH   7   8
ATOM      8  C   UNL     1      15.118  26.326  20.617  1.00  0.00     0.000 C 
BRANCH   8   9
ATOM      9  C   UNL     1      14.505  27.524  19.869  1.00  0.00     0.000 C 
BRANCH   9  10
ATOM     10  C   UNL     1      14.696  28.875  20.580  1.00  0.00     0.000 C 
BRANCH  10  11
ATOM     11  C   UNL     1      13.471  29.811  20.445  1.00  0.00     0.000 C 
BRANCH  11  12
ATOM     12  C   UNL     1      13.108  30.529  21.756  1.00  0.00     0.000 C 
BRANCH  12  13
ATOM     13  C   UNL     1      12.020  29.811  22.584  1.00  0.00     0.006 C 
BRANCH  13  14
ATOM     14  C   UNL     1      12.540  29.197  23.899  1.00  0.00     0.053 C 
BRANCH  14  15
ATOM     15  C   UNL     1      13.586  28.148  23.669  1.00  0.00     0.041 C 
ATOM     16  O   UNL     1      14.750  28.298  24.129  1.00  0.00    -0.550 OA
ATOM     17  O   UNL     1      13.278  27.007  22.939  1.00  0.00    -0.550 OA
ENDBRANCH  14  15
ENDBRANCH  13  14
ENDBRANCH  12  13
ENDBRANCH  11  12
ENDBRANCH  10  11
ENDBRANCH   9  10
ENDBRANCH   8   9
ENDBRANCH   7   8
ENDBRANCH   6   7
ENDBRANCH   5   6
ENDBRANCH   4   5
ENDBRANCH   3   4
ENDBRANCH   2   3
ENDBRANCH   1   2
BRANCH   1  18
ATOM     18  C   UNL     1       9.257  23.179  16.919  1.00  0.00     0.000 C 
BRANCH  18  19
ATOM     19  C   UNL     1       7.757  22.839  16.977  1.00  0.00     0.000 C 
BRANCH  19  20
ATOM     20  C   UNL     1       7.214  22.322  15.636  1.00  0.00     0.000 C 
BRANCH  20  21
ATOM     21  C   UNL     1       7.229  23.400  14.538  1.00  0.00     0.000 C 
BRANCH  21  22
ATOM     22  C   UNL     1       5.830  23.660  13.956  1.00  0.00     0.000 C 
BRANCH  22  23
ATOM     23  C   UNL     1       5.556  25.156  13.724  1.00  0.00     0.000 C 
BRANCH  23  24
ATOM     24  C   UNL     1       5.207  25.476  12.259  1.00  0.00    -0.000 C 
BRANCH  24  25
ATOM     25  C   UNL     1       6.410  25.498  11.291  1.00  0.00    -0.000 C 
BRANCH  25  26
ATOM     26  C   UNL     1       6.101  25.997   9.867  1.00  0.00    -0.000 C 
BRANCH  26  27
ATOM     27  C   UNL     1       4.681  26.576   9.730  1.00  0.00    -0.000 C 
BRANCH  27  28
ATOM     28  C   UNL     1       4.374  27.055   8.301  1.00  0.00    -0.000 C 
BRANCH  28  29
ATOM     29  C   UNL     1       4.462  28.583   8.153  1.00  0.00    -0.000 C 
BRANCH  29  30
ATOM     30  C   UNL     1       3.861  29.322   9.369  1.00  0.00    -0.000 C 
BRANCH  30  31
ATOM     31  C   UNL     1       3.146  30.633   9.002  1.00  0.00    -0.003 C 
ATOM     32  C   UNL     1       1.632  30.564   9.192  1.00  0.00     0.004 C 
ENDBRANCH  30  31
ENDBRANCH  29  30
ENDBRANCH  28  29
ENDBRANCH  27  28
ENDBRANCH  26  27
ENDBRANCH  25  26
ENDBRANCH  24  25
ENDBRANCH  23  24
ENDBRANCH  22  23
ENDBRANCH  21  22
ENDBRANCH  20  21
ENDBRANCH  19  20
ENDBRANCH  18  19
ENDBRANCH   1  18
TORSDOF 28
ENDMDL
MODEL 7
REMARK VINA RESULT:    12.605      1.316      2.343
REMARK INTER + INTRA:          32.118
REMARK INTER:                  32.337
REMARK INTRA:                  -0.219
REMARK UNBOUND:                -1.119
REMARK SMILES CCCCCCCCCCCCCCCCCCCCCCCCCCCCCC(=O)[O-]
REMARK SMILES IDX 16 1 17 2 18 3 19 4 20 5 21 6 22 7 23 8 24 9 25 10 26 11
REMARK SMILES IDX 27 12 28 13 29 14 30 15 31 16 32 17 15 18 14 19 13 20 12 21
REMARK SMILES IDX 11 22 10 23 9 24 8 25 7 26 6 27 5 28 4 29 3 30 2 31 1 32
REMARK H PARENT
REMARK Flexibility Score: inf
ROOT
ATOM      1  C   UNL     1       7.246  30.416  18.879  1.00  0.00     0.000 C 
ENDROOT
BRANCH   1   2
ATOM      2  C   UNL     1       6.675  29.060  18.428  1.00  0.00     0.000 C 
BRANCH   2   3
ATOM      3  C   UNL     1       5.602  28.524  19.392  1.00  0.00     0.000 C 
BRANCH   3   4
ATOM      4  C   UNL     1       4.273  29.291  19.273  1.00  0.00     0.000 C 
BRANCH   4   5
ATOM      5  C   UNL     1       3.576  29.070  17.923  1.00  0.00     0.000 C 
BRANCH   5   6
ATOM      6  C   UNL     1       2.964  27.663  17.798  1.00  0.00     0.000 C 
BRANCH   6   7
ATOM      7  C   UNL     1       2.664  27.285  16.336  1.00  0.00     0.000 C 
BRANCH   7   8
ATOM      8  C   UNL     1       3.950  27.088  15.511  1.00  0.00     0.000 C 
BRANCH   8   9
ATOM      9  C   UNL     1       4.216  25.611  15.171  1.00  0.00     0.000 C 
BRANCH   9  10
ATOM     10  C   UNL     1       5.311  25.396  14.112  1.00  0.00     0.000 C 
BRANCH  10  11
ATOM     11  C   UNL     1       4.881  24.431  12.982  1.00  0.00     0.000 C 
BRANCH  11  12
ATOM     12  C   UNL     1       4.634  25.139  11.639  1.00  0.00     0.000 C 
BRANCH  12  13
ATOM     13  C   UNL     1       5.899  25.778  11.025  1.00  0.00     0.006 C 
BRANCH  13  14
ATOM     14  C   UNL     1       5.739  26.184   9.547  1.00  0.00     0.053 C 
BRANCH  14  15
ATOM     15  C   UNL     1       4.958  27.453   9.381  1.00  0.00     0.041 C 
ATOM     16  O   UNL     1       5.458  28.558   9.723  1.00  0.00    -0.550 OA
ATOM     17  O   UNL     1       3.672  27.413   8.858  1.00  0.00    -0.550 OA
ENDBRANCH  14  15
ENDBRANCH  13  14
ENDBRANCH  12  13
ENDBRANCH  11  12
ENDBRANCH  10  11
ENDBRANCH   9  10
ENDBRANCH   8   9
ENDBRANCH   7   8
ENDBRANCH   6   7
ENDBRANCH   5   6
ENDBRANCH   4   5
ENDBRANCH   3   4
ENDBRANCH   2   3
ENDBRANCH   1   2
BRANCH   1  18
ATOM     18  C   UNL     1       8.654  30.292  19.482  1.00  0.00     0.000 C 
BRANCH  18  19
ATOM     19  C   UNL     1       9.726  30.992  18.627  1.00  0.00     0.000 C 
BRANCH  19  20
ATOM     20  C   UNL     1      11.116  30.965  19.281  1.00  0.00     0.000 C 
BRANCH  20  21
ATOM     21  C   UNL     1      12.237  30.657  18.273  1.00  0.00     0.000 C 
BRANCH  21  22
ATOM     22  C   UNL     1      13.617  31.109  18.777  1.00  0.00     0.000 C 
BRANCH  22  23
ATOM     23  C   UNL     1      13.807  30.858  20.282  1.00  0.00     0.000 C 
BRANCH  23  24
ATOM     24  C   UNL     1      13.377  29.442  20.707  1.00  0.00    -0.000 C 
BRANCH  24  25
ATOM     25  C   UNL     1      13.422  29.174  22.227  1.00  0.00    -0.000 C 
BRANCH  25  26
ATOM     26  C   UNL     1      14.829  29.169  22.854  1.00  0.00    -0.000 C 
BRANCH  26  27
ATOM     27  C   UNL     1      14.960  28.177  24.023  1.00  0.00    -0.000 C 
BRANCH  27  28
ATOM     28  C   UNL     1      13.602  27.616  24.476  1.00  0.00    -0.000 C 
BRANCH  28  29
ATOM     29  C   UNL     1      12.617  28.715  24.908  1.00  0.00    -0.000 C 
BRANCH  29  30
ATOM     30  C   UNL     1      13.116  29.491  26.146  1.00  0.00    -0.000 C 
BRANCH  30  31
ATOM     31  C   UNL     1      14.135  28.711  26.993  1.00  0.00    -0.003 C 
ATOM     32  C   UNL     1      14.736  29.543  28.125  1.00  0.00     0.004 C 
ENDBRANCH  30  31
ENDBRANCH  29  30
ENDBRANCH  28  29
ENDBRANCH  27  28
ENDBRANCH  26  27
ENDBRANCH  25  26
ENDBRANCH  24  25
ENDBRANCH  23  24
ENDBRANCH  22  23
ENDBRANCH  21  22
ENDBRANCH  20  21
ENDBRANCH  19  20
ENDBRANCH  18  19
ENDBRANCH   1  18
TORSDOF 28
ENDMDL
MODEL 8
REMARK VINA RESULT:    12.657      4.578     13.649
REMARK INTER + INTRA:          32.256
REMARK INTER:                  33.737
REMARK INTRA:                  -1.482
REMARK UNBOUND:                -1.119
REMARK SMILES CCCCCCCCCCCCCCCCCCCCCCCCCCCCCC(=O)[O-]
REMARK SMILES IDX 16 1 17 2 18 3 19 4 20 5 21 6 22 7 23 8 24 9 25 10 26 11
REMARK SMILES IDX 27 12 28 13 29 14 30 15 31 16 32 17 15 18 14 19 13 20 12 21
REMARK SMILES IDX 11 22 10 23 9 24 8 25 7 26 6 27 5 28 4 29 3 30 2 31 1 32
REMARK H PARENT
REMARK Flexibility Score: inf
ROOT
ATOM      1  C   UNL     1      10.105  22.324  17.572  1.00  0.00     0.000 C 
ENDROOT
BRANCH   1   2
ATOM      2  C   UNL     1      10.572  22.971  18.889  1.00  0.00     0.000 C 
BRANCH   2   3
ATOM      3  C   UNL     1      11.664  22.148  19.593  1.00  0.00     0.000 C 
BRANCH   3   4
ATOM      4  C   UNL     1      13.070  22.448  19.042  1.00  0.00     0.000 C 
BRANCH   4   5
ATOM      5  C   UNL     1      14.057  22.887  20.133  1.00  0.00     0.000 C 
BRANCH   5   6
ATOM      6  C   UNL     1      15.119  23.870  19.609  1.00  0.00     0.000 C 
BRANCH   6   7
ATOM      7  C   UNL     1      14.648  25.334  19.689  1.00  0.00     0.000 C 
BRANCH   7   8
ATOM      8  C   UNL     1      14.078  25.686  21.075  1.00  0.00     0.000 C 
BRANCH   8   9
ATOM      9  C   UNL     1      15.038  26.553  21.910  1.00  0.00     0.000 C 
BRANCH   9  10
ATOM     10  C   UNL     1      15.106  28.025  21.464  1.00  0.00     0.000 C 
BRANCH  10  11
ATOM     11  C   UNL     1      14.033  28.913  22.138  1.00  0.00     0.000 C 
BRANCH  11  12
ATOM     12  C   UNL     1      14.282  30.419  21.945  1.00  0.00     0.000 C 
BRANCH  12  13
ATOM     13  C   UNL     1      13.353  31.079  20.902  1.00  0.00     0.006 C 
BRANCH  13  14
ATOM     14  C   UNL     1      13.711  30.738  19.442  1.00  0.00     0.053 C 
BRANCH  14  15
ATOM     15  C   UNL     1      12.509  30.707  18.548  1.00  0.00     0.041 C 
ATOM     16  O   UNL     1      11.395  31.122  18.965  1.00  0.00    -0.550 OA
ATOM     17  O   UNL     1      12.616  30.209  17.256  1.00  0.00    -0.550 OA
ENDBRANCH  14  15
ENDBRANCH  13  14
ENDBRANCH  12  13
ENDBRANCH  11  12
ENDBRANCH  10  11
ENDBRANCH   9  10
ENDBRANCH   8   9
ENDBRANCH   7   8
ENDBRANCH   6   7
ENDBRANCH   5   6
ENDBRANCH   4   5
ENDBRANCH   3   4
ENDBRANCH   2   3
ENDBRANCH   1   2
BRANCH   1  18
ATOM     18  C   UNL     1       9.238  23.269  16.725  1.00  0.00     0.000 C 
BRANCH  18  19
ATOM     19  C   UNL     1       7.731  23.033  16.934  1.00  0.00     0.000 C 
BRANCH  19  20
ATOM     20  C   UNL     1       7.057  22.392  15.712  1.00  0.00     0.000 C 
BRANCH  20  21
ATOM     21  C   UNL     1       6.924  23.368  14.530  1.00  0.00     0.000 C 
BRANCH  21  22
ATOM     22  C   UNL     1       5.475  23.487  14.031  1.00  0.00     0.000 C 
BRANCH  22  23
ATOM     23  C   UNL     1       5.083  24.937  13.698  1.00  0.00     0.000 C 
BRANCH  23  24
ATOM     24  C   UNL     1       5.040  25.208  12.183  1.00  0.00    -0.000 C 
BRANCH  24  25
ATOM     25  C   UNL     1       6.401  25.551  11.540  1.00  0.00    -0.000 C 
BRANCH  25  26
ATOM     26  C   UNL     1       6.333  26.085  10.097  1.00  0.00    -0.000 C 
BRANCH  26  27
ATOM     27  C   UNL     1       4.932  26.590   9.711  1.00  0.00    -0.000 C 
BRANCH  27  28
ATOM     28  C   UNL     1       4.825  26.954   8.221  1.00  0.00    -0.000 C 
BRANCH  28  29
ATOM     29  C   UNL     1       4.016  28.239   7.977  1.00  0.00    -0.000 C 
BRANCH  29  30
ATOM     30  C   UNL     1       3.232  28.681   9.232  1.00  0.00    -0.000 C 
BRANCH  30  31
ATOM     31  C   UNL     1       3.068  30.205   9.351  1.00  0.00    -0.003 C 
ATOM     32  C   UNL     1       3.793  30.974   8.247  1.00  0.00     0.004 C 
ENDBRANCH  30  31
ENDBRANCH  29  30
ENDBRANCH  28  29
ENDBRANCH  27  28
ENDBRANCH  26  27
ENDBRANCH  25  26
ENDBRANCH  24  25
ENDBRANCH  23  24
ENDBRANCH  22  23
ENDBRANCH  21  22
ENDBRANCH  20  21
ENDBRANCH  19  20
ENDBRANCH  18  19
ENDBRANCH   1  18
TORSDOF 28
ENDMDL
