MODEL 1
REMARK VINA RESULT:    -5.022      0.000      0.000
REMARK INTER + INTRA:          -5.707
REMARK INTER:                  -5.609
REMARK INTRA:                  -0.098
REMARK UNBOUND:                -0.098
REMARK SMILES CCc1ccc(O)cc1O
REMARK SMILES IDX 3 1 9 2 8 3 6 4 5 5 4 6 2 7 1 8 10 9 7 11
REMARK H PARENT 10 10 7 12
REMARK Flexibility Score: inf
ROOT
ATOM      1  C   UNL     1     -12.648  44.667  22.078  1.00  0.00    -0.006 A 
ATOM      2  C   UNL     1     -12.878  45.367  23.279  1.00  0.00     0.122 A 
ATOM      3  C   UNL     1     -13.999  45.057  24.065  1.00  0.00     0.092 A 
ATOM      4  C   UNL     1     -14.896  44.065  23.657  1.00  0.00     0.119 A 
ATOM      5  C   UNL     1     -14.677  43.379  22.456  1.00  0.00     0.047 A 
ATOM      6  C   UNL     1     -13.562  43.682  21.669  1.00  0.00     0.011 A 
ENDROOT
BRANCH   1   7
ATOM      7  C   UNL     1     -11.468  45.001  21.200  1.00  0.00     0.036 C 
ATOM      8  C   UNL     1     -10.468  43.850  21.177  1.00  0.00     0.009 C 
ENDBRANCH   1   7
BRANCH   2   9
ATOM      9  O   UNL     1     -11.996  46.367  23.689  1.00  0.00    -0.508 OA
ATOM     10  H   UNL     1     -11.510  46.953  23.020  1.00  0.00     0.293 HD
ENDBRANCH   2   9
BRANCH   4  11
ATOM     11  O   UNL     1     -16.003  43.772  24.450  1.00  0.00    -0.508 OA
ATOM     12  H   UNL     1     -16.945  43.982  24.142  1.00  0.00     0.293 HD
ENDBRANCH   4  11
TORSDOF 3
ENDMDL
MODEL 2
REMARK VINA RESULT:    -4.851      2.056      3.281
REMARK INTER + INTRA:          -5.516
REMARK INTER:                  -5.431
REMARK INTRA:                  -0.085
REMARK UNBOUND:                -0.098
REMARK SMILES CCc1ccc(O)cc1O
REMARK SMILES IDX 3 1 9 2 8 3 6 4 5 5 4 6 2 7 1 8 10 9 7 11
REMARK H PARENT 10 10 7 12
REMARK Flexibility Score: inf
ROOT
ATOM      1  C   UNL     1     -13.061  45.130  23.076  1.00  0.00    -0.006 A 
ATOM      2  C   UNL     1     -12.170  45.129  21.985  1.00  0.00     0.122 A 
ATOM      3  C   UNL     1     -12.469  44.375  20.840  1.00  0.00     0.092 A 
ATOM      4  C   UNL     1     -13.641  43.616  20.778  1.00  0.00     0.119 A 
ATOM      5  C   UNL     1     -14.520  43.605  21.868  1.00  0.00     0.047 A 
ATOM      6  C   UNL     1     -14.230  44.353  23.011  1.00  0.00     0.011 A 
ENDROOT
BRANCH   1   7
ATOM      7  C   UNL     1     -12.750  45.906  24.332  1.00  0.00     0.036 C 
ATOM      8  C   UNL     1     -13.932  45.873  25.295  1.00  0.00     0.009 C 
ENDBRANCH   1   7
BRANCH   2   9
ATOM      9  O   UNL     1     -10.990  45.872  22.041  1.00  0.00    -0.508 OA
ATOM     10  H   UNL     1     -10.377  45.836  22.848  1.00  0.00     0.293 HD
ENDBRANCH   2   9
BRANCH   4  11
ATOM     11  O   UNL     1     -13.920  42.875  19.633  1.00  0.00    -0.508 OA
ATOM     12  H   UNL     1     -14.694  43.114  19.023  1.00  0.00     0.293 HD
ENDBRANCH   4  11
TORSDOF 3
ENDMDL
MODEL 3
REMARK VINA RESULT:    -4.812      1.451      1.735
REMARK INTER + INTRA:          -5.473
REMARK INTER:                  -5.460
REMARK INTRA:                  -0.012
REMARK UNBOUND:                -0.098
REMARK SMILES CCc1ccc(O)cc1O
REMARK SMILES IDX 3 1 9 2 8 3 6 4 5 5 4 6 2 7 1 8 10 9 7 11
REMARK H PARENT 10 10 7 12
REMARK Flexibility Score: inf
ROOT
ATOM      1  C   UNL     1     -13.136  44.444  22.159  1.00  0.00    -0.006 A 
ATOM      2  C   UNL     1     -12.349  45.401  22.830  1.00  0.00     0.122 A 
ATOM      3  C   UNL     1     -12.765  45.899  24.074  1.00  0.00     0.092 A 
ATOM      4  C   UNL     1     -13.962  45.459  24.648  1.00  0.00     0.119 A 
ATOM      5  C   UNL     1     -14.751  44.519  23.976  1.00  0.00     0.047 A 
ATOM      6  C   UNL     1     -14.343  44.018  22.737  1.00  0.00     0.011 A 
ENDROOT
BRANCH   1   7
ATOM      7  C   UNL     1     -12.728  43.915  20.807  1.00  0.00     0.036 C 
ATOM      8  C   UNL     1     -11.621  42.875  20.944  1.00  0.00     0.009 C 
ENDBRANCH   1   7
BRANCH   2   9
ATOM      9  O   UNL     1     -11.160  45.857  22.260  1.00  0.00    -0.508 OA
ATOM     10  H   UNL     1     -10.810  46.792  22.436  1.00  0.00     0.293 HD
ENDBRANCH   2   9
BRANCH   4  11
ATOM     11  O   UNL     1     -14.357  45.966  25.884  1.00  0.00    -0.508 OA
ATOM     12  H   UNL     1     -13.963  45.615  26.750  1.00  0.00     0.293 HD
ENDBRANCH   4  11
TORSDOF 3
ENDMDL
MODEL 4
REMARK VINA RESULT:    -4.752      1.463      2.192
REMARK INTER + INTRA:          -5.405
REMARK INTER:                  -5.325
REMARK INTRA:                  -0.081
REMARK UNBOUND:                -0.098
REMARK SMILES CCc1ccc(O)cc1O
REMARK SMILES IDX 3 1 9 2 8 3 6 4 5 5 4 6 2 7 1 8 10 9 7 11
REMARK H PARENT 10 10 7 12
REMARK Flexibility Score: inf
ROOT
ATOM      1  C   UNL     1     -12.753  44.767  21.983  1.00  0.00    -0.006 A 
ATOM      2  C   UNL     1     -13.754  43.795  21.788  1.00  0.00     0.122 A 
ATOM      3  C   UNL     1     -14.744  43.606  22.764  1.00  0.00     0.092 A 
ATOM      4  C   UNL     1     -14.737  44.368  23.936  1.00  0.00     0.119 A 
ATOM      5  C   UNL     1     -13.734  45.324  24.138  1.00  0.00     0.047 A 
ATOM      6  C   UNL     1     -12.745  45.518  23.170  1.00  0.00     0.011 A 
ENDROOT
BRANCH   1   7
ATOM      7  C   UNL     1     -11.659  44.970  20.964  1.00  0.00     0.036 C 
ATOM      8  C   UNL     1     -10.516  43.987  21.194  1.00  0.00     0.009 C 
ENDBRANCH   1   7
BRANCH   2   9
ATOM      9  O   UNL     1     -13.762  43.019  20.628  1.00  0.00    -0.508 OA
ATOM     10  H   UNL     1     -14.343  42.192  20.547  1.00  0.00     0.293 HD
ENDBRANCH   2   9
BRANCH   4  11
ATOM     11  O   UNL     1     -15.728  44.165  24.893  1.00  0.00    -0.508 OA
ATOM     12  H   UNL     1     -15.846  43.268  25.351  1.00  0.00     0.293 HD
ENDBRANCH   4  11
TORSDOF 3
ENDMDL
MODEL 5
REMARK VINA RESULT:    -4.662      1.512      2.882
REMARK INTER + INTRA:          -5.305
REMARK INTER:                  -5.219
REMARK INTRA:                  -0.086
REMARK UNBOUND:                -0.098
REMARK SMILES CCc1ccc(O)cc1O
REMARK SMILES IDX 3 1 9 2 8 3 6 4 5 5 4 6 2 7 1 8 10 9 7 11
REMARK H PARENT 10 10 7 12
REMARK Flexibility Score: inf
ROOT
ATOM      1  C   UNL     1     -13.632  44.449  22.848  1.00  0.00    -0.006 A 
ATOM      2  C   UNL     1     -14.717  44.194  23.710  1.00  0.00     0.122 A 
ATOM      3  C   UNL     1     -14.897  44.979  24.859  1.00  0.00     0.092 A 
ATOM      4  C   UNL     1     -13.999  46.007  25.161  1.00  0.00     0.119 A 
ATOM      5  C   UNL     1     -12.912  46.252  24.314  1.00  0.00     0.047 A 
ATOM      6  C   UNL     1     -12.727  45.475  23.167  1.00  0.00     0.011 A 
ENDROOT
BRANCH   1   7
ATOM      7  C   UNL     1     -13.398  43.602  21.623  1.00  0.00     0.036 C 
ATOM      8  C   UNL     1     -11.961  43.744  21.133  1.00  0.00     0.009 C 
ENDBRANCH   1   7
BRANCH   2   9
ATOM      9  O   UNL     1     -15.612  43.162  23.425  1.00  0.00    -0.508 OA
ATOM     10  H   UNL     1     -16.542  43.138  23.828  1.00  0.00     0.293 HD
ENDBRANCH   2   9
BRANCH   4  11
ATOM     11  O   UNL     1     -14.194  46.774  26.307  1.00  0.00    -0.508 OA
ATOM     12  H   UNL     1     -14.916  47.485  26.351  1.00  0.00     0.293 HD
ENDBRANCH   4  11
TORSDOF 3
ENDMDL
MODEL 6
REMARK VINA RESULT:    -4.626      2.177      4.205
REMARK INTER + INTRA:          -5.264
REMARK INTER:                  -5.179
REMARK INTRA:                  -0.086
REMARK UNBOUND:                -0.098
REMARK SMILES CCc1ccc(O)cc1O
REMARK SMILES IDX 3 1 9 2 8 3 6 4 5 5 4 6 2 7 1 8 10 9 7 11
REMARK H PARENT 10 10 7 12
REMARK Flexibility Score: inf
ROOT
ATOM      1  C   UNL     1     -14.752  45.192  25.100  1.00  0.00    -0.006 A 
ATOM      2  C   UNL     1     -13.742  46.173  25.148  1.00  0.00     0.122 A 
ATOM      3  C   UNL     1     -12.822  46.279  24.094  1.00  0.00     0.092 A 
ATOM      4  C   UNL     1     -12.893  45.410  23.001  1.00  0.00     0.119 A 
ATOM      5  C   UNL     1     -13.888  44.425  22.960  1.00  0.00     0.047 A 
ATOM      6  C   UNL     1     -14.808  44.314  24.006  1.00  0.00     0.011 A 
ENDROOT
BRANCH   1   7
ATOM      7  C   UNL     1     -15.736  45.036  26.234  1.00  0.00     0.036 C 
ATOM      8  C   UNL     1     -16.513  43.731  26.099  1.00  0.00     0.009 C 
ENDBRANCH   1   7
BRANCH   2   9
ATOM      9  O   UNL     1     -13.653  47.037  26.239  1.00  0.00    -0.508 OA
ATOM     10  H   UNL     1     -14.164  46.864  27.097  1.00  0.00     0.293 HD
ENDBRANCH   2   9
BRANCH   4  11
ATOM     11  O   UNL     1     -11.971  45.531  21.965  1.00  0.00    -0.508 OA
ATOM     12  H   UNL     1     -11.116  44.986  21.951  1.00  0.00     0.293 HD
ENDBRANCH   4  11
TORSDOF 3
ENDMDL
MODEL 7
REMARK VINA RESULT:    -4.601     19.443     20.629
REMARK INTER + INTRA:          -5.236
REMARK INTER:                  -5.129
REMARK INTRA:                  -0.107
REMARK UNBOUND:                -0.098
REMARK SMILES CCc1ccc(O)cc1O
REMARK SMILES IDX 3 1 9 2 8 3 6 4 5 5 4 6 2 7 1 8 10 9 7 11
REMARK H PARENT 10 10 7 12
REMARK Flexibility Score: inf
ROOT
ATOM      1  C   UNL     1     -23.222  61.351  28.406  1.00  0.00    -0.006 A 
ATOM      2  C   UNL     1     -23.802  60.067  28.429  1.00  0.00     0.122 A 
ATOM      3  C   UNL     1     -24.941  59.828  29.212  1.00  0.00     0.092 A 
ATOM      4  C   UNL     1     -25.500  60.854  29.981  1.00  0.00     0.119 A 
ATOM      5  C   UNL     1     -24.916  62.127  29.971  1.00  0.00     0.047 A 
ATOM      6  C   UNL     1     -23.781  62.372  29.192  1.00  0.00     0.011 A 
ENDROOT
BRANCH   1   7
ATOM      7  C   UNL     1     -21.980  61.627  27.597  1.00  0.00     0.036 C 
ATOM      8  C   UNL     1     -20.742  61.625  28.489  1.00  0.00     0.009 C 
ENDBRANCH   1   7
BRANCH   2   9
ATOM      9  O   UNL     1     -23.245  59.032  27.677  1.00  0.00    -0.508 OA
ATOM     10  H   UNL     1     -23.611  58.088  27.719  1.00  0.00     0.293 HD
ENDBRANCH   2   9
BRANCH   4  11
ATOM     11  O   UNL     1     -26.630  60.597  30.751  1.00  0.00    -0.508 OA
ATOM     12  H   UNL     1     -26.561  60.155  31.662  1.00  0.00     0.293 HD
ENDBRANCH   4  11
TORSDOF 3
ENDMDL
MODEL 8
REMARK VINA RESULT:    -4.515     22.400     24.001
REMARK INTER + INTRA:          -5.140
REMARK INTER:                  -5.040
REMARK INTRA:                  -0.100
REMARK UNBOUND:                -0.098
REMARK SMILES CCc1ccc(O)cc1O
REMARK SMILES IDX 3 1 9 2 8 3 6 4 5 5 4 6 2 7 1 8 10 9 7 11
REMARK H PARENT 10 10 7 12
REMARK Flexibility Score: inf
ROOT
ATOM      1  C   UNL     1     -26.724  61.147  33.872  1.00  0.00    -0.006 A 
ATOM      2  C   UNL     1     -26.903  61.770  32.621  1.00  0.00     0.122 A 
ATOM      3  C   UNL     1     -25.846  61.798  31.698  1.00  0.00     0.092 A 
ATOM      4  C   UNL     1     -24.613  61.222  32.016  1.00  0.00     0.119 A 
ATOM      5  C   UNL     1     -24.429  60.616  33.264  1.00  0.00     0.047 A 
ATOM      6  C   UNL     1     -25.477  60.583  34.189  1.00  0.00     0.011 A 
ENDROOT
BRANCH   1   7
ATOM      7  C   UNL     1     -27.833  61.128  34.895  1.00  0.00     0.036 C 
ATOM      8  C   UNL     1     -27.758  62.357  35.796  1.00  0.00     0.009 C 
ENDBRANCH   1   7
BRANCH   2   9
ATOM      9  O   UNL     1     -28.125  62.360  32.299  1.00  0.00    -0.508 OA
ATOM     10  H   UNL     1     -28.632  62.107  31.458  1.00  0.00     0.293 HD
ENDBRANCH   2   9
BRANCH   4  11
ATOM     11  O   UNL     1     -23.577  61.261  31.086  1.00  0.00    -0.508 OA
ATOM     12  H   UNL     1     -22.797  61.901  31.189  1.00  0.00     0.293 HD
ENDBRANCH   4  11
TORSDOF 3
ENDMDL
MODEL 9
REMARK VINA RESULT:    -4.497     21.560     23.129
REMARK INTER + INTRA:          -5.121
REMARK INTER:                  -5.068
REMARK INTRA:                  -0.053
REMARK UNBOUND:                -0.098
REMARK SMILES CCc1ccc(O)cc1O
REMARK SMILES IDX 3 1 9 2 8 3 6 4 5 5 4 6 2 7 1 8 10 9 7 11
REMARK H PARENT 10 10 7 12
REMARK Flexibility Score: inf
ROOT
ATOM      1  C   UNL     1     -26.530  61.683  32.135  1.00  0.00    -0.006 A 
ATOM      2  C   UNL     1     -26.556  60.408  31.536  1.00  0.00     0.122 A 
ATOM      3  C   UNL     1     -25.842  60.179  30.349  1.00  0.00     0.092 A 
ATOM      4  C   UNL     1     -25.114  61.211  29.751  1.00  0.00     0.119 A 
ATOM      5  C   UNL     1     -25.099  62.482  30.338  1.00  0.00     0.047 A 
ATOM      6  C   UNL     1     -25.807  62.718  31.519  1.00  0.00     0.011 A 
ENDROOT
BRANCH   1   7
ATOM      7  C   UNL     1     -27.312  61.965  33.393  1.00  0.00     0.036 C 
ATOM      8  C   UNL     1     -26.543  61.498  34.624  1.00  0.00     0.009 C 
ENDBRANCH   1   7
BRANCH   2   9
ATOM      9  O   UNL     1     -27.291  59.374  32.117  1.00  0.00    -0.508 OA
ATOM     10  H   UNL     1     -28.228  59.148  31.804  1.00  0.00     0.293 HD
ENDBRANCH   2   9
BRANCH   4  11
ATOM     11  O   UNL     1     -24.412  60.964  28.574  1.00  0.00    -0.508 OA
ATOM     12  H   UNL     1     -24.329  60.027  28.194  1.00  0.00     0.293 HD
ENDBRANCH   4  11
TORSDOF 3
ENDMDL
