MODEL 1
REMARK VINA RESULT:    -5.095      0.000      0.000
REMARK INTER + INTRA:          -8.512
REMARK INTER:                  -7.329
REMARK INTRA:                  -1.184
REMARK UNBOUND:                -1.184
REMARK SMILES O=c1c(O[C@@H]2O[C@@H](CO)[C@H](O)[C@@H](O)[C@H]2O)c(-c2ccc(O)cc2)oc2cc(O)cc(O)c12
REMARK SMILES IDX 4 1 3 2 16 3 24 4 2 5 25 6 1 7 32 8 26 9 30 10 27 11 29 12
REMARK SMILES IDX 17 13 18 14 19 15 20 16 23 17 22 18 21 19 31 21 28 23 5 25
REMARK SMILES IDX 14 26 6 27 12 28 7 29 10 30 15 31 13 33 8 35 9 36 11 38
REMARK H PARENT 21 20 31 22 28 24 15 32 13 34 9 37 11 39
REMARK Flexibility Score: inf
ROOT
ATOM      1  O   UNL     1      14.707  -6.765   7.808  1.00  0.00    -0.454 OA
ENDROOT
BRANCH   1   2
ATOM      2  C   UNL     1      14.366  -6.361   9.105  1.00  0.00     0.214 A 
ATOM      3  C   UNL     1      13.254  -5.529   9.356  1.00  0.00     0.180 A 
ATOM      4  O   UNL     1      13.015  -5.108  10.595  1.00  0.00    -0.452 OA
ATOM      5  C   UNL     1      15.149  -6.788  10.182  1.00  0.00     0.239 A 
ATOM      6  C   UNL     1      13.751  -5.462  11.642  1.00  0.00     0.146 A 
ATOM      7  O   UNL     1      16.119  -7.565   9.967  1.00  0.00    -0.285 OA
ATOM      8  C   UNL     1      14.854  -6.335  11.484  1.00  0.00     0.111 A 
ATOM      9  C   UNL     1      13.419  -4.969  12.907  1.00  0.00     0.094 A 
ATOM     10  C   UNL     1      15.611  -6.702  12.621  1.00  0.00     0.134 A 
ATOM     11  C   UNL     1      14.171  -5.335  14.028  1.00  0.00     0.123 A 
ATOM     12  C   UNL     1      15.259  -6.199  13.883  1.00  0.00     0.093 A 
BRANCH   3  13
ATOM     13  C   UNL     1      12.321  -5.109   8.286  1.00  0.00     0.021 A 
ATOM     14  C   UNL     1      12.241  -3.753   7.930  1.00  0.00     0.016 A 
ATOM     15  C   UNL     1      11.361  -3.335   6.927  1.00  0.00     0.047 A 
ATOM     16  C   UNL     1      10.540  -4.264   6.280  1.00  0.00     0.115 A 
ATOM     17  C   UNL     1      11.477  -6.035   7.646  1.00  0.00     0.016 A 
ATOM     18  C   UNL     1      10.600  -5.615   6.643  1.00  0.00     0.047 A 
BRANCH  16  19
ATOM     19  O   UNL     1       9.669  -3.834   5.280  1.00  0.00    -0.508 OA
ATOM     20  H   UNL     1       9.767  -4.149   4.323  1.00  0.00     0.293 HD
ENDBRANCH  16  19
ENDBRANCH   3  13
BRANCH  10  21
ATOM     21  O   UNL     1      16.706  -7.560  12.510  1.00  0.00    -0.507 OA
ATOM     22  H   UNL     1      16.608  -8.565  12.596  1.00  0.00     0.293 HD
ENDBRANCH  10  21
BRANCH  11  23
ATOM     23  O   UNL     1      13.843  -4.850  15.292  1.00  0.00    -0.508 OA
ATOM     24  H   UNL     1      13.456  -5.454  16.009  1.00  0.00     0.293 HD
ENDBRANCH  11  23
ENDBRANCH   1   2
BRANCH   1  25
ATOM     25  C   UNL     1      15.101  -5.841   6.787  1.00  0.00     0.339 C 
ATOM     26  C   UNL     1      16.502  -5.268   7.067  1.00  0.00     0.214 C 
ATOM     27  O   UNL     1      15.042  -6.451   5.507  1.00  0.00    -0.332 OA
ATOM     28  C   UNL     1      17.559  -6.377   6.937  1.00  0.00     0.180 C 
ATOM     29  C   UNL     1      15.917  -7.564   5.411  1.00  0.00     0.179 C 
ATOM     30  C   UNL     1      17.392  -7.116   5.593  1.00  0.00     0.177 C 
BRANCH  26  31
ATOM     31  O   UNL     1      16.761  -4.232   6.152  1.00  0.00    -0.384 OA
ATOM     32  H   UNL     1      15.881  -3.883   5.851  1.00  0.00     0.211 HD
ENDBRANCH  26  31
BRANCH  28  33
ATOM     33  O   UNL     1      18.845  -5.819   7.031  1.00  0.00    -0.387 OA
ATOM     34  H   UNL     1      19.427  -6.328   6.410  1.00  0.00     0.211 HD
ENDBRANCH  28  33
BRANCH  29  35
ATOM     35  C   UNL     1      15.698  -8.217   4.039  1.00  0.00     0.191 C 
BRANCH  35  36
ATOM     36  O   UNL     1      16.104  -9.557   4.061  1.00  0.00    -0.394 OA
ATOM     37  H   UNL     1      15.351 -10.080   3.683  1.00  0.00     0.210 HD
ENDBRANCH  35  36
ENDBRANCH  29  35
BRANCH  30  38
ATOM     38  O   UNL     1      18.275  -8.208   5.521  1.00  0.00    -0.387 OA
ATOM     39  H   UNL     1      18.400  -8.432   4.562  1.00  0.00     0.211 HD
ENDBRANCH  30  38
ENDBRANCH   1  25
TORSDOF 11
ENDMDL
MODEL 2
REMARK VINA RESULT:    -4.976     11.198     15.234
REMARK INTER + INTRA:          -8.341
REMARK INTER:                  -6.706
REMARK INTRA:                  -1.635
REMARK UNBOUND:                -1.184
REMARK SMILES O=c1c(O[C@@H]2O[C@@H](CO)[C@H](O)[C@@H](O)[C@H]2O)c(-c2ccc(O)cc2)oc2cc(O)cc(O)c12
REMARK SMILES IDX 4 1 3 2 16 3 24 4 2 5 25 6 1 7 32 8 26 9 30 10 27 11 29 12
REMARK SMILES IDX 17 13 18 14 19 15 20 16 23 17 22 18 21 19 31 21 28 23 5 25
REMARK SMILES IDX 14 26 6 27 12 28 7 29 10 30 15 31 13 33 8 35 9 36 11 38
REMARK H PARENT 21 20 31 22 28 24 15 32 13 34 9 37 11 39
REMARK Flexibility Score: inf
ROOT
ATOM      1  O   UNL     1      17.175 -11.894  20.160  1.00  0.00    -0.454 OA
ENDROOT
BRANCH   1   2
ATOM      2  C   UNL     1      16.899 -13.231  20.477  1.00  0.00     0.214 A 
ATOM      3  C   UNL     1      17.919 -14.133  20.846  1.00  0.00     0.180 A 
ATOM      4  O   UNL     1      17.620 -15.411  21.062  1.00  0.00    -0.452 OA
ATOM      5  C   UNL     1      15.578 -13.688  20.422  1.00  0.00     0.239 A 
ATOM      6  C   UNL     1      16.386 -15.895  20.990  1.00  0.00     0.146 A 
ATOM      7  O   UNL     1      14.658 -12.876  20.133  1.00  0.00    -0.285 OA
ATOM      8  C   UNL     1      15.298 -15.046  20.676  1.00  0.00     0.111 A 
ATOM      9  C   UNL     1      16.170 -17.254  21.236  1.00  0.00     0.094 A 
ATOM     10  C   UNL     1      13.993 -15.590  20.619  1.00  0.00     0.134 A 
ATOM     11  C   UNL     1      14.878 -17.786  21.178  1.00  0.00     0.123 A 
ATOM     12  C   UNL     1      13.798 -16.956  20.873  1.00  0.00     0.093 A 
BRANCH   3  13
ATOM     13  C   UNL     1      19.328 -13.709  21.017  1.00  0.00     0.021 A 
ATOM     14  C   UNL     1      20.268 -14.010  20.018  1.00  0.00     0.016 A 
ATOM     15  C   UNL     1      21.604 -13.625  20.166  1.00  0.00     0.047 A 
ATOM     16  C   UNL     1      22.019 -12.949  21.317  1.00  0.00     0.115 A 
ATOM     17  C   UNL     1      19.755 -13.048  22.183  1.00  0.00     0.016 A 
ATOM     18  C   UNL     1      21.091 -12.663  22.326  1.00  0.00     0.047 A 
BRANCH  16  19
ATOM     19  O   UNL     1      23.354 -12.569  21.449  1.00  0.00    -0.508 OA
ATOM     20  H   UNL     1      23.619 -11.750  21.981  1.00  0.00     0.293 HD
ENDBRANCH  16  19
ENDBRANCH   3  13
BRANCH  10  21
ATOM     21  O   UNL     1      12.892 -14.789  20.312  1.00  0.00    -0.507 OA
ATOM     22  H   UNL     1      12.424 -14.232  21.017  1.00  0.00     0.293 HD
ENDBRANCH  10  21
BRANCH  11  23
ATOM     23  O   UNL     1      14.657 -19.139  21.426  1.00  0.00    -0.508 OA
ATOM     24  H   UNL     1      14.585 -19.812  20.672  1.00  0.00     0.293 HD
ENDBRANCH  11  23
ENDBRANCH   1   2
BRANCH   1  25
ATOM     25  C   UNL     1      17.565 -11.474  18.848  1.00  0.00     0.339 C 
ATOM     26  C   UNL     1      16.677 -10.323  18.345  1.00  0.00     0.214 C 
ATOM     27  O   UNL     1      18.937 -11.113  18.824  1.00  0.00    -0.332 OA
ATOM     28  C   UNL     1      16.928  -9.060  19.185  1.00  0.00     0.180 C 
ATOM     29  C   UNL     1      19.214 -10.030  19.699  1.00  0.00     0.179 C 
ATOM     30  C   UNL     1      18.439  -8.760  19.257  1.00  0.00     0.177 C 
BRANCH  26  31
ATOM     31  O   UNL     1      16.971 -10.078  16.992  1.00  0.00    -0.384 OA
ATOM     32  H   UNL     1      17.613  -9.320  16.966  1.00  0.00     0.211 HD
ENDBRANCH  26  31
BRANCH  28  33
ATOM     33  O   UNL     1      16.240  -7.971  18.622  1.00  0.00    -0.387 OA
ATOM     34  H   UNL     1      16.906  -7.249  18.485  1.00  0.00     0.211 HD
ENDBRANCH  28  33
BRANCH  29  35
ATOM     35  C   UNL     1      20.731  -9.792  19.685  1.00  0.00     0.191 C 
BRANCH  35  36
ATOM     36  O   UNL     1      21.056  -8.739  18.820  1.00  0.00    -0.394 OA
ATOM     37  H   UNL     1      21.169  -7.937  19.391  1.00  0.00     0.210 HD
ENDBRANCH  35  36
ENDBRANCH  29  35
BRANCH  30  38
ATOM     38  O   UNL     1      18.684  -7.680  20.124  1.00  0.00    -0.387 OA
ATOM     39  H   UNL     1      18.302  -6.865  19.706  1.00  0.00     0.211 HD
ENDBRANCH  30  38
ENDBRANCH   1  25
TORSDOF 11
ENDMDL
MODEL 3
REMARK VINA RESULT:    -4.955      2.435      7.513
REMARK INTER + INTRA:          -8.311
REMARK INTER:                  -6.577
REMARK INTRA:                  -1.734
REMARK UNBOUND:                -1.184
REMARK SMILES O=c1c(O[C@@H]2O[C@@H](CO)[C@H](O)[C@@H](O)[C@H]2O)c(-c2ccc(O)cc2)oc2cc(O)cc(O)c12
REMARK SMILES IDX 4 1 3 2 16 3 24 4 2 5 25 6 1 7 32 8 26 9 30 10 27 11 29 12
REMARK SMILES IDX 17 13 18 14 19 15 20 16 23 17 22 18 21 19 31 21 28 23 5 25
REMARK SMILES IDX 14 26 6 27 12 28 7 29 10 30 15 31 13 33 8 35 9 36 11 38
REMARK H PARENT 21 20 31 22 28 24 15 32 13 34 9 37 11 39
REMARK Flexibility Score: inf
ROOT
ATOM      1  O   UNL     1      13.083  -7.395   8.676  1.00  0.00    -0.454 OA
ENDROOT
BRANCH   1   2
ATOM      2  C   UNL     1      14.342  -7.027   8.186  1.00  0.00     0.214 A 
ATOM      3  C   UNL     1      15.470  -6.931   9.029  1.00  0.00     0.180 A 
ATOM      4  O   UNL     1      16.628  -6.503   8.532  1.00  0.00    -0.452 OA
ATOM      5  C   UNL     1      14.489  -6.743   6.824  1.00  0.00     0.239 A 
ATOM      6  C   UNL     1      16.803  -6.191   7.254  1.00  0.00     0.146 A 
ATOM      7  O   UNL     1      13.495  -6.867   6.059  1.00  0.00    -0.285 OA
ATOM      8  C   UNL     1      15.737  -6.309   6.331  1.00  0.00     0.111 A 
ATOM      9  C   UNL     1      18.060  -5.752   6.826  1.00  0.00     0.094 A 
ATOM     10  C   UNL     1      15.960  -5.980   4.973  1.00  0.00     0.134 A 
ATOM     11  C   UNL     1      18.275  -5.428   5.482  1.00  0.00     0.123 A 
ATOM     12  C   UNL     1      17.230  -5.545   4.563  1.00  0.00     0.093 A 
BRANCH   3  13
ATOM     13  C   UNL     1      15.422  -7.303  10.461  1.00  0.00     0.021 A 
ATOM     14  C   UNL     1      15.560  -6.307  11.441  1.00  0.00     0.016 A 
ATOM     15  C   UNL     1      15.526  -6.640  12.799  1.00  0.00     0.047 A 
ATOM     16  C   UNL     1      15.367  -7.971  13.193  1.00  0.00     0.115 A 
ATOM     17  C   UNL     1      15.284  -8.644  10.864  1.00  0.00     0.016 A 
ATOM     18  C   UNL     1      15.248  -8.973  12.221  1.00  0.00     0.047 A 
BRANCH  16  19
ATOM     19  O   UNL     1      15.331  -8.288  14.549  1.00  0.00    -0.508 OA
ATOM     20  H   UNL     1      15.972  -8.961  14.952  1.00  0.00     0.293 HD
ENDBRANCH  16  19
ENDBRANCH   3  13
BRANCH  10  21
ATOM     21  O   UNL     1      14.936  -6.081   4.031  1.00  0.00    -0.507 OA
ATOM     22  H   UNL     1      15.128  -6.246   3.050  1.00  0.00     0.293 HD
ENDBRANCH  10  21
BRANCH  11  23
ATOM     23  O   UNL     1      19.525  -4.994   5.049  1.00  0.00    -0.508 OA
ATOM     24  H   UNL     1      20.087  -4.357   5.604  1.00  0.00     0.293 HD
ENDBRANCH  11  23
ENDBRANCH   1   2
BRANCH   1  25
ATOM     25  C   UNL     1      12.093  -6.435   9.064  1.00  0.00     0.339 C 
ATOM     26  C   UNL     1      10.707  -6.811   8.510  1.00  0.00     0.214 C 
ATOM     27  O   UNL     1      12.060  -6.290  10.475  1.00  0.00    -0.332 OA
ATOM     28  C   UNL     1      10.203  -8.098   9.184  1.00  0.00     0.180 C 
ATOM     29  C   UNL     1      11.726  -7.507  11.124  1.00  0.00     0.179 C 
ATOM     30  C   UNL     1      10.300  -7.969  10.718  1.00  0.00     0.177 C 
BRANCH  26  31
ATOM     31  O   UNL     1       9.817  -5.750   8.751  1.00  0.00    -0.384 OA
ATOM     32  H   UNL     1       9.783  -5.204   7.922  1.00  0.00     0.211 HD
ENDBRANCH  26  31
BRANCH  28  33
ATOM     33  O   UNL     1       8.875  -8.346   8.798  1.00  0.00    -0.387 OA
ATOM     34  H   UNL     1       8.508  -7.489   8.458  1.00  0.00     0.211 HD
ENDBRANCH  28  33
BRANCH  29  35
ATOM     35  C   UNL     1      11.826  -7.274  12.638  1.00  0.00     0.191 C 
BRANCH  35  36
ATOM     36  O   UNL     1      11.889  -8.496  13.321  1.00  0.00    -0.394 OA
ATOM     37  H   UNL     1      12.133  -8.277  14.257  1.00  0.00     0.210 HD
ENDBRANCH  35  36
ENDBRANCH  29  35
BRANCH  30  38
ATOM     38  O   UNL     1       9.958  -9.185  11.335  1.00  0.00    -0.387 OA
ATOM     39  H   UNL     1       9.185  -9.566  10.842  1.00  0.00     0.211 HD
ENDBRANCH  30  38
ENDBRANCH   1  25
TORSDOF 11
ENDMDL
MODEL 4
REMARK VINA RESULT:    -4.880     10.907     15.091
REMARK INTER + INTRA:          -8.204
REMARK INTER:                  -6.631
REMARK INTRA:                  -1.573
REMARK UNBOUND:                -1.184
REMARK SMILES O=c1c(O[C@@H]2O[C@@H](CO)[C@H](O)[C@@H](O)[C@H]2O)c(-c2ccc(O)cc2)oc2cc(O)cc(O)c12
REMARK SMILES IDX 4 1 3 2 16 3 24 4 2 5 25 6 1 7 32 8 26 9 30 10 27 11 29 12
REMARK SMILES IDX 17 13 18 14 19 15 20 16 23 17 22 18 21 19 31 21 28 23 5 25
REMARK SMILES IDX 14 26 6 27 12 28 7 29 10 30 15 31 13 33 8 35 9 36 11 38
REMARK H PARENT 21 20 31 22 28 24 15 32 13 34 9 37 11 39
REMARK Flexibility Score: inf
ROOT
ATOM      1  O   UNL     1      19.402 -12.514  20.839  1.00  0.00    -0.454 OA
ENDROOT
BRANCH   1   2
ATOM      2  C   UNL     1      18.388 -13.480  20.879  1.00  0.00     0.214 A 
ATOM      3  C   UNL     1      17.096 -13.224  20.371  1.00  0.00     0.180 A 
ATOM      4  O   UNL     1      16.144 -14.144  20.501  1.00  0.00    -0.452 OA
ATOM      5  C   UNL     1      18.659 -14.732  21.441  1.00  0.00     0.239 A 
ATOM      6  C   UNL     1      16.349 -15.332  21.058  1.00  0.00     0.146 A 
ATOM      7  O   UNL     1      19.822 -14.980  21.859  1.00  0.00    -0.285 OA
ATOM      8  C   UNL     1      17.628 -15.688  21.546  1.00  0.00     0.111 A 
ATOM      9  C   UNL     1      15.284 -16.235  21.147  1.00  0.00     0.094 A 
ATOM     10  C   UNL     1      17.815 -16.967  22.122  1.00  0.00     0.134 A 
ATOM     11  C   UNL     1      15.475 -17.497  21.718  1.00  0.00     0.123 A 
ATOM     12  C   UNL     1      16.735 -17.859  22.199  1.00  0.00     0.093 A 
BRANCH   3  13
ATOM     13  C   UNL     1      16.754 -11.961  19.678  1.00  0.00     0.021 A 
ATOM     14  C   UNL     1      17.376 -11.649  18.459  1.00  0.00     0.016 A 
ATOM     15  C   UNL     1      17.071 -10.458  17.793  1.00  0.00     0.047 A 
ATOM     16  C   UNL     1      16.153  -9.559  18.344  1.00  0.00     0.115 A 
ATOM     17  C   UNL     1      15.847 -11.042  20.239  1.00  0.00     0.016 A 
ATOM     18  C   UNL     1      15.544  -9.853  19.570  1.00  0.00     0.047 A 
BRANCH  16  19
ATOM     19  O   UNL     1      15.857  -8.376  17.669  1.00  0.00    -0.508 OA
ATOM     20  H   UNL     1      16.552  -7.900  17.107  1.00  0.00     0.293 HD
ENDBRANCH  16  19
ENDBRANCH   3  13
BRANCH  10  21
ATOM     21  O   UNL     1      19.060 -17.358  22.616  1.00  0.00    -0.507 OA
ATOM     22  H   UNL     1      19.241 -18.309  22.916  1.00  0.00     0.293 HD
ENDBRANCH  10  21
BRANCH  11  23
ATOM     23  O   UNL     1      14.419 -18.402  21.807  1.00  0.00    -0.508 OA
ATOM     24  H   UNL     1      14.139 -18.969  21.015  1.00  0.00     0.293 HD
ENDBRANCH  11  23
ENDBRANCH   1   2
BRANCH   1  25
ATOM     25  C   UNL     1      19.662 -11.618  21.925  1.00  0.00     0.339 C 
ATOM     26  C   UNL     1      21.165 -11.553  22.245  1.00  0.00     0.214 C 
ATOM     27  O   UNL     1      19.138 -10.329  21.649  1.00  0.00    -0.332 OA
ATOM     28  C   UNL     1      21.922 -10.890  21.082  1.00  0.00     0.180 C 
ATOM     29  C   UNL     1      19.731  -9.754  20.495  1.00  0.00     0.179 C 
ATOM     30  C   UNL     1      21.255  -9.550  20.709  1.00  0.00     0.177 C 
BRANCH  26  31
ATOM     31  O   UNL     1      21.348 -10.818  23.430  1.00  0.00    -0.384 OA
ATOM     32  H   UNL     1      20.444 -10.571  23.761  1.00  0.00     0.211 HD
ENDBRANCH  26  31
BRANCH  28  33
ATOM     33  O   UNL     1      23.263 -10.684  21.445  1.00  0.00    -0.387 OA
ATOM     34  H   UNL     1      23.261 -10.325  22.370  1.00  0.00     0.211 HD
ENDBRANCH  28  33
BRANCH  29  35
ATOM     35  C   UNL     1      19.024  -8.420  20.219  1.00  0.00     0.191 C 
BRANCH  35  36
ATOM     36  O   UNL     1      19.738  -7.356  20.785  1.00  0.00    -0.394 OA
ATOM     37  H   UNL     1      20.553  -7.245  20.232  1.00  0.00     0.210 HD
ENDBRANCH  35  36
ENDBRANCH  29  35
BRANCH  30  38
ATOM     38  O   UNL     1      21.866  -8.999  19.568  1.00  0.00    -0.387 OA
ATOM     39  H   UNL     1      22.818  -8.825  19.790  1.00  0.00     0.211 HD
ENDBRANCH  30  38
ENDBRANCH   1  25
TORSDOF 11
ENDMDL
MODEL 5
REMARK VINA RESULT:    -4.871      4.096      7.225
REMARK INTER + INTRA:          -8.191
REMARK INTER:                  -6.486
REMARK INTRA:                  -1.705
REMARK UNBOUND:                -1.184
REMARK SMILES O=c1c(O[C@@H]2O[C@@H](CO)[C@H](O)[C@@H](O)[C@H]2O)c(-c2ccc(O)cc2)oc2cc(O)cc(O)c12
REMARK SMILES IDX 4 1 3 2 16 3 24 4 2 5 25 6 1 7 32 8 26 9 30 10 27 11 29 12
REMARK SMILES IDX 17 13 18 14 19 15 20 16 23 17 22 18 21 19 31 21 28 23 5 25
REMARK SMILES IDX 14 26 6 27 12 28 7 29 10 30 15 31 13 33 8 35 9 36 11 38
REMARK H PARENT 21 20 31 22 28 24 15 32 13 34 9 37 11 39
REMARK Flexibility Score: inf
ROOT
ATOM      1  O   UNL     1      14.120  -8.684   9.855  1.00  0.00    -0.454 OA
ENDROOT
BRANCH   1   2
ATOM      2  C   UNL     1      14.355  -9.974  10.348  1.00  0.00     0.214 A 
ATOM      3  C   UNL     1      14.504 -10.226  11.728  1.00  0.00     0.180 A 
ATOM      4  O   UNL     1      14.803 -11.454  12.144  1.00  0.00    -0.452 OA
ATOM      5  C   UNL     1      14.450 -11.042   9.450  1.00  0.00     0.239 A 
ATOM      6  C   UNL     1      14.935 -12.491  11.324  1.00  0.00     0.146 A 
ATOM      7  O   UNL     1      14.277 -10.828   8.220  1.00  0.00    -0.285 OA
ATOM      8  C   UNL     1      14.751 -12.333   9.930  1.00  0.00     0.111 A 
ATOM      9  C   UNL     1      15.249 -13.745  11.856  1.00  0.00     0.094 A 
ATOM     10  C   UNL     1      14.886 -13.460   9.085  1.00  0.00     0.134 A 
ATOM     11  C   UNL     1      15.382 -14.855  11.016  1.00  0.00     0.123 A 
ATOM     12  C   UNL     1      15.199 -14.711   9.639  1.00  0.00     0.093 A 
BRANCH   3  13
ATOM     13  C   UNL     1      14.327  -9.170  12.751  1.00  0.00     0.021 A 
ATOM     14  C   UNL     1      13.037  -8.697  13.041  1.00  0.00     0.016 A 
ATOM     15  C   UNL     1      12.850  -7.694  13.998  1.00  0.00     0.047 A 
ATOM     16  C   UNL     1      13.949  -7.144  14.664  1.00  0.00     0.115 A 
ATOM     17  C   UNL     1      15.431  -8.597  13.409  1.00  0.00     0.016 A 
ATOM     18  C   UNL     1      15.240  -7.597  14.366  1.00  0.00     0.047 A 
BRANCH  16  19
ATOM     19  O   UNL     1      13.747  -6.147  15.617  1.00  0.00    -0.508 OA
ATOM     20  H   UNL     1      14.516  -5.591  15.971  1.00  0.00     0.293 HD
ENDBRANCH  16  19
ENDBRANCH   3  13
BRANCH  10  21
ATOM     21  O   UNL     1      14.715 -13.349   7.704  1.00  0.00    -0.507 OA
ATOM     22  H   UNL     1      13.795 -13.360   7.278  1.00  0.00     0.293 HD
ENDBRANCH  10  21
BRANCH  11  23
ATOM     23  O   UNL     1      15.692 -16.108  11.540  1.00  0.00    -0.508 OA
ATOM     24  H   UNL     1      16.616 -16.512  11.439  1.00  0.00     0.293 HD
ENDBRANCH  11  23
ENDBRANCH   1   2
BRANCH   1  25
ATOM     25  C   UNL     1      15.176  -7.756   9.578  1.00  0.00     0.339 C 
ATOM     26  C   UNL     1      15.052  -7.180   8.157  1.00  0.00     0.214 C 
ATOM     27  O   UNL     1      15.204  -6.723  10.551  1.00  0.00    -0.332 OA
ATOM     28  C   UNL     1      13.799  -6.295   8.056  1.00  0.00     0.180 C 
ATOM     29  C   UNL     1      13.997  -5.977  10.564  1.00  0.00     0.179 C 
ATOM     30  C   UNL     1      13.782  -5.264   9.202  1.00  0.00     0.177 C 
BRANCH  26  31
ATOM     31  O   UNL     1      16.206  -6.431   7.867  1.00  0.00    -0.384 OA
ATOM     32  H   UNL     1      15.910  -5.622   7.371  1.00  0.00     0.211 HD
ENDBRANCH  26  31
BRANCH  28  33
ATOM     33  O   UNL     1      13.778  -5.643   6.812  1.00  0.00    -0.387 OA
ATOM     34  H   UNL     1      13.012  -6.016   6.303  1.00  0.00     0.211 HD
ENDBRANCH  28  33
BRANCH  29  35
ATOM     35  C   UNL     1      14.083  -4.966  11.716  1.00  0.00     0.191 C 
BRANCH  35  36
ATOM     36  O   UNL     1      12.802  -4.625  12.169  1.00  0.00    -0.394 OA
ATOM     37  H   UNL     1      12.933  -3.960  12.893  1.00  0.00     0.210 HD
ENDBRANCH  35  36
ENDBRANCH  29  35
BRANCH  30  38
ATOM     38  O   UNL     1      12.579  -4.534   9.188  1.00  0.00    -0.387 OA
ATOM     39  H   UNL     1      11.880  -5.098   9.611  1.00  0.00     0.211 HD
ENDBRANCH  30  38
ENDBRANCH   1  25
TORSDOF 11
ENDMDL
MODEL 6
REMARK VINA RESULT:    -4.822     13.436     16.305
REMARK INTER + INTRA:          -8.120
REMARK INTER:                  -7.063
REMARK INTRA:                  -1.057
REMARK UNBOUND:                -1.184
REMARK SMILES O=c1c(O[C@@H]2O[C@@H](CO)[C@H](O)[C@@H](O)[C@H]2O)c(-c2ccc(O)cc2)oc2cc(O)cc(O)c12
REMARK SMILES IDX 4 1 3 2 16 3 24 4 2 5 25 6 1 7 32 8 26 9 30 10 27 11 29 12
REMARK SMILES IDX 17 13 18 14 19 15 20 16 23 17 22 18 21 19 31 21 28 23 5 25
REMARK SMILES IDX 14 26 6 27 12 28 7 29 10 30 15 31 13 33 8 35 9 36 11 38
REMARK H PARENT 21 20 31 22 28 24 15 32 13 34 9 37 11 39
REMARK Flexibility Score: inf
ROOT
ATOM      1  O   UNL     1      25.930 -10.196  18.579  1.00  0.00    -0.454 OA
ENDROOT
BRANCH   1   2
ATOM      2  C   UNL     1      25.526 -11.528  18.417  1.00  0.00     0.214 A 
ATOM      3  C   UNL     1      25.519 -12.153  17.152  1.00  0.00     0.180 A 
ATOM      4  O   UNL     1      25.053 -13.394  17.035  1.00  0.00    -0.452 OA
ATOM      5  C   UNL     1      25.113 -12.258  19.536  1.00  0.00     0.239 A 
ATOM      6  C   UNL     1      24.621 -14.112  18.065  1.00  0.00     0.146 A 
ATOM      7  O   UNL     1      25.156 -11.716  20.674  1.00  0.00    -0.285 OA
ATOM      8  C   UNL     1      24.642 -13.577  19.374  1.00  0.00     0.111 A 
ATOM      9  C   UNL     1      24.151 -15.410  17.842  1.00  0.00     0.094 A 
ATOM     10  C   UNL     1      24.186 -14.372  20.452  1.00  0.00     0.134 A 
ATOM     11  C   UNL     1      23.701 -16.192  18.911  1.00  0.00     0.123 A 
ATOM     12  C   UNL     1      23.721 -15.674  20.207  1.00  0.00     0.093 A 
BRANCH   3  13
ATOM     13  C   UNL     1      26.027 -11.483  15.934  1.00  0.00     0.021 A 
ATOM     14  C   UNL     1      25.159 -10.689  15.167  1.00  0.00     0.016 A 
ATOM     15  C   UNL     1      25.619 -10.054  14.009  1.00  0.00     0.047 A 
ATOM     16  C   UNL     1      26.944 -10.217  13.596  1.00  0.00     0.115 A 
ATOM     17  C   UNL     1      27.354 -11.661  15.501  1.00  0.00     0.016 A 
ATOM     18  C   UNL     1      27.810 -11.023  14.344  1.00  0.00     0.047 A 
BRANCH  16  19
ATOM     19  O   UNL     1      27.389  -9.576  12.441  1.00  0.00    -0.508 OA
ATOM     20  H   UNL     1      27.578 -10.091  11.590  1.00  0.00     0.293 HD
ENDBRANCH  16  19
ENDBRANCH   3  13
BRANCH  10  21
ATOM     21  O   UNL     1      24.188 -13.883  21.759  1.00  0.00    -0.507 OA
ATOM     22  H   UNL     1      23.350 -13.515  22.193  1.00  0.00     0.293 HD
ENDBRANCH  10  21
BRANCH  11  23
ATOM     23  O   UNL     1      23.235 -17.487  18.695  1.00  0.00    -0.508 OA
ATOM     24  H   UNL     1      22.503 -17.890  19.269  1.00  0.00     0.293 HD
ENDBRANCH  11  23
ENDBRANCH   1   2
BRANCH   1  25
ATOM     25  C   UNL     1      25.197  -9.092  18.036  1.00  0.00     0.339 C 
ATOM     26  C   UNL     1      23.846  -8.916  18.750  1.00  0.00     0.214 C 
ATOM     27  O   UNL     1      25.968  -7.902  18.091  1.00  0.00    -0.332 OA
ATOM     28  C   UNL     1      24.075  -8.477  20.205  1.00  0.00     0.180 C 
ATOM     29  C   UNL     1      26.304  -7.552  19.425  1.00  0.00     0.179 C 
ATOM     30  C   UNL     1      25.023  -7.261  20.252  1.00  0.00     0.177 C 
BRANCH  26  31
ATOM     31  O   UNL     1      23.088  -7.953  18.060  1.00  0.00    -0.384 OA
ATOM     32  H   UNL     1      23.435  -7.922  17.130  1.00  0.00     0.211 HD
ENDBRANCH  26  31
BRANCH  28  33
ATOM     33  O   UNL     1      22.844  -8.159  20.804  1.00  0.00    -0.387 OA
ATOM     34  H   UNL     1      22.526  -7.318  20.384  1.00  0.00     0.211 HD
ENDBRANCH  28  33
BRANCH  29  35
ATOM     35  C   UNL     1      27.224  -6.325  19.371  1.00  0.00     0.191 C 
BRANCH  35  36
ATOM     36  O   UNL     1      26.473  -5.143  19.435  1.00  0.00    -0.394 OA
ATOM     37  H   UNL     1      25.746  -5.242  18.768  1.00  0.00     0.210 HD
ENDBRANCH  35  36
ENDBRANCH  29  35
BRANCH  30  38
ATOM     38  O   UNL     1      25.333  -6.931  21.583  1.00  0.00    -0.387 OA
ATOM     39  H   UNL     1      26.261  -7.237  21.761  1.00  0.00     0.211 HD
ENDBRANCH  30  38
ENDBRANCH   1  25
TORSDOF 11
ENDMDL
MODEL 7
REMARK VINA RESULT:    -4.769      4.037      6.836
REMARK INTER + INTRA:          -8.044
REMARK INTER:                  -6.751
REMARK INTRA:                  -1.293
REMARK UNBOUND:                -1.184
REMARK SMILES O=c1c(O[C@@H]2O[C@@H](CO)[C@H](O)[C@@H](O)[C@H]2O)c(-c2ccc(O)cc2)oc2cc(O)cc(O)c12
REMARK SMILES IDX 4 1 3 2 16 3 24 4 2 5 25 6 1 7 32 8 26 9 30 10 27 11 29 12
REMARK SMILES IDX 17 13 18 14 19 15 20 16 23 17 22 18 21 19 31 21 28 23 5 25
REMARK SMILES IDX 14 26 6 27 12 28 7 29 10 30 15 31 13 33 8 35 9 36 11 38
REMARK H PARENT 21 20 31 22 28 24 15 32 13 34 9 37 11 39
REMARK Flexibility Score: inf
ROOT
ATOM      1  O   UNL     1      13.766  -8.634   9.714  1.00  0.00    -0.454 OA
ENDROOT
BRANCH   1   2
ATOM      2  C   UNL     1      14.156  -9.825  10.340  1.00  0.00     0.214 A 
ATOM      3  C   UNL     1      14.670  -9.840  11.655  1.00  0.00     0.180 A 
ATOM      4  O   UNL     1      15.100 -10.985  12.179  1.00  0.00    -0.452 OA
ATOM      5  C   UNL     1      14.040 -11.032   9.644  1.00  0.00     0.239 A 
ATOM      6  C   UNL     1      15.039 -12.149  11.542  1.00  0.00     0.146 A 
ATOM      7  O   UNL     1      13.545 -11.029   8.485  1.00  0.00    -0.285 OA
ATOM      8  C   UNL     1      14.491 -12.228  10.240  1.00  0.00     0.111 A 
ATOM      9  C   UNL     1      15.515 -13.299  12.177  1.00  0.00     0.094 A 
ATOM     10  C   UNL     1      14.429 -13.485   9.593  1.00  0.00     0.134 A 
ATOM     11  C   UNL     1      15.452 -14.539  11.534  1.00  0.00     0.123 A 
ATOM     12  C   UNL     1      14.910 -14.629  10.250  1.00  0.00     0.093 A 
BRANCH   3  13
ATOM     13  C   UNL     1      14.739  -8.622  12.492  1.00  0.00     0.021 A 
ATOM     14  C   UNL     1      13.638  -8.263  13.287  1.00  0.00     0.016 A 
ATOM     15  C   UNL     1      13.682  -7.112  14.079  1.00  0.00     0.047 A 
ATOM     16  C   UNL     1      14.819  -6.298  14.076  1.00  0.00     0.115 A 
ATOM     17  C   UNL     1      15.872  -7.787  12.476  1.00  0.00     0.016 A 
ATOM     18  C   UNL     1      15.913  -6.638  13.270  1.00  0.00     0.047 A 
BRANCH  16  19
ATOM     19  O   UNL     1      14.849  -5.155  14.872  1.00  0.00    -0.508 OA
ATOM     20  H   UNL     1      15.705  -4.633  15.014  1.00  0.00     0.293 HD
ENDBRANCH  16  19
ENDBRANCH   3  13
BRANCH  10  21
ATOM     21  O   UNL     1      13.898 -13.608   8.309  1.00  0.00    -0.507 OA
ATOM     22  H   UNL     1      14.163 -14.367   7.692  1.00  0.00     0.293 HD
ENDBRANCH  10  21
BRANCH  11  23
ATOM     23  O   UNL     1      15.922 -15.690  12.163  1.00  0.00    -0.508 OA
ATOM     24  H   UNL     1      15.349 -16.205  12.822  1.00  0.00     0.293 HD
ENDBRANCH  11  23
ENDBRANCH   1   2
BRANCH   1  25
ATOM     25  C   UNL     1      14.706  -7.703   9.165  1.00  0.00     0.339 C 
ATOM     26  C   UNL     1      14.871  -7.909   7.649  1.00  0.00     0.214 C 
ATOM     27  O   UNL     1      14.325  -6.370   9.464  1.00  0.00    -0.332 OA
ATOM     28  C   UNL     1      13.569  -7.533   6.923  1.00  0.00     0.180 C 
ATOM     29  C   UNL     1      13.059  -6.045   8.912  1.00  0.00     0.179 C 
ATOM     30  C   UNL     1      13.100  -6.131   7.363  1.00  0.00     0.177 C 
BRANCH  26  31
ATOM     31  O   UNL     1      15.935  -7.111   7.194  1.00  0.00    -0.384 OA
ATOM     32  H   UNL     1      15.547  -6.431   6.581  1.00  0.00     0.211 HD
ENDBRANCH  26  31
BRANCH  28  33
ATOM     33  O   UNL     1      13.775  -7.565   5.533  1.00  0.00    -0.387 OA
ATOM     34  H   UNL     1      13.271  -6.802   5.148  1.00  0.00     0.211 HD
ENDBRANCH  28  33
BRANCH  29  35
ATOM     35  C   UNL     1      12.690  -4.631   9.383  1.00  0.00     0.191 C 
BRANCH  35  36
ATOM     36  O   UNL     1      12.702  -3.735   8.306  1.00  0.00    -0.394 OA
ATOM     37  H   UNL     1      11.791  -3.348   8.259  1.00  0.00     0.210 HD
ENDBRANCH  35  36
ENDBRANCH  29  35
BRANCH  30  38
ATOM     38  O   UNL     1      11.848  -5.832   6.797  1.00  0.00    -0.387 OA
ATOM     39  H   UNL     1      11.355  -6.687   6.689  1.00  0.00     0.211 HD
ENDBRANCH  30  38
ENDBRANCH   1  25
TORSDOF 11
ENDMDL
MODEL 8
REMARK VINA RESULT:    -4.734     12.024     14.752
REMARK INTER + INTRA:          -7.993
REMARK INTER:                  -6.825
REMARK INTRA:                  -1.168
REMARK UNBOUND:                -1.184
REMARK SMILES O=c1c(O[C@@H]2O[C@@H](CO)[C@H](O)[C@@H](O)[C@H]2O)c(-c2ccc(O)cc2)oc2cc(O)cc(O)c12
REMARK SMILES IDX 4 1 3 2 16 3 24 4 2 5 25 6 1 7 32 8 26 9 30 10 27 11 29 12
REMARK SMILES IDX 17 13 18 14 19 15 20 16 23 17 22 18 21 19 31 21 28 23 5 25
REMARK SMILES IDX 14 26 6 27 12 28 7 29 10 30 15 31 13 33 8 35 9 36 11 38
REMARK H PARENT 21 20 31 22 28 24 15 32 13 34 9 37 11 39
REMARK Flexibility Score: inf
ROOT
ATOM      1  O   UNL     1      17.267 -13.324  20.576  1.00  0.00    -0.454 OA
ENDROOT
BRANCH   1   2
ATOM      2  C   UNL     1      16.088 -14.074  20.661  1.00  0.00     0.214 A 
ATOM      3  C   UNL     1      14.827 -13.462  20.827  1.00  0.00     0.180 A 
ATOM      4  O   UNL     1      13.744 -14.219  20.981  1.00  0.00    -0.452 OA
ATOM      5  C   UNL     1      16.158 -15.469  20.587  1.00  0.00     0.239 A 
ATOM      6  C   UNL     1      13.769 -15.546  20.949  1.00  0.00     0.146 A 
ATOM      7  O   UNL     1      17.277 -16.019  20.398  1.00  0.00    -0.285 OA
ATOM      8  C   UNL     1      14.985 -16.237  20.737  1.00  0.00     0.111 A 
ATOM      9  C   UNL     1      12.576 -16.255  21.119  1.00  0.00     0.094 A 
ATOM     10  C   UNL     1      14.976 -17.652  20.696  1.00  0.00     0.134 A 
ATOM     11  C   UNL     1      12.573 -17.653  21.078  1.00  0.00     0.123 A 
ATOM     12  C   UNL     1      13.768 -18.344  20.866  1.00  0.00     0.093 A 
BRANCH   3  13
ATOM     13  C   UNL     1      14.654 -11.992  20.823  1.00  0.00     0.021 A 
ATOM     14  C   UNL     1      14.116 -11.360  19.691  1.00  0.00     0.016 A 
ATOM     15  C   UNL     1      13.952  -9.971  19.666  1.00  0.00     0.047 A 
ATOM     16  C   UNL     1      14.336  -9.198  20.764  1.00  0.00     0.115 A 
ATOM     17  C   UNL     1      15.059 -11.205  21.918  1.00  0.00     0.016 A 
ATOM     18  C   UNL     1      14.892  -9.818  21.890  1.00  0.00     0.047 A 
BRANCH  16  19
ATOM     19  O   UNL     1      14.165  -7.815  20.726  1.00  0.00    -0.508 OA
ATOM     20  H   UNL     1      13.290  -7.399  20.434  1.00  0.00     0.293 HD
ENDBRANCH  16  19
ENDBRANCH   3  13
BRANCH  10  21
ATOM     21  O   UNL     1      16.154 -18.373  20.490  1.00  0.00    -0.507 OA
ATOM     22  H   UNL     1      17.040 -18.069  20.876  1.00  0.00     0.293 HD
ENDBRANCH  10  21
BRANCH  11  23
ATOM     23  O   UNL     1      11.387 -18.365  21.243  1.00  0.00    -0.508 OA
ATOM     24  H   UNL     1      11.371 -19.269  21.702  1.00  0.00     0.293 HD
ENDBRANCH  11  23
ENDBRANCH   1   2
BRANCH   1  25
ATOM     25  C   UNL     1      17.876 -12.976  19.327  1.00  0.00     0.339 C 
ATOM     26  C   UNL     1      17.806 -11.459  19.078  1.00  0.00     0.214 C 
ATOM     27  O   UNL     1      19.214 -13.445  19.273  1.00  0.00    -0.332 OA
ATOM     28  C   UNL     1      18.690 -10.718  20.094  1.00  0.00     0.180 C 
ATOM     29  C   UNL     1      20.017 -12.871  20.293  1.00  0.00     0.179 C 
ATOM     30  C   UNL     1      20.105 -11.331  20.115  1.00  0.00     0.177 C 
BRANCH  26  31
ATOM     31  O   UNL     1      18.238 -11.193  17.767  1.00  0.00    -0.384 OA
ATOM     32  H   UNL     1      19.020 -11.781  17.593  1.00  0.00     0.211 HD
ENDBRANCH  26  31
BRANCH  28  33
ATOM     33  O   UNL     1      18.753  -9.354  19.763  1.00  0.00    -0.387 OA
ATOM     34  H   UNL     1      19.466  -9.256  19.080  1.00  0.00     0.211 HD
ENDBRANCH  28  33
BRANCH  29  35
ATOM     35  C   UNL     1      21.405 -13.522  20.219  1.00  0.00     0.191 C 
BRANCH  35  36
ATOM     36  O   UNL     1      21.355 -14.705  19.471  1.00  0.00    -0.394 OA
ATOM     37  H   UNL     1      22.252 -14.811  19.063  1.00  0.00     0.210 HD
ENDBRANCH  35  36
ENDBRANCH  29  35
BRANCH  30  38
ATOM     38  O   UNL     1      20.881 -10.740  21.129  1.00  0.00    -0.387 OA
ATOM     39  H   UNL     1      21.578 -10.186  20.690  1.00  0.00     0.211 HD
ENDBRANCH  30  38
ENDBRANCH   1  25
TORSDOF 11
ENDMDL
MODEL 9
REMARK VINA RESULT:    -4.688      3.837      6.497
REMARK INTER + INTRA:          -7.928
REMARK INTER:                  -6.577
REMARK INTRA:                  -1.351
REMARK UNBOUND:                -1.184
REMARK SMILES O=c1c(O[C@@H]2O[C@@H](CO)[C@H](O)[C@@H](O)[C@H]2O)c(-c2ccc(O)cc2)oc2cc(O)cc(O)c12
REMARK SMILES IDX 4 1 3 2 16 3 24 4 2 5 25 6 1 7 32 8 26 9 30 10 27 11 29 12
REMARK SMILES IDX 17 13 18 14 19 15 20 16 23 17 22 18 21 19 31 21 28 23 5 25
REMARK SMILES IDX 14 26 6 27 12 28 7 29 10 30 15 31 13 33 8 35 9 36 11 38
REMARK H PARENT 21 20 31 22 28 24 15 32 13 34 9 37 11 39
REMARK Flexibility Score: inf
ROOT
ATOM      1  O   UNL     1      13.934  -8.316   9.308  1.00  0.00    -0.454 OA
ENDROOT
BRANCH   1   2
ATOM      2  C   UNL     1      14.211  -9.500  10.004  1.00  0.00     0.214 A 
ATOM      3  C   UNL     1      14.564  -9.494  11.370  1.00  0.00     0.180 A 
ATOM      4  O   UNL     1      14.895 -10.635  11.968  1.00  0.00    -0.452 OA
ATOM      5  C   UNL     1      14.144 -10.722   9.327  1.00  0.00     0.239 A 
ATOM      6  C   UNL     1      14.876 -11.814  11.356  1.00  0.00     0.146 A 
ATOM      7  O   UNL     1      13.790 -10.736   8.117  1.00  0.00    -0.285 OA
ATOM      8  C   UNL     1      14.485 -11.913  10.000  1.00  0.00     0.111 A 
ATOM      9  C   UNL     1      15.239 -12.959  12.071  1.00  0.00     0.094 A 
ATOM     10  C   UNL     1      14.463 -13.185   9.380  1.00  0.00     0.134 A 
ATOM     11  C   UNL     1      15.216 -14.214  11.453  1.00  0.00     0.123 A 
ATOM     12  C   UNL     1      14.828 -14.323  10.116  1.00  0.00     0.093 A 
BRANCH   3  13
ATOM     13  C   UNL     1      14.569  -8.256  12.182  1.00  0.00     0.021 A 
ATOM     14  C   UNL     1      15.664  -7.380  12.104  1.00  0.00     0.016 A 
ATOM     15  C   UNL     1      15.691  -6.210  12.868  1.00  0.00     0.047 A 
ATOM     16  C   UNL     1      14.632  -5.908  13.729  1.00  0.00     0.115 A 
ATOM     17  C   UNL     1      13.516  -7.957  13.066  1.00  0.00     0.016 A 
ATOM     18  C   UNL     1      13.545  -6.786  13.828  1.00  0.00     0.047 A 
BRANCH  16  19
ATOM     19  O   UNL     1      14.670  -4.737  14.484  1.00  0.00    -0.508 OA
ATOM     20  H   UNL     1      15.289  -4.641  15.279  1.00  0.00     0.293 HD
ENDBRANCH  16  19
ENDBRANCH   3  13
BRANCH  10  21
ATOM     21  O   UNL     1      14.085 -13.328   8.044  1.00  0.00    -0.507 OA
ATOM     22  H   UNL     1      13.718 -12.551   7.507  1.00  0.00     0.293 HD
ENDBRANCH  10  21
BRANCH  11  23
ATOM     23  O   UNL     1      15.573 -15.359  12.161  1.00  0.00    -0.508 OA
ATOM     24  H   UNL     1      14.956 -16.161  12.218  1.00  0.00     0.293 HD
ENDBRANCH  11  23
ENDBRANCH   1   2
BRANCH   1  25
ATOM     25  C   UNL     1      12.604  -7.815   9.130  1.00  0.00     0.339 C 
ATOM     26  C   UNL     1      12.420  -6.461   9.838  1.00  0.00     0.214 C 
ATOM     27  O   UNL     1      12.282  -7.723   7.751  1.00  0.00    -0.332 OA
ATOM     28  C   UNL     1      13.273  -5.387   9.145  1.00  0.00     0.180 C 
ATOM     29  C   UNL     1      13.148  -6.833   7.065  1.00  0.00     0.179 C 
ATOM     30  C   UNL     1      13.006  -5.392   7.625  1.00  0.00     0.177 C 
BRANCH  26  31
ATOM     31  O   UNL     1      11.059  -6.108   9.798  1.00  0.00    -0.384 OA
ATOM     32  H   UNL     1      10.857  -5.830   8.866  1.00  0.00     0.211 HD
ENDBRANCH  26  31
BRANCH  28  33
ATOM     33  O   UNL     1      12.978  -4.124   9.687  1.00  0.00    -0.387 OA
ATOM     34  H   UNL     1      13.595  -3.475   9.261  1.00  0.00     0.211 HD
ENDBRANCH  28  33
BRANCH  29  35
ATOM     35  C   UNL     1      12.793  -6.889   5.573  1.00  0.00     0.191 C 
BRANCH  35  36
ATOM     36  O   UNL     1      13.802  -6.295   4.804  1.00  0.00    -0.394 OA
ATOM     37  H   UNL     1      14.115  -5.508   5.320  1.00  0.00     0.210 HD
ENDBRANCH  35  36
ENDBRANCH  29  35
BRANCH  30  38
ATOM     38  O   UNL     1      13.872  -4.498   6.972  1.00  0.00    -0.387 OA
ATOM     39  H   UNL     1      14.720  -4.980   6.788  1.00  0.00     0.211 HD
ENDBRANCH  30  38
ENDBRANCH   1  25
TORSDOF 11
ENDMDL
