MODEL 1
REMARK VINA RESULT:    -8.547      0.000      0.000
REMARK INTER + INTRA:          -9.875
REMARK INTER:                  -9.797
REMARK INTRA:                  -0.078
REMARK UNBOUND:                -0.078
REMARK SMILES CC1(C)CC[C@@]23CO[C@]4(C=C[C@H]5[C@@]6(C)CC[C@@H](O)[C@@](C)(CO)[C@H]6CC[C@@]5(C)[C@]4(C)C[C@H]2O)[C@@H]3C1
REMARK SMILES IDX 1 1 2 2 4 3 5 4 6 5 7 6 8 7 9 8 33 9 34 10 10 11 11 12 12 13
REMARK SMILES IDX 13 14 15 15 16 16 17 17 19 18 23 19 24 20 25 21 26 22 28 23
REMARK SMILES IDX 30 24 31 25 29 26 27 27 20 28 14 29 3 30 32 31 21 33 22 34
REMARK SMILES IDX 18 36
REMARK H PARENT 32 32 22 35 18 37
REMARK Flexibility Score: inf
ROOT
ATOM      1  C   UNL     1      31.625  -1.226  11.781  1.00  0.00     0.011 C 
ATOM      2  C   UNL     1      31.506  -1.880  13.181  1.00  0.00    -0.035 C 
ATOM      3  C   UNL     1      32.952  -2.067  13.761  1.00  0.00     0.007 C 
ATOM      4  C   UNL     1      33.198  -1.442  15.147  1.00  0.00     0.013 C 
ATOM      5  C   UNL     1      32.035  -1.652  16.142  1.00  0.00     0.026 C 
ATOM      6  C   UNL     1      31.650  -3.139  16.322  1.00  0.00     0.171 C 
ATOM      7  O   UNL     1      30.244  -3.229  16.359  1.00  0.00    -0.369 OA
ATOM      8  C   UNL     1      29.757  -1.906  16.454  1.00  0.00     0.096 C 
ATOM      9  C   UNL     1      30.748  -1.043  15.627  1.00  0.00     0.037 C 
ATOM     10  C   UNL     1      30.605  -0.965  14.065  1.00  0.00     0.014 C 
ATOM     11  C   UNL     1      28.395  -1.856  15.834  1.00  0.00     0.005 C 
ATOM     12  C   UNL     1      27.573  -0.832  16.059  1.00  0.00    -0.024 C 
ATOM     13  C   UNL     1      27.890   0.214  17.141  1.00  0.00     0.024 C 
ATOM     14  C   UNL     1      26.674   1.226  17.419  1.00  0.00    -0.022 C 
ATOM     15  C   UNL     1      26.086   1.733  16.041  1.00  0.00     0.010 C 
ATOM     16  C   UNL     1      24.696   2.355  16.124  1.00  0.00     0.033 C 
ATOM     17  C   UNL     1      23.711   1.384  16.776  1.00  0.00     0.123 C 
ATOM     18  C   UNL     1      24.090   1.087  18.256  1.00  0.00     0.020 C 
ATOM     19  C   UNL     1      25.588   0.548  18.393  1.00  0.00     0.006 C 
ATOM     20  C   UNL     1      25.728  -1.002  18.449  1.00  0.00     0.005 C 
ATOM     21  C   UNL     1      27.152  -1.537  18.794  1.00  0.00     0.008 C 
ATOM     22  C   UNL     1      28.368  -0.610  18.397  1.00  0.00    -0.017 C 
ATOM     23  C   UNL     1      29.722  -1.456  18.015  1.00  0.00     0.009 C 
ATOM     24  C   UNL     1      31.038  -0.613  18.329  1.00  0.00     0.043 C 
ATOM     25  C   UNL     1      32.334  -0.995  17.537  1.00  0.00     0.124 C 
ATOM     26  C   UNL     1      29.807  -2.712  18.949  1.00  0.00     0.015 C 
ATOM     27  C   UNL     1      28.672   0.285  19.645  1.00  0.00     0.013 C 
ATOM     28  C   UNL     1      23.950   2.399  19.089  1.00  0.00     0.017 C 
ATOM     29  C   UNL     1      27.246   2.525  18.094  1.00  0.00     0.012 C 
ATOM     30  C   UNL     1      30.803  -3.244  12.964  1.00  0.00     0.011 C 
ENDROOT
BRANCH  25  31
ATOM     31  O   UNL     1      33.155  -1.809  18.338  1.00  0.00    -0.392 OA
ATOM     32  H   UNL     1      32.559  -2.445  18.814  1.00  0.00     0.210 HD
ENDBRANCH  25  31
BRANCH  18  33
ATOM     33  C   UNL     1      23.013   0.131  18.878  1.00  0.00     0.165 C 
BRANCH  33  34
ATOM     34  O   UNL     1      22.975   0.189  20.283  1.00  0.00    -0.396 OA
ATOM     35  H   UNL     1      22.022   0.255  20.555  1.00  0.00     0.210 HD
ENDBRANCH  33  34
ENDBRANCH  18  33
BRANCH  17  36
ATOM     36  O   UNL     1      23.670   0.195  16.023  1.00  0.00    -0.392 OA
ATOM     37  H   UNL     1      24.444  -0.357  16.310  1.00  0.00     0.210 HD
ENDBRANCH  17  36
TORSDOF 4
ENDMDL
MODEL 2
REMARK VINA RESULT:    -8.455      9.107     12.432
REMARK INTER + INTRA:          -9.768
REMARK INTER:                  -9.484
REMARK INTRA:                  -0.284
REMARK UNBOUND:                -0.078
REMARK SMILES CC1(C)CC[C@@]23CO[C@]4(C=C[C@H]5[C@@]6(C)CC[C@@H](O)[C@@](C)(CO)[C@H]6CC[C@@]5(C)[C@]4(C)C[C@H]2O)[C@@H]3C1
REMARK SMILES IDX 1 1 2 2 4 3 5 4 6 5 7 6 8 7 9 8 33 9 34 10 10 11 11 12 12 13
REMARK SMILES IDX 13 14 15 15 16 16 17 17 19 18 23 19 24 20 25 21 26 22 28 23
REMARK SMILES IDX 30 24 31 25 29 26 27 27 20 28 14 29 3 30 32 31 21 33 22 34
REMARK SMILES IDX 18 36
REMARK H PARENT 32 32 22 35 18 37
REMARK Flexibility Score: inf
ROOT
ATOM      1  C   UNL     1      31.965  14.726  18.358  1.00  0.00     0.011 C 
ATOM      2  C   UNL     1      31.292  13.537  19.090  1.00  0.00    -0.035 C 
ATOM      3  C   UNL     1      30.829  14.030  20.506  1.00  0.00     0.007 C 
ATOM      4  C   UNL     1      29.339  13.811  20.832  1.00  0.00     0.013 C 
ATOM      5  C   UNL     1      28.797  12.436  20.381  1.00  0.00     0.026 C 
ATOM      6  C   UNL     1      29.614  11.247  20.938  1.00  0.00     0.171 C 
ATOM      7  O   UNL     1      29.765  10.295  19.910  1.00  0.00    -0.369 OA
ATOM      8  C   UNL     1      28.912  10.699  18.858  1.00  0.00     0.096 C 
ATOM      9  C   UNL     1      28.933  12.251  18.884  1.00  0.00     0.037 C 
ATOM     10  C   UNL     1      30.113  13.031  18.203  1.00  0.00     0.014 C 
ATOM     11  C   UNL     1      29.484  10.202  17.566  1.00  0.00     0.005 C 
ATOM     12  C   UNL     1      28.744  10.156  16.459  1.00  0.00    -0.024 C 
ATOM     13  C   UNL     1      27.224  10.382  16.512  1.00  0.00     0.024 C 
ATOM     14  C   UNL     1      26.485  10.054  15.124  1.00  0.00    -0.022 C 
ATOM     15  C   UNL     1      27.295  10.704  13.931  1.00  0.00     0.010 C 
ATOM     16  C   UNL     1      26.966  10.147  12.550  1.00  0.00     0.033 C 
ATOM     17  C   UNL     1      27.149   8.628  12.526  1.00  0.00     0.123 C 
ATOM     18  C   UNL     1      26.147   7.914  13.480  1.00  0.00     0.020 C 
ATOM     19  C   UNL     1      26.243   8.471  14.975  1.00  0.00     0.006 C 
ATOM     20  C   UNL     1      27.150   7.640  15.930  1.00  0.00     0.005 C 
ATOM     21  C   UNL     1      27.089   8.043  17.436  1.00  0.00     0.008 C 
ATOM     22  C   UNL     1      26.715   9.547  17.748  1.00  0.00    -0.017 C 
ATOM     23  C   UNL     1      27.420  10.111  19.119  1.00  0.00     0.009 C 
ATOM     24  C   UNL     1      26.536  11.253  19.794  1.00  0.00     0.043 C 
ATOM     25  C   UNL     1      27.276  12.264  20.734  1.00  0.00     0.124 C 
ATOM     26  C   UNL     1      27.465   8.951  20.172  1.00  0.00     0.015 C 
ATOM     27  C   UNL     1      25.161   9.591  17.928  1.00  0.00     0.013 C 
ATOM     28  C   UNL     1      24.695   8.139  12.953  1.00  0.00     0.017 C 
ATOM     29  C   UNL     1      25.103  10.801  15.102  1.00  0.00     0.012 C 
ATOM     30  C   UNL     1      32.369  12.430  19.200  1.00  0.00     0.011 C 
ENDROOT
BRANCH  25  31
ATOM     31  O   UNL     1      27.086  11.888  22.076  1.00  0.00    -0.392 OA
ATOM     32  H   UNL     1      27.262  12.692  22.631  1.00  0.00     0.210 HD
ENDBRANCH  25  31
BRANCH  18  33
ATOM     33  C   UNL     1      26.351   6.362  13.367  1.00  0.00     0.165 C 
BRANCH  33  34
ATOM     34  O   UNL     1      26.893   5.970  12.131  1.00  0.00    -0.396 OA
ATOM     35  H   UNL     1      26.177   6.052  11.448  1.00  0.00     0.210 HD
ENDBRANCH  33  34
ENDBRANCH  18  33
BRANCH  17  36
ATOM     36  O   UNL     1      28.477   8.318  12.874  1.00  0.00    -0.392 OA
ATOM     37  H   UNL     1      28.437   7.617  13.577  1.00  0.00     0.210 HD
ENDBRANCH  17  36
TORSDOF 4
ENDMDL
MODEL 3
REMARK VINA RESULT:    -8.357      5.738      9.456
REMARK INTER + INTRA:          -9.657
REMARK INTER:                  -9.373
REMARK INTRA:                  -0.284
REMARK UNBOUND:                -0.078
REMARK SMILES CC1(C)CC[C@@]23CO[C@]4(C=C[C@H]5[C@@]6(C)CC[C@@H](O)[C@@](C)(CO)[C@H]6CC[C@@]5(C)[C@]4(C)C[C@H]2O)[C@@H]3C1
REMARK SMILES IDX 1 1 2 2 4 3 5 4 6 5 7 6 8 7 9 8 33 9 34 10 10 11 11 12 12 13
REMARK SMILES IDX 13 14 15 15 16 16 17 17 19 18 23 19 24 20 25 21 26 22 28 23
REMARK SMILES IDX 30 24 31 25 29 26 27 27 20 28 14 29 3 30 32 31 21 33 22 34
REMARK SMILES IDX 18 36
REMARK H PARENT 32 32 22 35 18 37
REMARK Flexibility Score: inf
ROOT
ATOM      1  C   UNL     1      20.540  -2.934  17.955  1.00  0.00     0.011 C 
ATOM      2  C   UNL     1      20.739  -3.070  16.424  1.00  0.00    -0.035 C 
ATOM      3  C   UNL     1      19.365  -3.477  15.784  1.00  0.00     0.007 C 
ATOM      4  C   UNL     1      18.859  -2.558  14.655  1.00  0.00     0.013 C 
ATOM      5  C   UNL     1      19.964  -2.117  13.669  1.00  0.00     0.026 C 
ATOM      6  C   UNL     1      20.733  -3.304  13.045  1.00  0.00     0.171 C 
ATOM      7  O   UNL     1      22.103  -2.974  13.012  1.00  0.00    -0.369 OA
ATOM      8  C   UNL     1      22.195  -1.604  13.342  1.00  0.00     0.096 C 
ATOM      9  C   UNL     1      21.063  -1.352  14.374  1.00  0.00     0.037 C 
ATOM     10  C   UNL     1      21.286  -1.713  15.886  1.00  0.00     0.014 C 
ATOM     11  C   UNL     1      23.529  -1.358  13.976  1.00  0.00     0.005 C 
ATOM     12  C   UNL     1      24.017  -0.123  14.097  1.00  0.00    -0.024 C 
ATOM     13  C   UNL     1      23.349   1.065  13.386  1.00  0.00     0.024 C 
ATOM     14  C   UNL     1      24.213   2.417  13.461  1.00  0.00    -0.022 C 
ATOM     15  C   UNL     1      24.731   2.628  14.940  1.00  0.00     0.010 C 
ATOM     16  C   UNL     1      25.885   3.615  15.085  1.00  0.00     0.033 C 
ATOM     17  C   UNL     1      27.053   3.211  14.185  1.00  0.00     0.123 C 
ATOM     18  C   UNL     1      26.670   3.281  12.678  1.00  0.00     0.020 C 
ATOM     19  C   UNL     1      25.375   2.405  12.348  1.00  0.00     0.006 C 
ATOM     20  C   UNL     1      25.668   0.972  11.811  1.00  0.00     0.005 C 
ATOM     21  C   UNL     1      24.428   0.184  11.288  1.00  0.00     0.008 C 
ATOM     22  C   UNL     1      23.032   0.560  11.927  1.00  0.00    -0.017 C 
ATOM     23  C   UNL     1      21.996  -0.712  11.999  1.00  0.00     0.009 C 
ATOM     24  C   UNL     1      20.479  -0.225  11.934  1.00  0.00     0.043 C 
ATOM     25  C   UNL     1      19.398  -1.182  12.540  1.00  0.00     0.124 C 
ATOM     26  C   UNL     1      22.199  -1.594  10.720  1.00  0.00     0.015 C 
ATOM     27  C   UNL     1      22.407   1.665  11.011  1.00  0.00     0.013 C 
ATOM     28  C   UNL     1      26.383   4.766  12.295  1.00  0.00     0.017 C 
ATOM     29  C   UNL     1      23.258   3.639  13.210  1.00  0.00     0.012 C 
ATOM     30  C   UNL     1      21.805  -4.175  16.223  1.00  0.00     0.011 C 
ENDROOT
BRANCH  25  31
ATOM     31  O   UNL     1      18.783  -1.914  11.509  1.00  0.00    -0.392 OA
ATOM     32  H   UNL     1      19.166  -1.590  10.652  1.00  0.00     0.210 HD
ENDBRANCH  25  31
BRANCH  18  33
ATOM     33  C   UNL     1      27.925   2.907  11.813  1.00  0.00     0.165 C 
BRANCH  33  34
ATOM     34  O   UNL     1      29.138   3.090  12.501  1.00  0.00    -0.396 OA
ATOM     35  H   UNL     1      28.919   3.344  13.435  1.00  0.00     0.210 HD
ENDBRANCH  33  34
ENDBRANCH  18  33
BRANCH  17  36
ATOM     36  O   UNL     1      27.475   1.914  14.533  1.00  0.00    -0.392 OA
ATOM     37  H   UNL     1      28.464   1.896  14.447  1.00  0.00     0.210 HD
ENDBRANCH  17  36
TORSDOF 4
ENDMDL
MODEL 4
REMARK VINA RESULT:    -8.354      2.576      3.918
REMARK INTER + INTRA:          -9.653
REMARK INTER:                  -9.368
REMARK INTRA:                  -0.284
REMARK UNBOUND:                -0.078
REMARK SMILES CC1(C)CC[C@@]23CO[C@]4(C=C[C@H]5[C@@]6(C)CC[C@@H](O)[C@@](C)(CO)[C@H]6CC[C@@]5(C)[C@]4(C)C[C@H]2O)[C@@H]3C1
REMARK SMILES IDX 1 1 2 2 4 3 5 4 6 5 7 6 8 7 9 8 33 9 34 10 10 11 11 12 12 13
REMARK SMILES IDX 13 14 15 15 16 16 17 17 19 18 23 19 24 20 25 21 26 22 28 23
REMARK SMILES IDX 30 24 31 25 29 26 27 27 20 28 14 29 3 30 32 31 21 33 22 34
REMARK SMILES IDX 18 36
REMARK H PARENT 32 32 22 35 18 37
REMARK Flexibility Score: inf
ROOT
ATOM      1  C   UNL     1      33.885  -2.139  15.005  1.00  0.00     0.011 C 
ATOM      2  C   UNL     1      32.669  -2.352  15.943  1.00  0.00    -0.035 C 
ATOM      3  C   UNL     1      33.155  -2.175  17.424  1.00  0.00     0.007 C 
ATOM      4  C   UNL     1      32.379  -1.137  18.258  1.00  0.00     0.013 C 
ATOM      5  C   UNL     1      30.850  -1.182  18.046  1.00  0.00     0.026 C 
ATOM      6  C   UNL     1      30.242  -2.582  18.294  1.00  0.00     0.171 C 
ATOM      7  O   UNL     1      29.283  -2.831  17.292  1.00  0.00    -0.369 OA
ATOM      8  C   UNL     1      29.094  -1.612  16.603  1.00  0.00     0.096 C 
ATOM      9  C   UNL     1      30.483  -0.921  16.600  1.00  0.00     0.037 C 
ATOM     10  C   UNL     1      31.562  -1.333  15.535  1.00  0.00     0.014 C 
ATOM     11  C   UNL     1      28.673  -1.920  15.200  1.00  0.00     0.005 C 
ATOM     12  C   UNL     1      28.122  -0.986  14.425  1.00  0.00    -0.024 C 
ATOM     13  C   UNL     1      27.682   0.367  15.008  1.00  0.00     0.024 C 
ATOM     14  C   UNL     1      26.834   1.257  13.975  1.00  0.00    -0.022 C 
ATOM     15  C   UNL     1      27.549   1.250  12.564  1.00  0.00     0.010 C 
ATOM     16  C   UNL     1      26.674   1.690  11.395  1.00  0.00     0.033 C 
ATOM     17  C   UNL     1      25.401   0.845  11.329  1.00  0.00     0.123 C 
ATOM     18  C   UNL     1      24.504   1.055  12.584  1.00  0.00     0.020 C 
ATOM     19  C   UNL     1      25.300   0.773  13.941  1.00  0.00     0.006 C 
ATOM     20  C   UNL     1      25.117  -0.659  14.526  1.00  0.00     0.005 C 
ATOM     21  C   UNL     1      25.710  -0.885  15.951  1.00  0.00     0.008 C 
ATOM     22  C   UNL     1      26.938   0.025  16.354  1.00  0.00    -0.017 C 
ATOM     23  C   UNL     1      27.979  -0.723  17.382  1.00  0.00     0.009 C 
ATOM     24  C   UNL     1      28.731   0.333  18.310  1.00  0.00     0.043 C 
ATOM     25  C   UNL     1      30.108  -0.104  18.915  1.00  0.00     0.124 C 
ATOM     26  C   UNL     1      27.152  -1.619  18.366  1.00  0.00     0.015 C 
ATOM     27  C   UNL     1      26.343   1.283  17.071  1.00  0.00     0.013 C 
ATOM     28  C   UNL     1      23.991   2.529  12.600  1.00  0.00     0.017 C 
ATOM     29  C   UNL     1      26.900   2.759  14.431  1.00  0.00     0.012 C 
ATOM     30  C   UNL     1      32.168  -3.794  15.681  1.00  0.00     0.011 C 
ENDROOT
BRANCH  25  31
ATOM     31  O   UNL     1      29.926  -0.532  20.242  1.00  0.00    -0.392 OA
ATOM     32  H   UNL     1      30.333  -1.435  20.316  1.00  0.00     0.210 HD
ENDBRANCH  25  31
BRANCH  18  33
ATOM     33  C   UNL     1      23.196   0.204  12.427  1.00  0.00     0.165 C 
BRANCH  33  34
ATOM     34  O   UNL     1      22.888  -0.084  11.085  1.00  0.00    -0.396 OA
ATOM     35  H   UNL     1      22.938  -1.069  10.970  1.00  0.00     0.210 HD
ENDBRANCH  33  34
ENDBRANCH  18  33
BRANCH  17  36
ATOM     36  O   UNL     1      25.755  -0.510  11.190  1.00  0.00    -0.392 OA
ATOM     37  H   UNL     1      25.441  -0.978  12.008  1.00  0.00     0.210 HD
ENDBRANCH  17  36
TORSDOF 4
ENDMDL
MODEL 5
REMARK VINA RESULT:    -8.352      2.812      5.071
REMARK INTER + INTRA:          -9.651
REMARK INTER:                  -9.381
REMARK INTRA:                  -0.271
REMARK UNBOUND:                -0.078
REMARK SMILES CC1(C)CC[C@@]23CO[C@]4(C=C[C@H]5[C@@]6(C)CC[C@@H](O)[C@@](C)(CO)[C@H]6CC[C@@]5(C)[C@]4(C)C[C@H]2O)[C@@H]3C1
REMARK SMILES IDX 1 1 2 2 4 3 5 4 6 5 7 6 8 7 9 8 33 9 34 10 10 11 11 12 12 13
REMARK SMILES IDX 13 14 15 15 16 16 17 17 19 18 23 19 24 20 25 21 26 22 28 23
REMARK SMILES IDX 30 24 31 25 29 26 27 27 20 28 14 29 3 30 32 31 21 33 22 34
REMARK SMILES IDX 18 36
REMARK H PARENT 32 32 22 35 18 37
REMARK Flexibility Score: inf
ROOT
ATOM      1  C   UNL     1      32.477  -3.621  18.359  1.00  0.00     0.011 C 
ATOM      2  C   UNL     1      32.550  -3.026  16.929  1.00  0.00    -0.035 C 
ATOM      3  C   UNL     1      33.540  -3.901  16.082  1.00  0.00     0.007 C 
ATOM      4  C   UNL     1      32.969  -4.465  14.766  1.00  0.00     0.013 C 
ATOM      5  C   UNL     1      32.109  -3.454  13.976  1.00  0.00     0.026 C 
ATOM      6  C   UNL     1      32.848  -2.129  13.676  1.00  0.00     0.171 C 
ATOM      7  O   UNL     1      31.946  -1.065  13.879  1.00  0.00    -0.369 OA
ATOM      8  C   UNL     1      30.669  -1.645  14.044  1.00  0.00     0.096 C 
ATOM      9  C   UNL     1      30.919  -2.986  14.786  1.00  0.00     0.037 C 
ATOM     10  C   UNL     1      31.105  -2.997  16.345  1.00  0.00     0.014 C 
ATOM     11  C   UNL     1      29.841  -0.735  14.898  1.00  0.00     0.005 C 
ATOM     12  C   UNL     1      28.516  -0.863  14.957  1.00  0.00    -0.024 C 
ATOM     13  C   UNL     1      27.765  -1.783  13.980  1.00  0.00     0.024 C 
ATOM     14  C   UNL     1      26.169  -1.621  14.055  1.00  0.00    -0.022 C 
ATOM     15  C   UNL     1      25.713  -1.609  15.569  1.00  0.00     0.010 C 
ATOM     16  C   UNL     1      24.313  -1.056  15.817  1.00  0.00     0.033 C 
ATOM     17  C   UNL     1      24.181   0.351  15.231  1.00  0.00     0.123 C 
ATOM     18  C   UNL     1      24.325   0.344  13.681  1.00  0.00     0.020 C 
ATOM     19  C   UNL     1      25.693  -0.337  13.211  1.00  0.00     0.006 C 
ATOM     20  C   UNL     1      26.861   0.656  12.931  1.00  0.00     0.005 C 
ATOM     21  C   UNL     1      28.130   0.032  12.273  1.00  0.00     0.008 C 
ATOM     22  C   UNL     1      28.395  -1.498  12.563  1.00  0.00    -0.017 C 
ATOM     23  C   UNL     1      29.992  -1.879  12.586  1.00  0.00     0.009 C 
ATOM     24  C   UNL     1      30.229  -3.396  12.154  1.00  0.00     0.043 C 
ATOM     25  C   UNL     1      31.550  -4.077  12.647  1.00  0.00     0.124 C 
ATOM     26  C   UNL     1      30.725  -1.023  11.497  1.00  0.00     0.015 C 
ATOM     27  C   UNL     1      27.705  -2.297  11.407  1.00  0.00     0.013 C 
ATOM     28  C   UNL     1      23.132  -0.448  13.062  1.00  0.00     0.017 C 
ATOM     29  C   UNL     1      25.503  -2.914  13.463  1.00  0.00     0.012 C 
ATOM     30  C   UNL     1      33.073  -1.577  17.090  1.00  0.00     0.011 C 
ENDROOT
BRANCH  25  31
ATOM     31  O   UNL     1      32.505  -4.059  11.614  1.00  0.00    -0.392 OA
ATOM     32  H   UNL     1      32.104  -4.530  10.838  1.00  0.00     0.210 HD
ENDBRANCH  25  31
BRANCH  18  33
ATOM     33  C   UNL     1      24.126   1.804  13.142  1.00  0.00     0.165 C 
BRANCH  33  34
ATOM     34  O   UNL     1      23.209   2.549  13.905  1.00  0.00    -0.396 OA
ATOM     35  H   UNL     1      22.345   2.059  13.899  1.00  0.00     0.210 HD
ENDBRANCH  33  34
ENDBRANCH  18  33
BRANCH  17  36
ATOM     36  O   UNL     1      25.147   1.188  15.819  1.00  0.00    -0.392 OA
ATOM     37  H   UNL     1      24.942   2.116  15.532  1.00  0.00     0.210 HD
ENDBRANCH  17  36
TORSDOF 4
ENDMDL
MODEL 6
REMARK VINA RESULT:    -8.168      9.239     13.272
REMARK INTER + INTRA:          -9.439
REMARK INTER:                  -9.167
REMARK INTRA:                  -0.273
REMARK UNBOUND:                -0.078
REMARK SMILES CC1(C)CC[C@@]23CO[C@]4(C=C[C@H]5[C@@]6(C)CC[C@@H](O)[C@@](C)(CO)[C@H]6CC[C@@]5(C)[C@]4(C)C[C@H]2O)[C@@H]3C1
REMARK SMILES IDX 1 1 2 2 4 3 5 4 6 5 7 6 8 7 9 8 33 9 34 10 10 11 11 12 12 13
REMARK SMILES IDX 13 14 15 15 16 16 17 17 19 18 23 19 24 20 25 21 26 22 28 23
REMARK SMILES IDX 30 24 31 25 29 26 27 27 20 28 14 29 3 30 32 31 21 33 22 34
REMARK SMILES IDX 18 36
REMARK H PARENT 32 32 22 35 18 37
REMARK Flexibility Score: inf
ROOT
ATOM      1  C   UNL     1      21.346  11.374  20.403  1.00  0.00     0.011 C 
ATOM      2  C   UNL     1      22.172  10.257  19.717  1.00  0.00    -0.035 C 
ATOM      3  C   UNL     1      21.384   9.770  18.450  1.00  0.00     0.007 C 
ATOM      4  C   UNL     1      22.165   9.818  17.122  1.00  0.00     0.013 C 
ATOM      5  C   UNL     1      23.627   9.333  17.241  1.00  0.00     0.026 C 
ATOM      6  C   UNL     1      23.751   7.915  17.846  1.00  0.00     0.171 C 
ATOM      7  O   UNL     1      24.834   7.914  18.748  1.00  0.00    -0.369 OA
ATOM      8  C   UNL     1      25.516   9.137  18.561  1.00  0.00     0.096 C 
ATOM      9  C   UNL     1      24.413  10.176  18.222  1.00  0.00     0.037 C 
ATOM     10  C   UNL     1      23.579  10.838  19.376  1.00  0.00     0.014 C 
ATOM     11  C   UNL     1      26.189   9.507  19.846  1.00  0.00     0.005 C 
ATOM     12  C   UNL     1      27.151  10.428  19.880  1.00  0.00    -0.024 C 
ATOM     13  C   UNL     1      27.771  10.973  18.582  1.00  0.00     0.024 C 
ATOM     14  C   UNL     1      29.065  11.890  18.834  1.00  0.00    -0.022 C 
ATOM     15  C   UNL     1      28.766  12.911  20.004  1.00  0.00     0.010 C 
ATOM     16  C   UNL     1      30.000  13.552  20.631  1.00  0.00     0.033 C 
ATOM     17  C   UNL     1      30.971  12.477  21.124  1.00  0.00     0.123 C 
ATOM     18  C   UNL     1      31.533  11.627  19.947  1.00  0.00     0.020 C 
ATOM     19  C   UNL     1      30.367  10.975  19.070  1.00  0.00     0.006 C 
ATOM     20  C   UNL     1      30.000   9.509  19.448  1.00  0.00     0.005 C 
ATOM     21  C   UNL     1      29.019   8.788  18.473  1.00  0.00     0.008 C 
ATOM     22  C   UNL     1      28.019   9.712  17.671  1.00  0.00    -0.017 C 
ATOM     23  C   UNL     1      26.586   8.977  17.349  1.00  0.00     0.009 C 
ATOM     24  C   UNL     1      25.930   9.552  16.014  1.00  0.00     0.043 C 
ATOM     25  C   UNL     1      24.378   9.403  15.863  1.00  0.00     0.124 C 
ATOM     26  C   UNL     1      26.856   7.462  17.053  1.00  0.00     0.015 C 
ATOM     27  C   UNL     1      28.721  10.056  16.314  1.00  0.00     0.013 C 
ATOM     28  C   UNL     1      32.400  12.542  19.027  1.00  0.00     0.017 C 
ATOM     29  C   UNL     1      29.287  12.803  17.575  1.00  0.00     0.012 C 
ATOM     30  C   UNL     1      22.319   9.123  20.762  1.00  0.00     0.011 C 
ENDROOT
BRANCH  25  31
ATOM     31  O   UNL     1      24.086   8.296  15.046  1.00  0.00    -0.392 OA
ATOM     32  H   UNL     1      24.538   7.509  15.450  1.00  0.00     0.210 HD
ENDBRANCH  25  31
BRANCH  18  33
ATOM     33  C   UNL     1      32.559  10.584  20.513  1.00  0.00     0.165 C 
BRANCH  33  34
ATOM     34  O   UNL     1      33.260  11.060  21.636  1.00  0.00    -0.396 OA
ATOM     35  H   UNL     1      34.218  11.128  21.386  1.00  0.00     0.210 HD
ENDBRANCH  33  34
ENDBRANCH  18  33
BRANCH  17  36
ATOM     36  O   UNL     1      30.316  11.659  22.062  1.00  0.00    -0.392 OA
ATOM     37  H   UNL     1      30.836  10.815  22.126  1.00  0.00     0.210 HD
ENDBRANCH  17  36
TORSDOF 4
ENDMDL
MODEL 7
REMARK VINA RESULT:    -8.099      8.906     14.076
REMARK INTER + INTRA:          -9.361
REMARK INTER:                  -9.077
REMARK INTRA:                  -0.284
REMARK UNBOUND:                -0.078
REMARK SMILES CC1(C)CC[C@@]23CO[C@]4(C=C[C@H]5[C@@]6(C)CC[C@@H](O)[C@@](C)(CO)[C@H]6CC[C@@]5(C)[C@]4(C)C[C@H]2O)[C@@H]3C1
REMARK SMILES IDX 1 1 2 2 4 3 5 4 6 5 7 6 8 7 9 8 33 9 34 10 10 11 11 12 12 13
REMARK SMILES IDX 13 14 15 15 16 16 17 17 19 18 23 19 24 20 25 21 26 22 28 23
REMARK SMILES IDX 30 24 31 25 29 26 27 27 20 28 14 29 3 30 32 31 21 33 22 34
REMARK SMILES IDX 18 36
REMARK H PARENT 32 32 22 35 18 37
REMARK Flexibility Score: inf
ROOT
ATOM      1  C   UNL     1      21.119  12.982  12.762  1.00  0.00     0.011 C 
ATOM      2  C   UNL     1      20.784  13.035  14.274  1.00  0.00    -0.035 C 
ATOM      3  C   UNL     1      19.244  13.292  14.428  1.00  0.00     0.007 C 
ATOM      4  C   UNL     1      18.481  12.265  15.289  1.00  0.00     0.013 C 
ATOM      5  C   UNL     1      19.231  11.848  16.573  1.00  0.00     0.026 C 
ATOM      6  C   UNL     1      19.633  13.049  17.460  1.00  0.00     0.171 C 
ATOM      7  O   UNL     1      20.939  12.825  17.942  1.00  0.00    -0.369 OA
ATOM      8  C   UNL     1      21.266  11.490  17.614  1.00  0.00     0.096 C 
ATOM      9  C   UNL     1      20.571  11.218  16.253  1.00  0.00     0.037 C 
ATOM     10  C   UNL     1      21.248  11.692  14.918  1.00  0.00     0.014 C 
ATOM     11  C   UNL     1      22.752  11.390  17.458  1.00  0.00     0.005 C 
ATOM     12  C   UNL     1      23.367  10.207  17.465  1.00  0.00    -0.024 C 
ATOM     13  C   UNL     1      22.616   8.927  17.868  1.00  0.00     0.024 C 
ATOM     14  C   UNL     1      23.580   7.655  18.042  1.00  0.00    -0.022 C 
ATOM     15  C   UNL     1      24.578   7.580  16.817  1.00  0.00     0.010 C 
ATOM     16  C   UNL     1      25.802   6.697  17.035  1.00  0.00     0.033 C 
ATOM     17  C   UNL     1      26.561   7.132  18.290  1.00  0.00     0.123 C 
ATOM     18  C   UNL     1      25.708   6.935  19.576  1.00  0.00     0.020 C 
ATOM     19  C   UNL     1      24.299   7.684  19.480  1.00  0.00     0.006 C 
ATOM     20  C   UNL     1      24.260   9.098  20.134  1.00  0.00     0.005 C 
ATOM     21  C   UNL     1      22.847   9.752  20.237  1.00  0.00     0.008 C 
ATOM     22  C   UNL     1      21.786   9.310  19.152  1.00  0.00    -0.017 C 
ATOM     23  C   UNL     1      20.717  10.500  18.780  1.00  0.00     0.009 C 
ATOM     24  C   UNL     1      19.318   9.893  18.313  1.00  0.00     0.043 C 
ATOM     25  C   UNL     1      18.415  10.801  17.412  1.00  0.00     0.124 C 
ATOM     26  C   UNL     1      20.399  11.311  20.082  1.00  0.00     0.015 C 
ATOM     27  C   UNL     1      20.999   8.103  19.765  1.00  0.00     0.013 C 
ATOM     28  C   UNL     1      25.451   5.410  19.787  1.00  0.00     0.017 C 
ATOM     29  C   UNL     1      22.717   6.348  17.914  1.00  0.00     0.012 C 
ATOM     30  C   UNL     1      21.613  14.204  14.861  1.00  0.00     0.011 C 
ENDROOT
BRANCH  25  31
ATOM     31  O   UNL     1      17.425  11.414  18.201  1.00  0.00    -0.392 OA
ATOM     32  H   UNL     1      17.193  10.777  18.925  1.00  0.00     0.210 HD
ENDBRANCH  25  31
BRANCH  18  33
ATOM     33  C   UNL     1      26.562   7.348  20.826  1.00  0.00     0.165 C 
BRANCH  33  34
ATOM     34  O   UNL     1      27.947   7.266  20.594  1.00  0.00    -0.396 OA
ATOM     35  H   UNL     1      28.157   6.323  20.362  1.00  0.00     0.210 HD
ENDBRANCH  33  34
ENDBRANCH  18  33
BRANCH  17  36
ATOM     36  O   UNL     1      26.949   8.478  18.149  1.00  0.00    -0.392 OA
ATOM     37  H   UNL     1      26.811   8.722  17.196  1.00  0.00     0.210 HD
ENDBRANCH  17  36
TORSDOF 4
ENDMDL
MODEL 8
REMARK VINA RESULT:    -8.086      4.377      8.432
REMARK INTER + INTRA:          -9.346
REMARK INTER:                  -9.065
REMARK INTRA:                  -0.281
REMARK UNBOUND:                -0.078
REMARK SMILES CC1(C)CC[C@@]23CO[C@]4(C=C[C@H]5[C@@]6(C)CC[C@@H](O)[C@@](C)(CO)[C@H]6CC[C@@]5(C)[C@]4(C)C[C@H]2O)[C@@H]3C1
REMARK SMILES IDX 1 1 2 2 4 3 5 4 6 5 7 6 8 7 9 8 33 9 34 10 10 11 11 12 12 13
REMARK SMILES IDX 13 14 15 15 16 16 17 17 19 18 23 19 24 20 25 21 26 22 28 23
REMARK SMILES IDX 30 24 31 25 29 26 27 27 20 28 14 29 3 30 32 31 21 33 22 34
REMARK SMILES IDX 18 36
REMARK H PARENT 32 32 22 35 18 37
REMARK Flexibility Score: inf
ROOT
ATOM      1  C   UNL     1      18.168  -2.726  14.185  1.00  0.00     0.011 C 
ATOM      2  C   UNL     1      19.391  -2.439  13.278  1.00  0.00    -0.035 C 
ATOM      3  C   UNL     1      18.877  -1.767  11.957  1.00  0.00     0.007 C 
ATOM      4  C   UNL     1      19.525  -0.415  11.603  1.00  0.00     0.013 C 
ATOM      5  C   UNL     1      21.052  -0.375  11.835  1.00  0.00     0.026 C 
ATOM      6  C   UNL     1      21.810  -1.504  11.098  1.00  0.00     0.171 C 
ATOM      7  O   UNL     1      22.798  -2.011  11.965  1.00  0.00    -0.369 OA
ATOM      8  C   UNL     1      22.857  -1.130  13.068  1.00  0.00     0.096 C 
ATOM      9  C   UNL     1      21.400  -0.643  13.284  1.00  0.00     0.037 C 
ATOM     10  C   UNL     1      20.382  -1.538  14.077  1.00  0.00     0.014 C 
ATOM     11  C   UNL     1      23.322  -1.900  14.265  1.00  0.00     0.005 C 
ATOM     12  C   UNL     1      23.771  -1.276  15.354  1.00  0.00    -0.024 C 
ATOM     13  C   UNL     1      24.054   0.236  15.339  1.00  0.00     0.024 C 
ATOM     14  C   UNL     1      24.808   0.753  16.660  1.00  0.00    -0.022 C 
ATOM     15  C   UNL     1      24.109   0.137  17.938  1.00  0.00     0.010 C 
ATOM     16  C   UNL     1      24.940   0.192  19.216  1.00  0.00     0.033 C 
ATOM     17  C   UNL     1      26.299  -0.476  19.002  1.00  0.00     0.123 C 
ATOM     18  C   UNL     1      27.156   0.288  17.950  1.00  0.00     0.020 C 
ATOM     19  C   UNL     1      26.386   0.457  16.561  1.00  0.00     0.006 C 
ATOM     20  C   UNL     1      26.721  -0.619  15.486  1.00  0.00     0.005 C 
ATOM     21  C   UNL     1      26.145  -0.350  14.062  1.00  0.00     0.008 C 
ATOM     22  C   UNL     1      24.820   0.509  13.989  1.00  0.00    -0.017 C 
ATOM     23  C   UNL     1      23.860   0.100  12.721  1.00  0.00     0.009 C 
ATOM     24  C   UNL     1      22.988   1.343  12.233  1.00  0.00     0.043 C 
ATOM     25  C   UNL     1      21.663   1.023  11.462  1.00  0.00     0.124 C 
ATOM     26  C   UNL     1      24.773  -0.264  11.500  1.00  0.00     0.015 C 
ATOM     27  C   UNL     1      25.266   2.000  13.820  1.00  0.00     0.013 C 
ATOM     28  C   UNL     1      27.503   1.703  18.508  1.00  0.00     0.017 C 
ATOM     29  C   UNL     1      24.571   2.300  16.801  1.00  0.00     0.012 C 
ATOM     30  C   UNL     1      20.052  -3.811  12.995  1.00  0.00     0.011 C 
ENDROOT
BRANCH  25  31
ATOM     31  O   UNL     1      21.880   1.152  10.078  1.00  0.00    -0.392 OA
ATOM     32  H   UNL     1      21.341   1.926   9.769  1.00  0.00     0.210 HD
ENDBRANCH  25  31
BRANCH  18  33
ATOM     33  C   UNL     1      28.552  -0.416  17.819  1.00  0.00     0.165 C 
BRANCH  33  34
ATOM     34  O   UNL     1      28.868  -1.218  18.931  1.00  0.00    -0.396 OA
ATOM     35  H   UNL     1      28.533  -2.134  18.746  1.00  0.00     0.210 HD
ENDBRANCH  33  34
ENDBRANCH  18  33
BRANCH  17  36
ATOM     36  O   UNL     1      26.099  -1.812  18.608  1.00  0.00    -0.392 OA
ATOM     37  H   UNL     1      25.668  -1.789  17.713  1.00  0.00     0.210 HD
ENDBRANCH  17  36
TORSDOF 4
ENDMDL
MODEL 9
REMARK VINA RESULT:    -8.006      9.260     13.860
REMARK INTER + INTRA:          -9.254
REMARK INTER:                  -9.197
REMARK INTRA:                  -0.057
REMARK UNBOUND:                -0.078
REMARK SMILES CC1(C)CC[C@@]23CO[C@]4(C=C[C@H]5[C@@]6(C)CC[C@@H](O)[C@@](C)(CO)[C@H]6CC[C@@]5(C)[C@]4(C)C[C@H]2O)[C@@H]3C1
REMARK SMILES IDX 1 1 2 2 4 3 5 4 6 5 7 6 8 7 9 8 33 9 34 10 10 11 11 12 12 13
REMARK SMILES IDX 13 14 15 15 16 16 17 17 19 18 23 19 24 20 25 21 26 22 28 23
REMARK SMILES IDX 30 24 31 25 29 26 27 27 20 28 14 29 3 30 32 31 21 33 22 34
REMARK SMILES IDX 18 36
REMARK H PARENT 32 32 22 35 18 37
REMARK Flexibility Score: inf
ROOT
ATOM      1  C   UNL     1      17.735  12.125  15.886  1.00  0.00     0.011 C 
ATOM      2  C   UNL     1      18.726  11.890  17.054  1.00  0.00    -0.035 C 
ATOM      3  C   UNL     1      17.934  11.254  18.250  1.00  0.00     0.007 C 
ATOM      4  C   UNL     1      18.500   9.926  18.790  1.00  0.00     0.013 C 
ATOM      5  C   UNL     1      20.040   9.907  18.908  1.00  0.00     0.026 C 
ATOM      6  C   UNL     1      20.600  11.073  19.755  1.00  0.00     0.171 C 
ATOM      7  O   UNL     1      21.754  11.569  19.114  1.00  0.00    -0.369 OA
ATOM      8  C   UNL     1      22.068  10.653  18.085  1.00  0.00     0.096 C 
ATOM      9  C   UNL     1      20.702  10.132  17.565  1.00  0.00     0.037 C 
ATOM     10  C   UNL     1      19.880  10.982  16.532  1.00  0.00     0.014 C 
ATOM     11  C   UNL     1      22.783  11.391  16.996  1.00  0.00     0.005 C 
ATOM     12  C   UNL     1      23.472  10.739  16.060  1.00  0.00    -0.024 C 
ATOM     13  C   UNL     1      23.760   9.234  16.193  1.00  0.00     0.024 C 
ATOM     14  C   UNL     1      24.797   8.687  15.095  1.00  0.00    -0.022 C 
ATOM     15  C   UNL     1      24.398   9.247  13.671  1.00  0.00     0.010 C 
ATOM     16  C   UNL     1      25.496   9.164  12.615  1.00  0.00     0.033 C 
ATOM     17  C   UNL     1      26.765   9.864  13.104  1.00  0.00     0.123 C 
ATOM     18  C   UNL     1      27.371   9.152  14.349  1.00  0.00     0.020 C 
ATOM     19  C   UNL     1      26.309   9.014  15.536  1.00  0.00     0.006 C 
ATOM     20  C   UNL     1      26.383  10.132  16.618  1.00  0.00     0.005 C 
ATOM     21  C   UNL     1      25.503   9.901  17.885  1.00  0.00     0.008 C 
ATOM     22  C   UNL     1      24.205   9.020  17.690  1.00  0.00    -0.017 C 
ATOM     23  C   UNL     1      22.980   9.453  18.694  1.00  0.00     0.009 C 
ATOM     24  C   UNL     1      22.033   8.212  19.018  1.00  0.00     0.043 C 
ATOM     25  C   UNL     1      20.565   8.533  19.460  1.00  0.00     0.124 C 
ATOM     26  C   UNL     1      23.590   9.875  20.074  1.00  0.00     0.015 C 
ATOM     27  C   UNL     1      24.616   7.544  18.009  1.00  0.00     0.013 C 
ATOM     28  C   UNL     1      27.849   7.725  13.936  1.00  0.00     0.017 C 
ATOM     29  C   UNL     1      24.614   7.132  14.962  1.00  0.00     0.012 C 
ATOM     30  C   UNL     1      19.291  13.283  17.428  1.00  0.00     0.011 C 
ENDROOT
BRANCH  25  31
ATOM     31  O   UNL     1      20.466   8.455  20.861  1.00  0.00    -0.392 OA
ATOM     32  H   UNL     1      20.448   9.386  21.204  1.00  0.00     0.210 HD
ENDBRANCH  25  31
BRANCH  18  33
ATOM     33  C   UNL     1      28.694   9.885  14.764  1.00  0.00     0.165 C 
BRANCH  33  34
ATOM     34  O   UNL     1      29.848   9.125  14.500  1.00  0.00    -0.396 OA
ATOM     35  H   UNL     1      30.598   9.759  14.352  1.00  0.00     0.210 HD
ENDBRANCH  33  34
ENDBRANCH  18  33
BRANCH  17  36
ATOM     36  O   UNL     1      26.467  11.208  13.394  1.00  0.00    -0.392 OA
ATOM     37  H   UNL     1      25.719  11.475  12.797  1.00  0.00     0.210 HD
ENDBRANCH  17  36
TORSDOF 4
ENDMDL
