MODEL 1
REMARK VINA RESULT:    -4.061      0.000      0.000
REMARK INTER + INTRA:          -7.272
REMARK INTER:                  -6.198
REMARK INTRA:                  -1.075
REMARK UNBOUND:                -1.075
REMARK SMILES CC(=O)CCC=C(C)CCC=C(C)CCC=C(C)C
REMARK SMILES IDX 10 1 11 2 12 3 13 4 14 5 15 6 16 7 18 8 17 9 19 10 9 11 7 12
REMARK SMILES IDX 6 13 8 14 5 15 4 16 2 17 3 18 1 19
REMARK H PARENT
REMARK Flexibility Score: inf
ROOT
ATOM      1  C   UNL     1      76.936  34.956  51.822  1.00  0.00     0.032 C 
ENDROOT
BRANCH   1   2
ATOM      2  C   UNL     1      78.270  35.383  52.380  1.00  0.00    -0.028 C 
ATOM      3  C   UNL     1      79.317  35.788  51.628  1.00  0.00    -0.077 C 
ATOM      4  C   UNL     1      79.214  35.935  50.129  1.00  0.00     0.039 C 
BRANCH   3   5
ATOM      5  C   UNL     1      80.633  36.094  52.309  1.00  0.00     0.034 C 
BRANCH   5   6
ATOM      6  C   UNL     1      81.376  34.801  52.646  1.00  0.00     0.032 C 
BRANCH   6   7
ATOM      7  C   UNL     1      81.500  33.924  51.425  1.00  0.00    -0.028 C 
ATOM      8  C   UNL     1      80.004  32.145  52.354  1.00  0.00     0.039 C 
ATOM      9  C   UNL     1      80.911  32.716  51.290  1.00  0.00    -0.080 C 
ATOM     10  C   UNL     1      81.171  31.928  50.032  1.00  0.00     0.039 C 
ENDBRANCH   6   7
ENDBRANCH   5   6
ENDBRANCH   3   5
ENDBRANCH   1   2
BRANCH   1  11
ATOM     11  C   UNL     1      75.946  36.124  51.864  1.00  0.00     0.034 C 
BRANCH  11  12
ATOM     12  C   UNL     1      74.580  35.670  52.326  1.00  0.00    -0.077 C 
ATOM     13  C   UNL     1      74.480  34.938  53.460  1.00  0.00    -0.028 C 
ATOM     14  C   UNL     1      73.368  36.026  51.499  1.00  0.00     0.039 C 
BRANCH  13  15
ATOM     15  C   UNL     1      73.194  34.357  53.991  1.00  0.00     0.035 C 
BRANCH  15  16
ATOM     16  C   UNL     1      73.483  33.153  54.889  1.00  0.00     0.079 C 
BRANCH  16  17
ATOM     17  C   UNL     1      73.053  33.434  56.304  1.00  0.00     0.130 C 
ATOM     18  O   UNL     1      73.531  32.776  57.218  1.00  0.00    -0.300 OA
ATOM     19  C   UNL     1      72.059  34.513  56.618  1.00  0.00     0.087 C 
ENDBRANCH  16  17
ENDBRANCH  15  16
ENDBRANCH  13  15
ENDBRANCH  11  12
ENDBRANCH   1  11
TORSDOF 9
ENDMDL
MODEL 2
REMARK VINA RESULT:    -3.966      2.614      7.642
REMARK INTER + INTRA:          -7.127
REMARK INTER:                  -5.988
REMARK INTRA:                  -1.139
REMARK UNBOUND:                -1.075
REMARK SMILES CC(=O)CCC=C(C)CCC=C(C)CCC=C(C)C
REMARK SMILES IDX 10 1 11 2 12 3 13 4 14 5 15 6 16 7 18 8 17 9 19 10 9 11 7 12
REMARK SMILES IDX 6 13 8 14 5 15 4 16 2 17 3 18 1 19
REMARK H PARENT
REMARK Flexibility Score: inf
ROOT
ATOM      1  C   UNL     1      77.075  35.108  51.294  1.00  0.00     0.032 C 
ENDROOT
BRANCH   1   2
ATOM      2  C   UNL     1      76.073  35.832  52.158  1.00  0.00    -0.028 C 
ATOM      3  C   UNL     1      75.001  35.247  52.738  1.00  0.00    -0.077 C 
ATOM      4  C   UNL     1      74.754  33.760  52.640  1.00  0.00     0.039 C 
BRANCH   3   5
ATOM      5  C   UNL     1      74.018  36.108  53.499  1.00  0.00     0.034 C 
BRANCH   5   6
ATOM      6  C   UNL     1      74.234  35.965  55.007  1.00  0.00     0.032 C 
BRANCH   6   7
ATOM      7  C   UNL     1      72.918  35.769  55.716  1.00  0.00    -0.028 C 
ATOM      8  C   UNL     1      73.251  33.303  55.990  1.00  0.00     0.039 C 
ATOM      9  C   UNL     1      72.450  34.575  56.140  1.00  0.00    -0.080 C 
ATOM     10  C   UNL     1      71.088  34.526  56.785  1.00  0.00     0.039 C 
ENDBRANCH   6   7
ENDBRANCH   5   6
ENDBRANCH   3   5
ENDBRANCH   1   2
BRANCH   1  11
ATOM     11  C   UNL     1      77.839  36.106  50.420  1.00  0.00     0.034 C 
BRANCH  11  12
ATOM     12  C   UNL     1      79.334  35.957  50.595  1.00  0.00    -0.077 C 
ATOM     13  C   UNL     1      79.828  35.695  51.827  1.00  0.00    -0.028 C 
ATOM     14  C   UNL     1      80.234  36.125  49.395  1.00  0.00     0.039 C 
BRANCH  13  15
ATOM     15  C   UNL     1      81.296  35.599  52.155  1.00  0.00     0.035 C 
BRANCH  15  16
ATOM     16  C   UNL     1      81.620  34.231  52.759  1.00  0.00     0.079 C 
BRANCH  16  17
ATOM     17  C   UNL     1      81.161  33.128  51.844  1.00  0.00     0.130 C 
ATOM     18  O   UNL     1      81.546  33.113  50.682  1.00  0.00    -0.300 OA
ATOM     19  C   UNL     1      80.251  32.038  52.330  1.00  0.00     0.087 C 
ENDBRANCH  16  17
ENDBRANCH  15  16
ENDBRANCH  13  15
ENDBRANCH  11  12
ENDBRANCH   1  11
TORSDOF 9
ENDMDL
MODEL 3
REMARK VINA RESULT:    -3.902     14.896     17.097
REMARK INTER + INTRA:          -7.029
REMARK INTER:                  -6.370
REMARK INTRA:                  -0.660
REMARK UNBOUND:                -1.075
REMARK SMILES CC(=O)CCC=C(C)CCC=C(C)CCC=C(C)C
REMARK SMILES IDX 10 1 11 2 12 3 13 4 14 5 15 6 16 7 18 8 17 9 19 10 9 11 7 12
REMARK SMILES IDX 6 13 8 14 5 15 4 16 2 17 3 18 1 19
REMARK H PARENT
REMARK Flexibility Score: inf
ROOT
ATOM      1  C   UNL     1      88.092  29.804  64.810  1.00  0.00     0.032 C 
ENDROOT
BRANCH   1   2
ATOM      2  C   UNL     1      88.827  28.504  64.593  1.00  0.00    -0.028 C 
ATOM      3  C   UNL     1      88.223  27.306  64.429  1.00  0.00    -0.077 C 
ATOM      4  C   UNL     1      86.721  27.171  64.360  1.00  0.00     0.039 C 
BRANCH   3   5
ATOM      5  C   UNL     1      89.079  26.064  64.319  1.00  0.00     0.034 C 
BRANCH   5   6
ATOM      6  C   UNL     1      88.313  24.944  63.612  1.00  0.00     0.032 C 
BRANCH   6   7
ATOM      7  C   UNL     1      88.973  24.593  62.302  1.00  0.00    -0.028 C 
ATOM      8  C   UNL     1      86.882  24.945  60.971  1.00  0.00     0.039 C 
ATOM      9  C   UNL     1      88.337  24.563  61.111  1.00  0.00    -0.080 C 
ATOM     10  C   UNL     1      89.116  24.139  59.892  1.00  0.00     0.039 C 
ENDBRANCH   6   7
ENDBRANCH   5   6
ENDBRANCH   3   5
ENDBRANCH   1   2
BRANCH   1  11
ATOM     11  C   UNL     1      88.925  30.741  65.691  1.00  0.00     0.034 C 
BRANCH  11  12
ATOM     12  C   UNL     1      88.045  31.718  66.437  1.00  0.00    -0.077 C 
ATOM     13  C   UNL     1      86.758  31.383  66.690  1.00  0.00    -0.028 C 
ATOM     14  C   UNL     1      88.619  33.049  66.859  1.00  0.00     0.039 C 
BRANCH  13  15
ATOM     15  C   UNL     1      85.754  32.291  67.354  1.00  0.00     0.035 C 
BRANCH  15  16
ATOM     16  C   UNL     1      84.346  32.005  66.827  1.00  0.00     0.079 C 
BRANCH  16  17
ATOM     17  C   UNL     1      84.387  31.683  65.358  1.00  0.00     0.130 C 
ATOM     18  O   UNL     1      85.100  32.346  64.618  1.00  0.00    -0.300 OA
ATOM     19  C   UNL     1      83.579  30.556  64.784  1.00  0.00     0.087 C 
ENDBRANCH  16  17
ENDBRANCH  15  16
ENDBRANCH  13  15
ENDBRANCH  11  12
ENDBRANCH   1  11
TORSDOF 9
ENDMDL
MODEL 4
REMARK VINA RESULT:    -3.522     15.321     17.194
REMARK INTER + INTRA:          -6.449
REMARK INTER:                  -6.016
REMARK INTRA:                  -0.434
REMARK UNBOUND:                -1.075
REMARK SMILES CC(=O)CCC=C(C)CCC=C(C)CCC=C(C)C
REMARK SMILES IDX 10 1 11 2 12 3 13 4 14 5 15 6 16 7 18 8 17 9 19 10 9 11 7 12
REMARK SMILES IDX 6 13 8 14 5 15 4 16 2 17 3 18 1 19
REMARK H PARENT
REMARK Flexibility Score: inf
ROOT
ATOM      1  C   UNL     1      84.410  30.477  64.759  1.00  0.00     0.032 C 
ENDROOT
BRANCH   1   2
ATOM      2  C   UNL     1      85.889  30.186  64.735  1.00  0.00    -0.028 C 
ATOM      3  C   UNL     1      86.423  28.944  64.763  1.00  0.00    -0.077 C 
ATOM      4  C   UNL     1      85.561  27.704  64.734  1.00  0.00     0.039 C 
BRANCH   3   5
ATOM      5  C   UNL     1      87.926  28.794  64.834  1.00  0.00     0.034 C 
BRANCH   5   6
ATOM      6  C   UNL     1      88.321  27.317  64.798  1.00  0.00     0.032 C 
BRANCH   6   7
ATOM      7  C   UNL     1      88.849  26.941  63.437  1.00  0.00    -0.028 C 
ATOM      8  C   UNL     1      87.395  24.911  63.256  1.00  0.00     0.039 C 
ATOM      9  C   UNL     1      88.463  25.848  62.743  1.00  0.00    -0.080 C 
ATOM     10  C   UNL     1      89.122  25.571  61.416  1.00  0.00     0.039 C 
ENDBRANCH   6   7
ENDBRANCH   5   6
ENDBRANCH   3   5
ENDBRANCH   1   2
BRANCH   1  11
ATOM     11  C   UNL     1      84.152  31.858  65.369  1.00  0.00     0.034 C 
BRANCH  11  12
ATOM     12  C   UNL     1      85.051  32.109  66.559  1.00  0.00    -0.077 C 
ATOM     13  C   UNL     1      86.366  32.348  66.350  1.00  0.00    -0.028 C 
ATOM     14  C   UNL     1      84.459  32.063  67.948  1.00  0.00     0.039 C 
BRANCH  13  15
ATOM     15  C   UNL     1      87.384  32.536  67.447  1.00  0.00     0.035 C 
BRANCH  15  16
ATOM     16  C   UNL     1      88.801  32.478  66.875  1.00  0.00     0.079 C 
BRANCH  16  17
ATOM     17  C   UNL     1      88.940  33.420  65.710  1.00  0.00     0.130 C 
ATOM     18  O   UNL     1      89.003  32.966  64.576  1.00  0.00    -0.300 OA
ATOM     19  C   UNL     1      88.991  34.907  65.910  1.00  0.00     0.087 C 
ENDBRANCH  16  17
ENDBRANCH  15  16
ENDBRANCH  13  15
ENDBRANCH  11  12
ENDBRANCH   1  11
TORSDOF 9
ENDMDL
MODEL 5
REMARK VINA RESULT:    -3.184     15.643     17.661
REMARK INTER + INTRA:          -5.934
REMARK INTER:                  -5.886
REMARK INTRA:                  -0.048
REMARK UNBOUND:                -1.075
REMARK SMILES CC(=O)CCC=C(C)CCC=C(C)CCC=C(C)C
REMARK SMILES IDX 10 1 11 2 12 3 13 4 14 5 15 6 16 7 18 8 17 9 19 10 9 11 7 12
REMARK SMILES IDX 6 13 8 14 5 15 4 16 2 17 3 18 1 19
REMARK H PARENT
REMARK Flexibility Score: inf
ROOT
ATOM      1  C   UNL     1      85.031  30.207  64.671  1.00  0.00     0.032 C 
ENDROOT
BRANCH   1   2
ATOM      2  C   UNL     1      85.809  30.885  65.772  1.00  0.00    -0.028 C 
ATOM      3  C   UNL     1      85.263  31.707  66.696  1.00  0.00    -0.077 C 
ATOM      4  C   UNL     1      83.775  31.958  66.762  1.00  0.00     0.039 C 
BRANCH   3   5
ATOM      5  C   UNL     1      86.171  32.401  67.686  1.00  0.00     0.034 C 
BRANCH   5   6
ATOM      6  C   UNL     1      87.637  32.226  67.284  1.00  0.00     0.032 C 
BRANCH   6   7
ATOM      7  C   UNL     1      88.197  33.517  66.740  1.00  0.00    -0.028 C 
ATOM      8  C   UNL     1      88.233  32.692  64.377  1.00  0.00     0.039 C 
ATOM      9  C   UNL     1      88.495  33.732  65.441  1.00  0.00    -0.080 C 
ATOM     10  C   UNL     1      89.102  35.056  65.053  1.00  0.00     0.039 C 
ENDBRANCH   6   7
ENDBRANCH   5   6
ENDBRANCH   3   5
ENDBRANCH   1   2
BRANCH   1  11
ATOM     11  C   UNL     1      85.171  28.686  64.783  1.00  0.00     0.034 C 
BRANCH  11  12
ATOM     12  C   UNL     1      86.622  28.263  64.725  1.00  0.00    -0.077 C 
ATOM     13  C   UNL     1      86.918  26.968  64.464  1.00  0.00    -0.028 C 
ATOM     14  C   UNL     1      87.698  29.290  64.981  1.00  0.00     0.039 C 
BRANCH  13  15
ATOM     15  C   UNL     1      88.313  26.398  64.453  1.00  0.00     0.035 C 
BRANCH  15  16
ATOM     16  C   UNL     1      88.371  25.144  63.578  1.00  0.00     0.079 C 
BRANCH  16  17
ATOM     17  C   UNL     1      88.721  25.505  62.160  1.00  0.00     0.130 C 
ATOM     18  O   UNL     1      89.123  26.633  61.910  1.00  0.00    -0.300 OA
ATOM     19  C   UNL     1      88.599  24.506  61.047  1.00  0.00     0.087 C 
ENDBRANCH  16  17
ENDBRANCH  15  16
ENDBRANCH  13  15
ENDBRANCH  11  12
ENDBRANCH   1  11
TORSDOF 9
ENDMDL
MODEL 6
REMARK VINA RESULT:    -2.804      1.402      2.913
REMARK INTER + INTRA:          -5.354
REMARK INTER:                  -6.084
REMARK INTRA:                   0.730
REMARK UNBOUND:                -1.075
REMARK SMILES CC(=O)CCC=C(C)CCC=C(C)CCC=C(C)C
REMARK SMILES IDX 10 1 11 2 12 3 13 4 14 5 15 6 16 7 18 8 17 9 19 10 9 11 7 12
REMARK SMILES IDX 6 13 8 14 5 15 4 16 2 17 3 18 1 19
REMARK H PARENT
REMARK Flexibility Score: inf
ROOT
ATOM      1  C   UNL     1      77.680  32.455  52.792  1.00  0.00     0.032 C 
ENDROOT
BRANCH   1   2
ATOM      2  C   UNL     1      78.935  33.065  52.220  1.00  0.00    -0.028 C 
ATOM      3  C   UNL     1      80.175  32.552  52.382  1.00  0.00    -0.077 C 
ATOM      4  C   UNL     1      80.409  31.242  53.096  1.00  0.00     0.039 C 
BRANCH   3   5
ATOM      5  C   UNL     1      81.361  33.318  51.841  1.00  0.00     0.034 C 
BRANCH   5   6
ATOM      6  C   UNL     1      81.247  34.803  52.192  1.00  0.00     0.032 C 
BRANCH   6   7
ATOM      7  C   UNL     1      80.110  35.442  51.435  1.00  0.00    -0.028 C 
ATOM      8  C   UNL     1      80.901  34.600  49.215  1.00  0.00     0.039 C 
ATOM      9  C   UNL     1      79.956  35.382  50.095  1.00  0.00    -0.080 C 
ATOM     10  C   UNL     1      78.797  36.120  49.472  1.00  0.00     0.039 C 
ENDBRANCH   6   7
ENDBRANCH   5   6
ENDBRANCH   3   5
ENDBRANCH   1   2
BRANCH   1  11
ATOM     11  C   UNL     1      76.462  32.877  51.965  1.00  0.00     0.034 C 
BRANCH  11  12
ATOM     12  C   UNL     1      75.845  34.147  52.505  1.00  0.00    -0.077 C 
ATOM     13  C   UNL     1      74.634  34.084  53.107  1.00  0.00    -0.028 C 
ATOM     14  C   UNL     1      76.585  35.452  52.339  1.00  0.00     0.039 C 
BRANCH  13  15
ATOM     15  C   UNL     1      73.873  35.281  53.619  1.00  0.00     0.035 C 
BRANCH  15  16
ATOM     16  C   UNL     1      73.758  35.228  55.144  1.00  0.00     0.079 C 
BRANCH  16  17
ATOM     17  C   UNL     1      72.661  34.285  55.559  1.00  0.00     0.130 C 
ATOM     18  O   UNL     1      72.489  33.251  54.930  1.00  0.00    -0.300 OA
ATOM     19  C   UNL     1      71.781  34.583  56.738  1.00  0.00     0.087 C 
ENDBRANCH  16  17
ENDBRANCH  15  16
ENDBRANCH  13  15
ENDBRANCH  11  12
ENDBRANCH   1  11
TORSDOF 9
ENDMDL
MODEL 7
REMARK VINA RESULT:    -2.760      1.322      2.217
REMARK INTER + INTRA:          -5.286
REMARK INTER:                  -4.390
REMARK INTRA:                  -0.896
REMARK UNBOUND:                -1.075
REMARK SMILES CC(=O)CCC=C(C)CCC=C(C)CCC=C(C)C
REMARK SMILES IDX 10 1 11 2 12 3 13 4 14 5 15 6 16 7 18 8 17 9 19 10 9 11 7 12
REMARK SMILES IDX 6 13 8 14 5 15 4 16 2 17 3 18 1 19
REMARK H PARENT
REMARK Flexibility Score: inf
ROOT
ATOM      1  C   UNL     1      76.447  33.398  52.619  1.00  0.00     0.032 C 
ENDROOT
BRANCH   1   2
ATOM      2  C   UNL     1      77.163  34.175  51.542  1.00  0.00    -0.028 C 
ATOM      3  C   UNL     1      77.666  35.418  51.705  1.00  0.00    -0.077 C 
ATOM      4  C   UNL     1      77.631  36.125  53.039  1.00  0.00     0.039 C 
BRANCH   3   5
ATOM      5  C   UNL     1      78.273  36.125  50.514  1.00  0.00     0.034 C 
BRANCH   5   6
ATOM      6  C   UNL     1      79.801  36.095  50.593  1.00  0.00     0.032 C 
BRANCH   6   7
ATOM      7  C   UNL     1      80.292  34.697  50.874  1.00  0.00    -0.028 C 
ATOM      8  C   UNL     1      81.296  35.321  53.080  1.00  0.00     0.039 C 
ATOM      9  C   UNL     1      80.988  34.339  51.975  1.00  0.00    -0.080 C 
ATOM     10  C   UNL     1      81.461  32.913  52.092  1.00  0.00     0.039 C 
ENDBRANCH   6   7
ENDBRANCH   5   6
ENDBRANCH   3   5
ENDBRANCH   1   2
BRANCH   1  11
ATOM     11  C   UNL     1      74.936  33.415  52.367  1.00  0.00     0.034 C 
BRANCH  11  12
ATOM     12  C   UNL     1      74.280  34.597  53.045  1.00  0.00    -0.077 C 
ATOM     13  C   UNL     1      74.437  34.760  54.379  1.00  0.00    -0.028 C 
ATOM     14  C   UNL     1      73.451  35.550  52.218  1.00  0.00     0.039 C 
BRANCH  13  15
ATOM     15  C   UNL     1      73.777  35.847  55.189  1.00  0.00     0.035 C 
BRANCH  15  16
ATOM     16  C   UNL     1      72.564  35.291  55.938  1.00  0.00     0.079 C 
BRANCH  16  17
ATOM     17  C   UNL     1      72.656  33.794  56.057  1.00  0.00     0.130 C 
ATOM     18  O   UNL     1      72.264  33.094  55.134  1.00  0.00    -0.300 OA
ATOM     19  C   UNL     1      73.229  33.142  57.281  1.00  0.00     0.087 C 
ENDBRANCH  16  17
ENDBRANCH  15  16
ENDBRANCH  13  15
ENDBRANCH  11  12
ENDBRANCH   1  11
TORSDOF 9
ENDMDL
