MODEL 1
REMARK VINA RESULT:    -9.548      0.000      0.000
REMARK INTER + INTRA:         -11.282
REMARK INTER:                 -11.501
REMARK INTRA:                   0.219
REMARK UNBOUND:                 0.219
REMARK SMILES O=c1c(O)c(-c2ccc(O)c(O)c2)oc2cc(O)cc(O)c12
REMARK SMILES IDX 5 1 3 2 2 3 1 4 22 5 20 6 19 7 17 8 16 9 15 10 14 11 6 12
REMARK SMILES IDX 7 13 8 14 9 15 13 16 11 17 10 18 12 20 4 22 21 24 18 26
REMARK H PARENT 10 19 12 21 4 23 21 25 18 27
REMARK Flexibility Score: inf
ROOT
ATOM      1  C   UNL     1      -8.222  28.650  16.906  1.00  0.00     0.180 A 
ATOM      2  C   UNL     1      -9.089  28.319  15.850  1.00  0.00     0.208 A 
ATOM      3  C   UNL     1      -8.604  28.356  14.533  1.00  0.00     0.238 A 
ATOM      4  O   UNL     1      -9.399  28.111  13.589  1.00  0.00    -0.285 OA
ATOM      5  C   UNL     1      -7.254  28.708  14.289  1.00  0.00     0.111 A 
ATOM      6  C   UNL     1      -6.646  28.740  12.998  1.00  0.00     0.134 A 
ATOM      7  C   UNL     1      -5.341  29.229  12.862  1.00  0.00     0.093 A 
ATOM      8  C   UNL     1      -4.600  29.626  13.979  1.00  0.00     0.123 A 
ATOM      9  C   UNL     1      -5.165  29.543  15.248  1.00  0.00     0.094 A 
ATOM     10  C   UNL     1      -6.477  29.094  15.413  1.00  0.00     0.146 A 
ATOM     11  O   UNL     1      -6.980  29.040  16.640  1.00  0.00    -0.452 OA
ENDROOT
BRANCH   1  12
ATOM     12  C   UNL     1      -8.653  28.610  18.321  1.00  0.00     0.025 A 
ATOM     13  C   UNL     1      -7.782  28.190  19.341  1.00  0.00     0.016 A 
ATOM     14  C   UNL     1      -8.204  28.184  20.674  1.00  0.00     0.051 A 
ATOM     15  C   UNL     1      -9.496  28.608  21.008  1.00  0.00     0.157 A 
ATOM     16  C   UNL     1      -9.941  29.054  18.665  1.00  0.00     0.062 A 
ATOM     17  C   UNL     1     -10.367  29.048  19.999  1.00  0.00     0.158 A 
BRANCH  15  18
ATOM     18  O   UNL     1      -9.914  28.598  22.338  1.00  0.00    -0.504 OA
ATOM     19  H   UNL     1     -10.816  28.967  22.614  1.00  0.00     0.293 HD
ENDBRANCH  15  18
BRANCH  17  20
ATOM     20  O   UNL     1     -11.657  29.484  20.299  1.00  0.00    -0.504 OA
ATOM     21  H   UNL     1     -12.392  29.509  19.602  1.00  0.00     0.293 HD
ENDBRANCH  17  20
ENDBRANCH   1  12
BRANCH   2  22
ATOM     22  O   UNL     1     -10.423  27.995  16.112  1.00  0.00    -0.502 OA
ATOM     23  H   UNL     1     -10.754  27.762  17.041  1.00  0.00     0.293 HD
ENDBRANCH   2  22
BRANCH   6  24
ATOM     24  O   UNL     1      -7.264  28.279  11.832  1.00  0.00    -0.507 OA
ATOM     25  H   UNL     1      -6.846  27.638  11.175  1.00  0.00     0.293 HD
ENDBRANCH   6  24
BRANCH   8  26
ATOM     26  O   UNL     1      -3.297  30.097  13.836  1.00  0.00    -0.508 OA
ATOM     27  H   UNL     1      -3.094  31.088  13.778  1.00  0.00     0.293 HD
ENDBRANCH   8  26
TORSDOF 6
ENDMDL
MODEL 2
REMARK VINA RESULT:    -9.527      2.133      4.367
REMARK INTER + INTRA:         -11.257
REMARK INTER:                 -11.505
REMARK INTRA:                   0.248
REMARK UNBOUND:                 0.219
REMARK SMILES O=c1c(O)c(-c2ccc(O)c(O)c2)oc2cc(O)cc(O)c12
REMARK SMILES IDX 5 1 3 2 2 3 1 4 22 5 20 6 19 7 17 8 16 9 15 10 14 11 6 12
REMARK SMILES IDX 7 13 8 14 9 15 13 16 11 17 10 18 12 20 4 22 21 24 18 26
REMARK H PARENT 10 19 12 21 4 23 21 25 18 27
REMARK Flexibility Score: inf
ROOT
ATOM      1  C   UNL     1      -8.217  28.284  16.854  1.00  0.00     0.180 A 
ATOM      2  C   UNL     1      -7.341  28.530  15.783  1.00  0.00     0.208 A 
ATOM      3  C   UNL     1      -7.833  28.460  14.470  1.00  0.00     0.238 A 
ATOM      4  O   UNL     1      -7.032  28.628  13.514  1.00  0.00    -0.285 OA
ATOM      5  C   UNL     1      -9.199  28.163  14.245  1.00  0.00     0.111 A 
ATOM      6  C   UNL     1      -9.815  28.106  12.959  1.00  0.00     0.134 A 
ATOM      7  C   UNL     1     -11.142  27.673  12.847  1.00  0.00     0.093 A 
ATOM      8  C   UNL     1     -11.895  27.359  13.981  1.00  0.00     0.123 A 
ATOM      9  C   UNL     1     -11.321  27.468  15.245  1.00  0.00     0.094 A 
ATOM     10  C   UNL     1      -9.988  27.862  15.386  1.00  0.00     0.146 A 
ATOM     11  O   UNL     1      -9.477  27.943  16.608  1.00  0.00    -0.452 OA
ENDROOT
BRANCH   1  12
ATOM     12  C   UNL     1      -7.777  28.364  18.266  1.00  0.00     0.025 A 
ATOM     13  C   UNL     1      -8.638  28.825  19.276  1.00  0.00     0.016 A 
ATOM     14  C   UNL     1      -8.208  28.868  20.606  1.00  0.00     0.051 A 
ATOM     15  C   UNL     1      -6.919  28.439  20.946  1.00  0.00     0.157 A 
ATOM     16  C   UNL     1      -6.493  27.916  18.616  1.00  0.00     0.062 A 
ATOM     17  C   UNL     1      -6.059  27.957  19.946  1.00  0.00     0.158 A 
BRANCH  15  18
ATOM     18  O   UNL     1      -6.494  28.485  22.273  1.00  0.00    -0.504 OA
ATOM     19  H   UNL     1      -6.892  27.878  22.979  1.00  0.00     0.293 HD
ENDBRANCH  15  18
BRANCH  17  20
ATOM     20  O   UNL     1      -4.772  27.516  20.253  1.00  0.00    -0.504 OA
ATOM     21  H   UNL     1      -4.601  26.792  20.940  1.00  0.00     0.293 HD
ENDBRANCH  17  20
ENDBRANCH   1  12
BRANCH   2  22
ATOM     22  O   UNL     1      -5.991  28.801  16.027  1.00  0.00    -0.502 OA
ATOM     23  H   UNL     1      -5.679  29.316  16.841  1.00  0.00     0.293 HD
ENDBRANCH   2  22
BRANCH   6  24
ATOM     24  O   UNL     1      -9.181  28.487  11.772  1.00  0.00    -0.507 OA
ATOM     25  H   UNL     1      -9.096  29.438  11.446  1.00  0.00     0.293 HD
ENDBRANCH   6  24
BRANCH   8  26
ATOM     26  O   UNL     1     -13.220  26.944  13.862  1.00  0.00    -0.508 OA
ATOM     27  H   UNL     1     -13.991  27.567  14.072  1.00  0.00     0.293 HD
ENDBRANCH   8  26
TORSDOF 6
ENDMDL
MODEL 3
REMARK VINA RESULT:    -8.782      2.611      5.999
REMARK INTER + INTRA:         -10.360
REMARK INTER:                 -10.380
REMARK INTRA:                   0.020
REMARK UNBOUND:                 0.219
REMARK SMILES O=c1c(O)c(-c2ccc(O)c(O)c2)oc2cc(O)cc(O)c12
REMARK SMILES IDX 5 1 3 2 2 3 1 4 22 5 20 6 19 7 17 8 16 9 15 10 14 11 6 12
REMARK SMILES IDX 7 13 8 14 9 15 13 16 11 17 10 18 12 20 4 22 21 24 18 26
REMARK H PARENT 10 19 12 21 4 23 21 25 18 27
REMARK Flexibility Score: inf
ROOT
ATOM      1  C   UNL     1      -8.858  28.361  17.160  1.00  0.00     0.180 A 
ATOM      2  C   UNL     1      -9.556  28.712  18.328  1.00  0.00     0.208 A 
ATOM      3  C   UNL     1      -8.875  28.713  19.556  1.00  0.00     0.238 A 
ATOM      4  O   UNL     1      -9.519  28.976  20.604  1.00  0.00    -0.285 OA
ATOM      5  C   UNL     1      -7.500  28.379  19.598  1.00  0.00     0.111 A 
ATOM      6  C   UNL     1      -6.700  28.386  20.780  1.00  0.00     0.134 A 
ATOM      7  C   UNL     1      -5.384  27.912  20.726  1.00  0.00     0.093 A 
ATOM      8  C   UNL     1      -4.818  27.492  19.519  1.00  0.00     0.123 A 
ATOM      9  C   UNL     1      -5.572  27.537  18.350  1.00  0.00     0.094 A 
ATOM     10  C   UNL     1      -6.899  27.971  18.378  1.00  0.00     0.146 A 
ATOM     11  O   UNL     1      -7.585  27.989  17.242  1.00  0.00    -0.452 OA
ENDROOT
BRANCH   1  12
ATOM     12  C   UNL     1      -9.502  28.361  15.827  1.00  0.00     0.025 A 
ATOM     13  C   UNL     1      -8.913  29.013  14.729  1.00  0.00     0.016 A 
ATOM     14  C   UNL     1      -9.528  28.978  13.474  1.00  0.00     0.051 A 
ATOM     15  C   UNL     1     -10.730  28.283  13.295  1.00  0.00     0.157 A 
ATOM     16  C   UNL     1     -10.696  27.647  15.636  1.00  0.00     0.062 A 
ATOM     17  C   UNL     1     -11.315  27.611  14.380  1.00  0.00     0.158 A 
BRANCH  15  18
ATOM     18  O   UNL     1     -11.340  28.252  12.042  1.00  0.00    -0.504 OA
ATOM     19  H   UNL     1     -12.059  28.918  11.785  1.00  0.00     0.293 HD
ENDBRANCH  15  18
BRANCH  17  20
ATOM     20  O   UNL     1     -12.507  26.904  14.233  1.00  0.00    -0.504 OA
ATOM     21  H   UNL     1     -13.405  27.307  14.470  1.00  0.00     0.293 HD
ENDBRANCH  17  20
ENDBRANCH   1  12
BRANCH   2  22
ATOM     22  O   UNL     1     -10.919  29.018  18.267  1.00  0.00    -0.502 OA
ATOM     23  H   UNL     1     -11.536  28.613  17.573  1.00  0.00     0.293 HD
ENDBRANCH   2  22
BRANCH   6  24
ATOM     24  O   UNL     1      -7.138  28.871  22.016  1.00  0.00    -0.507 OA
ATOM     25  H   UNL     1      -6.968  29.805  22.359  1.00  0.00     0.293 HD
ENDBRANCH   6  24
BRANCH   8  26
ATOM     26  O   UNL     1      -3.502  27.036  19.472  1.00  0.00    -0.508 OA
ATOM     27  H   UNL     1      -3.062  26.604  20.275  1.00  0.00     0.293 HD
ENDBRANCH   8  26
TORSDOF 6
ENDMDL
MODEL 4
REMARK VINA RESULT:    -8.749      1.435      7.282
REMARK INTER + INTRA:         -10.320
REMARK INTER:                 -10.362
REMARK INTRA:                   0.042
REMARK UNBOUND:                 0.219
REMARK SMILES O=c1c(O)c(-c2ccc(O)c(O)c2)oc2cc(O)cc(O)c12
REMARK SMILES IDX 5 1 3 2 2 3 1 4 22 5 20 6 19 7 17 8 16 9 15 10 14 11 6 12
REMARK SMILES IDX 7 13 8 14 9 15 13 16 11 17 10 18 12 20 4 22 21 24 18 26
REMARK H PARENT 10 19 12 21 4 23 21 25 18 27
REMARK Flexibility Score: inf
ROOT
ATOM      1  C   UNL     1      -7.555  28.639  17.171  1.00  0.00     0.180 A 
ATOM      2  C   UNL     1      -6.843  28.317  18.339  1.00  0.00     0.208 A 
ATOM      3  C   UNL     1      -7.518  28.319  19.571  1.00  0.00     0.238 A 
ATOM      4  O   UNL     1      -6.863  28.082  20.618  1.00  0.00    -0.285 OA
ATOM      5  C   UNL     1      -8.899  28.627  19.616  1.00  0.00     0.111 A 
ATOM      6  C   UNL     1      -9.692  28.620  20.803  1.00  0.00     0.134 A 
ATOM      7  C   UNL     1     -11.017  29.069  20.750  1.00  0.00     0.093 A 
ATOM      8  C   UNL     1     -11.597  29.462  19.541  1.00  0.00     0.123 A 
ATOM      9  C   UNL     1     -10.849  29.416  18.368  1.00  0.00     0.094 A 
ATOM     10  C   UNL     1      -9.514  29.008  18.394  1.00  0.00     0.146 A 
ATOM     11  O   UNL     1      -8.833  28.988  17.255  1.00  0.00    -0.452 OA
ENDROOT
BRANCH   1  12
ATOM     12  C   UNL     1      -6.918  28.634  15.834  1.00  0.00     0.025 A 
ATOM     13  C   UNL     1      -7.515  27.983  14.741  1.00  0.00     0.016 A 
ATOM     14  C   UNL     1      -6.908  28.013  13.482  1.00  0.00     0.051 A 
ATOM     15  C   UNL     1      -5.703  28.702  13.295  1.00  0.00     0.157 A 
ATOM     16  C   UNL     1      -5.721  29.342  15.635  1.00  0.00     0.062 A 
ATOM     17  C   UNL     1      -5.109  29.373  14.376  1.00  0.00     0.158 A 
BRANCH  15  18
ATOM     18  O   UNL     1      -5.100  28.728  12.038  1.00  0.00    -0.504 OA
ATOM     19  H   UNL     1      -4.618  27.919  11.664  1.00  0.00     0.293 HD
ENDBRANCH  15  18
BRANCH  17  20
ATOM     20  O   UNL     1      -3.915  30.075  14.221  1.00  0.00    -0.504 OA
ATOM     21  H   UNL     1      -3.569  30.355  13.311  1.00  0.00     0.293 HD
ENDBRANCH  17  20
ENDBRANCH   1  12
BRANCH   2  22
ATOM     22  O   UNL     1      -5.475  28.036  18.274  1.00  0.00    -0.502 OA
ATOM     23  H   UNL     1      -5.119  27.097  18.145  1.00  0.00     0.293 HD
ENDBRANCH   2  22
BRANCH   6  24
ATOM     24  O   UNL     1      -9.238  28.160  22.042  1.00  0.00    -0.507 OA
ATOM     25  H   UNL     1      -9.197  28.718  22.882  1.00  0.00     0.293 HD
ENDBRANCH   6  24
BRANCH   8  26
ATOM     26  O   UNL     1     -12.921  29.892  19.495  1.00  0.00    -0.508 OA
ATOM     27  H   UNL     1     -13.352  30.367  20.280  1.00  0.00     0.293 HD
ENDBRANCH   8  26
TORSDOF 6
ENDMDL
MODEL 5
REMARK VINA RESULT:    -8.736      2.246      6.845
REMARK INTER + INTRA:         -10.305
REMARK INTER:                 -10.424
REMARK INTRA:                   0.119
REMARK UNBOUND:                 0.219
REMARK SMILES O=c1c(O)c(-c2ccc(O)c(O)c2)oc2cc(O)cc(O)c12
REMARK SMILES IDX 5 1 3 2 2 3 1 4 22 5 20 6 19 7 17 8 16 9 15 10 14 11 6 12
REMARK SMILES IDX 7 13 8 14 9 15 13 16 11 17 10 18 12 20 4 22 21 24 18 26
REMARK H PARENT 10 19 12 21 4 23 21 25 18 27
REMARK Flexibility Score: inf
ROOT
ATOM      1  C   UNL     1      -9.128  28.377  16.198  1.00  0.00     0.180 A 
ATOM      2  C   UNL     1      -7.749  28.237  16.428  1.00  0.00     0.208 A 
ATOM      3  C   UNL     1      -7.277  28.211  17.750  1.00  0.00     0.238 A 
ATOM      4  O   UNL     1      -6.037  28.140  17.948  1.00  0.00    -0.285 OA
ATOM      5  C   UNL     1      -8.193  28.308  18.826  1.00  0.00     0.111 A 
ATOM      6  C   UNL     1      -7.831  28.253  20.205  1.00  0.00     0.134 A 
ATOM      7  C   UNL     1      -8.803  28.492  21.185  1.00  0.00     0.093 A 
ATOM      8  C   UNL     1     -10.137  28.719  20.835  1.00  0.00     0.123 A 
ATOM      9  C   UNL     1     -10.511  28.716  19.494  1.00  0.00     0.094 A 
ATOM     10  C   UNL     1      -9.557  28.517  18.492  1.00  0.00     0.146 A 
ATOM     11  O   UNL     1      -9.954  28.532  17.226  1.00  0.00    -0.452 OA
ENDROOT
BRANCH   1  12
ATOM     12  C   UNL     1      -9.702  28.388  14.833  1.00  0.00     0.025 A 
ATOM     13  C   UNL     1      -9.093  29.104  13.788  1.00  0.00     0.016 A 
ATOM     14  C   UNL     1      -9.639  29.080  12.502  1.00  0.00     0.051 A 
ATOM     15  C   UNL     1     -10.792  28.330  12.237  1.00  0.00     0.157 A 
ATOM     16  C   UNL     1     -10.846  27.621  14.557  1.00  0.00     0.062 A 
ATOM     17  C   UNL     1     -11.396  27.594  13.270  1.00  0.00     0.158 A 
BRANCH  15  18
ATOM     18  O   UNL     1     -11.335  28.309  10.953  1.00  0.00    -0.504 OA
ATOM     19  H   UNL     1     -10.861  27.851  10.184  1.00  0.00     0.293 HD
ENDBRANCH  15  18
BRANCH  17  20
ATOM     20  O   UNL     1     -12.539  26.831  13.038  1.00  0.00    -0.504 OA
ATOM     21  H   UNL     1     -12.664  25.911  13.443  1.00  0.00     0.293 HD
ENDBRANCH  17  20
ENDBRANCH   1  12
BRANCH   2  22
ATOM     22  O   UNL     1      -6.861  28.164  15.351  1.00  0.00    -0.502 OA
ATOM     23  H   UNL     1      -6.615  28.972  14.793  1.00  0.00     0.293 HD
ENDBRANCH   2  22
BRANCH   6  24
ATOM     24  O   UNL     1      -6.548  27.942  20.664  1.00  0.00    -0.507 OA
ATOM     25  H   UNL     1      -6.211  27.007  20.839  1.00  0.00     0.293 HD
ENDBRANCH   6  24
BRANCH   8  26
ATOM     26  O   UNL     1     -11.101  28.940  21.816  1.00  0.00    -0.508 OA
ATOM     27  H   UNL     1     -11.617  29.810  21.866  1.00  0.00     0.293 HD
ENDBRANCH   8  26
TORSDOF 6
ENDMDL
MODEL 6
REMARK VINA RESULT:    -8.639      1.391      6.771
REMARK INTER + INTRA:         -10.187
REMARK INTER:                 -10.358
REMARK INTRA:                   0.171
REMARK UNBOUND:                 0.219
REMARK SMILES O=c1c(O)c(-c2ccc(O)c(O)c2)oc2cc(O)cc(O)c12
REMARK SMILES IDX 5 1 3 2 2 3 1 4 22 5 20 6 19 7 17 8 16 9 15 10 14 11 6 12
REMARK SMILES IDX 7 13 8 14 9 15 13 16 11 17 10 18 12 20 4 22 21 24 18 26
REMARK H PARENT 10 19 12 21 4 23 21 25 18 27
REMARK Flexibility Score: inf
ROOT
ATOM      1  C   UNL     1      -7.556  28.601  16.410  1.00  0.00     0.180 A 
ATOM      2  C   UNL     1      -8.954  28.676  16.540  1.00  0.00     0.208 A 
ATOM      3  C   UNL     1      -9.518  28.713  17.825  1.00  0.00     0.238 A 
ATOM      4  O   UNL     1     -10.771  28.724  17.935  1.00  0.00    -0.285 OA
ATOM      5  C   UNL     1      -8.677  28.692  18.964  1.00  0.00     0.111 A 
ATOM      6  C   UNL     1      -9.138  28.765  20.312  1.00  0.00     0.134 A 
ATOM      7  C   UNL     1      -8.227  28.604  21.364  1.00  0.00     0.093 A 
ATOM      8  C   UNL     1      -6.862  28.437  21.114  1.00  0.00     0.123 A 
ATOM      9  C   UNL     1      -6.395  28.424  19.802  1.00  0.00     0.094 A 
ATOM     10  C   UNL     1      -7.284  28.545  18.732  1.00  0.00     0.146 A 
ATOM     11  O   UNL     1      -6.799  28.517  17.497  1.00  0.00    -0.452 OA
ENDROOT
BRANCH   1  12
ATOM     12  C   UNL     1      -6.888  28.584  15.089  1.00  0.00     0.025 A 
ATOM     13  C   UNL     1      -7.431  27.877  14.003  1.00  0.00     0.016 A 
ATOM     14  C   UNL     1      -6.795  27.895  12.758  1.00  0.00     0.051 A 
ATOM     15  C   UNL     1      -5.616  28.629  12.577  1.00  0.00     0.157 A 
ATOM     16  C   UNL     1      -5.717  29.336  14.896  1.00  0.00     0.062 A 
ATOM     17  C   UNL     1      -5.077  29.356  13.651  1.00  0.00     0.158 A 
BRANCH  15  18
ATOM     18  O   UNL     1      -4.984  28.643  11.335  1.00  0.00    -0.504 OA
ATOM     19  H   UNL     1      -5.215  29.332  10.630  1.00  0.00     0.293 HD
ENDBRANCH  15  18
BRANCH  17  20
ATOM     20  O   UNL     1      -3.910  30.103  13.502  1.00  0.00    -0.504 OA
ATOM     21  H   UNL     1      -3.818  31.039  13.878  1.00  0.00     0.293 HD
ENDBRANCH  17  20
ENDBRANCH   1  12
BRANCH   2  22
ATOM     22  O   UNL     1      -9.766  28.674  15.402  1.00  0.00    -0.502 OA
ATOM     23  H   UNL     1     -10.750  28.433  15.437  1.00  0.00     0.293 HD
ENDBRANCH   2  22
BRANCH   6  24
ATOM     24  O   UNL     1     -10.465  29.021  20.671  1.00  0.00    -0.507 OA
ATOM     25  H   UNL     1     -10.749  29.520  21.501  1.00  0.00     0.293 HD
ENDBRANCH   6  24
BRANCH   8  26
ATOM     26  O   UNL     1      -5.960  28.293  22.166  1.00  0.00    -0.508 OA
ATOM     27  H   UNL     1      -6.028  28.859  23.004  1.00  0.00     0.293 HD
ENDBRANCH   8  26
TORSDOF 6
ENDMDL
MODEL 7
REMARK VINA RESULT:    -8.458      1.347      3.168
REMARK INTER + INTRA:          -9.969
REMARK INTER:                 -10.272
REMARK INTRA:                   0.302
REMARK UNBOUND:                 0.219
REMARK SMILES O=c1c(O)c(-c2ccc(O)c(O)c2)oc2cc(O)cc(O)c12
REMARK SMILES IDX 5 1 3 2 2 3 1 4 22 5 20 6 19 7 17 8 16 9 15 10 14 11 6 12
REMARK SMILES IDX 7 13 8 14 9 15 13 16 11 17 10 18 12 20 4 22 21 24 18 26
REMARK H PARENT 10 19 12 21 4 23 21 25 18 27
REMARK Flexibility Score: inf
ROOT
ATOM      1  C   UNL     1      -8.445  28.627  16.824  1.00  0.00     0.180 A 
ATOM      2  C   UNL     1      -7.144  28.864  16.347  1.00  0.00     0.208 A 
ATOM      3  C   UNL     1      -6.927  28.923  14.961  1.00  0.00     0.238 A 
ATOM      4  O   UNL     1      -5.752  29.081  14.540  1.00  0.00    -0.285 OA
ATOM      5  C   UNL     1      -8.015  28.761  14.070  1.00  0.00     0.111 A 
ATOM      6  C   UNL     1      -7.918  28.841  12.649  1.00  0.00     0.134 A 
ATOM      7  C   UNL     1      -9.034  28.535  11.861  1.00  0.00     0.093 A 
ATOM      8  C   UNL     1     -10.262  28.215  12.446  1.00  0.00     0.123 A 
ATOM      9  C   UNL     1     -10.382  28.192  13.833  1.00  0.00     0.094 A 
ATOM     10  C   UNL     1      -9.277  28.457  14.645  1.00  0.00     0.146 A 
ATOM     11  O   UNL     1      -9.433  28.414  15.963  1.00  0.00    -0.452 OA
ENDROOT
BRANCH   1  12
ATOM     12  C   UNL     1      -8.756  28.576  18.271  1.00  0.00     0.025 A 
ATOM     13  C   UNL     1      -7.794  28.176  19.213  1.00  0.00     0.016 A 
ATOM     14  C   UNL     1      -8.103  28.159  20.576  1.00  0.00     0.051 A 
ATOM     15  C   UNL     1      -9.372  28.555  21.018  1.00  0.00     0.157 A 
ATOM     16  C   UNL     1     -10.020  28.992  18.722  1.00  0.00     0.062 A 
ATOM     17  C   UNL     1     -10.333  28.977  20.086  1.00  0.00     0.158 A 
BRANCH  15  18
ATOM     18  O   UNL     1      -9.676  28.535  22.379  1.00  0.00    -0.504 OA
ATOM     19  H   UNL     1     -10.549  28.908  22.732  1.00  0.00     0.293 HD
ENDBRANCH  15  18
BRANCH  17  20
ATOM     20  O   UNL     1     -11.602  29.384  20.494  1.00  0.00    -0.504 OA
ATOM     21  H   UNL     1     -12.018  29.065  21.361  1.00  0.00     0.293 HD
ENDBRANCH  17  20
ENDBRANCH   1  12
BRANCH   2  22
ATOM     22  O   UNL     1      -6.081  29.000  17.244  1.00  0.00    -0.502 OA
ATOM     23  H   UNL     1      -6.144  28.704  18.211  1.00  0.00     0.293 HD
ENDBRANCH   2  22
BRANCH   6  24
ATOM     24  O   UNL     1      -6.765  29.241  11.967  1.00  0.00    -0.507 OA
ATOM     25  H   UNL     1      -5.939  28.673  11.851  1.00  0.00     0.293 HD
ENDBRANCH   6  24
BRANCH   8  26
ATOM     26  O   UNL     1     -11.372  27.926  11.656  1.00  0.00    -0.508 OA
ATOM     27  H   UNL     1     -11.274  27.636  10.690  1.00  0.00     0.293 HD
ENDBRANCH   8  26
TORSDOF 6
ENDMDL
MODEL 8
REMARK VINA RESULT:    -8.431      1.834      2.791
REMARK INTER + INTRA:          -9.937
REMARK INTER:                 -10.164
REMARK INTRA:                   0.227
REMARK UNBOUND:                 0.219
REMARK SMILES O=c1c(O)c(-c2ccc(O)c(O)c2)oc2cc(O)cc(O)c12
REMARK SMILES IDX 5 1 3 2 2 3 1 4 22 5 20 6 19 7 17 8 16 9 15 10 14 11 6 12
REMARK SMILES IDX 7 13 8 14 9 15 13 16 11 17 10 18 12 20 4 22 21 24 18 26
REMARK H PARENT 10 19 12 21 4 23 21 25 18 27
REMARK Flexibility Score: inf
ROOT
ATOM      1  C   UNL     1      -8.293  28.271  16.692  1.00  0.00     0.180 A 
ATOM      2  C   UNL     1      -9.621  28.001  16.319  1.00  0.00     0.208 A 
ATOM      3  C   UNL     1      -9.942  27.916  14.955  1.00  0.00     0.238 A 
ATOM      4  O   UNL     1     -11.142  27.728  14.628  1.00  0.00    -0.285 OA
ATOM      5  C   UNL     1      -8.928  28.085  13.981  1.00  0.00     0.111 A 
ATOM      6  C   UNL     1      -9.133  27.980  12.573  1.00  0.00     0.134 A 
ATOM      7  C   UNL     1      -8.086  28.296  11.697  1.00  0.00     0.093 A 
ATOM      8  C   UNL     1      -6.824  28.649  12.182  1.00  0.00     0.123 A 
ATOM      9  C   UNL     1      -6.599  28.697  13.555  1.00  0.00     0.094 A 
ATOM     10  C   UNL     1      -7.633  28.423  14.453  1.00  0.00     0.146 A 
ATOM     11  O   UNL     1      -7.378  28.489  15.754  1.00  0.00    -0.452 OA
ENDROOT
BRANCH   1  12
ATOM     12  C   UNL     1      -7.873  28.351  18.110  1.00  0.00     0.025 A 
ATOM     13  C   UNL     1      -8.730  28.861  19.099  1.00  0.00     0.016 A 
ATOM     14  C   UNL     1      -8.322  28.904  20.435  1.00  0.00     0.051 A 
ATOM     15  C   UNL     1      -7.057  28.426  20.803  1.00  0.00     0.157 A 
ATOM     16  C   UNL     1      -6.615  27.853  18.488  1.00  0.00     0.062 A 
ATOM     17  C   UNL     1      -6.202  27.895  19.825  1.00  0.00     0.158 A 
BRANCH  15  18
ATOM     18  O   UNL     1      -6.653  28.472  22.137  1.00  0.00    -0.504 OA
ATOM     19  H   UNL     1      -7.324  28.463  22.896  1.00  0.00     0.293 HD
ENDBRANCH  15  18
BRANCH  17  20
ATOM     20  O   UNL     1      -4.941  27.404  20.159  1.00  0.00    -0.504 OA
ATOM     21  H   UNL     1      -4.796  26.782  20.945  1.00  0.00     0.293 HD
ENDBRANCH  17  20
ENDBRANCH   1  12
BRANCH   2  22
ATOM     22  O   UNL     1     -10.610  27.859  17.297  1.00  0.00    -0.502 OA
ATOM     23  H   UNL     1     -10.447  28.082  18.271  1.00  0.00     0.293 HD
ENDBRANCH   2  22
BRANCH   6  24
ATOM     24  O   UNL     1     -10.326  27.546  11.987  1.00  0.00    -0.507 OA
ATOM     25  H   UNL     1     -11.057  28.157  11.654  1.00  0.00     0.293 HD
ENDBRANCH   6  24
BRANCH   8  26
ATOM     26  O   UNL     1      -5.784  28.947  11.304  1.00  0.00    -0.508 OA
ATOM     27  H   UNL     1      -5.857  28.758  10.312  1.00  0.00     0.293 HD
ENDBRANCH   8  26
TORSDOF 6
ENDMDL
MODEL 9
REMARK VINA RESULT:    -8.095      1.572      3.473
REMARK INTER + INTRA:          -9.532
REMARK INTER:                  -9.816
REMARK INTRA:                   0.284
REMARK UNBOUND:                 0.219
REMARK SMILES O=c1c(O)c(-c2ccc(O)c(O)c2)oc2cc(O)cc(O)c12
REMARK SMILES IDX 5 1 3 2 2 3 1 4 22 5 20 6 19 7 17 8 16 9 15 10 14 11 6 12
REMARK SMILES IDX 7 13 8 14 9 15 13 16 11 17 10 18 12 20 4 22 21 24 18 26
REMARK H PARENT 10 19 12 21 4 23 21 25 18 27
REMARK Flexibility Score: inf
ROOT
ATOM      1  C   UNL     1      -8.044  28.673  16.331  1.00  0.00     0.180 A 
ATOM      2  C   UNL     1      -6.748  28.992  15.891  1.00  0.00     0.208 A 
ATOM      3  C   UNL     1      -6.469  28.964  14.515  1.00  0.00     0.238 A 
ATOM      4  O   UNL     1      -5.294  29.198  14.132  1.00  0.00    -0.285 OA
ATOM      5  C   UNL     1      -7.493  28.631  13.596  1.00  0.00     0.111 A 
ATOM      6  C   UNL     1      -7.333  28.610  12.178  1.00  0.00     0.134 A 
ATOM      7  C   UNL     1      -8.377  28.139  11.372  1.00  0.00     0.093 A 
ATOM      8  C   UNL     1      -9.599  27.752  11.930  1.00  0.00     0.123 A 
ATOM      9  C   UNL     1      -9.785  27.826  13.308  1.00  0.00     0.094 A 
ATOM     10  C   UNL     1      -8.749  28.256  14.141  1.00  0.00     0.146 A 
ATOM     11  O   UNL     1      -8.965  28.302  15.449  1.00  0.00    -0.452 OA
ENDROOT
BRANCH   1  12
ATOM     12  C   UNL     1      -8.420  28.706  17.763  1.00  0.00     0.025 A 
ATOM     13  C   UNL     1      -9.724  29.035  18.170  1.00  0.00     0.016 A 
ATOM     14  C   UNL     1     -10.063  29.036  19.526  1.00  0.00     0.051 A 
ATOM     15  C   UNL     1      -9.108  28.695  20.493  1.00  0.00     0.157 A 
ATOM     16  C   UNL     1      -7.473  28.344  18.735  1.00  0.00     0.062 A 
ATOM     17  C   UNL     1      -7.808  28.344  20.095  1.00  0.00     0.158 A 
BRANCH  15  18
ATOM     18  O   UNL     1      -9.449  28.699  21.845  1.00  0.00    -0.504 OA
ATOM     19  H   UNL     1      -9.565  27.838  22.365  1.00  0.00     0.293 HD
ENDBRANCH  15  18
BRANCH  17  20
ATOM     20  O   UNL     1      -6.837  27.992  21.031  1.00  0.00    -0.504 OA
ATOM     21  H   UNL     1      -5.921  27.659  20.757  1.00  0.00     0.293 HD
ENDBRANCH  17  20
ENDBRANCH   1  12
BRANCH   2  22
ATOM     22  O   UNL     1      -5.746  29.297  16.817  1.00  0.00    -0.502 OA
ATOM     23  H   UNL     1      -5.939  29.427  17.803  1.00  0.00     0.293 HD
ENDBRANCH   2  22
BRANCH   6  24
ATOM     24  O   UNL     1      -6.189  29.062  11.514  1.00  0.00    -0.507 OA
ATOM     25  H   UNL     1      -6.191  29.540  10.626  1.00  0.00     0.293 HD
ENDBRANCH   6  24
BRANCH   8  26
ATOM     26  O   UNL     1     -10.638  27.300  11.120  1.00  0.00    -0.508 OA
ATOM     27  H   UNL     1     -10.467  26.948  10.185  1.00  0.00     0.293 HD
ENDBRANCH   8  26
TORSDOF 6
ENDMDL
