MODEL 1
REMARK VINA RESULT:    -5.046      0.000      0.000
REMARK INTER + INTRA:          -5.752
REMARK INTER:                  -5.488
REMARK INTRA:                  -0.263
REMARK UNBOUND:                -0.263
REMARK SMILES CC1=C[C@@H]2[C@@H](C(C)C)CC[C@@](C)(O)[C@H]2CC1
REMARK SMILES IDX 1 1 2 2 3 3 4 4 5 5 9 6 10 7 11 8 14 9 15 10 16 11 12 12
REMARK SMILES IDX 6 13 7 14 8 15 13 16
REMARK H PARENT 13 17
REMARK Flexibility Score: inf
ROOT
ATOM      1  C   UNL     1     143.568 135.392 145.838  1.00  0.00     0.039 C 
ATOM      2  C   UNL     1     144.611 136.449 145.590  1.00  0.00    -0.077 C 
ATOM      3  C   UNL     1     144.642 137.072 144.392  1.00  0.00    -0.024 C 
ATOM      4  C   UNL     1     145.596 138.212 144.059  1.00  0.00     0.021 C 
ATOM      5  C   UNL     1     146.037 138.229 142.553  1.00  0.00    -0.001 C 
ATOM      6  C   UNL     1     147.020 139.403 142.316  1.00  0.00     0.007 C 
ATOM      7  C   UNL     1     148.224 139.358 143.259  1.00  0.00     0.035 C 
ATOM      8  C   UNL     1     147.798 139.378 144.740  1.00  0.00     0.065 C 
ATOM      9  C   UNL     1     146.847 138.163 144.990  1.00  0.00     0.028 C 
ATOM     10  C   UNL     1     146.381 138.033 146.456  1.00  0.00     0.011 C 
ATOM     11  C   UNL     1     145.652 136.705 146.655  1.00  0.00     0.031 C 
ATOM     12  C   UNL     1     149.085 139.294 145.597  1.00  0.00     0.042 C 
ENDROOT
BRANCH   5  13
ATOM     13  C   UNL     1     144.891 138.323 141.475  1.00  0.00    -0.014 C 
ATOM     14  C   UNL     1     144.989 139.574 140.582  1.00  0.00     0.007 C 
ATOM     15  C   UNL     1     144.681 137.044 140.648  1.00  0.00     0.007 C 
ENDBRANCH   5  13
BRANCH   8  16
ATOM     16  O   UNL     1     147.137 140.598 144.993  1.00  0.00    -0.390 OA
ATOM     17  H   UNL     1     146.998 141.064 144.128  1.00  0.00     0.211 HD
ENDBRANCH   8  16
TORSDOF 2
ENDMDL
MODEL 2
REMARK VINA RESULT:    -4.964     13.718     16.133
REMARK INTER + INTRA:          -5.662
REMARK INTER:                  -5.398
REMARK INTRA:                  -0.264
REMARK UNBOUND:                -0.263
REMARK SMILES CC1=C[C@@H]2[C@@H](C(C)C)CC[C@@](C)(O)[C@H]2CC1
REMARK SMILES IDX 1 1 2 2 3 3 4 4 5 5 9 6 10 7 11 8 14 9 15 10 16 11 12 12
REMARK SMILES IDX 6 13 7 14 8 15 13 16
REMARK H PARENT 13 17
REMARK Flexibility Score: inf
ROOT
ATOM      1  C   UNL     1     133.964 135.555 135.842  1.00  0.00     0.039 C 
ATOM      2  C   UNL     1     132.936 136.545 136.319  1.00  0.00    -0.077 C 
ATOM      3  C   UNL     1     133.276 137.848 136.419  1.00  0.00    -0.024 C 
ATOM      4  C   UNL     1     132.296 138.948 136.810  1.00  0.00     0.021 C 
ATOM      5  C   UNL     1     132.967 140.115 137.619  1.00  0.00    -0.001 C 
ATOM      6  C   UNL     1     131.893 141.168 137.990  1.00  0.00     0.007 C 
ATOM      7  C   UNL     1     130.711 140.560 138.746  1.00  0.00     0.035 C 
ATOM      8  C   UNL     1     130.026 139.438 137.940  1.00  0.00     0.065 C 
ATOM      9  C   UNL     1     131.099 138.350 137.611  1.00  0.00     0.028 C 
ATOM     10  C   UNL     1     130.534 137.136 136.843  1.00  0.00     0.011 C 
ATOM     11  C   UNL     1     131.587 136.032 136.767  1.00  0.00     0.031 C 
ATOM     12  C   UNL     1     128.875 138.875 138.810  1.00  0.00     0.042 C 
ENDROOT
BRANCH   5  13
ATOM     13  C   UNL     1     134.171 140.861 136.929  1.00  0.00    -0.014 C 
ATOM     14  C   UNL     1     133.731 142.002 135.994  1.00  0.00     0.007 C 
ATOM     15  C   UNL     1     135.286 141.306 137.890  1.00  0.00     0.007 C 
ENDBRANCH   5  13
BRANCH   8  16
ATOM     16  O   UNL     1     129.499 140.002 136.760  1.00  0.00    -0.390 OA
ATOM     17  H   UNL     1     129.691 140.975 136.765  1.00  0.00     0.211 HD
ENDBRANCH   8  16
TORSDOF 2
ENDMDL
MODEL 3
REMARK VINA RESULT:    -4.905      1.411      4.388
REMARK INTER + INTRA:          -5.598
REMARK INTER:                  -5.433
REMARK INTRA:                  -0.166
REMARK UNBOUND:                -0.263
REMARK SMILES CC1=C[C@@H]2[C@@H](C(C)C)CC[C@@](C)(O)[C@H]2CC1
REMARK SMILES IDX 1 1 2 2 3 3 4 4 5 5 9 6 10 7 11 8 14 9 15 10 16 11 12 12
REMARK SMILES IDX 6 13 7 14 8 15 13 16
REMARK H PARENT 13 17
REMARK Flexibility Score: inf
ROOT
ATOM      1  C   UNL     1     144.777 137.909 140.639  1.00  0.00     0.039 C 
ATOM      2  C   UNL     1     144.778 137.727 142.132  1.00  0.00    -0.077 C 
ATOM      3  C   UNL     1     145.752 138.310 142.864  1.00  0.00    -0.024 C 
ATOM      4  C   UNL     1     145.807 138.263 144.386  1.00  0.00     0.021 C 
ATOM      5  C   UNL     1     147.271 138.243 144.952  1.00  0.00    -0.001 C 
ATOM      6  C   UNL     1     147.225 138.172 146.499  1.00  0.00     0.007 C 
ATOM      7  C   UNL     1     146.404 136.986 147.007  1.00  0.00     0.035 C 
ATOM      8  C   UNL     1     144.955 137.020 146.484  1.00  0.00     0.065 C 
ATOM      9  C   UNL     1     145.002 137.039 144.921  1.00  0.00     0.028 C 
ATOM     10  C   UNL     1     143.607 137.024 144.260  1.00  0.00     0.011 C 
ATOM     11  C   UNL     1     143.747 136.814 142.753  1.00  0.00     0.031 C 
ATOM     12  C   UNL     1     144.232 135.763 147.028  1.00  0.00     0.042 C 
ENDROOT
BRANCH   5  13
ATOM     13  C   UNL     1     148.210 139.441 144.542  1.00  0.00    -0.014 C 
ATOM     14  C   UNL     1     149.040 139.997 145.714  1.00  0.00     0.007 C 
ATOM     15  C   UNL     1     149.077 139.181 143.299  1.00  0.00     0.007 C 
ENDBRANCH   5  13
BRANCH   8  16
ATOM     16  O   UNL     1     144.332 138.182 146.985  1.00  0.00    -0.390 OA
ATOM     17  H   UNL     1     145.038 138.822 147.261  1.00  0.00     0.211 HD
ENDBRANCH   8  16
TORSDOF 2
ENDMDL
MODEL 4
REMARK VINA RESULT:    -4.818     13.413     15.928
REMARK INTER + INTRA:          -5.504
REMARK INTER:                  -5.386
REMARK INTRA:                  -0.118
REMARK UNBOUND:                -0.263
REMARK SMILES CC1=C[C@@H]2[C@@H](C(C)C)CC[C@@](C)(O)[C@H]2CC1
REMARK SMILES IDX 1 1 2 2 3 3 4 4 5 5 9 6 10 7 11 8 14 9 15 10 16 11 12 12
REMARK SMILES IDX 6 13 7 14 8 15 13 16
REMARK H PARENT 13 17
REMARK Flexibility Score: inf
ROOT
ATOM      1  C   UNL     1     135.924 140.687 138.456  1.00  0.00     0.039 C 
ATOM      2  C   UNL     1     134.958 139.752 137.781  1.00  0.00    -0.077 C 
ATOM      3  C   UNL     1     133.637 140.032 137.818  1.00  0.00    -0.024 C 
ATOM      4  C   UNL     1     132.578 139.204 137.101  1.00  0.00     0.021 C 
ATOM      5  C   UNL     1     131.206 139.163 137.862  1.00  0.00    -0.001 C 
ATOM      6  C   UNL     1     130.205 138.282 137.072  1.00  0.00     0.007 C 
ATOM      7  C   UNL     1     130.746 136.877 136.802  1.00  0.00     0.035 C 
ATOM      8  C   UNL     1     132.076 136.911 136.023  1.00  0.00     0.065 C 
ATOM      9  C   UNL     1     133.101 137.757 136.846  1.00  0.00     0.028 C 
ATOM     10  C   UNL     1     134.501 137.832 136.199  1.00  0.00     0.011 C 
ATOM     11  C   UNL     1     135.489 138.476 137.171  1.00  0.00     0.031 C 
ATOM     12  C   UNL     1     132.546 135.448 135.837  1.00  0.00     0.042 C 
ENDROOT
BRANCH   5  13
ATOM     13  C   UNL     1     130.514 140.547 138.161  1.00  0.00    -0.014 C 
ATOM     14  C   UNL     1     128.984 140.516 137.994  1.00  0.00     0.007 C 
ATOM     15  C   UNL     1     130.932 141.200 139.489  1.00  0.00     0.007 C 
ENDBRANCH   5  13
BRANCH   8  16
ATOM     16  O   UNL     1     131.834 137.497 134.762  1.00  0.00    -0.390 OA
ATOM     17  H   UNL     1     131.242 136.893 134.244  1.00  0.00     0.211 HD
ENDBRANCH   8  16
TORSDOF 2
ENDMDL
MODEL 5
REMARK VINA RESULT:    -4.795      1.385      4.180
REMARK INTER + INTRA:          -5.479
REMARK INTER:                  -5.220
REMARK INTRA:                  -0.259
REMARK UNBOUND:                -0.263
REMARK SMILES CC1=C[C@@H]2[C@@H](C(C)C)CC[C@@](C)(O)[C@H]2CC1
REMARK SMILES IDX 1 1 2 2 3 3 4 4 5 5 9 6 10 7 11 8 14 9 15 10 16 11 12 12
REMARK SMILES IDX 6 13 7 14 8 15 13 16
REMARK H PARENT 13 17
REMARK Flexibility Score: inf
ROOT
ATOM      1  C   UNL     1     144.407 138.193 140.795  1.00  0.00     0.039 C 
ATOM      2  C   UNL     1     145.286 138.312 142.010  1.00  0.00    -0.077 C 
ATOM      3  C   UNL     1     144.837 137.841 143.194  1.00  0.00    -0.024 C 
ATOM      4  C   UNL     1     145.671 137.832 144.469  1.00  0.00     0.021 C 
ATOM      5  C   UNL     1     144.815 138.033 145.769  1.00  0.00    -0.001 C 
ATOM      6  C   UNL     1     145.747 138.034 147.006  1.00  0.00     0.007 C 
ATOM      7  C   UNL     1     146.865 139.072 146.898  1.00  0.00     0.035 C 
ATOM      8  C   UNL     1     147.732 138.857 145.641  1.00  0.00     0.065 C 
ATOM      9  C   UNL     1     146.797 138.909 144.389  1.00  0.00     0.028 C 
ATOM     10  C   UNL     1     147.548 138.755 143.050  1.00  0.00     0.011 C 
ATOM     11  C   UNL     1     146.601 139.045 141.886  1.00  0.00     0.031 C 
ATOM     12  C   UNL     1     148.801 139.976 145.614  1.00  0.00     0.042 C 
ENDROOT
BRANCH   5  13
ATOM     13  C   UNL     1     143.655 136.997 146.028  1.00  0.00    -0.014 C 
ATOM     14  C   UNL     1     144.122 135.531 145.979  1.00  0.00     0.007 C 
ATOM     15  C   UNL     1     142.802 137.285 147.274  1.00  0.00     0.007 C 
ENDBRANCH   5  13
BRANCH   8  16
ATOM     16  O   UNL     1     148.362 137.599 145.750  1.00  0.00    -0.390 OA
ATOM     17  H   UNL     1     149.235 137.644 145.281  1.00  0.00     0.211 HD
ENDBRANCH   8  16
TORSDOF 2
ENDMDL
MODEL 6
REMARK VINA RESULT:    -4.725      2.486      5.841
REMARK INTER + INTRA:          -5.403
REMARK INTER:                  -5.139
REMARK INTRA:                  -0.264
REMARK UNBOUND:                -0.263
REMARK SMILES CC1=C[C@@H]2[C@@H](C(C)C)CC[C@@](C)(O)[C@H]2CC1
REMARK SMILES IDX 1 1 2 2 3 3 4 4 5 5 9 6 10 7 11 8 14 9 15 10 16 11 12 12
REMARK SMILES IDX 6 13 7 14 8 15 13 16
REMARK H PARENT 13 17
REMARK Flexibility Score: inf
ROOT
ATOM      1  C   UNL     1     147.745 137.742 146.779  1.00  0.00     0.039 C 
ATOM      2  C   UNL     1     146.382 137.787 146.144  1.00  0.00    -0.077 C 
ATOM      3  C   UNL     1     145.333 137.243 146.800  1.00  0.00    -0.024 C 
ATOM      4  C   UNL     1     143.898 137.304 146.294  1.00  0.00     0.021 C 
ATOM      5  C   UNL     1     143.051 136.041 146.682  1.00  0.00    -0.001 C 
ATOM      6  C   UNL     1     141.620 136.182 146.106  1.00  0.00     0.007 C 
ATOM      7  C   UNL     1     141.616 136.424 144.596  1.00  0.00     0.035 C 
ATOM      8  C   UNL     1     142.416 137.685 144.212  1.00  0.00     0.065 C 
ATOM      9  C   UNL     1     143.875 137.518 144.749  1.00  0.00     0.028 C 
ATOM     10  C   UNL     1     144.804 138.697 144.389  1.00  0.00     0.011 C 
ATOM     11  C   UNL     1     146.249 138.349 144.748  1.00  0.00     0.031 C 
ATOM     12  C   UNL     1     142.375 137.812 142.670  1.00  0.00     0.042 C 
ENDROOT
BRANCH   5  13
ATOM     13  C   UNL     1     142.933 135.705 148.218  1.00  0.00    -0.014 C 
ATOM     14  C   UNL     1     141.650 136.254 148.868  1.00  0.00     0.007 C 
ATOM     15  C   UNL     1     143.167 134.228 148.572  1.00  0.00     0.007 C 
ENDBRANCH   5  13
BRANCH   8  16
ATOM     16  O   UNL     1     141.786 138.803 144.799  1.00  0.00    -0.390 OA
ATOM     17  H   UNL     1     142.018 139.608 144.268  1.00  0.00     0.211 HD
ENDBRANCH   8  16
TORSDOF 2
ENDMDL
MODEL 7
REMARK VINA RESULT:    -4.720      1.365      3.167
REMARK INTER + INTRA:          -5.397
REMARK INTER:                  -5.133
REMARK INTRA:                  -0.264
REMARK UNBOUND:                -0.263
REMARK SMILES CC1=C[C@@H]2[C@@H](C(C)C)CC[C@@](C)(O)[C@H]2CC1
REMARK SMILES IDX 1 1 2 2 3 3 4 4 5 5 9 6 10 7 11 8 14 9 15 10 16 11 12 12
REMARK SMILES IDX 6 13 7 14 8 15 13 16
REMARK H PARENT 13 17
REMARK Flexibility Score: inf
ROOT
ATOM      1  C   UNL     1     148.015 137.107 147.739  1.00  0.00     0.039 C 
ATOM      2  C   UNL     1     147.741 137.863 146.467  1.00  0.00    -0.077 C 
ATOM      3  C   UNL     1     146.528 137.750 145.884  1.00  0.00    -0.024 C 
ATOM      4  C   UNL     1     146.112 138.531 144.644  1.00  0.00     0.021 C 
ATOM      5  C   UNL     1     145.124 137.738 143.716  1.00  0.00    -0.001 C 
ATOM      6  C   UNL     1     144.778 138.600 142.476  1.00  0.00     0.007 C 
ATOM      7  C   UNL     1     146.023 139.061 141.716  1.00  0.00     0.035 C 
ATOM      8  C   UNL     1     146.979 139.872 142.613  1.00  0.00     0.065 C 
ATOM      9  C   UNL     1     147.369 138.982 143.838  1.00  0.00     0.028 C 
ATOM     10  C   UNL     1     148.370 139.658 144.800  1.00  0.00     0.011 C 
ATOM     11  C   UNL     1     148.867 138.644 145.831  1.00  0.00     0.031 C 
ATOM     12  C   UNL     1     148.211 140.254 141.757  1.00  0.00     0.042 C 
ENDROOT
BRANCH   5  13
ATOM     13  C   UNL     1     143.775 137.246 144.366  1.00  0.00    -0.014 C 
ATOM     14  C   UNL     1     142.548 138.063 143.923  1.00  0.00     0.007 C 
ATOM     15  C   UNL     1     143.525 135.733 144.257  1.00  0.00     0.007 C 
ENDBRANCH   5  13
BRANCH   8  16
ATOM     16  O   UNL     1     146.309 141.040 143.031  1.00  0.00    -0.390 OA
ATOM     17  H   UNL     1     145.775 140.824 143.839  1.00  0.00     0.211 HD
ENDBRANCH   8  16
TORSDOF 2
ENDMDL
MODEL 8
REMARK VINA RESULT:    -4.662      7.032      8.797
REMARK INTER + INTRA:          -5.334
REMARK INTER:                  -5.072
REMARK INTRA:                  -0.263
REMARK UNBOUND:                -0.263
REMARK SMILES CC1=C[C@@H]2[C@@H](C(C)C)CC[C@@](C)(O)[C@H]2CC1
REMARK SMILES IDX 1 1 2 2 3 3 4 4 5 5 9 6 10 7 11 8 14 9 15 10 16 11 12 12
REMARK SMILES IDX 6 13 7 14 8 15 13 16
REMARK H PARENT 13 17
REMARK Flexibility Score: inf
ROOT
ATOM      1  C   UNL     1     142.051 138.765 143.896  1.00  0.00     0.039 C 
ATOM      2  C   UNL     1     140.881 139.463 143.258  1.00  0.00    -0.077 C 
ATOM      3  C   UNL     1     140.922 140.804 143.102  1.00  0.00    -0.024 C 
ATOM      4  C   UNL     1     139.835 141.605 142.397  1.00  0.00     0.021 C 
ATOM      5  C   UNL     1     139.641 143.044 142.994  1.00  0.00    -0.001 C 
ATOM      6  C   UNL     1     138.505 143.770 142.231  1.00  0.00     0.007 C 
ATOM      7  C   UNL     1     137.198 142.976 142.231  1.00  0.00     0.035 C 
ATOM      8  C   UNL     1     137.375 141.575 141.612  1.00  0.00     0.065 C 
ATOM      9  C   UNL     1     138.486 140.824 142.415  1.00  0.00     0.028 C 
ATOM     10  C   UNL     1     138.731 139.380 141.929  1.00  0.00     0.011 C 
ATOM     11  C   UNL     1     139.657 138.652 142.904  1.00  0.00     0.031 C 
ATOM     12  C   UNL     1     136.008 140.852 141.695  1.00  0.00     0.042 C 
ENDROOT
BRANCH   5  13
ATOM     13  C   UNL     1     140.905 143.987 143.008  1.00  0.00    -0.014 C 
ATOM     14  C   UNL     1     140.932 144.993 141.844  1.00  0.00     0.007 C 
ATOM     15  C   UNL     1     141.183 144.667 144.359  1.00  0.00     0.007 C 
ENDBRANCH   5  13
BRANCH   8  16
ATOM     16  O   UNL     1     137.748 141.733 140.261  1.00  0.00    -0.390 OA
ATOM     17  H   UNL     1     138.190 142.616 140.159  1.00  0.00     0.211 HD
ENDBRANCH   8  16
TORSDOF 2
ENDMDL
MODEL 9
REMARK VINA RESULT:    -4.624      6.084      7.666
REMARK INTER + INTRA:          -5.293
REMARK INTER:                  -5.029
REMARK INTRA:                  -0.264
REMARK UNBOUND:                -0.263
REMARK SMILES CC1=C[C@@H]2[C@@H](C(C)C)CC[C@@](C)(O)[C@H]2CC1
REMARK SMILES IDX 1 1 2 2 3 3 4 4 5 5 9 6 10 7 11 8 14 9 15 10 16 11 12 12
REMARK SMILES IDX 6 13 7 14 8 15 13 16
REMARK H PARENT 13 17
REMARK Flexibility Score: inf
ROOT
ATOM      1  C   UNL     1     136.371 141.893 141.635  1.00  0.00     0.039 C 
ATOM      2  C   UNL     1     137.705 141.324 142.034  1.00  0.00    -0.077 C 
ATOM      3  C   UNL     1     138.665 142.157 142.492  1.00  0.00    -0.024 C 
ATOM      4  C   UNL     1     140.020 141.685 143.002  1.00  0.00     0.021 C 
ATOM      5  C   UNL     1     141.179 142.703 142.713  1.00  0.00    -0.001 C 
ATOM      6  C   UNL     1     142.516 142.128 143.244  1.00  0.00     0.007 C 
ATOM      7  C   UNL     1     142.825 140.742 142.675  1.00  0.00     0.035 C 
ATOM      8  C   UNL     1     141.707 139.728 142.988  1.00  0.00     0.065 C 
ATOM      9  C   UNL     1     140.367 140.285 142.405  1.00  0.00     0.028 C 
ATOM     10  C   UNL     1     139.164 139.339 142.606  1.00  0.00     0.011 C 
ATOM     11  C   UNL     1     137.962 139.851 141.815  1.00  0.00     0.031 C 
ATOM     12  C   UNL     1     142.105 138.379 142.340  1.00  0.00     0.042 C 
ENDROOT
BRANCH   5  13
ATOM     13  C   UNL     1     141.008 144.161 143.288  1.00  0.00    -0.014 C 
ATOM     14  C   UNL     1     141.557 144.324 144.717  1.00  0.00     0.007 C 
ATOM     15  C   UNL     1     141.496 145.281 142.355  1.00  0.00     0.007 C 
ENDBRANCH   5  13
BRANCH   8  16
ATOM     16  O   UNL     1     141.626 139.578 144.388  1.00  0.00    -0.390 OA
ATOM     17  H   UNL     1     141.945 138.669 144.625  1.00  0.00     0.211 HD
ENDBRANCH   8  16
TORSDOF 2
ENDMDL
