MODEL 1
REMARK VINA RESULT:    -4.155      0.000      0.000
REMARK INTER + INTRA:         -10.329
REMARK INTER:                  -7.555
REMARK INTRA:                  -2.774
REMARK UNBOUND:                -2.774
REMARK SMILES CCCCCC=CCC=CCCCCCCCC(=O)[O-]
REMARK SMILES IDX 11 1 12 2 13 3 14 4 15 5 16 6 17 7 18 8 19 9 20 10 10 11
REMARK SMILES IDX 9 12 8 13 7 14 6 15 5 16 4 17 3 18 2 19 1 20
REMARK H PARENT
REMARK Flexibility Score: inf
ROOT
ATOM      1  C   UNL     1       6.917   7.322  -1.854  1.00  0.00     0.027 C 
ENDROOT
BRANCH   1   2
ATOM      2  C   UNL     1       8.184   8.187  -1.798  1.00  0.00     0.004 C 
BRANCH   2   3
ATOM      3  C   UNL     1       8.949   8.182  -3.131  1.00  0.00     0.000 C 
BRANCH   3   4
ATOM      4  C   UNL     1      10.340   7.533  -3.028  1.00  0.00     0.000 C 
BRANCH   4   5
ATOM      5  C   UNL     1      10.578   6.403  -4.048  1.00  0.00     0.000 C 
BRANCH   5   6
ATOM      6  C   UNL     1       9.811   6.624  -5.360  1.00  0.00     0.006 C 
BRANCH   6   7
ATOM      7  C   UNL     1       9.330   5.291  -5.947  1.00  0.00     0.053 C 
BRANCH   7   8
ATOM      8  C   UNL     1       8.142   5.482  -6.841  1.00  0.00     0.041 C 
ATOM      9  O   UNL     1       7.440   6.523  -6.758  1.00  0.00    -0.550 OA
ATOM     10  O   UNL     1       7.774   4.478  -7.727  1.00  0.00    -0.550 OA
ENDBRANCH   7   8
ENDBRANCH   6   7
ENDBRANCH   5   6
ENDBRANCH   4   5
ENDBRANCH   3   4
ENDBRANCH   2   3
ENDBRANCH   1   2
BRANCH   1  11
ATOM     11  C   UNL     1       6.958   6.333  -2.993  1.00  0.00    -0.031 C 
ATOM     12  C   UNL     1       7.312   5.039  -2.877  1.00  0.00    -0.027 C 
BRANCH  12  13
ATOM     13  C   UNL     1       7.647   4.353  -1.577  1.00  0.00     0.054 C 
BRANCH  13  14
ATOM     14  C   UNL     1       9.136   4.260  -1.357  1.00  0.00    -0.027 C 
ATOM     15  C   UNL     1       9.797   4.859  -0.351  1.00  0.00    -0.031 C 
BRANCH  15  16
ATOM     16  C   UNL     1       9.124   5.718   0.690  1.00  0.00     0.027 C 
BRANCH  16  17
ATOM     17  C   UNL     1      10.037   6.865   1.140  1.00  0.00     0.004 C 
BRANCH  17  18
ATOM     18  C   UNL     1       9.221   7.975   1.819  1.00  0.00     0.000 C 
BRANCH  18  19
ATOM     19  C   UNL     1       9.253   7.885   3.352  1.00  0.00    -0.003 C 
ATOM     20  C   UNL     1       9.123   9.247   4.032  1.00  0.00     0.004 C 
ENDBRANCH  18  19
ENDBRANCH  17  18
ENDBRANCH  16  17
ENDBRANCH  15  16
ENDBRANCH  13  14
ENDBRANCH  12  13
ENDBRANCH   1  11
TORSDOF 14
ENDMDL
MODEL 2
REMARK VINA RESULT:    -4.063      3.595      7.031
REMARK INTER + INTRA:         -10.162
REMARK INTER:                  -8.520
REMARK INTRA:                  -1.643
REMARK UNBOUND:                -2.774
REMARK SMILES CCCCCC=CCC=CCCCCCCCC(=O)[O-]
REMARK SMILES IDX 11 1 12 2 13 3 14 4 15 5 16 6 17 7 18 8 19 9 20 10 10 11
REMARK SMILES IDX 9 12 8 13 7 14 6 15 5 16 4 17 3 18 2 19 1 20
REMARK H PARENT
REMARK Flexibility Score: inf
ROOT
ATOM      1  C   UNL     1       6.664  11.080  -1.248  1.00  0.00     0.027 C 
ENDROOT
BRANCH   1   2
ATOM      2  C   UNL     1       7.229  11.125   0.178  1.00  0.00     0.004 C 
BRANCH   2   3
ATOM      3  C   UNL     1       8.697  10.673   0.235  1.00  0.00     0.000 C 
BRANCH   3   4
ATOM      4  C   UNL     1       8.873   9.262   0.823  1.00  0.00     0.000 C 
BRANCH   4   5
ATOM      5  C   UNL     1       9.017   9.240   2.358  1.00  0.00     0.000 C 
BRANCH   5   6
ATOM      6  C   UNL     1       9.238   7.823   2.907  1.00  0.00     0.006 C 
BRANCH   6   7
ATOM      7  C   UNL     1       9.410   6.812   1.767  1.00  0.00     0.053 C 
BRANCH   7   8
ATOM      8  C   UNL     1      10.006   5.527   2.258  1.00  0.00     0.041 C 
ATOM      9  O   UNL     1       9.968   5.230   3.480  1.00  0.00    -0.550 OA
ATOM     10  O   UNL     1      10.661   4.684   1.371  1.00  0.00    -0.550 OA
ENDBRANCH   7   8
ENDBRANCH   6   7
ENDBRANCH   5   6
ENDBRANCH   4   5
ENDBRANCH   3   4
ENDBRANCH   2   3
ENDBRANCH   1   2
BRANCH   1  11
ATOM     11  C   UNL     1       5.575  10.045  -1.392  1.00  0.00    -0.031 C 
ATOM     12  C   UNL     1       5.749   8.810  -1.899  1.00  0.00    -0.027 C 
BRANCH  12  13
ATOM     13  C   UNL     1       7.075   8.236  -2.330  1.00  0.00     0.054 C 
BRANCH  13  14
ATOM     14  C   UNL     1       7.362   6.916  -1.659  1.00  0.00    -0.027 C 
ATOM     15  C   UNL     1       7.403   5.731  -2.293  1.00  0.00    -0.031 C 
BRANCH  15  16
ATOM     16  C   UNL     1       7.154   5.572  -3.772  1.00  0.00     0.027 C 
BRANCH  16  17
ATOM     17  C   UNL     1       8.472   5.486  -4.552  1.00  0.00     0.004 C 
BRANCH  17  18
ATOM     18  C   UNL     1       8.564   6.617  -5.589  1.00  0.00     0.000 C 
BRANCH  18  19
ATOM     19  C   UNL     1       7.608   6.417  -6.775  1.00  0.00    -0.003 C 
ATOM     20  C   UNL     1       7.804   5.076  -7.479  1.00  0.00     0.004 C 
ENDBRANCH  18  19
ENDBRANCH  17  18
ENDBRANCH  16  17
ENDBRANCH  15  16
ENDBRANCH  13  14
ENDBRANCH  12  13
ENDBRANCH   1  11
TORSDOF 14
ENDMDL
MODEL 3
REMARK VINA RESULT:    -4.003      0.998      2.493
REMARK INTER + INTRA:         -10.053
REMARK INTER:                  -7.369
REMARK INTRA:                  -2.684
REMARK UNBOUND:                -2.774
REMARK SMILES CCCCCC=CCC=CCCCCCCCC(=O)[O-]
REMARK SMILES IDX 11 1 12 2 13 3 14 4 15 5 16 6 17 7 18 8 19 9 20 10 10 11
REMARK SMILES IDX 9 12 8 13 7 14 6 15 5 16 4 17 3 18 2 19 1 20
REMARK H PARENT
REMARK Flexibility Score: inf
ROOT
ATOM      1  C   UNL     1       8.152   4.583  -1.216  1.00  0.00     0.027 C 
ENDROOT
BRANCH   1   2
ATOM      2  C   UNL     1       9.604   4.193  -1.527  1.00  0.00     0.004 C 
BRANCH   2   3
ATOM      3  C   UNL     1      10.408   5.367  -2.109  1.00  0.00     0.000 C 
BRANCH   3   4
ATOM      4  C   UNL     1      10.882   5.119  -3.551  1.00  0.00     0.000 C 
BRANCH   4   5
ATOM      5  C   UNL     1      10.157   5.981  -4.603  1.00  0.00     0.000 C 
BRANCH   5   6
ATOM      6  C   UNL     1       9.394   5.134  -5.632  1.00  0.00     0.006 C 
BRANCH   6   7
ATOM      7  C   UNL     1       8.088   5.821  -6.049  1.00  0.00     0.053 C 
BRANCH   7   8
ATOM      8  C   UNL     1       7.692   5.445  -7.446  1.00  0.00     0.041 C 
ATOM      9  O   UNL     1       8.018   4.327  -7.924  1.00  0.00    -0.550 OA
ATOM     10  O   UNL     1       7.012   6.356  -8.242  1.00  0.00    -0.550 OA
ENDBRANCH   7   8
ENDBRANCH   6   7
ENDBRANCH   5   6
ENDBRANCH   4   5
ENDBRANCH   3   4
ENDBRANCH   2   3
ENDBRANCH   1   2
BRANCH   1  11
ATOM     11  C   UNL     1       7.364   4.872  -2.471  1.00  0.00    -0.031 C 
ATOM     12  C   UNL     1       6.800   6.057  -2.770  1.00  0.00    -0.027 C 
BRANCH  12  13
ATOM     13  C   UNL     1       6.934   7.308  -1.937  1.00  0.00     0.054 C 
BRANCH  13  14
ATOM     14  C   UNL     1       8.089   8.164  -2.391  1.00  0.00    -0.027 C 
ATOM     15  C   UNL     1       8.931   8.810  -1.563  1.00  0.00    -0.031 C 
BRANCH  15  16
ATOM     16  C   UNL     1       8.814   8.765  -0.060  1.00  0.00     0.027 C 
BRANCH  16  17
ATOM     17  C   UNL     1       9.876   7.842   0.552  1.00  0.00     0.004 C 
BRANCH  17  18
ATOM     18  C   UNL     1       9.235   6.863   1.548  1.00  0.00     0.000 C 
BRANCH  18  19
ATOM     19  C   UNL     1       9.703   7.091   2.993  1.00  0.00    -0.003 C 
ATOM     20  C   UNL     1       9.200   8.408   3.581  1.00  0.00     0.004 C 
ENDBRANCH  18  19
ENDBRANCH  17  18
ENDBRANCH  16  17
ENDBRANCH  15  16
ENDBRANCH  13  14
ENDBRANCH  12  13
ENDBRANCH   1  11
TORSDOF 14
ENDMDL
MODEL 4
REMARK VINA RESULT:    -3.975     14.777     17.428
REMARK INTER + INTRA:         -10.003
REMARK INTER:                  -7.891
REMARK INTRA:                  -2.112
REMARK UNBOUND:                -2.774
REMARK SMILES CCCCCC=CCC=CCCCCCCCC(=O)[O-]
REMARK SMILES IDX 11 1 12 2 13 3 14 4 15 5 16 6 17 7 18 8 19 9 20 10 10 11
REMARK SMILES IDX 9 12 8 13 7 14 6 15 5 16 4 17 3 18 2 19 1 20
REMARK H PARENT
REMARK Flexibility Score: inf
ROOT
ATOM      1  C   UNL     1      -1.685  -6.921  -9.034  1.00  0.00     0.027 C 
ENDROOT
BRANCH   1   2
ATOM      2  C   UNL     1      -3.159  -7.345  -8.969  1.00  0.00     0.004 C 
BRANCH   2   3
ATOM      3  C   UNL     1      -4.082  -6.175  -8.591  1.00  0.00     0.000 C 
BRANCH   3   4
ATOM      4  C   UNL     1      -3.342  -4.831  -8.485  1.00  0.00     0.000 C 
BRANCH   4   5
ATOM      5  C   UNL     1      -3.786  -3.967  -7.288  1.00  0.00     0.000 C 
BRANCH   5   6
ATOM      6  C   UNL     1      -5.164  -4.374  -6.748  1.00  0.00     0.006 C 
BRANCH   6   7
ATOM      7  C   UNL     1      -6.159  -3.212  -6.846  1.00  0.00     0.053 C 
BRANCH   7   8
ATOM      8  C   UNL     1      -7.001  -3.104  -5.610  1.00  0.00     0.041 C 
ATOM      9  O   UNL     1      -7.034  -2.033  -4.950  1.00  0.00    -0.550 OA
ATOM     10  O   UNL     1      -7.703  -4.211  -5.152  1.00  0.00    -0.550 OA
ENDBRANCH   7   8
ENDBRANCH   6   7
ENDBRANCH   5   6
ENDBRANCH   4   5
ENDBRANCH   3   4
ENDBRANCH   2   3
ENDBRANCH   1   2
BRANCH   1  11
ATOM     11  C   UNL     1      -0.816  -7.760  -8.129  1.00  0.00    -0.031 C 
ATOM     12  C   UNL     1      -0.108  -7.286  -7.087  1.00  0.00    -0.027 C 
BRANCH  12  13
ATOM     13  C   UNL     1      -0.133  -5.856  -6.609  1.00  0.00     0.054 C 
BRANCH  13  14
ATOM     14  C   UNL     1       1.255  -5.326  -6.347  1.00  0.00    -0.027 C 
ATOM     15  C   UNL     1       2.093  -4.881  -7.301  1.00  0.00    -0.031 C 
BRANCH  15  16
ATOM     16  C   UNL     1       1.749  -4.868  -8.769  1.00  0.00     0.027 C 
BRANCH  16  17
ATOM     17  C   UNL     1       1.361  -3.459  -9.237  1.00  0.00     0.004 C 
BRANCH  17  18
ATOM     18  C   UNL     1      -0.165  -3.280  -9.215  1.00  0.00     0.000 C 
BRANCH  18  19
ATOM     19  C   UNL     1      -0.645  -2.402  -8.050  1.00  0.00    -0.003 C 
ATOM     20  C   UNL     1      -0.734  -0.921  -8.418  1.00  0.00     0.004 C 
ENDBRANCH  18  19
ENDBRANCH  17  18
ENDBRANCH  16  17
ENDBRANCH  15  16
ENDBRANCH  13  14
ENDBRANCH  12  13
ENDBRANCH   1  11
TORSDOF 14
ENDMDL
MODEL 5
REMARK VINA RESULT:    -3.972      3.369      7.049
REMARK INTER + INTRA:          -9.998
REMARK INTER:                  -7.478
REMARK INTRA:                  -2.520
REMARK UNBOUND:                -2.774
REMARK SMILES CCCCCC=CCC=CCCCCCCCC(=O)[O-]
REMARK SMILES IDX 11 1 12 2 13 3 14 4 15 5 16 6 17 7 18 8 19 9 20 10 10 11
REMARK SMILES IDX 9 12 8 13 7 14 6 15 5 16 4 17 3 18 2 19 1 20
REMARK H PARENT
REMARK Flexibility Score: inf
ROOT
ATOM      1  C   UNL     1       7.228   4.777  -2.696  1.00  0.00     0.027 C 
ENDROOT
BRANCH   1   2
ATOM      2  C   UNL     1       6.976   6.236  -3.101  1.00  0.00     0.004 C 
BRANCH   2   3
ATOM      3  C   UNL     1       6.968   7.181  -1.888  1.00  0.00     0.000 C 
BRANCH   3   4
ATOM      4  C   UNL     1       7.870   8.412  -2.076  1.00  0.00     0.000 C 
BRANCH   4   5
ATOM      5  C   UNL     1       8.409   8.998  -0.755  1.00  0.00     0.000 C 
BRANCH   5   6
ATOM      6  C   UNL     1       8.936   7.914   0.196  1.00  0.00     0.006 C 
BRANCH   6   7
ATOM      7  C   UNL     1       9.149   8.477   1.607  1.00  0.00     0.053 C 
BRANCH   7   8
ATOM      8  C   UNL     1       9.322   7.380   2.615  1.00  0.00     0.041 C 
ATOM      9  O   UNL     1       9.325   6.174   2.254  1.00  0.00    -0.550 OA
ATOM     10  O   UNL     1       9.420   7.690   3.964  1.00  0.00    -0.550 OA
ENDBRANCH   7   8
ENDBRANCH   6   7
ENDBRANCH   5   6
ENDBRANCH   4   5
ENDBRANCH   3   4
ENDBRANCH   2   3
ENDBRANCH   1   2
BRANCH   1  11
ATOM     11  C   UNL     1       7.744   4.664  -1.282  1.00  0.00    -0.031 C 
ATOM     12  C   UNL     1       9.033   4.470  -0.946  1.00  0.00    -0.027 C 
BRANCH  12  13
ATOM     13  C   UNL     1      10.178   4.414  -1.926  1.00  0.00     0.054 C 
BRANCH  13  14
ATOM     14  C   UNL     1      10.598   5.790  -2.379  1.00  0.00    -0.027 C 
ATOM     15  C   UNL     1      10.656   6.185  -3.663  1.00  0.00    -0.031 C 
BRANCH  15  16
ATOM     16  C   UNL     1      10.315   5.286  -4.825  1.00  0.00     0.027 C 
BRANCH  16  17
ATOM     17  C   UNL     1       9.425   6.008  -5.845  1.00  0.00     0.004 C 
BRANCH  17  18
ATOM     18  C   UNL     1       8.284   5.093  -6.315  1.00  0.00     0.000 C 
BRANCH  18  19
ATOM     19  C   UNL     1       8.296   4.857  -7.833  1.00  0.00    -0.003 C 
ATOM     20  C   UNL     1       9.109   3.628  -8.238  1.00  0.00     0.004 C 
ENDBRANCH  18  19
ENDBRANCH  17  18
ENDBRANCH  16  17
ENDBRANCH  15  16
ENDBRANCH  13  14
ENDBRANCH  12  13
ENDBRANCH   1  11
TORSDOF 14
ENDMDL
MODEL 6
REMARK VINA RESULT:    -3.972      3.013      6.659
REMARK INTER + INTRA:          -9.997
REMARK INTER:                  -8.185
REMARK INTRA:                  -1.812
REMARK UNBOUND:                -2.774
REMARK SMILES CCCCCC=CCC=CCCCCCCCC(=O)[O-]
REMARK SMILES IDX 11 1 12 2 13 3 14 4 15 5 16 6 17 7 18 8 19 9 20 10 10 11
REMARK SMILES IDX 9 12 8 13 7 14 6 15 5 16 4 17 3 18 2 19 1 20
REMARK H PARENT
REMARK Flexibility Score: inf
ROOT
ATOM      1  C   UNL     1      10.243   6.095  -0.106  1.00  0.00     0.027 C 
ENDROOT
BRANCH   1   2
ATOM      2  C   UNL     1      10.105   7.561  -0.539  1.00  0.00     0.004 C 
BRANCH   2   3
ATOM      3  C   UNL     1       9.186   8.359   0.400  1.00  0.00     0.000 C 
BRANCH   3   4
ATOM      4  C   UNL     1       8.135   9.195  -0.350  1.00  0.00     0.000 C 
BRANCH   4   5
ATOM      5  C   UNL     1       7.690   8.579  -1.691  1.00  0.00     0.000 C 
BRANCH   5   6
ATOM      6  C   UNL     1       6.176   8.694  -1.917  1.00  0.00     0.006 C 
BRANCH   6   7
ATOM      7  C   UNL     1       5.755  10.158  -2.096  1.00  0.00     0.053 C 
BRANCH   7   8
ATOM      8  C   UNL     1       4.266  10.315  -2.016  1.00  0.00     0.041 C 
ATOM      9  O   UNL     1       3.607  10.684  -3.021  1.00  0.00    -0.550 OA
ATOM     10  O   UNL     1       3.613  10.111  -0.807  1.00  0.00    -0.550 OA
ENDBRANCH   7   8
ENDBRANCH   6   7
ENDBRANCH   5   6
ENDBRANCH   4   5
ENDBRANCH   3   4
ENDBRANCH   2   3
ENDBRANCH   1   2
BRANCH   1  11
ATOM     11  C   UNL     1       8.917   5.498   0.300  1.00  0.00    -0.031 C 
ATOM     12  C   UNL     1       8.041   4.923  -0.545  1.00  0.00    -0.027 C 
BRANCH  12  13
ATOM     13  C   UNL     1       8.279   4.711  -2.019  1.00  0.00     0.054 C 
BRANCH  13  14
ATOM     14  C   UNL     1       7.073   5.086  -2.843  1.00  0.00    -0.027 C 
ATOM     15  C   UNL     1       7.120   5.475  -4.129  1.00  0.00    -0.031 C 
BRANCH  15  16
ATOM     16  C   UNL     1       8.402   5.597  -4.914  1.00  0.00     0.027 C 
BRANCH  16  17
ATOM     17  C   UNL     1       8.259   6.608  -6.059  1.00  0.00     0.004 C 
BRANCH  17  18
ATOM     18  C   UNL     1       7.435   6.011  -7.211  1.00  0.00     0.000 C 
BRANCH  18  19
ATOM     19  C   UNL     1       7.944   6.444  -8.594  1.00  0.00    -0.003 C 
ATOM     20  C   UNL     1       8.644   7.802  -8.573  1.00  0.00     0.004 C 
ENDBRANCH  18  19
ENDBRANCH  17  18
ENDBRANCH  16  17
ENDBRANCH  15  16
ENDBRANCH  13  14
ENDBRANCH  12  13
ENDBRANCH   1  11
TORSDOF 14
ENDMDL
MODEL 7
REMARK VINA RESULT:    -3.948     14.438     16.978
REMARK INTER + INTRA:          -9.953
REMARK INTER:                  -7.513
REMARK INTRA:                  -2.440
REMARK UNBOUND:                -2.774
REMARK SMILES CCCCCC=CCC=CCCCCCCCC(=O)[O-]
REMARK SMILES IDX 11 1 12 2 13 3 14 4 15 5 16 6 17 7 18 8 19 9 20 10 10 11
REMARK SMILES IDX 9 12 8 13 7 14 6 15 5 16 4 17 3 18 2 19 1 20
REMARK H PARENT
REMARK Flexibility Score: inf
ROOT
ATOM      1  C   UNL     1      -1.127  -1.729  -8.161  1.00  0.00     0.027 C 
ENDROOT
BRANCH   1   2
ATOM      2  C   UNL     1      -2.308  -1.715  -9.142  1.00  0.00     0.004 C 
BRANCH   2   3
ATOM      3  C   UNL     1      -2.935  -3.108  -9.313  1.00  0.00     0.000 C 
BRANCH   3   4
ATOM      4  C   UNL     1      -2.896  -3.951  -8.027  1.00  0.00     0.000 C 
BRANCH   4   5
ATOM      5  C   UNL     1      -3.739  -5.240  -8.100  1.00  0.00     0.000 C 
BRANCH   5   6
ATOM      6  C   UNL     1      -5.235  -4.953  -8.296  1.00  0.00     0.006 C 
BRANCH   6   7
ATOM      7  C   UNL     1      -5.965  -4.892  -6.949  1.00  0.00     0.053 C 
BRANCH   7   8
ATOM      8  C   UNL     1      -6.299  -3.481  -6.569  1.00  0.00     0.041 C 
ATOM      9  O   UNL     1      -6.494  -3.171  -5.366  1.00  0.00    -0.550 OA
ATOM     10  O   UNL     1      -6.456  -2.518  -7.557  1.00  0.00    -0.550 OA
ENDBRANCH   7   8
ENDBRANCH   6   7
ENDBRANCH   5   6
ENDBRANCH   4   5
ENDBRANCH   3   4
ENDBRANCH   2   3
ENDBRANCH   1   2
BRANCH   1  11
ATOM     11  C   UNL     1       0.182  -1.422  -8.848  1.00  0.00    -0.031 C 
ATOM     12  C   UNL     1       1.024  -2.346  -9.347  1.00  0.00    -0.027 C 
BRANCH  12  13
ATOM     13  C   UNL     1       0.757  -3.830  -9.370  1.00  0.00     0.054 C 
BRANCH  13  14
ATOM     14  C   UNL     1       1.848  -4.609  -8.678  1.00  0.00    -0.027 C 
ATOM     15  C   UNL     1       1.832  -4.951  -7.377  1.00  0.00    -0.031 C 
BRANCH  15  16
ATOM     16  C   UNL     1       0.713  -4.585  -6.435  1.00  0.00     0.027 C 
BRANCH  16  17
ATOM     17  C   UNL     1      -0.314  -5.719  -6.323  1.00  0.00     0.004 C 
BRANCH  17  18
ATOM     18  C   UNL     1       0.287  -7.046  -6.814  1.00  0.00     0.000 C 
BRANCH  18  19
ATOM     19  C   UNL     1      -0.658  -7.819  -7.746  1.00  0.00    -0.003 C 
ATOM     20  C   UNL     1      -0.874  -7.121  -9.088  1.00  0.00     0.004 C 
ENDBRANCH  18  19
ENDBRANCH  17  18
ENDBRANCH  16  17
ENDBRANCH  15  16
ENDBRANCH  13  14
ENDBRANCH  12  13
ENDBRANCH   1  11
TORSDOF 14
ENDMDL
MODEL 8
REMARK VINA RESULT:    -3.919     14.026     16.473
REMARK INTER + INTRA:          -9.901
REMARK INTER:                  -7.332
REMARK INTRA:                  -2.568
REMARK UNBOUND:                -2.774
REMARK SMILES CCCCCC=CCC=CCCCCCCCC(=O)[O-]
REMARK SMILES IDX 11 1 12 2 13 3 14 4 15 5 16 6 17 7 18 8 19 9 20 10 10 11
REMARK SMILES IDX 9 12 8 13 7 14 6 15 5 16 4 17 3 18 2 19 1 20
REMARK H PARENT
REMARK Flexibility Score: inf
ROOT
ATOM      1  C   UNL     1       2.117  -5.026  -8.443  1.00  0.00     0.027 C 
ENDROOT
BRANCH   1   2
ATOM      2  C   UNL     1       1.529  -3.753  -9.067  1.00  0.00     0.004 C 
BRANCH   2   3
ATOM      3  C   UNL     1       0.270  -4.044  -9.899  1.00  0.00     0.000 C 
BRANCH   3   4
ATOM      4  C   UNL     1      -0.930  -3.163  -9.509  1.00  0.00     0.000 C 
BRANCH   4   5
ATOM      5  C   UNL     1      -0.824  -2.558  -8.095  1.00  0.00     0.000 C 
BRANCH   5   6
ATOM      6  C   UNL     1      -0.851  -1.022  -8.109  1.00  0.00     0.006 C 
BRANCH   6   7
ATOM      7  C   UNL     1      -1.298  -0.493  -9.478  1.00  0.00     0.053 C 
BRANCH   7   8
ATOM      8  C   UNL     1      -2.663   0.123  -9.408  1.00  0.00     0.041 C 
ATOM      9  O   UNL     1      -3.685  -0.599  -9.277  1.00  0.00    -0.550 OA
ATOM     10  O   UNL     1      -2.811   1.496  -9.549  1.00  0.00    -0.550 OA
ENDBRANCH   7   8
ENDBRANCH   6   7
ENDBRANCH   5   6
ENDBRANCH   4   5
ENDBRANCH   3   4
ENDBRANCH   2   3
ENDBRANCH   1   2
BRANCH   1  11
ATOM     11  C   UNL     1       2.150  -4.954  -6.936  1.00  0.00    -0.031 C 
ATOM     12  C   UNL     1       1.115  -5.251  -6.128  1.00  0.00    -0.027 C 
BRANCH  12  13
ATOM     13  C   UNL     1      -0.217  -5.779  -6.596  1.00  0.00     0.054 C 
BRANCH  13  14
ATOM     14  C   UNL     1      -0.123  -7.211  -7.060  1.00  0.00    -0.027 C 
ATOM     15  C   UNL     1      -0.777  -7.713  -8.122  1.00  0.00    -0.031 C 
BRANCH  15  16
ATOM     16  C   UNL     1      -1.706  -6.898  -8.987  1.00  0.00     0.027 C 
BRANCH  16  17
ATOM     17  C   UNL     1      -3.160  -7.363  -8.832  1.00  0.00     0.004 C 
BRANCH  17  18
ATOM     18  C   UNL     1      -4.120  -6.164  -8.854  1.00  0.00     0.000 C 
BRANCH  18  19
ATOM     19  C   UNL     1      -3.607  -4.976  -8.026  1.00  0.00    -0.003 C 
ATOM     20  C   UNL     1      -4.662  -3.888  -7.829  1.00  0.00     0.004 C 
ENDBRANCH  18  19
ENDBRANCH  17  18
ENDBRANCH  16  17
ENDBRANCH  15  16
ENDBRANCH  13  14
ENDBRANCH  12  13
ENDBRANCH   1  11
TORSDOF 14
ENDMDL
MODEL 9
REMARK VINA RESULT:    -3.828      3.446      5.889
REMARK INTER + INTRA:          -9.735
REMARK INTER:                  -7.785
REMARK INTRA:                  -1.950
REMARK UNBOUND:                -2.774
REMARK SMILES CCCCCC=CCC=CCCCCCCCC(=O)[O-]
REMARK SMILES IDX 11 1 12 2 13 3 14 4 15 5 16 6 17 7 18 8 19 9 20 10 10 11
REMARK SMILES IDX 9 12 8 13 7 14 6 15 5 16 4 17 3 18 2 19 1 20
REMARK H PARENT
REMARK Flexibility Score: inf
ROOT
ATOM      1  C   UNL     1       7.776   6.825  -7.767  1.00  0.00     0.027 C 
ENDROOT
BRANCH   1   2
ATOM      2  C   UNL     1       7.931   5.384  -7.261  1.00  0.00     0.004 C 
BRANCH   2   3
ATOM      3  C   UNL     1       9.152   5.221  -6.341  1.00  0.00     0.000 C 
BRANCH   3   4
ATOM      4  C   UNL     1       8.801   5.321  -4.847  1.00  0.00     0.000 C 
BRANCH   4   5
ATOM      5  C   UNL     1       7.302   5.555  -4.573  1.00  0.00     0.000 C 
BRANCH   5   6
ATOM      6  C   UNL     1       6.991   5.678  -3.074  1.00  0.00     0.006 C 
BRANCH   6   7
ATOM      7  C   UNL     1       8.264   5.522  -2.234  1.00  0.00     0.053 C 
BRANCH   7   8
ATOM      8  C   UNL     1       7.999   4.750  -0.976  1.00  0.00     0.041 C 
ATOM      9  O   UNL     1       6.868   4.243  -0.762  1.00  0.00    -0.550 OA
ATOM     10  O   UNL     1       8.990   4.642  -0.009  1.00  0.00    -0.550 OA
ENDBRANCH   7   8
ENDBRANCH   6   7
ENDBRANCH   5   6
ENDBRANCH   4   5
ENDBRANCH   3   4
ENDBRANCH   2   3
ENDBRANCH   1   2
BRANCH   1  11
ATOM     11  C   UNL     1       9.098   7.551  -7.819  1.00  0.00    -0.031 C 
ATOM     12  C   UNL     1       9.404   8.645  -7.096  1.00  0.00    -0.027 C 
BRANCH  12  13
ATOM     13  C   UNL     1       8.503   9.271  -6.061  1.00  0.00     0.054 C 
BRANCH  13  14
ATOM     14  C   UNL     1       8.862   8.831  -4.663  1.00  0.00    -0.027 C 
ATOM     15  C   UNL     1       8.362   9.377  -3.541  1.00  0.00    -0.031 C 
BRANCH  15  16
ATOM     16  C   UNL     1       7.376  10.519  -3.540  1.00  0.00     0.027 C 
BRANCH  16  17
ATOM     17  C   UNL     1       6.721  10.686  -2.163  1.00  0.00     0.004 C 
BRANCH  17  18
ATOM     18  C   UNL     1       5.745   9.532  -1.882  1.00  0.00     0.000 C 
BRANCH  18  19
ATOM     19  C   UNL     1       4.341  10.021  -1.498  1.00  0.00    -0.003 C 
ATOM     20  C   UNL     1       3.629  10.744  -2.641  1.00  0.00     0.004 C 
ENDBRANCH  18  19
ENDBRANCH  17  18
ENDBRANCH  16  17
ENDBRANCH  15  16
ENDBRANCH  13  14
ENDBRANCH  12  13
ENDBRANCH   1  11
TORSDOF 14
ENDMDL
