MODEL 1
REMARK VINA RESULT:    -5.009      0.000      0.000
REMARK INTER + INTRA:          -9.710
REMARK INTER:                  -6.765
REMARK INTRA:                  -2.945
REMARK UNBOUND:                -2.945
REMARK SMILES CC[C@@H](CC[C@@H](C)[C@H]1CC[C@@H]2[C@@H]3CC(=O)C4=CC(=O)CC[C@]4(C)[C@H]3CC[C@]21C)C(C)C
REMARK SMILES IDX 4 1 3 2 2 3 1 4 29 5 30 6 31 7 5 8 6 9 7 10 8 11 9 12 27 13
REMARK SMILES IDX 10 14 11 15 26 16 28 17 12 18 25 19 24 20 13 21 22 22 14 23
REMARK SMILES IDX 16 24 21 25 23 26 15 27 17 28 20 29 18 30 19 31
REMARK H PARENT
REMARK Flexibility Score: inf
ROOT
ATOM      1  C   UNL     1     161.583 162.373 197.513  1.00  0.00     0.004 C 
ENDROOT
BRANCH   1   2
ATOM      2  C   UNL     1     160.500 161.497 198.212  1.00  0.00    -0.009 C 
BRANCH   2   3
ATOM      3  C   UNL     1     160.774 161.448 199.746  1.00  0.00     0.000 C 
ATOM      4  C   UNL     1     162.075 160.748 200.139  1.00  0.00     0.004 C 
ENDBRANCH   2   3
BRANCH   2   5
ATOM      5  C   UNL     1     160.406 160.094 197.512  1.00  0.00    -0.014 C 
ATOM      6  C   UNL     1     159.231 159.236 198.003  1.00  0.00     0.007 C 
ATOM      7  C   UNL     1     160.418 160.173 195.976  1.00  0.00     0.007 C 
ENDBRANCH   2   5
ENDBRANCH   1   2
BRANCH   1   8
ATOM      8  C   UNL     1     160.997 163.654 196.872  1.00  0.00     0.004 C 
BRANCH   8   9
ATOM      9  C   UNL     1     159.753 164.243 197.606  1.00  0.00    -0.011 C 
ATOM     10  C   UNL     1     159.999 165.747 197.878  1.00  0.00     0.008 C 
BRANCH   9  11
ATOM     11  C   UNL     1     158.401 164.002 196.848  1.00  0.00    -0.002 C 
ATOM     12  C   UNL     1     158.574 163.252 195.496  1.00  0.00     0.005 C 
ATOM     13  C   UNL     1     157.225 163.239 197.605  1.00  0.00    -0.026 C 
ATOM     14  C   UNL     1     157.372 162.329 195.345  1.00  0.00     0.005 C 
ATOM     15  C   UNL     1     157.089 161.950 196.780  1.00  0.00    -0.001 C 
ATOM     16  C   UNL     1     157.429 162.790 199.099  1.00  0.00     0.007 C 
ATOM     17  C   UNL     1     155.979 164.174 197.510  1.00  0.00     0.012 C 
ATOM     18  C   UNL     1     155.885 161.030 197.113  1.00  0.00     0.004 C 
ATOM     19  C   UNL     1     156.729 161.448 199.497  1.00  0.00     0.005 C 
ATOM     20  C   UNL     1     155.493 161.107 198.621  1.00  0.00     0.003 C 
ATOM     21  C   UNL     1     154.632 161.209 196.254  1.00  0.00     0.085 C 
ATOM     22  C   UNL     1     154.635 159.863 199.056  1.00  0.00    -0.000 C 
ATOM     23  C   UNL     1     153.595 160.187 196.647  1.00  0.00     0.159 C 
ATOM     24  C   UNL     1     153.467 159.701 198.060  1.00  0.00     0.005 C 
ATOM     25  C   UNL     1     154.053 160.109 200.486  1.00  0.00     0.020 C 
ATOM     26  C   UNL     1     155.474 158.557 199.074  1.00  0.00     0.017 C 
ATOM     27  O   UNL     1     152.786 159.792 195.766  1.00  0.00    -0.295 OA
ATOM     28  C   UNL     1     152.321 159.107 198.442  1.00  0.00     0.055 C 
ATOM     29  C   UNL     1     153.048 159.034 200.924  1.00  0.00     0.081 C 
ATOM     30  C   UNL     1     152.067 158.718 199.837  1.00  0.00     0.156 C 
ATOM     31  O   UNL     1     151.009 158.094 200.121  1.00  0.00    -0.295 OA
ENDBRANCH   9  11
ENDBRANCH   8   9
ENDBRANCH   1   8
TORSDOF 6
ENDMDL
MODEL 2
REMARK VINA RESULT:    -4.802      6.428      9.666
REMARK INTER + INTRA:          -9.431
REMARK INTER:                  -6.779
REMARK INTRA:                  -2.653
REMARK UNBOUND:                -2.945
REMARK SMILES CC[C@@H](CC[C@@H](C)[C@H]1CC[C@@H]2[C@@H]3CC(=O)C4=CC(=O)CC[C@]4(C)[C@H]3CC[C@]21C)C(C)C
REMARK SMILES IDX 4 1 3 2 2 3 1 4 29 5 30 6 31 7 5 8 6 9 7 10 8 11 9 12 27 13
REMARK SMILES IDX 10 14 11 15 26 16 28 17 12 18 25 19 24 20 13 21 22 22 14 23
REMARK SMILES IDX 16 24 21 25 23 26 15 27 17 28 20 29 18 30 19 31
REMARK H PARENT
REMARK Flexibility Score: inf
ROOT
ATOM      1  C   UNL     1     151.644 159.997 199.155  1.00  0.00     0.004 C 
ENDROOT
BRANCH   1   2
ATOM      2  C   UNL     1     150.719 159.441 200.279  1.00  0.00    -0.009 C 
BRANCH   2   3
ATOM      3  C   UNL     1     149.292 160.055 200.136  1.00  0.00     0.000 C 
ATOM      4  C   UNL     1     148.771 160.129 198.701  1.00  0.00     0.004 C 
ENDBRANCH   2   3
BRANCH   2   5
ATOM      5  C   UNL     1     151.390 159.650 201.684  1.00  0.00    -0.014 C 
ATOM      6  C   UNL     1     152.848 160.125 201.606  1.00  0.00     0.007 C 
ATOM      7  C   UNL     1     150.574 160.550 202.626  1.00  0.00     0.007 C 
ENDBRANCH   2   5
ENDBRANCH   1   2
BRANCH   1   8
ATOM      8  C   UNL     1     152.230 158.883 198.254  1.00  0.00     0.004 C 
BRANCH   8   9
ATOM      9  C   UNL     1     151.847 157.432 198.676  1.00  0.00    -0.011 C 
ATOM     10  C   UNL     1     151.250 156.696 197.452  1.00  0.00     0.008 C 
BRANCH   9  11
ATOM     11  C   UNL     1     153.032 156.627 199.317  1.00  0.00    -0.002 C 
ATOM     12  C   UNL     1     154.322 157.476 199.512  1.00  0.00     0.005 C 
ATOM     13  C   UNL     1     152.795 155.896 200.711  1.00  0.00    -0.026 C 
ATOM     14  C   UNL     1     154.962 157.016 200.815  1.00  0.00     0.005 C 
ATOM     15  C   UNL     1     153.751 156.655 201.644  1.00  0.00    -0.001 C 
ATOM     16  C   UNL     1     151.375 155.956 201.386  1.00  0.00     0.007 C 
ATOM     17  C   UNL     1     153.199 154.405 200.484  1.00  0.00     0.012 C 
ATOM     18  C   UNL     1     153.937 156.080 203.074  1.00  0.00     0.004 C 
ATOM     19  C   UNL     1     151.378 156.001 202.950  1.00  0.00     0.005 C 
ATOM     20  C   UNL     1     152.646 155.373 203.590  1.00  0.00     0.003 C 
ATOM     21  C   UNL     1     155.139 155.159 203.287  1.00  0.00     0.085 C 
ATOM     22  C   UNL     1     152.656 155.228 205.155  1.00  0.00    -0.000 C 
ATOM     23  C   UNL     1     155.225 154.761 204.738  1.00  0.00     0.159 C 
ATOM     24  C   UNL     1     153.995 154.588 205.579  1.00  0.00     0.005 C 
ATOM     25  C   UNL     1     151.484 154.294 205.597  1.00  0.00     0.020 C 
ATOM     26  C   UNL     1     152.500 156.600 205.865  1.00  0.00     0.017 C 
ATOM     27  O   UNL     1     156.362 154.510 205.220  1.00  0.00    -0.295 OA
ATOM     28  C   UNL     1     154.082 153.877 206.720  1.00  0.00     0.055 C 
ATOM     29  C   UNL     1     151.522 153.939 207.091  1.00  0.00     0.081 C 
ATOM     30  C   UNL     1     152.900 153.554 207.533  1.00  0.00     0.156 C 
ATOM     31  O   UNL     1     153.052 152.954 208.631  1.00  0.00    -0.295 OA
ENDBRANCH   9  11
ENDBRANCH   8   9
ENDBRANCH   1   8
TORSDOF 6
ENDMDL
MODEL 3
REMARK VINA RESULT:    -4.798      1.547      4.080
REMARK INTER + INTRA:          -9.426
REMARK INTER:                  -6.774
REMARK INTRA:                  -2.652
REMARK UNBOUND:                -2.945
REMARK SMILES CC[C@@H](CC[C@@H](C)[C@H]1CC[C@@H]2[C@@H]3CC(=O)C4=CC(=O)CC[C@]4(C)[C@H]3CC[C@]21C)C(C)C
REMARK SMILES IDX 4 1 3 2 2 3 1 4 29 5 30 6 31 7 5 8 6 9 7 10 8 11 9 12 27 13
REMARK SMILES IDX 10 14 11 15 26 16 28 17 12 18 25 19 24 20 13 21 22 22 14 23
REMARK SMILES IDX 16 24 21 25 23 26 15 27 17 28 20 29 18 30 19 31
REMARK H PARENT
REMARK Flexibility Score: inf
ROOT
ATOM      1  C   UNL     1     159.503 164.188 196.243  1.00  0.00     0.004 C 
ENDROOT
BRANCH   1   2
ATOM      2  C   UNL     1     158.480 165.251 196.745  1.00  0.00    -0.009 C 
BRANCH   2   3
ATOM      3  C   UNL     1     159.090 166.043 197.941  1.00  0.00     0.000 C 
ATOM      4  C   UNL     1     158.933 167.561 197.847  1.00  0.00     0.004 C 
ENDBRANCH   2   3
BRANCH   2   5
ATOM      5  C   UNL     1     157.096 164.570 197.040  1.00  0.00    -0.014 C 
ATOM      6  C   UNL     1     156.241 165.329 198.065  1.00  0.00     0.007 C 
ATOM      7  C   UNL     1     156.280 164.263 195.772  1.00  0.00     0.007 C 
ENDBRANCH   2   5
ENDBRANCH   1   2
BRANCH   1   8
ATOM      8  C   UNL     1     160.525 163.777 197.331  1.00  0.00     0.004 C 
BRANCH   8   9
ATOM      9  C   UNL     1     160.659 162.239 197.554  1.00  0.00    -0.011 C 
ATOM     10  C   UNL     1     162.133 161.910 197.895  1.00  0.00     0.008 C 
BRANCH   9  11
ATOM     11  C   UNL     1     159.671 161.669 198.631  1.00  0.00    -0.002 C 
ATOM     12  C   UNL     1     159.101 162.757 199.586  1.00  0.00     0.005 C 
ATOM     13  C   UNL     1     158.406 160.833 198.144  1.00  0.00    -0.026 C 
ATOM     14  C   UNL     1     157.657 162.375 199.882  1.00  0.00     0.005 C 
ATOM     15  C   UNL     1     157.237 161.727 198.584  1.00  0.00    -0.001 C 
ATOM     16  C   UNL     1     158.203 160.561 196.607  1.00  0.00     0.007 C 
ATOM     17  C   UNL     1     158.473 159.473 198.908  1.00  0.00     0.012 C 
ATOM     18  C   UNL     1     155.810 161.131 198.444  1.00  0.00     0.004 C 
ATOM     19  C   UNL     1     156.716 160.524 196.124  1.00  0.00     0.005 C 
ATOM     20  C   UNL     1     155.706 160.144 197.241  1.00  0.00     0.003 C 
ATOM     21  C   UNL     1     155.221 160.472 199.692  1.00  0.00     0.085 C 
ATOM     22  C   UNL     1     154.212 159.924 196.804  1.00  0.00    -0.000 C 
ATOM     23  C   UNL     1     153.808 160.026 199.416  1.00  0.00     0.159 C 
ATOM     24  C   UNL     1     153.386 159.558 198.055  1.00  0.00     0.005 C 
ATOM     25  C   UNL     1     154.138 158.744 195.782  1.00  0.00     0.020 C 
ATOM     26  C   UNL     1     153.607 161.195 196.149  1.00  0.00     0.017 C 
ATOM     27  O   UNL     1     152.995 159.995 200.377  1.00  0.00    -0.295 OA
ATOM     28  C   UNL     1     152.262 158.823 197.940  1.00  0.00     0.055 C 
ATOM     29  C   UNL     1     152.700 158.329 195.438  1.00  0.00     0.081 C 
ATOM     30  C   UNL     1     151.848 158.219 196.666  1.00  0.00     0.156 C 
ATOM     31  O   UNL     1     150.747 157.608 196.601  1.00  0.00    -0.295 OA
ENDBRANCH   9  11
ENDBRANCH   8   9
ENDBRANCH   1   8
TORSDOF 6
ENDMDL
MODEL 4
REMARK VINA RESULT:    -4.786      2.750      8.035
REMARK INTER + INTRA:          -9.410
REMARK INTER:                  -6.691
REMARK INTRA:                  -2.719
REMARK UNBOUND:                -2.945
REMARK SMILES CC[C@@H](CC[C@@H](C)[C@H]1CC[C@@H]2[C@@H]3CC(=O)C4=CC(=O)CC[C@]4(C)[C@H]3CC[C@]21C)C(C)C
REMARK SMILES IDX 4 1 3 2 2 3 1 4 29 5 30 6 31 7 5 8 6 9 7 10 8 11 9 12 27 13
REMARK SMILES IDX 10 14 11 15 26 16 28 17 12 18 25 19 24 20 13 21 22 22 14 23
REMARK SMILES IDX 16 24 21 25 23 26 15 27 17 28 20 29 18 30 19 31
REMARK H PARENT
REMARK Flexibility Score: inf
ROOT
ATOM      1  C   UNL     1     151.433 157.837 200.608  1.00  0.00     0.004 C 
ENDROOT
BRANCH   1   2
ATOM      2  C   UNL     1     151.118 158.672 199.331  1.00  0.00    -0.009 C 
BRANCH   2   3
ATOM      3  C   UNL     1     152.164 158.346 198.220  1.00  0.00     0.000 C 
ATOM      4  C   UNL     1     152.756 159.570 197.523  1.00  0.00     0.004 C 
ENDBRANCH   2   3
BRANCH   2   5
ATOM      5  C   UNL     1     150.996 160.194 199.697  1.00  0.00    -0.014 C 
ATOM      6  C   UNL     1     149.659 160.823 199.281  1.00  0.00     0.007 C 
ATOM      7  C   UNL     1     151.305 160.496 201.173  1.00  0.00     0.007 C 
ENDBRANCH   2   5
ENDBRANCH   1   2
BRANCH   1   8
ATOM      8  C   UNL     1     152.158 156.506 200.293  1.00  0.00     0.004 C 
BRANCH   8   9
ATOM      9  C   UNL     1     153.361 156.179 201.230  1.00  0.00    -0.011 C 
ATOM     10  C   UNL     1     153.075 154.846 201.965  1.00  0.00     0.008 C 
BRANCH   9  11
ATOM     11  C   UNL     1     154.746 156.151 200.494  1.00  0.00    -0.002 C 
ATOM     12  C   UNL     1     154.670 155.560 199.056  1.00  0.00     0.005 C 
ATOM     13  C   UNL     1     155.562 157.511 200.347  1.00  0.00    -0.026 C 
ATOM     14  C   UNL     1     155.648 156.354 198.199  1.00  0.00     0.005 C 
ATOM     15  C   UNL     1     155.566 157.726 198.826  1.00  0.00    -0.001 C 
ATOM     16  C   UNL     1     154.988 158.831 200.981  1.00  0.00     0.007 C 
ATOM     17  C   UNL     1     156.978 157.224 200.939  1.00  0.00     0.012 C 
ATOM     18  C   UNL     1     156.455 158.877 198.284  1.00  0.00     0.004 C 
ATOM     19  C   UNL     1     155.290 160.144 200.185  1.00  0.00     0.005 C 
ATOM     20  C   UNL     1     156.563 160.057 199.300  1.00  0.00     0.003 C 
ATOM     21  C   UNL     1     157.855 158.490 197.806  1.00  0.00     0.085 C 
ATOM     22  C   UNL     1     157.031 161.382 198.595  1.00  0.00    -0.000 C 
ATOM     23  C   UNL     1     158.551 159.699 197.234  1.00  0.00     0.159 C 
ATOM     24  C   UNL     1     158.301 161.076 197.772  1.00  0.00     0.005 C 
ATOM     25  C   UNL     1     157.374 162.453 199.679  1.00  0.00     0.020 C 
ATOM     26  C   UNL     1     155.938 161.953 197.651  1.00  0.00     0.017 C 
ATOM     27  O   UNL     1     159.405 159.519 196.325  1.00  0.00    -0.295 OA
ATOM     28  C   UNL     1     159.197 162.048 197.513  1.00  0.00     0.055 C 
ATOM     29  C   UNL     1     158.018 163.720 199.097  1.00  0.00     0.081 C 
ATOM     30  C   UNL     1     159.093 163.389 198.107  1.00  0.00     0.156 C 
ATOM     31  O   UNL     1     159.915 164.281 197.767  1.00  0.00    -0.295 OA
ENDBRANCH   9  11
ENDBRANCH   8   9
ENDBRANCH   1   8
TORSDOF 6
ENDMDL
MODEL 5
REMARK VINA RESULT:    -4.773      1.880      4.097
REMARK INTER + INTRA:          -9.392
REMARK INTER:                  -6.802
REMARK INTRA:                  -2.591
REMARK UNBOUND:                -2.945
REMARK SMILES CC[C@@H](CC[C@@H](C)[C@H]1CC[C@@H]2[C@@H]3CC(=O)C4=CC(=O)CC[C@]4(C)[C@H]3CC[C@]21C)C(C)C
REMARK SMILES IDX 4 1 3 2 2 3 1 4 29 5 30 6 31 7 5 8 6 9 7 10 8 11 9 12 27 13
REMARK SMILES IDX 10 14 11 15 26 16 28 17 12 18 25 19 24 20 13 21 22 22 14 23
REMARK SMILES IDX 16 24 21 25 23 26 15 27 17 28 20 29 18 30 19 31
REMARK H PARENT
REMARK Flexibility Score: inf
ROOT
ATOM      1  C   UNL     1     158.615 164.867 197.088  1.00  0.00     0.004 C 
ENDROOT
BRANCH   1   2
ATOM      2  C   UNL     1     157.558 164.296 198.081  1.00  0.00    -0.009 C 
BRANCH   2   3
ATOM      3  C   UNL     1     156.159 164.911 197.770  1.00  0.00     0.000 C 
ATOM      4  C   UNL     1     155.846 165.061 196.281  1.00  0.00     0.004 C 
ENDBRANCH   2   3
BRANCH   2   5
ATOM      5  C   UNL     1     158.050 164.486 199.561  1.00  0.00    -0.014 C 
ATOM      6  C   UNL     1     158.821 163.279 200.114  1.00  0.00     0.007 C 
ATOM      7  C   UNL     1     158.841 165.786 199.782  1.00  0.00     0.007 C 
ENDBRANCH   2   5
ENDBRANCH   1   2
BRANCH   1   8
ATOM      8  C   UNL     1     159.446 163.761 196.393  1.00  0.00     0.004 C 
BRANCH   8   9
ATOM      9  C   UNL     1     158.605 162.709 195.607  1.00  0.00    -0.011 C 
ATOM     10  C   UNL     1     159.001 162.769 194.112  1.00  0.00     0.008 C 
BRANCH   9  11
ATOM     11  C   UNL     1     158.720 161.253 196.181  1.00  0.00    -0.002 C 
ATOM     12  C   UNL     1     159.719 161.132 197.367  1.00  0.00     0.005 C 
ATOM     13  C   UNL     1     157.395 160.517 196.670  1.00  0.00    -0.026 C 
ATOM     14  C   UNL     1     159.130 160.121 198.342  1.00  0.00     0.005 C 
ATOM     15  C   UNL     1     157.647 160.361 198.178  1.00  0.00    -0.001 C 
ATOM     16  C   UNL     1     156.007 161.242 196.525  1.00  0.00     0.007 C 
ATOM     17  C   UNL     1     157.353 159.158 195.903  1.00  0.00     0.012 C 
ATOM     18  C   UNL     1     156.632 159.496 198.972  1.00  0.00     0.004 C 
ATOM     19  C   UNL     1     154.971 160.942 197.659  1.00  0.00     0.005 C 
ATOM     20  C   UNL     1     155.197 159.577 198.364  1.00  0.00     0.003 C 
ATOM     21  C   UNL     1     157.009 158.030 199.188  1.00  0.00     0.085 C 
ATOM     22  C   UNL     1     154.107 159.124 199.402  1.00  0.00    -0.000 C 
ATOM     23  C   UNL     1     155.967 157.357 200.045  1.00  0.00     0.159 C 
ATOM     24  C   UNL     1     154.522 157.755 199.981  1.00  0.00     0.005 C 
ATOM     25  C   UNL     1     152.731 158.973 198.677  1.00  0.00     0.020 C 
ATOM     26  C   UNL     1     153.953 160.142 200.564  1.00  0.00     0.017 C 
ATOM     27  O   UNL     1     156.328 156.399 200.779  1.00  0.00    -0.295 OA
ATOM     28  C   UNL     1     153.592 156.902 200.451  1.00  0.00     0.055 C 
ATOM     29  C   UNL     1     151.642 158.354 199.565  1.00  0.00     0.081 C 
ATOM     30  C   UNL     1     152.150 157.158 200.310  1.00  0.00     0.156 C 
ATOM     31  O   UNL     1     151.327 156.364 200.840  1.00  0.00    -0.295 OA
ENDBRANCH   9  11
ENDBRANCH   8   9
ENDBRANCH   1   8
TORSDOF 6
ENDMDL
MODEL 6
REMARK VINA RESULT:    -4.742      2.758      7.826
REMARK INTER + INTRA:          -9.350
REMARK INTER:                  -6.797
REMARK INTRA:                  -2.554
REMARK UNBOUND:                -2.945
REMARK SMILES CC[C@@H](CC[C@@H](C)[C@H]1CC[C@@H]2[C@@H]3CC(=O)C4=CC(=O)CC[C@]4(C)[C@H]3CC[C@]21C)C(C)C
REMARK SMILES IDX 4 1 3 2 2 3 1 4 29 5 30 6 31 7 5 8 6 9 7 10 8 11 9 12 27 13
REMARK SMILES IDX 10 14 11 15 26 16 28 17 12 18 25 19 24 20 13 21 22 22 14 23
REMARK SMILES IDX 16 24 21 25 23 26 15 27 17 28 20 29 18 30 19 31
REMARK H PARENT
REMARK Flexibility Score: inf
ROOT
ATOM      1  C   UNL     1     151.135 157.713 199.655  1.00  0.00     0.004 C 
ENDROOT
BRANCH   1   2
ATOM      2  C   UNL     1     151.691 159.103 200.087  1.00  0.00    -0.009 C 
BRANCH   2   3
ATOM      3  C   UNL     1     151.005 159.554 201.413  1.00  0.00     0.000 C 
ATOM      4  C   UNL     1     151.592 160.820 202.036  1.00  0.00     0.004 C 
ENDBRANCH   2   3
BRANCH   2   5
ATOM      5  C   UNL     1     151.571 160.125 198.900  1.00  0.00    -0.014 C 
ATOM      6  C   UNL     1     152.342 159.702 197.642  1.00  0.00     0.007 C 
ATOM      7  C   UNL     1     150.118 160.491 198.550  1.00  0.00     0.007 C 
ENDBRANCH   2   5
ENDBRANCH   1   2
BRANCH   1   8
ATOM      8  C   UNL     1     152.143 156.562 199.893  1.00  0.00     0.004 C 
BRANCH   8   9
ATOM      9  C   UNL     1     153.420 156.967 200.690  1.00  0.00    -0.011 C 
ATOM     10  C   UNL     1     153.503 156.105 201.973  1.00  0.00     0.008 C 
BRANCH   9  11
ATOM     11  C   UNL     1     154.742 156.887 199.849  1.00  0.00    -0.002 C 
ATOM     12  C   UNL     1     154.515 156.415 198.384  1.00  0.00     0.005 C 
ATOM     13  C   UNL     1     155.657 158.185 199.736  1.00  0.00    -0.026 C 
ATOM     14  C   UNL     1     155.492 157.191 197.512  1.00  0.00     0.005 C 
ATOM     15  C   UNL     1     155.571 158.514 198.237  1.00  0.00    -0.001 C 
ATOM     16  C   UNL     1     155.242 159.495 200.502  1.00  0.00     0.007 C 
ATOM     17  C   UNL     1     157.082 157.744 200.195  1.00  0.00     0.012 C 
ATOM     18  C   UNL     1     156.512 159.630 197.710  1.00  0.00     0.004 C 
ATOM     19  C   UNL     1     155.596 160.836 199.779  1.00  0.00     0.005 C 
ATOM     20  C   UNL     1     156.791 160.717 198.794  1.00  0.00     0.003 C 
ATOM     21  C   UNL     1     157.837 159.171 197.100  1.00  0.00     0.085 C 
ATOM     22  C   UNL     1     157.317 162.051 198.149  1.00  0.00    -0.000 C 
ATOM     23  C   UNL     1     158.590 160.362 196.562  1.00  0.00     0.159 C 
ATOM     24  C   UNL     1     158.495 161.709 197.212  1.00  0.00     0.005 C 
ATOM     25  C   UNL     1     157.825 163.007 199.276  1.00  0.00     0.020 C 
ATOM     26  C   UNL     1     156.212 162.776 197.335  1.00  0.00     0.017 C 
ATOM     27  O   UNL     1     159.359 160.185 195.580  1.00  0.00    -0.295 OA
ATOM     28  C   UNL     1     159.449 162.625 196.953  1.00  0.00     0.055 C 
ATOM     29  C   UNL     1     158.531 164.260 198.736  1.00  0.00     0.081 C 
ATOM     30  C   UNL     1     159.501 163.921 197.646  1.00  0.00     0.156 C 
ATOM     31  O   UNL     1     160.369 164.769 197.306  1.00  0.00    -0.295 OA
ENDBRANCH   9  11
ENDBRANCH   8   9
ENDBRANCH   1   8
TORSDOF 6
ENDMDL
MODEL 7
REMARK VINA RESULT:    -4.724      2.518      7.633
REMARK INTER + INTRA:          -9.325
REMARK INTER:                  -6.845
REMARK INTRA:                  -2.480
REMARK UNBOUND:                -2.945
REMARK SMILES CC[C@@H](CC[C@@H](C)[C@H]1CC[C@@H]2[C@@H]3CC(=O)C4=CC(=O)CC[C@]4(C)[C@H]3CC[C@]21C)C(C)C
REMARK SMILES IDX 4 1 3 2 2 3 1 4 29 5 30 6 31 7 5 8 6 9 7 10 8 11 9 12 27 13
REMARK SMILES IDX 10 14 11 15 26 16 28 17 12 18 25 19 24 20 13 21 22 22 14 23
REMARK SMILES IDX 16 24 21 25 23 26 15 27 17 28 20 29 18 30 19 31
REMARK H PARENT
REMARK Flexibility Score: inf
ROOT
ATOM      1  C   UNL     1     151.954 158.006 200.818  1.00  0.00     0.004 C 
ENDROOT
BRANCH   1   2
ATOM      2  C   UNL     1     152.429 159.477 200.616  1.00  0.00    -0.009 C 
BRANCH   2   3
ATOM      3  C   UNL     1     153.774 159.702 201.372  1.00  0.00     0.000 C 
ATOM      4  C   UNL     1     154.435 158.425 201.891  1.00  0.00     0.004 C 
ENDBRANCH   2   3
BRANCH   2   5
ATOM      5  C   UNL     1     151.278 160.473 201.003  1.00  0.00    -0.014 C 
ATOM      6  C   UNL     1     150.116 160.494 200.000  1.00  0.00     0.007 C 
ATOM      7  C   UNL     1     150.756 160.281 202.437  1.00  0.00     0.007 C 
ENDBRANCH   2   5
ENDBRANCH   1   2
BRANCH   1   8
ATOM      8  C   UNL     1     151.746 157.253 199.482  1.00  0.00     0.004 C 
BRANCH   8   9
ATOM      9  C   UNL     1     153.057 156.928 198.704  1.00  0.00    -0.011 C 
ATOM     10  C   UNL     1     153.035 155.437 198.287  1.00  0.00     0.008 C 
BRANCH   9  11
ATOM     11  C   UNL     1     153.314 157.871 197.476  1.00  0.00    -0.002 C 
ATOM     12  C   UNL     1     152.201 158.938 197.273  1.00  0.00     0.005 C 
ATOM     13  C   UNL     1     154.686 158.675 197.402  1.00  0.00    -0.026 C 
ATOM     14  C   UNL     1     152.888 160.210 196.794  1.00  0.00     0.005 C 
ATOM     15  C   UNL     1     154.216 160.133 197.511  1.00  0.00    -0.001 C 
ATOM     16  C   UNL     1     155.765 158.471 198.528  1.00  0.00     0.007 C 
ATOM     17  C   UNL     1     155.311 158.324 196.015  1.00  0.00     0.012 C 
ATOM     18  C   UNL     1     155.285 161.233 197.277  1.00  0.00     0.004 C 
ATOM     19  C   UNL     1     156.606 159.740 198.889  1.00  0.00     0.005 C 
ATOM     20  C   UNL     1     156.704 160.772 197.733  1.00  0.00     0.003 C 
ATOM     21  C   UNL     1     155.370 161.812 195.864  1.00  0.00     0.085 C 
ATOM     22  C   UNL     1     157.664 161.998 197.953  1.00  0.00    -0.000 C 
ATOM     23  C   UNL     1     156.390 162.921 195.827  1.00  0.00     0.159 C 
ATOM     24  C   UNL     1     157.613 162.891 196.696  1.00  0.00     0.005 C 
ATOM     25  C   UNL     1     159.126 161.483 198.151  1.00  0.00     0.020 C 
ATOM     26  C   UNL     1     157.255 162.838 199.193  1.00  0.00     0.017 C 
ATOM     27  O   UNL     1     156.226 163.853 194.996  1.00  0.00    -0.295 OA
ATOM     28  C   UNL     1     158.661 163.671 196.369  1.00  0.00     0.055 C 
ATOM     29  C   UNL     1     160.167 162.612 198.188  1.00  0.00     0.081 C 
ATOM     30  C   UNL     1     159.941 163.607 197.091  1.00  0.00     0.156 C 
ATOM     31  O   UNL     1     160.860 164.416 196.791  1.00  0.00    -0.295 OA
ENDBRANCH   9  11
ENDBRANCH   8   9
ENDBRANCH   1   8
TORSDOF 6
ENDMDL
MODEL 8
REMARK VINA RESULT:    -4.651      4.954      8.516
REMARK INTER + INTRA:          -9.227
REMARK INTER:                  -6.501
REMARK INTRA:                  -2.726
REMARK UNBOUND:                -2.945
REMARK SMILES CC[C@@H](CC[C@@H](C)[C@H]1CC[C@@H]2[C@@H]3CC(=O)C4=CC(=O)CC[C@]4(C)[C@H]3CC[C@]21C)C(C)C
REMARK SMILES IDX 4 1 3 2 2 3 1 4 29 5 30 6 31 7 5 8 6 9 7 10 8 11 9 12 27 13
REMARK SMILES IDX 10 14 11 15 26 16 28 17 12 18 25 19 24 20 13 21 22 22 14 23
REMARK SMILES IDX 16 24 21 25 23 26 15 27 17 28 20 29 18 30 19 31
REMARK H PARENT
REMARK Flexibility Score: inf
ROOT
ATOM      1  C   UNL     1     152.187 159.912 198.215  1.00  0.00     0.004 C 
ENDROOT
BRANCH   1   2
ATOM      2  C   UNL     1     151.337 160.236 199.481  1.00  0.00    -0.009 C 
BRANCH   2   3
ATOM      3  C   UNL     1     152.230 160.125 200.754  1.00  0.00     0.000 C 
ATOM      4  C   UNL     1     151.506 159.606 201.997  1.00  0.00     0.004 C 
ENDBRANCH   2   3
BRANCH   2   5
ATOM      5  C   UNL     1     150.042 159.349 199.502  1.00  0.00    -0.014 C 
ATOM      6  C   UNL     1     148.757 160.139 199.789  1.00  0.00     0.007 C 
ATOM      7  C   UNL     1     149.875 158.476 198.247  1.00  0.00     0.007 C 
ENDBRANCH   2   5
ENDBRANCH   1   2
BRANCH   1   8
ATOM      8  C   UNL     1     153.706 159.854 198.509  1.00  0.00     0.004 C 
BRANCH   8   9
ATOM      9  C   UNL     1     154.439 158.612 197.917  1.00  0.00    -0.011 C 
ATOM     10  C   UNL     1     155.424 159.088 196.821  1.00  0.00     0.008 C 
BRANCH   9  11
ATOM     11  C   UNL     1     155.154 157.726 198.996  1.00  0.00    -0.002 C 
ATOM     12  C   UNL     1     155.956 158.552 200.042  1.00  0.00     0.005 C 
ATOM     13  C   UNL     1     154.279 156.704 199.849  1.00  0.00    -0.026 C 
ATOM     14  C   UNL     1     155.801 157.843 201.381  1.00  0.00     0.005 C 
ATOM     15  C   UNL     1     154.406 157.273 201.270  1.00  0.00    -0.001 C 
ATOM     16  C   UNL     1     152.739 156.573 199.558  1.00  0.00     0.007 C 
ATOM     17  C   UNL     1     154.961 155.310 199.673  1.00  0.00     0.012 C 
ATOM     18  C   UNL     1     153.829 156.410 202.424  1.00  0.00     0.004 C 
ATOM     19  C   UNL     1     151.843 156.279 200.808  1.00  0.00     0.005 C 
ATOM     20  C   UNL     1     152.600 155.568 201.963  1.00  0.00     0.003 C 
ATOM     21  C   UNL     1     154.819 155.503 203.156  1.00  0.00     0.085 C 
ATOM     22  C   UNL     1     151.738 155.090 203.188  1.00  0.00    -0.000 C 
ATOM     23  C   UNL     1     154.123 154.804 204.296  1.00  0.00     0.159 C 
ATOM     24  C   UNL     1     152.676 154.416 204.212  1.00  0.00     0.005 C 
ATOM     25  C   UNL     1     150.681 154.046 202.704  1.00  0.00     0.020 C 
ATOM     26  C   UNL     1     151.000 156.271 203.874  1.00  0.00     0.017 C 
ATOM     27  O   UNL     1     154.805 154.492 205.308  1.00  0.00    -0.295 OA
ATOM     28  C   UNL     1     152.205 153.479 205.057  1.00  0.00     0.055 C 
ATOM     29  C   UNL     1     149.915 153.379 203.855  1.00  0.00     0.081 C 
ATOM     30  C   UNL     1     150.836 152.951 204.957  1.00  0.00     0.156 C 
ATOM     31  O   UNL     1     150.424 152.133 205.823  1.00  0.00    -0.295 OA
ENDBRANCH   9  11
ENDBRANCH   8   9
ENDBRANCH   1   8
TORSDOF 6
ENDMDL
MODEL 9
REMARK VINA RESULT:    -4.630      2.633      4.824
REMARK INTER + INTRA:          -9.199
REMARK INTER:                  -6.216
REMARK INTRA:                  -2.983
REMARK UNBOUND:                -2.945
REMARK SMILES CC[C@@H](CC[C@@H](C)[C@H]1CC[C@@H]2[C@@H]3CC(=O)C4=CC(=O)CC[C@]4(C)[C@H]3CC[C@]21C)C(C)C
REMARK SMILES IDX 4 1 3 2 2 3 1 4 29 5 30 6 31 7 5 8 6 9 7 10 8 11 9 12 27 13
REMARK SMILES IDX 10 14 11 15 26 16 28 17 12 18 25 19 24 20 13 21 22 22 14 23
REMARK SMILES IDX 16 24 21 25 23 26 15 27 17 28 20 29 18 30 19 31
REMARK H PARENT
REMARK Flexibility Score: inf
ROOT
ATOM      1  C   UNL     1     158.140 157.510 200.458  1.00  0.00     0.004 C 
ENDROOT
BRANCH   1   2
ATOM      2  C   UNL     1     157.298 156.202 200.361  1.00  0.00    -0.009 C 
BRANCH   2   3
ATOM      3  C   UNL     1     157.452 155.583 198.938  1.00  0.00     0.000 C 
ATOM      4  C   UNL     1     158.157 154.227 198.906  1.00  0.00     0.004 C 
ENDBRANCH   2   3
BRANCH   2   5
ATOM      5  C   UNL     1     155.817 156.479 200.805  1.00  0.00    -0.014 C 
ATOM      6  C   UNL     1     154.781 155.620 200.067  1.00  0.00     0.007 C 
ATOM      7  C   UNL     1     155.608 156.397 202.327  1.00  0.00     0.007 C 
ENDBRANCH   2   5
ENDBRANCH   1   2
BRANCH   1   8
ATOM      8  C   UNL     1     158.795 157.904 199.111  1.00  0.00     0.004 C 
BRANCH   8   9
ATOM      9  C   UNL     1     158.584 159.391 198.693  1.00  0.00    -0.011 C 
ATOM     10  C   UNL     1     159.875 159.906 198.011  1.00  0.00     0.008 C 
BRANCH   9  11
ATOM     11  C   UNL     1     157.320 159.621 197.792  1.00  0.00    -0.002 C 
ATOM     12  C   UNL     1     156.994 158.415 196.864  1.00  0.00     0.005 C 
ATOM     13  C   UNL     1     155.940 159.998 198.493  1.00  0.00    -0.026 C 
ATOM     14  C   UNL     1     155.477 158.312 196.788  1.00  0.00     0.005 C 
ATOM     15  C   UNL     1     155.065 158.778 198.166  1.00  0.00    -0.001 C 
ATOM     16  C   UNL     1     155.887 160.176 200.055  1.00  0.00     0.007 C 
ATOM     17  C   UNL     1     155.457 161.313 197.803  1.00  0.00     0.012 C 
ATOM     18  C   UNL     1     153.560 158.878 198.530  1.00  0.00     0.004 C 
ATOM     19  C   UNL     1     154.553 159.724 200.737  1.00  0.00     0.005 C 
ATOM     20  C   UNL     1     153.324 159.768 199.789  1.00  0.00     0.003 C 
ATOM     21  C   UNL     1     152.616 159.322 197.412  1.00  0.00     0.085 C 
ATOM     22  C   UNL     1     151.918 159.488 200.436  1.00  0.00    -0.000 C 
ATOM     23  C   UNL     1     151.191 159.284 197.901  1.00  0.00     0.159 C 
ATOM     24  C   UNL     1     150.845 159.578 199.330  1.00  0.00     0.005 C 
ATOM     25  C   UNL     1     151.621 160.571 201.522  1.00  0.00     0.020 C 
ATOM     26  C   UNL     1     151.853 158.084 201.095  1.00  0.00     0.017 C 
ATOM     27  O   UNL     1     150.279 159.059 197.062  1.00  0.00    -0.295 OA
ATOM     28  C   UNL     1     149.575 159.909 199.637  1.00  0.00     0.055 C 
ATOM     29  C   UNL     1     150.193 160.495 202.080  1.00  0.00     0.081 C 
ATOM     30  C   UNL     1     149.180 160.335 200.988  1.00  0.00     0.156 C 
ATOM     31  O   UNL     1     147.964 160.556 201.235  1.00  0.00    -0.295 OA
ENDBRANCH   9  11
ENDBRANCH   8   9
ENDBRANCH   1   8
TORSDOF 6
ENDMDL
