MODEL 1
REMARK VINA RESULT:    -3.996      0.000      0.000
REMARK INTER + INTRA:          -5.166
REMARK INTER:                  -4.814
REMARK INTRA:                  -0.353
REMARK UNBOUND:                -0.353
REMARK SMILES NC(=O)C[C@H]([NH3+])C(=O)[O-]
REMARK SMILES IDX 4 1 5 2 6 3 7 7 8 8 9 9 2 10 3 11 1 12
REMARK H PARENT 6 4 6 5 6 6 1 13 1 14
REMARK Flexibility Score: inf
ROOT
ATOM      1  C   UNL     1      55.950  -3.186  18.449  1.00  0.00     0.171 C 
ENDROOT
BRANCH   1   2
ATOM      2  C   UNL     1      57.425  -2.994  18.857  1.00  0.00     0.237 C 
BRANCH   2   3
ATOM      3  N   UNL     1      57.547  -2.185  20.078  1.00  0.00    -0.350 N 
ATOM      4  H   UNL     1      58.320  -1.486  19.984  1.00  0.00     0.345 HD
ATOM      5  H   UNL     1      57.743  -2.806  20.897  1.00  0.00     0.345 HD
ATOM      6  H   UNL     1      56.650  -1.682  20.265  1.00  0.00     0.345 HD
ENDBRANCH   2   3
BRANCH   2   7
ATOM      7  C   UNL     1      58.187  -2.352  17.728  1.00  0.00     0.100 C 
ATOM      8  O   UNL     1      58.883  -3.053  16.947  1.00  0.00    -0.544 OA
ATOM      9  O   UNL     1      58.140  -0.975  17.554  1.00  0.00    -0.544 OA
ENDBRANCH   2   7
ENDBRANCH   1   2
BRANCH   1  10
ATOM     10  C   UNL     1      55.045  -2.235  19.178  1.00  0.00     0.223 C 
ATOM     11  O   UNL     1      55.043  -1.014  18.868  1.00  0.00    -0.275 OA
ATOM     12  N   UNL     1      54.161  -2.709  20.194  1.00  0.00    -0.369 N 
ATOM     13  H   UNL     1      53.526  -2.046  20.690  1.00  0.00     0.159 HD
ATOM     14  H   UNL     1      54.133  -3.722  20.447  1.00  0.00     0.159 HD
ENDBRANCH   1  10
TORSDOF 4
ENDMDL
MODEL 2
REMARK VINA RESULT:    -3.910      1.674      2.120
REMARK INTER + INTRA:          -5.062
REMARK INTER:                  -4.888
REMARK INTRA:                  -0.174
REMARK UNBOUND:                -0.353
REMARK SMILES NC(=O)C[C@H]([NH3+])C(=O)[O-]
REMARK SMILES IDX 4 1 5 2 6 3 7 7 8 8 9 9 2 10 3 11 1 12
REMARK H PARENT 6 4 6 5 6 6 1 13 1 14
REMARK Flexibility Score: inf
ROOT
ATOM      1  C   UNL     1      55.248  -1.391  18.871  1.00  0.00     0.171 C 
ENDROOT
BRANCH   1   2
ATOM      2  C   UNL     1      56.757  -1.682  18.740  1.00  0.00     0.237 C 
BRANCH   2   3
ATOM      3  N   UNL     1      57.286  -2.336  19.946  1.00  0.00    -0.350 N 
ATOM      4  H   UNL     1      57.384  -3.367  19.796  1.00  0.00     0.345 HD
ATOM      5  H   UNL     1      56.643  -2.166  20.753  1.00  0.00     0.345 HD
ATOM      6  H   UNL     1      58.219  -1.935  20.191  1.00  0.00     0.345 HD
ENDBRANCH   2   3
BRANCH   2   7
ATOM      7  C   UNL     1      57.502  -0.402  18.472  1.00  0.00     0.100 C 
ATOM      8  O   UNL     1      57.316   0.609  19.200  1.00  0.00    -0.544 OA
ATOM      9  O   UNL     1      58.388  -0.324  17.405  1.00  0.00    -0.544 OA
ENDBRANCH   2   7
ENDBRANCH   1   2
BRANCH   1  10
ATOM     10  C   UNL     1      54.479  -2.616  19.275  1.00  0.00     0.223 C 
ATOM     11  O   UNL     1      54.478  -3.629  18.527  1.00  0.00    -0.275 OA
ATOM     12  N   UNL     1      53.778  -2.655  20.518  1.00  0.00    -0.369 N 
ATOM     13  H   UNL     1      53.253  -3.512  20.800  1.00  0.00     0.159 HD
ATOM     14  H   UNL     1      53.787  -1.832  21.162  1.00  0.00     0.159 HD
ENDBRANCH   1  10
TORSDOF 4
ENDMDL
MODEL 3
REMARK VINA RESULT:    -3.909     17.345     17.922
REMARK INTER + INTRA:          -5.062
REMARK INTER:                  -4.730
REMARK INTRA:                  -0.331
REMARK UNBOUND:                -0.353
REMARK SMILES NC(=O)C[C@H]([NH3+])C(=O)[O-]
REMARK SMILES IDX 4 1 5 2 6 3 7 7 8 8 9 9 2 10 3 11 1 12
REMARK H PARENT 6 4 6 5 6 6 1 13 1 14
REMARK Flexibility Score: inf
ROOT
ATOM      1  C   UNL     1      49.695  14.609  17.344  1.00  0.00     0.171 C 
ENDROOT
BRANCH   1   2
ATOM      2  C   UNL     1      49.178  14.543  15.893  1.00  0.00     0.237 C 
BRANCH   2   3
ATOM      3  N   UNL     1      48.064  13.593  15.761  1.00  0.00    -0.350 N 
ATOM      4  H   UNL     1      48.148  12.823  16.465  1.00  0.00     0.345 HD
ATOM      5  H   UNL     1      48.062  13.181  14.800  1.00  0.00     0.345 HD
ATOM      6  H   UNL     1      47.153  14.087  15.899  1.00  0.00     0.345 HD
ENDBRANCH   2   3
BRANCH   2   7
ATOM      7  C   UNL     1      50.302  14.160  14.968  1.00  0.00     0.100 C 
ATOM      8  O   UNL     1      51.073  15.040  14.501  1.00  0.00    -0.544 OA
ATOM      9  O   UNL     1      50.484  12.831  14.609  1.00  0.00    -0.544 OA
ENDBRANCH   2   7
ENDBRANCH   1   2
BRANCH   1  10
ATOM     10  C   UNL     1      49.163  13.479  18.176  1.00  0.00     0.223 C 
ATOM     11  O   UNL     1      49.639  12.321  18.036  1.00  0.00    -0.275 OA
ATOM     12  N   UNL     1      48.146  13.711  19.151  1.00  0.00    -0.369 N 
ATOM     13  H   UNL     1      47.785  12.924  19.735  1.00  0.00     0.159 HD
ATOM     14  H   UNL     1      47.756  14.670  19.297  1.00  0.00     0.159 HD
ENDBRANCH   1  10
TORSDOF 4
ENDMDL
MODEL 4
REMARK VINA RESULT:    -3.809     17.894     18.771
REMARK INTER + INTRA:          -4.941
REMARK INTER:                  -4.526
REMARK INTRA:                  -0.414
REMARK UNBOUND:                -0.353
REMARK SMILES NC(=O)C[C@H]([NH3+])C(=O)[O-]
REMARK SMILES IDX 4 1 5 2 6 3 7 7 8 8 9 9 2 10 3 11 1 12
REMARK H PARENT 6 4 6 5 6 6 1 13 1 14
REMARK Flexibility Score: inf
ROOT
ATOM      1  C   UNL     1      50.201  13.894  17.110  1.00  0.00     0.171 C 
ENDROOT
BRANCH   1   2
ATOM      2  C   UNL     1      49.601  13.865  18.531  1.00  0.00     0.237 C 
BRANCH   2   3
ATOM      3  N   UNL     1      48.207  13.402  18.518  1.00  0.00    -0.350 N 
ATOM      4  H   UNL     1      48.031  12.732  19.302  1.00  0.00     0.345 HD
ATOM      5  H   UNL     1      47.999  12.928  17.609  1.00  0.00     0.345 HD
ATOM      6  H   UNL     1      47.557  14.215  18.610  1.00  0.00     0.345 HD
ENDBRANCH   2   3
BRANCH   2   7
ATOM      7  C   UNL     1      49.689  15.235  19.150  1.00  0.00     0.100 C 
ATOM      8  O   UNL     1      50.564  16.055  18.764  1.00  0.00    -0.544 OA
ATOM      9  O   UNL     1      48.813  15.596  20.165  1.00  0.00    -0.544 OA
ENDBRANCH   2   7
ENDBRANCH   1   2
BRANCH   1  10
ATOM     10  C   UNL     1      49.218  14.416  16.103  1.00  0.00     0.223 C 
ATOM     11  O   UNL     1      48.455  13.615  15.501  1.00  0.00    -0.275 OA
ATOM     12  N   UNL     1      49.116  15.817  15.847  1.00  0.00    -0.369 N 
ATOM     13  H   UNL     1      48.424  16.177  15.153  1.00  0.00     0.159 HD
ATOM     14  H   UNL     1      49.725  16.499  16.354  1.00  0.00     0.159 HD
ENDBRANCH   1  10
TORSDOF 4
ENDMDL
MODEL 5
REMARK VINA RESULT:    -3.744     17.143     17.938
REMARK INTER + INTRA:          -4.862
REMARK INTER:                  -4.494
REMARK INTRA:                  -0.368
REMARK UNBOUND:                -0.353
REMARK SMILES NC(=O)C[C@H]([NH3+])C(=O)[O-]
REMARK SMILES IDX 4 1 5 2 6 3 7 7 8 8 9 9 2 10 3 11 1 12
REMARK H PARENT 6 4 6 5 6 6 1 13 1 14
REMARK Flexibility Score: inf
ROOT
ATOM      1  C   UNL     1      49.691  14.702  17.334  1.00  0.00     0.171 C 
ENDROOT
BRANCH   1   2
ATOM      2  C   UNL     1      49.949  13.770  18.536  1.00  0.00     0.237 C 
BRANCH   2   3
ATOM      3  N   UNL     1      50.510  12.481  18.108  1.00  0.00    -0.350 N 
ATOM      4  H   UNL     1      49.891  11.690  18.404  1.00  0.00     0.345 HD
ATOM      5  H   UNL     1      51.459  12.350  18.528  1.00  0.00     0.345 HD
ATOM      6  H   UNL     1      50.615  12.463  17.068  1.00  0.00     0.345 HD
ENDBRANCH   2   3
BRANCH   2   7
ATOM      7  C   UNL     1      48.668  13.554  19.298  1.00  0.00     0.100 C 
ATOM      8  O   UNL     1      48.167  12.402  19.390  1.00  0.00    -0.544 OA
ATOM      9  O   UNL     1      48.022  14.631  19.890  1.00  0.00    -0.544 OA
ENDBRANCH   2   7
ENDBRANCH   1   2
BRANCH   1  10
ATOM     10  C   UNL     1      49.367  13.927  16.090  1.00  0.00     0.223 C 
ATOM     11  O   UNL     1      50.297  13.544  15.332  1.00  0.00    -0.275 OA
ATOM     12  N   UNL     1      48.016  13.588  15.777  1.00  0.00    -0.369 N 
ATOM     13  H   UNL     1      47.796  13.040  14.916  1.00  0.00     0.159 HD
ATOM     14  H   UNL     1      47.233  13.877  16.407  1.00  0.00     0.159 HD
ENDBRANCH   1  10
TORSDOF 4
ENDMDL
MODEL 6
REMARK VINA RESULT:    -3.715     12.217     13.253
REMARK INTER + INTRA:          -4.827
REMARK INTER:                  -4.400
REMARK INTRA:                  -0.427
REMARK UNBOUND:                -0.353
REMARK SMILES NC(=O)C[C@H]([NH3+])C(=O)[O-]
REMARK SMILES IDX 4 1 5 2 6 3 7 7 8 8 9 9 2 10 3 11 1 12
REMARK H PARENT 6 4 6 5 6 6 1 13 1 14
REMARK Flexibility Score: inf
ROOT
ATOM      1  C   UNL     1      49.564   8.472  20.169  1.00  0.00     0.171 C 
ENDROOT
BRANCH   1   2
ATOM      2  C   UNL     1      50.578   8.923  19.098  1.00  0.00     0.237 C 
BRANCH   2   3
ATOM      3  N   UNL     1      50.327  10.305  18.666  1.00  0.00    -0.350 N 
ATOM      4  H   UNL     1      51.011  10.594  17.928  1.00  0.00     0.345 HD
ATOM      5  H   UNL     1      50.410  10.953  19.483  1.00  0.00     0.345 HD
ATOM      6  H   UNL     1      49.357  10.392  18.286  1.00  0.00     0.345 HD
ENDBRANCH   2   3
BRANCH   2   7
ATOM      7  C   UNL     1      50.522   7.990  17.917  1.00  0.00     0.100 C 
ATOM      8  O   UNL     1      51.335   7.033  17.821  1.00  0.00    -0.544 OA
ATOM      9  O   UNL     1      49.581   8.193  16.916  1.00  0.00    -0.544 OA
ENDBRANCH   2   7
ENDBRANCH   1   2
BRANCH   1  10
ATOM     10  C   UNL     1      48.186   8.993  19.883  1.00  0.00     0.223 C 
ATOM     11  O   UNL     1      47.893  10.181  20.179  1.00  0.00    -0.275 OA
ATOM     12  N   UNL     1      47.214   8.163  19.246  1.00  0.00    -0.369 N 
ATOM     13  H   UNL     1      46.260   8.532  19.039  1.00  0.00     0.159 HD
ATOM     14  H   UNL     1      47.447   7.182  18.972  1.00  0.00     0.159 HD
ENDBRANCH   1  10
TORSDOF 4
ENDMDL
MODEL 7
REMARK VINA RESULT:    -3.686      1.843      2.099
REMARK INTER + INTRA:          -4.793
REMARK INTER:                  -4.651
REMARK INTRA:                  -0.142
REMARK UNBOUND:                -0.353
REMARK SMILES NC(=O)C[C@H]([NH3+])C(=O)[O-]
REMARK SMILES IDX 4 1 5 2 6 3 7 7 8 8 9 9 2 10 3 11 1 12
REMARK H PARENT 6 4 6 5 6 6 1 13 1 14
REMARK Flexibility Score: inf
ROOT
ATOM      1  C   UNL     1      55.917  -1.065  18.735  1.00  0.00     0.171 C 
ENDROOT
BRANCH   1   2
ATOM      2  C   UNL     1      56.651  -2.250  19.395  1.00  0.00     0.237 C 
BRANCH   2   3
ATOM      3  N   UNL     1      57.872  -1.811  20.086  1.00  0.00    -0.350 N 
ATOM      4  H   UNL     1      57.783  -0.817  20.400  1.00  0.00     0.345 HD
ATOM      5  H   UNL     1      58.692  -1.896  19.443  1.00  0.00     0.345 HD
ATOM      6  H   UNL     1      58.052  -2.419  20.917  1.00  0.00     0.345 HD
ENDBRANCH   2   3
BRANCH   2   7
ATOM      7  C   UNL     1      56.984  -3.287  18.356  1.00  0.00     0.100 C 
ATOM      8  O   UNL     1      56.094  -4.064  17.920  1.00  0.00    -0.544 OA
ATOM      9  O   UNL     1      58.285  -3.404  17.884  1.00  0.00    -0.544 OA
ENDBRANCH   2   7
ENDBRANCH   1   2
BRANCH   1  10
ATOM     10  C   UNL     1      54.471  -1.014  19.136  1.00  0.00     0.223 C 
ATOM     11  O   UNL     1      53.987  -1.934  19.847  1.00  0.00    -0.275 OA
ATOM     12  N   UNL     1      53.649   0.087  18.748  1.00  0.00    -0.369 N 
ATOM     13  H   UNL     1      52.647   0.123  19.038  1.00  0.00     0.159 HD
ATOM     14  H   UNL     1      54.040   0.870  18.178  1.00  0.00     0.159 HD
ENDBRANCH   1  10
TORSDOF 4
ENDMDL
MODEL 8
REMARK VINA RESULT:    -3.680      1.791      3.781
REMARK INTER + INTRA:          -4.785
REMARK INTER:                  -4.565
REMARK INTRA:                  -0.220
REMARK UNBOUND:                -0.353
REMARK SMILES NC(=O)C[C@H]([NH3+])C(=O)[O-]
REMARK SMILES IDX 4 1 5 2 6 3 7 7 8 8 9 9 2 10 3 11 1 12
REMARK H PARENT 6 4 6 5 6 6 1 13 1 14
REMARK Flexibility Score: inf
ROOT
ATOM      1  C   UNL     1      56.929  -3.484  18.327  1.00  0.00     0.171 C 
ENDROOT
BRANCH   1   2
ATOM      2  C   UNL     1      56.187  -2.293  18.967  1.00  0.00     0.237 C 
BRANCH   2   3
ATOM      3  N   UNL     1      56.729  -1.971  20.295  1.00  0.00    -0.350 N 
ATOM      4  H   UNL     1      56.010  -1.484  20.880  1.00  0.00     0.345 HD
ATOM      5  H   UNL     1      57.567  -1.353  20.196  1.00  0.00     0.345 HD
ATOM      6  H   UNL     1      57.031  -2.846  20.780  1.00  0.00     0.345 HD
ENDBRANCH   2   3
BRANCH   2   7
ATOM      7  C   UNL     1      54.717  -2.602  19.065  1.00  0.00     0.100 C 
ATOM      8  O   UNL     1      54.199  -3.485  18.330  1.00  0.00    -0.544 OA
ATOM      9  O   UNL     1      53.917  -1.899  19.957  1.00  0.00    -0.544 OA
ENDBRANCH   2   7
ENDBRANCH   1   2
BRANCH   1  10
ATOM     10  C   UNL     1      58.178  -3.044  17.619  1.00  0.00     0.223 C 
ATOM     11  O   UNL     1      58.407  -1.816  17.461  1.00  0.00    -0.275 OA
ATOM     12  N   UNL     1      59.127  -4.006  17.157  1.00  0.00    -0.369 N 
ATOM     13  H   UNL     1      60.000  -3.695  16.674  1.00  0.00     0.159 HD
ATOM     14  H   UNL     1      58.965  -5.028  17.301  1.00  0.00     0.159 HD
ENDBRANCH   1  10
TORSDOF 4
ENDMDL
MODEL 9
REMARK VINA RESULT:    -3.584     18.060     18.552
REMARK INTER + INTRA:          -4.670
REMARK INTER:                  -4.399
REMARK INTRA:                  -0.270
REMARK UNBOUND:                -0.353
REMARK SMILES NC(=O)C[C@H]([NH3+])C(=O)[O-]
REMARK SMILES IDX 4 1 5 2 6 3 7 7 8 8 9 9 2 10 3 11 1 12
REMARK H PARENT 6 4 6 5 6 6 1 13 1 14
REMARK Flexibility Score: inf
ROOT
ATOM      1  C   UNL     1      49.557  14.076  17.881  1.00  0.00     0.171 C 
ENDROOT
BRANCH   1   2
ATOM      2  C   UNL     1      50.011  14.773  16.583  1.00  0.00     0.237 C 
BRANCH   2   3
ATOM      3  N   UNL     1      49.275  16.025  16.357  1.00  0.00    -0.350 N 
ATOM      4  H   UNL     1      48.509  15.884  15.657  1.00  0.00     0.345 HD
ATOM      5  H   UNL     1      49.928  16.763  16.006  1.00  0.00     0.345 HD
ATOM      6  H   UNL     1      48.861  16.365  17.254  1.00  0.00     0.345 HD
ENDBRANCH   2   3
BRANCH   2   7
ATOM      7  C   UNL     1      49.829  13.843  15.413  1.00  0.00     0.100 C 
ATOM      8  O   UNL     1      48.727  13.264  15.223  1.00  0.00    -0.544 OA
ATOM      9  O   UNL     1      50.887  13.605  14.544  1.00  0.00    -0.544 OA
ENDBRANCH   2   7
ENDBRANCH   1   2
BRANCH   1  10
ATOM     10  C   UNL     1      49.498  15.034  19.035  1.00  0.00     0.223 C 
ATOM     11  O   UNL     1      50.491  15.764  19.292  1.00  0.00    -0.275 OA
ATOM     12  N   UNL     1      48.312  15.150  19.821  1.00  0.00    -0.369 N 
ATOM     13  H   UNL     1      48.271  15.825  20.617  1.00  0.00     0.159 HD
ATOM     14  H   UNL     1      47.470  14.569  19.607  1.00  0.00     0.159 HD
ENDBRANCH   1  10
TORSDOF 4
ENDMDL
