MODEL 1
REMARK VINA RESULT:    -4.229      0.000      0.000
REMARK INTER + INTRA:          -6.902
REMARK INTER:                  -6.207
REMARK INTRA:                  -0.695
REMARK UNBOUND:                -0.695
REMARK SMILES O=C([O-])CCCCCCCC(=O)[O-]
REMARK SMILES IDX 7 1 6 2 5 3 4 4 2 5 1 6 3 7 8 8 9 9 10 10 11 11 12 12 13 13
REMARK H PARENT
REMARK Flexibility Score: inf
ROOT
ATOM      1  C   UNL     1     -21.144  46.338  85.058  1.00  0.00     0.000 C 
ENDROOT
BRANCH   1   2
ATOM      2  C   UNL     1     -21.035  46.037  83.554  1.00  0.00     0.000 C 
BRANCH   2   3
ATOM      3  C   UNL     1     -19.654  46.383  82.979  1.00  0.00     0.006 C 
BRANCH   3   4
ATOM      4  C   UNL     1     -18.616  45.330  83.375  1.00  0.00     0.053 C 
BRANCH   4   5
ATOM      5  C   UNL     1     -17.630  45.901  84.344  1.00  0.00     0.041 C 
ATOM      6  O   UNL     1     -17.325  47.122  84.291  1.00  0.00    -0.550 OA
ATOM      7  O   UNL     1     -17.007  45.076  85.272  1.00  0.00    -0.550 OA
ENDBRANCH   4   5
ENDBRANCH   3   4
ENDBRANCH   2   3
ENDBRANCH   1   2
BRANCH   1   8
ATOM      8  C   UNL     1     -21.564  45.109  85.878  1.00  0.00     0.000 C 
BRANCH   8   9
ATOM      9  C   UNL     1     -20.353  44.468  86.566  1.00  0.00     0.006 C 
BRANCH   9  10
ATOM     10  C   UNL     1     -19.991  43.131  85.911  1.00  0.00     0.053 C 
BRANCH  10  11
ATOM     11  C   UNL     1     -20.253  41.999  86.852  1.00  0.00     0.041 C 
ATOM     12  O   UNL     1     -20.932  42.188  87.896  1.00  0.00    -0.550 OA
ATOM     13  O   UNL     1     -19.790  40.724  86.553  1.00  0.00    -0.550 OA
ENDBRANCH  10  11
ENDBRANCH   9  10
ENDBRANCH   8   9
ENDBRANCH   1   8
TORSDOF 8
ENDMDL
MODEL 2
REMARK VINA RESULT:    -4.209      2.124      5.517
REMARK INTER + INTRA:          -6.873
REMARK INTER:                  -6.431
REMARK INTRA:                  -0.441
REMARK UNBOUND:                -0.695
REMARK SMILES O=C([O-])CCCCCCCC(=O)[O-]
REMARK SMILES IDX 7 1 6 2 5 3 4 4 2 5 1 6 3 7 8 8 9 9 10 10 11 11 12 12 13 13
REMARK H PARENT
REMARK Flexibility Score: inf
ROOT
ATOM      1  C   UNL     1     -18.440  44.594  84.397  1.00  0.00     0.000 C 
ENDROOT
BRANCH   1   2
ATOM      2  C   UNL     1     -19.209  44.449  85.721  1.00  0.00     0.000 C 
BRANCH   2   3
ATOM      3  C   UNL     1     -20.331  43.404  85.644  1.00  0.00     0.006 C 
BRANCH   3   4
ATOM      4  C   UNL     1     -19.974  42.155  86.453  1.00  0.00     0.053 C 
BRANCH   4   5
ATOM      5  C   UNL     1     -21.208  41.516  87.007  1.00  0.00     0.041 C 
ATOM      6  O   UNL     1     -21.992  42.180  87.735  1.00  0.00    -0.550 OA
ATOM      7  O   UNL     1     -21.466  40.173  86.764  1.00  0.00    -0.550 OA
ENDBRANCH   4   5
ENDBRANCH   3   4
ENDBRANCH   2   3
ENDBRANCH   1   2
BRANCH   1   8
ATOM      8  C   UNL     1     -17.702  45.937  84.286  1.00  0.00     0.000 C 
BRANCH   8   9
ATOM      9  C   UNL     1     -18.691  47.091  84.084  1.00  0.00     0.006 C 
BRANCH   9  10
ATOM     10  C   UNL     1     -19.446  46.943  82.759  1.00  0.00     0.053 C 
BRANCH  10  11
ATOM     11  C   UNL     1     -20.904  46.716  83.010  1.00  0.00     0.041 C 
ATOM     12  O   UNL     1     -21.666  46.391  82.061  1.00  0.00    -0.550 OA
ATOM     13  O   UNL     1     -21.411  46.816  84.298  1.00  0.00    -0.550 OA
ENDBRANCH  10  11
ENDBRANCH   9  10
ENDBRANCH   8   9
ENDBRANCH   1   8
TORSDOF 8
ENDMDL
MODEL 3
REMARK VINA RESULT:    -4.157      6.596      8.334
REMARK INTER + INTRA:          -6.796
REMARK INTER:                  -6.492
REMARK INTRA:                  -0.304
REMARK UNBOUND:                -0.695
REMARK SMILES O=C([O-])CCCCCCCC(=O)[O-]
REMARK SMILES IDX 7 1 6 2 5 3 4 4 2 5 1 6 3 7 8 8 9 9 10 10 11 11 12 12 13 13
REMARK H PARENT
REMARK Flexibility Score: inf
ROOT
ATOM      1  C   UNL     1     -19.326  38.089  85.283  1.00  0.00     0.000 C 
ENDROOT
BRANCH   1   2
ATOM      2  C   UNL     1     -20.585  38.527  86.050  1.00  0.00     0.000 C 
BRANCH   2   3
ATOM      3  C   UNL     1     -20.537  38.143  87.536  1.00  0.00     0.006 C 
BRANCH   3   4
ATOM      4  C   UNL     1     -20.821  39.357  88.425  1.00  0.00     0.053 C 
BRANCH   4   5
ATOM      5  C   UNL     1     -19.901  39.370  89.605  1.00  0.00     0.041 C 
ATOM      6  O   UNL     1     -18.921  40.161  89.635  1.00  0.00    -0.550 OA
ATOM      7  O   UNL     1     -20.095  38.474  90.649  1.00  0.00    -0.550 OA
ENDBRANCH   4   5
ENDBRANCH   3   4
ENDBRANCH   2   3
ENDBRANCH   1   2
BRANCH   1   8
ATOM      8  C   UNL     1     -19.655  37.299  84.008  1.00  0.00     0.000 C 
BRANCH   8   9
ATOM      9  C   UNL     1     -18.493  37.361  83.009  1.00  0.00     0.006 C 
BRANCH   9  10
ATOM     10  C   UNL     1     -17.149  37.157  83.716  1.00  0.00     0.053 C 
BRANCH  10  11
ATOM     11  C   UNL     1     -16.922  35.706  84.000  1.00  0.00     0.041 C 
ATOM     12  O   UNL     1     -16.949  34.865  83.063  1.00  0.00    -0.550 OA
ATOM     13  O   UNL     1     -16.631  35.288  85.292  1.00  0.00    -0.550 OA
ENDBRANCH  10  11
ENDBRANCH   9  10
ENDBRANCH   8   9
ENDBRANCH   1   8
TORSDOF 8
ENDMDL
MODEL 4
REMARK VINA RESULT:    -4.136      5.783      7.336
REMARK INTER + INTRA:          -6.765
REMARK INTER:                  -6.251
REMARK INTRA:                  -0.514
REMARK UNBOUND:                -0.695
REMARK SMILES O=C([O-])CCCCCCCC(=O)[O-]
REMARK SMILES IDX 7 1 6 2 5 3 4 4 2 5 1 6 3 7 8 8 9 9 10 10 11 11 12 12 13 13
REMARK H PARENT
REMARK Flexibility Score: inf
ROOT
ATOM      1  C   UNL     1     -26.352  46.981  88.361  1.00  0.00     0.000 C 
ENDROOT
BRANCH   1   2
ATOM      2  C   UNL     1     -25.882  45.976  87.297  1.00  0.00     0.000 C 
BRANCH   2   3
ATOM      3  C   UNL     1     -24.439  46.230  86.838  1.00  0.00     0.006 C 
BRANCH   3   4
ATOM      4  C   UNL     1     -23.435  45.738  87.884  1.00  0.00     0.053 C 
BRANCH   4   5
ATOM      5  C   UNL     1     -22.977  44.351  87.561  1.00  0.00     0.041 C 
ATOM      6  O   UNL     1     -23.542  43.358  88.089  1.00  0.00    -0.550 OA
ATOM      7  O   UNL     1     -21.891  44.156  86.716  1.00  0.00    -0.550 OA
ENDBRANCH   4   5
ENDBRANCH   3   4
ENDBRANCH   2   3
ENDBRANCH   1   2
BRANCH   1   8
ATOM      8  C   UNL     1     -26.692  46.310  89.699  1.00  0.00     0.000 C 
BRANCH   8   9
ATOM      9  C   UNL     1     -26.639  44.782  89.576  1.00  0.00     0.006 C 
BRANCH   9  10
ATOM     10  C   UNL     1     -27.259  44.109  90.805  1.00  0.00     0.053 C 
BRANCH  10  11
ATOM     11  C   UNL     1     -28.259  43.078  90.388  1.00  0.00     0.041 C 
ATOM     12  O   UNL     1     -29.101  42.641  91.217  1.00  0.00    -0.550 OA
ATOM     13  O   UNL     1     -28.295  42.636  89.072  1.00  0.00    -0.550 OA
ENDBRANCH  10  11
ENDBRANCH   9  10
ENDBRANCH   8   9
ENDBRANCH   1   8
TORSDOF 8
ENDMDL
MODEL 5
REMARK VINA RESULT:    -4.133      5.828      8.596
REMARK INTER + INTRA:          -6.761
REMARK INTER:                  -6.254
REMARK INTRA:                  -0.507
REMARK UNBOUND:                -0.695
REMARK SMILES O=C([O-])CCCCCCCC(=O)[O-]
REMARK SMILES IDX 7 1 6 2 5 3 4 4 2 5 1 6 3 7 8 8 9 9 10 10 11 11 12 12 13 13
REMARK H PARENT
REMARK Flexibility Score: inf
ROOT
ATOM      1  C   UNL     1     -26.341  46.918  88.545  1.00  0.00     0.000 C 
ENDROOT
BRANCH   1   2
ATOM      2  C   UNL     1     -26.817  46.170  89.801  1.00  0.00     0.000 C 
BRANCH   2   3
ATOM      3  C   UNL     1     -26.477  44.673  89.764  1.00  0.00     0.006 C 
BRANCH   3   4
ATOM      4  C   UNL     1     -27.118  43.936  90.943  1.00  0.00     0.053 C 
BRANCH   4   5
ATOM      5  C   UNL     1     -28.255  43.084  90.476  1.00  0.00     0.041 C 
ATOM      6  O   UNL     1     -29.128  42.689  91.293  1.00  0.00    -0.550 OA
ATOM      7  O   UNL     1     -28.324  42.681  89.148  1.00  0.00    -0.550 OA
ENDBRANCH   4   5
ENDBRANCH   3   4
ENDBRANCH   2   3
ENDBRANCH   1   2
BRANCH   1   8
ATOM      8  C   UNL     1     -25.934  45.969  87.409  1.00  0.00     0.000 C 
BRANCH   8   9
ATOM      9  C   UNL     1     -24.544  46.324  86.868  1.00  0.00     0.006 C 
BRANCH   9  10
ATOM     10  C   UNL     1     -23.444  45.861  87.828  1.00  0.00     0.053 C 
BRANCH  10  11
ATOM     11  C   UNL     1     -22.859  44.564  87.367  1.00  0.00     0.041 C 
ATOM     12  O   UNL     1     -23.355  43.472  87.753  1.00  0.00    -0.550 OA
ATOM     13  O   UNL     1     -21.797  44.560  86.471  1.00  0.00    -0.550 OA
ENDBRANCH  10  11
ENDBRANCH   9  10
ENDBRANCH   8   9
ENDBRANCH   1   8
TORSDOF 8
ENDMDL
MODEL 6
REMARK VINA RESULT:    -4.116      5.791      8.553
REMARK INTER + INTRA:          -6.736
REMARK INTER:                  -6.325
REMARK INTRA:                  -0.411
REMARK UNBOUND:                -0.695
REMARK SMILES O=C([O-])CCCCCCCC(=O)[O-]
REMARK SMILES IDX 7 1 6 2 5 3 4 4 2 5 1 6 3 7 8 8 9 9 10 10 11 11 12 12 13 13
REMARK H PARENT
REMARK Flexibility Score: inf
ROOT
ATOM      1  C   UNL     1     -26.368  46.957  88.295  1.00  0.00     0.000 C 
ENDROOT
BRANCH   1   2
ATOM      2  C   UNL     1     -26.644  46.294  89.655  1.00  0.00     0.000 C 
BRANCH   2   3
ATOM      3  C   UNL     1     -26.569  44.762  89.594  1.00  0.00     0.006 C 
BRANCH   3   4
ATOM      4  C   UNL     1     -27.232  44.131  90.822  1.00  0.00     0.053 C 
BRANCH   4   5
ATOM      5  C   UNL     1     -28.272  43.139  90.406  1.00  0.00     0.041 C 
ATOM      6  O   UNL     1     -29.106  42.707  91.245  1.00  0.00    -0.550 OA
ATOM      7  O   UNL     1     -28.288  42.652  89.105  1.00  0.00    -0.550 OA
ENDBRANCH   4   5
ENDBRANCH   3   4
ENDBRANCH   2   3
ENDBRANCH   1   2
BRANCH   1   8
ATOM      8  C   UNL     1     -25.781  45.977  87.268  1.00  0.00     0.000 C 
BRANCH   8   9
ATOM      9  C   UNL     1     -24.296  46.267  87.020  1.00  0.00     0.006 C 
BRANCH   9  10
ATOM     10  C   UNL     1     -23.426  45.075  87.436  1.00  0.00     0.053 C 
BRANCH  10  11
ATOM     11  C   UNL     1     -22.105  45.122  86.735  1.00  0.00     0.041 C 
ATOM     12  O   UNL     1     -22.024  45.586  85.567  1.00  0.00    -0.550 OA
ATOM     13  O   UNL     1     -20.956  44.699  87.390  1.00  0.00    -0.550 OA
ENDBRANCH  10  11
ENDBRANCH   9  10
ENDBRANCH   8   9
ENDBRANCH   1   8
TORSDOF 8
ENDMDL
MODEL 7
REMARK VINA RESULT:    -4.086      2.148      3.209
REMARK INTER + INTRA:          -6.692
REMARK INTER:                  -6.174
REMARK INTRA:                  -0.519
REMARK UNBOUND:                -0.695
REMARK SMILES O=C([O-])CCCCCCCC(=O)[O-]
REMARK SMILES IDX 7 1 6 2 5 3 4 4 2 5 1 6 3 7 8 8 9 9 10 10 11 11 12 12 13 13
REMARK H PARENT
REMARK Flexibility Score: inf
ROOT
ATOM      1  C   UNL     1     -21.951  43.426  87.534  1.00  0.00     0.000 C 
ENDROOT
BRANCH   1   2
ATOM      2  C   UNL     1     -20.876  44.416  87.056  1.00  0.00     0.000 C 
BRANCH   2   3
ATOM      3  C   UNL     1     -20.572  44.284  85.557  1.00  0.00     0.006 C 
BRANCH   3   4
ATOM      4  C   UNL     1     -19.166  43.723  85.329  1.00  0.00     0.053 C 
BRANCH   4   5
ATOM      5  C   UNL     1     -18.258  44.781  84.788  1.00  0.00     0.041 C 
ATOM      6  O   UNL     1     -17.157  45.019  85.350  1.00  0.00    -0.550 OA
ATOM      7  O   UNL     1     -18.651  45.542  83.694  1.00  0.00    -0.550 OA
ENDBRANCH   4   5
ENDBRANCH   3   4
ENDBRANCH   2   3
ENDBRANCH   1   2
BRANCH   1   8
ATOM      8  C   UNL     1     -21.355  42.099  88.026  1.00  0.00     0.000 C 
BRANCH   8   9
ATOM      9  C   UNL     1     -21.428  41.026  86.933  1.00  0.00     0.006 C 
BRANCH   9  10
ATOM     10  C   UNL     1     -20.142  40.194  86.892  1.00  0.00     0.053 C 
BRANCH  10  11
ATOM     11  C   UNL     1     -20.458  38.752  86.647  1.00  0.00     0.041 C 
ATOM     12  O   UNL     1     -20.960  38.050  87.563  1.00  0.00    -0.550 OA
ATOM     13  O   UNL     1     -20.244  38.197  85.392  1.00  0.00    -0.550 OA
ENDBRANCH  10  11
ENDBRANCH   9  10
ENDBRANCH   8   9
ENDBRANCH   1   8
TORSDOF 8
ENDMDL
MODEL 8
REMARK VINA RESULT:    -4.081      2.131      6.202
REMARK INTER + INTRA:          -6.684
REMARK INTER:                  -6.298
REMARK INTRA:                  -0.386
REMARK UNBOUND:                -0.695
REMARK SMILES O=C([O-])CCCCCCCC(=O)[O-]
REMARK SMILES IDX 7 1 6 2 5 3 4 4 2 5 1 6 3 7 8 8 9 9 10 10 11 11 12 12 13 13
REMARK H PARENT
REMARK Flexibility Score: inf
ROOT
ATOM      1  C   UNL     1     -20.443  43.807  86.664  1.00  0.00     0.000 C 
ENDROOT
BRANCH   1   2
ATOM      2  C   UNL     1     -21.086  42.536  87.241  1.00  0.00     0.000 C 
BRANCH   2   3
ATOM      3  C   UNL     1     -20.301  41.263  86.892  1.00  0.00     0.006 C 
BRANCH   3   4
ATOM      4  C   UNL     1     -21.217  40.036  86.896  1.00  0.00     0.053 C 
BRANCH   4   5
ATOM      5  C   UNL     1     -20.741  39.028  87.893  1.00  0.00     0.041 C 
ATOM      6  O   UNL     1     -20.874  37.797  87.663  1.00  0.00    -0.550 OA
ATOM      7  O   UNL     1     -20.196  39.447  89.101  1.00  0.00    -0.550 OA
ENDBRANCH   4   5
ENDBRANCH   3   4
ENDBRANCH   2   3
ENDBRANCH   1   2
BRANCH   1   8
ATOM      8  C   UNL     1     -19.652  43.538  85.375  1.00  0.00     0.000 C 
BRANCH   8   9
ATOM      9  C   UNL     1     -18.459  44.493  85.254  1.00  0.00     0.006 C 
BRANCH   9  10
ATOM     10  C   UNL     1     -18.339  45.046  83.830  1.00  0.00     0.053 C 
BRANCH  10  11
ATOM     11  C   UNL     1     -19.408  46.059  83.569  1.00  0.00     0.041 C 
ATOM     12  O   UNL     1     -20.009  46.074  82.462  1.00  0.00    -0.550 OA
ATOM     13  O   UNL     1     -19.775  46.955  84.564  1.00  0.00    -0.550 OA
ENDBRANCH  10  11
ENDBRANCH   9  10
ENDBRANCH   8   9
ENDBRANCH   1   8
TORSDOF 8
ENDMDL
MODEL 9
REMARK VINA RESULT:    -4.077      2.230      2.936
REMARK INTER + INTRA:          -6.679
REMARK INTER:                  -6.229
REMARK INTRA:                  -0.450
REMARK UNBOUND:                -0.695
REMARK SMILES O=C([O-])CCCCCCCC(=O)[O-]
REMARK SMILES IDX 7 1 6 2 5 3 4 4 2 5 1 6 3 7 8 8 9 9 10 10 11 11 12 12 13 13
REMARK H PARENT
REMARK Flexibility Score: inf
ROOT
ATOM      1  C   UNL     1     -19.435  43.300  85.378  1.00  0.00     0.000 C 
ENDROOT
BRANCH   1   2
ATOM      2  C   UNL     1     -18.516  44.533  85.371  1.00  0.00     0.000 C 
BRANCH   2   3
ATOM      3  C   UNL     1     -18.405  45.183  83.985  1.00  0.00     0.006 C 
BRANCH   3   4
ATOM      4  C   UNL     1     -19.225  46.474  83.917  1.00  0.00     0.053 C 
BRANCH   4   5
ATOM      5  C   UNL     1     -20.630  46.183  83.491  1.00  0.00     0.041 C 
ATOM      6  O   UNL     1     -20.885  45.928  82.285  1.00  0.00    -0.550 OA
ATOM      7  O   UNL     1     -21.664  46.244  84.416  1.00  0.00    -0.550 OA
ENDBRANCH   4   5
ENDBRANCH   3   4
ENDBRANCH   2   3
ENDBRANCH   1   2
BRANCH   1   8
ATOM      8  C   UNL     1     -20.611  43.445  86.355  1.00  0.00     0.000 C 
BRANCH   8   9
ATOM      9  C   UNL     1     -20.644  42.278  87.350  1.00  0.00     0.006 C 
BRANCH   9  10
ATOM     10  C   UNL     1     -19.764  41.119  86.868  1.00  0.00     0.053 C 
BRANCH  10  11
ATOM     11  C   UNL     1     -20.450  39.810  87.099  1.00  0.00     0.041 C 
ATOM     12  O   UNL     1     -21.099  39.614  88.160  1.00  0.00    -0.550 OA
ATOM     13  O   UNL     1     -20.414  38.825  86.121  1.00  0.00    -0.550 OA
ENDBRANCH  10  11
ENDBRANCH   9  10
ENDBRANCH   8   9
ENDBRANCH   1   8
TORSDOF 8
ENDMDL
