MODEL 1
REMARK VINA RESULT:    -3.358      0.000      0.000
REMARK INTER + INTRA:          -8.491
REMARK INTER:                  -6.107
REMARK INTRA:                  -2.385
REMARK UNBOUND:                -2.385
REMARK SMILES CCCCCCCCCCCCCC[C@H](C)C(=O)[O-]
REMARK SMILES IDX 9 1 10 2 11 3 12 4 13 5 14 6 15 7 16 8 17 9 18 10 19 11 8 12
REMARK SMILES IDX 7 13 6 14 5 15 4 16 3 17 2 18 1 19
REMARK H PARENT
REMARK Flexibility Score: inf
ROOT
ATOM      1  C   UNL     1       4.142  11.217   7.821  1.00  0.00     0.000 C 
ENDROOT
BRANCH   1   2
ATOM      2  C   UNL     1       4.701  10.607   9.115  1.00  0.00     0.000 C 
BRANCH   2   3
ATOM      3  C   UNL     1       5.934   9.739   8.825  1.00  0.00     0.000 C 
BRANCH   3   4
ATOM      4  C   UNL     1       6.438   9.893   7.381  1.00  0.00     0.000 C 
BRANCH   4   5
ATOM      5  C   UNL     1       7.723   9.089   7.114  1.00  0.00     0.001 C 
BRANCH   5   6
ATOM      6  C   UNL     1       8.911   9.969   6.676  1.00  0.00     0.009 C 
BRANCH   6   7
ATOM      7  C   UNL     1       9.601   9.489   5.376  1.00  0.00     0.032 C 
ATOM      8  C   UNL     1       8.730   8.454   4.654  1.00  0.00     0.014 C 
BRANCH   7   9
ATOM      9  C   UNL     1      10.959   8.896   5.641  1.00  0.00     0.044 C 
ATOM     10  O   UNL     1      11.944   9.198   4.917  1.00  0.00    -0.550 OA
ATOM     11  O   UNL     1      11.138   8.034   6.716  1.00  0.00    -0.550 OA
ENDBRANCH   7   9
ENDBRANCH   6   7
ENDBRANCH   5   6
ENDBRANCH   4   5
ENDBRANCH   3   4
ENDBRANCH   2   3
ENDBRANCH   1   2
BRANCH   1  12
ATOM     12  C   UNL     1       3.536  12.616   8.031  1.00  0.00     0.000 C 
BRANCH  12  13
ATOM     13  C   UNL     1       4.306  13.769   7.355  1.00  0.00    -0.000 C 
BRANCH  13  14
ATOM     14  C   UNL     1       5.602  14.198   8.073  1.00  0.00    -0.000 C 
BRANCH  14  15
ATOM     15  C   UNL     1       6.896  13.600   7.487  1.00  0.00    -0.000 C 
BRANCH  15  16
ATOM     16  C   UNL     1       7.846  12.960   8.519  1.00  0.00    -0.000 C 
BRANCH  16  17
ATOM     17  C   UNL     1       7.352  13.009   9.976  1.00  0.00    -0.000 C 
BRANCH  17  18
ATOM     18  C   UNL     1       8.264  12.235  10.940  1.00  0.00    -0.003 C 
ATOM     19  C   UNL     1       9.038  11.144  10.207  1.00  0.00     0.004 C 
ENDBRANCH  17  18
ENDBRANCH  16  17
ENDBRANCH  15  16
ENDBRANCH  14  15
ENDBRANCH  13  14
ENDBRANCH  12  13
ENDBRANCH   1  12
TORSDOF 14
ENDMDL
MODEL 2
REMARK VINA RESULT:    -3.228      2.286      5.326
REMARK INTER + INTRA:          -8.255
REMARK INTER:                  -5.763
REMARK INTRA:                  -2.493
REMARK UNBOUND:                -2.385
REMARK SMILES CCCCCCCCCCCCCC[C@H](C)C(=O)[O-]
REMARK SMILES IDX 9 1 10 2 11 3 12 4 13 5 14 6 15 7 16 8 17 9 18 10 19 11 8 12
REMARK SMILES IDX 7 13 6 14 5 15 4 16 3 17 2 18 1 19
REMARK H PARENT
REMARK Flexibility Score: inf
ROOT
ATOM      1  C   UNL     1       4.541  10.077   8.338  1.00  0.00     0.000 C 
ENDROOT
BRANCH   1   2
ATOM      2  C   UNL     1       5.247  11.154   7.502  1.00  0.00     0.000 C 
BRANCH   2   3
ATOM      3  C   UNL     1       4.837  12.562   7.959  1.00  0.00     0.000 C 
BRANCH   3   4
ATOM      4  C   UNL     1       5.979  13.582   7.823  1.00  0.00     0.000 C 
BRANCH   4   5
ATOM      5  C   UNL     1       7.329  13.028   8.313  1.00  0.00     0.001 C 
BRANCH   5   6
ATOM      6  C   UNL     1       7.461  13.017   9.849  1.00  0.00     0.009 C 
BRANCH   6   7
ATOM      7  C   UNL     1       7.712  11.612  10.446  1.00  0.00     0.032 C 
ATOM      8  C   UNL     1       6.612  11.248  11.450  1.00  0.00     0.014 C 
BRANCH   7   9
ATOM      9  C   UNL     1       9.053  11.515  11.124  1.00  0.00     0.044 C 
ATOM     10  O   UNL     1       9.710  12.554  11.400  1.00  0.00    -0.550 OA
ATOM     11  O   UNL     1       9.557  10.271  11.482  1.00  0.00    -0.550 OA
ENDBRANCH   7   9
ENDBRANCH   6   7
ENDBRANCH   5   6
ENDBRANCH   4   5
ENDBRANCH   3   4
ENDBRANCH   2   3
ENDBRANCH   1   2
BRANCH   1  12
ATOM     12  C   UNL     1       5.500   8.982   8.837  1.00  0.00     0.000 C 
BRANCH  12  13
ATOM     13  C   UNL     1       6.769   8.788   7.983  1.00  0.00    -0.000 C 
BRANCH  13  14
ATOM     14  C   UNL     1       8.031   8.386   8.773  1.00  0.00    -0.000 C 
BRANCH  14  15
ATOM     15  C   UNL     1       9.355   8.932   8.201  1.00  0.00    -0.000 C 
BRANCH  15  16
ATOM     16  C   UNL     1       9.204  10.104   7.210  1.00  0.00    -0.000 C 
BRANCH  16  17
ATOM     17  C   UNL     1       9.704   9.819   5.783  1.00  0.00    -0.000 C 
BRANCH  17  18
ATOM     18  C   UNL     1      10.577   8.558   5.699  1.00  0.00    -0.003 C 
ATOM     19  C   UNL     1      11.853   8.826   4.906  1.00  0.00     0.004 C 
ENDBRANCH  17  18
ENDBRANCH  16  17
ENDBRANCH  15  16
ENDBRANCH  14  15
ENDBRANCH  13  14
ENDBRANCH  12  13
ENDBRANCH   1  12
TORSDOF 14
ENDMDL
MODEL 3
REMARK VINA RESULT:    -3.175      2.540      5.550
REMARK INTER + INTRA:          -8.158
REMARK INTER:                  -5.960
REMARK INTRA:                  -2.198
REMARK UNBOUND:                -2.385
REMARK SMILES CCCCCCCCCCCCCC[C@H](C)C(=O)[O-]
REMARK SMILES IDX 9 1 10 2 11 3 12 4 13 5 14 6 15 7 16 8 17 9 18 10 19 11 8 12
REMARK SMILES IDX 7 13 6 14 5 15 4 16 3 17 2 18 1 19
REMARK H PARENT
REMARK Flexibility Score: inf
ROOT
ATOM      1  C   UNL     1       6.927   7.384   8.782  1.00  0.00     0.000 C 
ENDROOT
BRANCH   1   2
ATOM      2  C   UNL     1       5.431   7.585   8.504  1.00  0.00     0.000 C 
BRANCH   2   3
ATOM      3  C   UNL     1       5.211   8.647   7.416  1.00  0.00     0.000 C 
BRANCH   3   4
ATOM      4  C   UNL     1       4.005   9.553   7.711  1.00  0.00     0.000 C 
BRANCH   4   5
ATOM      5  C   UNL     1       4.338  11.048   7.563  1.00  0.00     0.001 C 
BRANCH   5   6
ATOM      6  C   UNL     1       5.835  11.360   7.754  1.00  0.00     0.009 C 
BRANCH   6   7
ATOM      7  C   UNL     1       6.111  12.742   8.394  1.00  0.00     0.032 C 
ATOM      8  C   UNL     1       5.500  13.862   7.543  1.00  0.00     0.014 C 
BRANCH   7   9
ATOM      9  C   UNL     1       7.583  13.001   8.570  1.00  0.00     0.044 C 
ATOM     10  O   UNL     1       8.301  13.328   7.587  1.00  0.00    -0.550 OA
ATOM     11  O   UNL     1       8.153  12.916   9.835  1.00  0.00    -0.550 OA
ENDBRANCH   7   9
ENDBRANCH   6   7
ENDBRANCH   5   6
ENDBRANCH   4   5
ENDBRANCH   3   4
ENDBRANCH   2   3
ENDBRANCH   1   2
BRANCH   1  12
ATOM     12  C   UNL     1       7.603   8.638   9.364  1.00  0.00     0.000 C 
BRANCH  12  13
ATOM     13  C   UNL     1       9.108   8.771   9.056  1.00  0.00    -0.000 C 
BRANCH  13  14
ATOM     14  C   UNL     1       9.473   9.878   8.047  1.00  0.00    -0.000 C 
BRANCH  14  15
ATOM     15  C   UNL     1       8.706   9.817   6.712  1.00  0.00    -0.000 C 
BRANCH  15  16
ATOM     16  C   UNL     1       9.581   9.569   5.466  1.00  0.00    -0.000 C 
BRANCH  16  17
ATOM     17  C   UNL     1       9.298   8.252   4.723  1.00  0.00    -0.000 C 
BRANCH  17  18
ATOM     18  C   UNL     1       7.964   7.611   5.135  1.00  0.00    -0.003 C 
ATOM     19  C   UNL     1       8.158   6.153   5.541  1.00  0.00     0.004 C 
ENDBRANCH  17  18
ENDBRANCH  16  17
ENDBRANCH  15  16
ENDBRANCH  14  15
ENDBRANCH  13  14
ENDBRANCH  12  13
ENDBRANCH   1  12
TORSDOF 14
ENDMDL
MODEL 4
REMARK VINA RESULT:    -3.141      2.509      5.308
REMARK INTER + INTRA:          -8.097
REMARK INTER:                  -5.449
REMARK INTRA:                  -2.648
REMARK UNBOUND:                -2.385
REMARK SMILES CCCCCCCCCCCCCC[C@H](C)C(=O)[O-]
REMARK SMILES IDX 9 1 10 2 11 3 12 4 13 5 14 6 15 7 16 8 17 9 18 10 19 11 8 12
REMARK SMILES IDX 7 13 6 14 5 15 4 16 3 17 2 18 1 19
REMARK H PARENT
REMARK Flexibility Score: inf
ROOT
ATOM      1  C   UNL     1       8.049   8.021   5.501  1.00  0.00     0.000 C 
ENDROOT
BRANCH   1   2
ATOM      2  C   UNL     1       9.099   9.142   5.483  1.00  0.00     0.000 C 
BRANCH   2   3
ATOM      3  C   UNL     1       9.421   9.614   6.909  1.00  0.00     0.000 C 
BRANCH   3   4
ATOM      4  C   UNL     1       9.090  11.099   7.127  1.00  0.00     0.000 C 
BRANCH   4   5
ATOM      5  C   UNL     1       8.870  11.445   8.611  1.00  0.00     0.001 C 
BRANCH   5   6
ATOM      6  C   UNL     1       8.998  10.225   9.545  1.00  0.00     0.009 C 
BRANCH   6   7
ATOM      7  C   UNL     1       8.133  10.323  10.825  1.00  0.00     0.032 C 
ATOM      8  C   UNL     1       7.113  11.461  10.701  1.00  0.00     0.014 C 
BRANCH   7   9
ATOM      9  C   UNL     1       8.969  10.538  12.058  1.00  0.00     0.044 C 
ATOM     10  O   UNL     1      10.095   9.985  12.176  1.00  0.00    -0.550 OA
ATOM     11  O   UNL     1       8.512  11.382  13.063  1.00  0.00    -0.550 OA
ENDBRANCH   7   9
ENDBRANCH   6   7
ENDBRANCH   5   6
ENDBRANCH   4   5
ENDBRANCH   3   4
ENDBRANCH   2   3
ENDBRANCH   1   2
BRANCH   1  12
ATOM     12  C   UNL     1       7.567   7.673   6.920  1.00  0.00     0.000 C 
BRANCH  12  13
ATOM     13  C   UNL     1       6.067   7.920   7.179  1.00  0.00    -0.000 C 
BRANCH  13  14
ATOM     14  C   UNL     1       5.754   9.077   8.148  1.00  0.00    -0.000 C 
BRANCH  14  15
ATOM     15  C   UNL     1       5.520  10.443   7.473  1.00  0.00    -0.000 C 
BRANCH  15  16
ATOM     16  C   UNL     1       4.386  11.289   8.086  1.00  0.00    -0.000 C 
BRANCH  16  17
ATOM     17  C   UNL     1       4.456  12.795   7.776  1.00  0.00    -0.000 C 
BRANCH  17  18
ATOM     18  C   UNL     1       5.897  13.299   7.597  1.00  0.00    -0.003 C 
ATOM     19  C   UNL     1       6.235  14.371   8.629  1.00  0.00     0.004 C 
ENDBRANCH  17  18
ENDBRANCH  16  17
ENDBRANCH  15  16
ENDBRANCH  14  15
ENDBRANCH  13  14
ENDBRANCH  12  13
ENDBRANCH   1  12
TORSDOF 14
ENDMDL
MODEL 5
REMARK VINA RESULT:    -3.109      1.537      3.438
REMARK INTER + INTRA:          -8.038
REMARK INTER:                  -5.236
REMARK INTRA:                  -2.802
REMARK UNBOUND:                -2.385
REMARK SMILES CCCCCCCCCCCCCC[C@H](C)C(=O)[O-]
REMARK SMILES IDX 9 1 10 2 11 3 12 4 13 5 14 6 15 7 16 8 17 9 18 10 19 11 8 12
REMARK SMILES IDX 7 13 6 14 5 15 4 16 3 17 2 18 1 19
REMARK H PARENT
REMARK Flexibility Score: inf
ROOT
ATOM      1  C   UNL     1       6.936   8.613  10.642  1.00  0.00     0.000 C 
ENDROOT
BRANCH   1   2
ATOM      2  C   UNL     1       8.247   8.740   9.853  1.00  0.00     0.000 C 
BRANCH   2   3
ATOM      3  C   UNL     1       8.726  10.199   9.813  1.00  0.00     0.000 C 
BRANCH   3   4
ATOM      4  C   UNL     1       9.415  10.558   8.487  1.00  0.00     0.000 C 
BRANCH   4   5
ATOM      5  C   UNL     1       9.347   9.417   7.457  1.00  0.00     0.001 C 
BRANCH   5   6
ATOM      6  C   UNL     1       9.220   9.915   6.003  1.00  0.00     0.009 C 
BRANCH   6   7
ATOM      7  C   UNL     1       9.381   8.800   4.942  1.00  0.00     0.032 C 
ATOM      8  C   UNL     1       8.397   7.655   5.211  1.00  0.00     0.014 C 
BRANCH   7   9
ATOM      9  C   UNL     1      10.782   8.251   4.904  1.00  0.00     0.044 C 
ATOM     10  O   UNL     1      10.984   7.008   4.866  1.00  0.00    -0.550 OA
ATOM     11  O   UNL     1      11.864   9.122   4.875  1.00  0.00    -0.550 OA
ENDBRANCH   7   9
ENDBRANCH   6   7
ENDBRANCH   5   6
ENDBRANCH   4   5
ENDBRANCH   3   4
ENDBRANCH   2   3
ENDBRANCH   1   2
BRANCH   1  12
ATOM     12  C   UNL     1       5.746   8.189   9.762  1.00  0.00     0.000 C 
BRANCH  12  13
ATOM     13  C   UNL     1       6.112   7.796   8.316  1.00  0.00    -0.000 C 
BRANCH  13  14
ATOM     14  C   UNL     1       5.606   8.764   7.229  1.00  0.00    -0.000 C 
BRANCH  14  15
ATOM     15  C   UNL     1       4.949  10.052   7.763  1.00  0.00    -0.000 C 
BRANCH  15  16
ATOM     16  C   UNL     1       5.831  11.315   7.687  1.00  0.00    -0.000 C 
BRANCH  16  17
ATOM     17  C   UNL     1       5.817  12.196   8.949  1.00  0.00    -0.000 C 
BRANCH  17  18
ATOM     18  C   UNL     1       6.904  13.281   8.930  1.00  0.00    -0.003 C 
ATOM     19  C   UNL     1       7.315  13.621   7.500  1.00  0.00     0.004 C 
ENDBRANCH  17  18
ENDBRANCH  16  17
ENDBRANCH  15  16
ENDBRANCH  14  15
ENDBRANCH  13  14
ENDBRANCH  12  13
ENDBRANCH   1  12
TORSDOF 14
ENDMDL
MODEL 6
REMARK VINA RESULT:    -3.106      1.087      1.773
REMARK INTER + INTRA:          -8.033
REMARK INTER:                  -5.731
REMARK INTRA:                  -2.302
REMARK UNBOUND:                -2.385
REMARK SMILES CCCCCCCCCCCCCC[C@H](C)C(=O)[O-]
REMARK SMILES IDX 9 1 10 2 11 3 12 4 13 5 14 6 15 7 16 8 17 9 18 10 19 11 8 12
REMARK SMILES IDX 7 13 6 14 5 15 4 16 3 17 2 18 1 19
REMARK H PARENT
REMARK Flexibility Score: inf
ROOT
ATOM      1  C   UNL     1       4.749  10.231   8.696  1.00  0.00     0.000 C 
ENDROOT
BRANCH   1   2
ATOM      2  C   UNL     1       5.971   9.304   8.627  1.00  0.00     0.000 C 
BRANCH   2   3
ATOM      3  C   UNL     1       6.005   8.537   7.297  1.00  0.00     0.000 C 
BRANCH   3   4
ATOM      4  C   UNL     1       7.404   8.524   6.660  1.00  0.00     0.000 C 
BRANCH   4   5
ATOM      5  C   UNL     1       8.164   9.845   6.872  1.00  0.00     0.001 C 
BRANCH   5   6
ATOM      6  C   UNL     1       9.689   9.706   6.692  1.00  0.00     0.009 C 
BRANCH   6   7
ATOM      7  C   UNL     1      10.173   8.243   6.554  1.00  0.00     0.032 C 
ATOM      8  C   UNL     1      10.504   7.652   7.930  1.00  0.00     0.014 C 
BRANCH   7   9
ATOM      9  C   UNL     1      11.379   8.126   5.662  1.00  0.00     0.044 C 
ATOM     10  O   UNL     1      11.979   7.026   5.533  1.00  0.00    -0.550 OA
ATOM     11  O   UNL     1      11.817   9.232   4.944  1.00  0.00    -0.550 OA
ENDBRANCH   7   9
ENDBRANCH   6   7
ENDBRANCH   5   6
ENDBRANCH   4   5
ENDBRANCH   3   4
ENDBRANCH   2   3
ENDBRANCH   1   2
BRANCH   1  12
ATOM     12  C   UNL     1       4.711  11.257   7.550  1.00  0.00     0.000 C 
BRANCH  12  13
ATOM     13  C   UNL     1       4.942  12.721   7.977  1.00  0.00    -0.000 C 
BRANCH  13  14
ATOM     14  C   UNL     1       6.315  13.306   7.587  1.00  0.00    -0.000 C 
BRANCH  14  15
ATOM     15  C   UNL     1       7.479  12.899   8.511  1.00  0.00    -0.000 C 
BRANCH  15  16
ATOM     16  C   UNL     1       7.220  13.106  10.018  1.00  0.00    -0.000 C 
BRANCH  16  17
ATOM     17  C   UNL     1       7.674  11.947  10.922  1.00  0.00    -0.000 C 
BRANCH  17  18
ATOM     18  C   UNL     1       9.056  11.398  10.537  1.00  0.00    -0.003 C 
ATOM     19  C   UNL     1       9.046   9.873  10.483  1.00  0.00     0.004 C 
ENDBRANCH  17  18
ENDBRANCH  16  17
ENDBRANCH  15  16
ENDBRANCH  14  15
ENDBRANCH  13  14
ENDBRANCH  12  13
ENDBRANCH   1  12
TORSDOF 14
ENDMDL
MODEL 7
REMARK VINA RESULT:    -3.103      2.920      5.786
REMARK INTER + INTRA:          -8.028
REMARK INTER:                  -5.592
REMARK INTRA:                  -2.436
REMARK UNBOUND:                -2.385
REMARK SMILES CCCCCCCCCCCCCC[C@H](C)C(=O)[O-]
REMARK SMILES IDX 9 1 10 2 11 3 12 4 13 5 14 6 15 7 16 8 17 9 18 10 19 11 8 12
REMARK SMILES IDX 7 13 6 14 5 15 4 16 3 17 2 18 1 19
REMARK H PARENT
REMARK Flexibility Score: inf
ROOT
ATOM      1  C   UNL     1       4.530  11.213   8.092  1.00  0.00     0.000 C 
ENDROOT
BRANCH   1   2
ATOM      2  C   UNL     1       4.609  12.747   8.061  1.00  0.00     0.000 C 
BRANCH   2   3
ATOM      3  C   UNL     1       5.939  13.216   7.454  1.00  0.00     0.000 C 
BRANCH   3   4
ATOM      4  C   UNL     1       6.814  13.975   8.466  1.00  0.00     0.000 C 
BRANCH   4   5
ATOM      5  C   UNL     1       5.986  14.845   9.428  1.00  0.00     0.001 C 
BRANCH   5   6
ATOM      6  C   UNL     1       6.312  14.589  10.913  1.00  0.00     0.009 C 
BRANCH   6   7
ATOM      7  C   UNL     1       6.980  13.219  11.182  1.00  0.00     0.032 C 
ATOM      8  C   UNL     1       6.060  12.326  12.022  1.00  0.00     0.014 C 
BRANCH   7   9
ATOM      9  C   UNL     1       8.305  13.362  11.881  1.00  0.00     0.044 C 
ATOM     10  O   UNL     1       8.409  14.059  12.925  1.00  0.00    -0.550 OA
ATOM     11  O   UNL     1       9.420  12.690  11.393  1.00  0.00    -0.550 OA
ENDBRANCH   7   9
ENDBRANCH   6   7
ENDBRANCH   5   6
ENDBRANCH   4   5
ENDBRANCH   3   4
ENDBRANCH   2   3
ENDBRANCH   1   2
BRANCH   1  12
ATOM     12  C   UNL     1       5.787  10.537   7.518  1.00  0.00     0.000 C 
BRANCH  12  13
ATOM     13  C   UNL     1       6.578   9.672   8.520  1.00  0.00    -0.000 C 
BRANCH  13  14
ATOM     14  C   UNL     1       7.681  10.417   9.298  1.00  0.00    -0.000 C 
BRANCH  14  15
ATOM     15  C   UNL     1       9.064  10.420   8.618  1.00  0.00    -0.000 C 
BRANCH  15  16
ATOM     16  C   UNL     1       9.140  11.209   7.295  1.00  0.00    -0.000 C 
BRANCH  16  17
ATOM     17  C   UNL     1       9.613  10.395   6.077  1.00  0.00    -0.000 C 
BRANCH  17  18
ATOM     18  C   UNL     1       9.583   8.880   6.326  1.00  0.00    -0.003 C 
ATOM     19  C   UNL     1       8.417   8.226   5.590  1.00  0.00     0.004 C 
ENDBRANCH  17  18
ENDBRANCH  16  17
ENDBRANCH  15  16
ENDBRANCH  14  15
ENDBRANCH  13  14
ENDBRANCH  12  13
ENDBRANCH   1  12
TORSDOF 14
ENDMDL
MODEL 8
REMARK VINA RESULT:    -3.072      1.899      3.260
REMARK INTER + INTRA:          -7.971
REMARK INTER:                  -5.547
REMARK INTRA:                  -2.423
REMARK UNBOUND:                -2.385
REMARK SMILES CCCCCCCCCCCCCC[C@H](C)C(=O)[O-]
REMARK SMILES IDX 9 1 10 2 11 3 12 4 13 5 14 6 15 7 16 8 17 9 18 10 19 11 8 12
REMARK SMILES IDX 7 13 6 14 5 15 4 16 3 17 2 18 1 19
REMARK H PARENT
REMARK Flexibility Score: inf
ROOT
ATOM      1  C   UNL     1       7.557   9.142   8.371  1.00  0.00     0.000 C 
ENDROOT
BRANCH   1   2
ATOM      2  C   UNL     1       8.941   9.801   8.267  1.00  0.00     0.000 C 
BRANCH   2   3
ATOM      3  C   UNL     1       8.990  10.794   7.097  1.00  0.00     0.000 C 
BRANCH   3   4
ATOM      4  C   UNL     1       9.913  10.324   5.961  1.00  0.00     0.000 C 
BRANCH   4   5
ATOM      5  C   UNL     1      10.404   8.879   6.158  1.00  0.00     0.001 C 
BRANCH   5   6
ATOM      6  C   UNL     1      10.133   7.972   4.941  1.00  0.00     0.009 C 
BRANCH   6   7
ATOM      7  C   UNL     1       8.746   8.192   4.292  1.00  0.00     0.032 C 
ATOM      8  C   UNL     1       7.692   7.295   4.954  1.00  0.00     0.014 C 
BRANCH   7   9
ATOM      9  C   UNL     1       8.763   7.925   2.811  1.00  0.00     0.044 C 
ATOM     10  O   UNL     1       8.189   8.710   2.010  1.00  0.00    -0.550 OA
ATOM     11  O   UNL     1       9.448   6.822   2.316  1.00  0.00    -0.550 OA
ENDBRANCH   7   9
ENDBRANCH   6   7
ENDBRANCH   5   6
ENDBRANCH   4   5
ENDBRANCH   3   4
ENDBRANCH   2   3
ENDBRANCH   1   2
BRANCH   1  12
ATOM     12  C   UNL     1       6.510   9.802   7.457  1.00  0.00     0.000 C 
BRANCH  12  13
ATOM     13  C   UNL     1       5.295  10.408   8.188  1.00  0.00    -0.000 C 
BRANCH  13  14
ATOM     14  C   UNL     1       4.874  11.810   7.705  1.00  0.00    -0.000 C 
BRANCH  14  15
ATOM     15  C   UNL     1       6.008  12.854   7.680  1.00  0.00    -0.000 C 
BRANCH  15  16
ATOM     16  C   UNL     1       6.319  13.513   9.039  1.00  0.00    -0.000 C 
BRANCH  16  17
ATOM     17  C   UNL     1       7.549  12.945   9.771  1.00  0.00    -0.000 C 
BRANCH  17  18
ATOM     18  C   UNL     1       7.222  12.445  11.186  1.00  0.00    -0.003 C 
ATOM     19  C   UNL     1       5.716  12.281  11.375  1.00  0.00     0.004 C 
ENDBRANCH  17  18
ENDBRANCH  16  17
ENDBRANCH  15  16
ENDBRANCH  14  15
ENDBRANCH  13  14
ENDBRANCH  12  13
ENDBRANCH   1  12
TORSDOF 14
ENDMDL
MODEL 9
REMARK VINA RESULT:    -3.058      2.595      5.236
REMARK INTER + INTRA:          -7.945
REMARK INTER:                  -5.409
REMARK INTRA:                  -2.535
REMARK UNBOUND:                -2.385
REMARK SMILES CCCCCCCCCCCCCC[C@H](C)C(=O)[O-]
REMARK SMILES IDX 9 1 10 2 11 3 12 4 13 5 14 6 15 7 16 8 17 9 18 10 19 11 8 12
REMARK SMILES IDX 7 13 6 14 5 15 4 16 3 17 2 18 1 19
REMARK H PARENT
REMARK Flexibility Score: inf
ROOT
ATOM      1  C   UNL     1       3.907  12.293   8.127  1.00  0.00     0.000 C 
ENDROOT
BRANCH   1   2
ATOM      2  C   UNL     1       4.747  13.564   7.940  1.00  0.00     0.000 C 
BRANCH   2   3
ATOM      3  C   UNL     1       6.191  13.216   7.550  1.00  0.00     0.000 C 
BRANCH   3   4
ATOM      4  C   UNL     1       7.171  13.361   8.725  1.00  0.00     0.000 C 
BRANCH   4   5
ATOM      5  C   UNL     1       6.531  14.039   9.949  1.00  0.00     0.001 C 
BRANCH   5   6
ATOM      6  C   UNL     1       6.528  13.147  11.207  1.00  0.00     0.009 C 
BRANCH   6   7
ATOM      7  C   UNL     1       7.406  11.879  11.078  1.00  0.00     0.032 C 
ATOM      8  C   UNL     1       6.618  10.633  11.500  1.00  0.00     0.014 C 
BRANCH   7   9
ATOM      9  C   UNL     1       8.662  11.973  11.902  1.00  0.00     0.044 C 
ATOM     10  O   UNL     1       9.765  12.254  11.362  1.00  0.00    -0.550 OA
ATOM     11  O   UNL     1       8.602  11.783  13.277  1.00  0.00    -0.550 OA
ENDBRANCH   7   9
ENDBRANCH   6   7
ENDBRANCH   5   6
ENDBRANCH   4   5
ENDBRANCH   3   4
ENDBRANCH   2   3
ENDBRANCH   1   2
BRANCH   1  12
ATOM     12  C   UNL     1       4.560  11.046   7.507  1.00  0.00     0.000 C 
BRANCH  12  13
ATOM     13  C   UNL     1       4.291   9.726   8.259  1.00  0.00    -0.000 C 
BRANCH  13  14
ATOM     14  C   UNL     1       5.529   8.831   8.469  1.00  0.00    -0.000 C 
BRANCH  14  15
ATOM     15  C   UNL     1       6.778   9.253   7.670  1.00  0.00    -0.000 C 
BRANCH  15  16
ATOM     16  C   UNL     1       8.122   9.024   8.391  1.00  0.00    -0.000 C 
BRANCH  16  17
ATOM     17  C   UNL     1       9.131  10.181   8.269  1.00  0.00    -0.000 C 
BRANCH  17  18
ATOM     18  C   UNL     1       9.126  10.830   6.877  1.00  0.00    -0.003 C 
ATOM     19  C   UNL     1       9.810   9.932   5.850  1.00  0.00     0.004 C 
ENDBRANCH  17  18
ENDBRANCH  16  17
ENDBRANCH  15  16
ENDBRANCH  14  15
ENDBRANCH  13  14
ENDBRANCH  12  13
ENDBRANCH   1  12
TORSDOF 14
ENDMDL
