MODEL 1
REMARK VINA RESULT:    -4.985      0.000      0.000
REMARK INTER + INTRA:          -5.130
REMARK INTER:                  -5.130
REMARK INTRA:                   0.000
REMARK UNBOUND:                 0.000
REMARK SMILES Nc1ncnc2nc[nH]c12
REMARK SMILES IDX 8 1 7 2 6 3 5 4 4 5 3 6 2 7 10 8 9 9 1 11
REMARK H PARENT 9 10 1 12 1 13
REMARK Flexibility Score: inf
ROOT
ATOM      1  C   UNL     1       6.853   8.496  22.936  1.00  0.00     0.199 A 
ATOM      2  N   UNL     1       6.337   8.636  21.685  1.00  0.00    -0.217 NA
ATOM      3  C   UNL     1       7.440   8.808  20.938  1.00  0.00     0.182 A 
ATOM      4  N   UNL     1       7.487   8.995  19.598  1.00  0.00    -0.215 NA
ATOM      5  C   UNL     1       8.712   9.153  19.011  1.00  0.00     0.226 A 
ATOM      6  N   UNL     1       9.856   9.120  19.768  1.00  0.00    -0.217 NA
ATOM      7  C   UNL     1       9.811   8.932  21.120  1.00  0.00     0.152 A 
ATOM      8  C   UNL     1       8.556   8.773  21.702  1.00  0.00     0.127 A 
ATOM      9  N   UNL     1       8.207   8.575  22.980  1.00  0.00    -0.340 N 
ATOM     10  H   UNL     1       8.822   8.498  23.820  1.00  0.00     0.168 HD
ENDROOT
BRANCH   7  11
ATOM     11  N   UNL     1      11.014   8.902  21.887  1.00  0.00    -0.382 N 
ATOM     12  H   UNL     1      11.349   8.024  22.342  1.00  0.00     0.158 HD
ATOM     13  H   UNL     1      11.583   9.770  22.002  1.00  0.00     0.158 HD
ENDBRANCH   7  11
TORSDOF 1
ENDMDL
MODEL 2
REMARK VINA RESULT:    -4.864      1.486      3.570
REMARK INTER + INTRA:          -5.006
REMARK INTER:                  -5.006
REMARK INTRA:                   0.000
REMARK UNBOUND:                 0.000
REMARK SMILES Nc1ncnc2nc[nH]c12
REMARK SMILES IDX 8 1 7 2 6 3 5 4 4 5 3 6 2 7 10 8 9 9 1 11
REMARK H PARENT 9 10 1 12 1 13
REMARK Flexibility Score: inf
ROOT
ATOM      1  C   UNL     1      12.655   9.531  21.394  1.00  0.00     0.199 A 
ATOM      2  N   UNL     1      12.428   9.650  20.058  1.00  0.00    -0.217 NA
ATOM      3  C   UNL     1      11.110   9.405  19.969  1.00  0.00     0.182 A 
ATOM      4  N   UNL     1      10.364   9.398  18.839  1.00  0.00    -0.215 NA
ATOM      5  C   UNL     1       9.029   9.124  18.948  1.00  0.00     0.226 A 
ATOM      6  N   UNL     1       8.469   8.866  20.174  1.00  0.00    -0.217 NA
ATOM      7  C   UNL     1       9.220   8.872  21.316  1.00  0.00     0.152 A 
ATOM      8  C   UNL     1      10.578   9.152  21.186  1.00  0.00     0.127 A 
ATOM      9  N   UNL     1      11.544   9.227  22.112  1.00  0.00    -0.340 N 
ATOM     10  H   UNL     1      11.471   9.086  23.143  1.00  0.00     0.168 HD
ENDROOT
BRANCH   7  11
ATOM     11  N   UNL     1       8.617   8.599  22.580  1.00  0.00    -0.382 N 
ATOM     12  H   UNL     1       7.628   8.867  22.781  1.00  0.00     0.158 HD
ATOM     13  H   UNL     1       9.165   8.119  23.329  1.00  0.00     0.158 HD
ENDBRANCH   7  11
TORSDOF 1
ENDMDL
MODEL 3
REMARK VINA RESULT:    -4.809      0.987      2.957
REMARK INTER + INTRA:          -4.950
REMARK INTER:                  -4.950
REMARK INTRA:                   0.000
REMARK UNBOUND:                 0.000
REMARK SMILES Nc1ncnc2nc[nH]c12
REMARK SMILES IDX 8 1 7 2 6 3 5 4 4 5 3 6 2 7 10 8 9 9 1 11
REMARK H PARENT 9 10 1 12 1 13
REMARK Flexibility Score: inf
ROOT
ATOM      1  C   UNL     1      10.950   9.115  21.151  1.00  0.00     0.199 A 
ATOM      2  N   UNL     1      10.426   9.336  19.915  1.00  0.00    -0.217 NA
ATOM      3  C   UNL     1       9.110   9.171  20.128  1.00  0.00     0.182 A 
ATOM      4  N   UNL     1       8.123   9.281  19.208  1.00  0.00    -0.215 NA
ATOM      5  C   UNL     1       6.834   9.076  19.616  1.00  0.00     0.226 A 
ATOM      6  N   UNL     1       6.559   8.768  20.925  1.00  0.00    -0.217 NA
ATOM      7  C   UNL     1       7.554   8.656  21.855  1.00  0.00     0.152 A 
ATOM      8  C   UNL     1       8.861   8.868  21.422  1.00  0.00     0.127 A 
ATOM      9  N   UNL     1      10.018   8.826  22.095  1.00  0.00    -0.340 N 
ATOM     10  H   UNL     1      10.178   8.621  23.106  1.00  0.00     0.168 HD
ENDROOT
BRANCH   7  11
ATOM     11  N   UNL     1       7.244   8.334  23.210  1.00  0.00    -0.382 N 
ATOM     12  H   UNL     1       6.766   9.018  23.837  1.00  0.00     0.158 HD
ATOM     13  H   UNL     1       7.494   7.396  23.595  1.00  0.00     0.158 HD
ENDBRANCH   7  11
TORSDOF 1
ENDMDL
MODEL 4
REMARK VINA RESULT:    -4.687      1.951      2.749
REMARK INTER + INTRA:          -4.824
REMARK INTER:                  -4.824
REMARK INTRA:                   0.000
REMARK UNBOUND:                 0.000
REMARK SMILES Nc1ncnc2nc[nH]c12
REMARK SMILES IDX 8 1 7 2 6 3 5 4 4 5 3 6 2 7 10 8 9 9 1 11
REMARK H PARENT 9 10 1 12 1 13
REMARK Flexibility Score: inf
ROOT
ATOM      1  C   UNL     1       9.200   8.837  21.868  1.00  0.00     0.199 A 
ATOM      2  N   UNL     1       8.889   8.800  20.544  1.00  0.00    -0.217 NA
ATOM      3  C   UNL     1      10.045   9.173  19.968  1.00  0.00     0.182 A 
ATOM      4  N   UNL     1      10.281   9.301  18.642  1.00  0.00    -0.215 NA
ATOM      5  C   UNL     1      11.529   9.695  18.243  1.00  0.00     0.226 A 
ATOM      6  N   UNL     1      12.508   9.949  19.171  1.00  0.00    -0.217 NA
ATOM      7  C   UNL     1      12.271   9.820  20.511  1.00  0.00     0.152 A 
ATOM      8  C   UNL     1      10.995   9.419  20.899  1.00  0.00     0.127 A 
ATOM      9  N   UNL     1      10.481   9.211  22.118  1.00  0.00    -0.340 N 
ATOM     10  H   UNL     1      10.945   9.311  23.048  1.00  0.00     0.168 HD
ENDROOT
BRANCH   7  11
ATOM     11  N   UNL     1      13.304  10.091  21.458  1.00  0.00    -0.382 N 
ATOM     12  H   UNL     1      13.085  10.320  22.452  1.00  0.00     0.158 HD
ATOM     13  H   UNL     1      14.305  10.061  21.162  1.00  0.00     0.158 HD
ENDBRANCH   7  11
TORSDOF 1
ENDMDL
MODEL 5
REMARK VINA RESULT:    -4.509      2.983      4.953
REMARK INTER + INTRA:          -4.641
REMARK INTER:                  -4.641
REMARK INTRA:                   0.000
REMARK UNBOUND:                 0.000
REMARK SMILES Nc1ncnc2nc[nH]c12
REMARK SMILES IDX 8 1 7 2 6 3 5 4 4 5 3 6 2 7 10 8 9 9 1 11
REMARK H PARENT 9 10 1 12 1 13
REMARK Flexibility Score: inf
ROOT
ATOM      1  C   UNL     1       4.533   8.101  26.071  1.00  0.00     0.199 A 
ATOM      2  N   UNL     1       5.850   8.278  25.780  1.00  0.00    -0.217 NA
ATOM      3  C   UNL     1       5.841   8.345  24.438  1.00  0.00     0.182 A 
ATOM      4  N   UNL     1       6.913   8.517  23.631  1.00  0.00    -0.215 NA
ATOM      5  C   UNL     1       6.704   8.559  22.280  1.00  0.00     0.226 A 
ATOM      6  N   UNL     1       5.438   8.429  21.767  1.00  0.00    -0.217 NA
ATOM      7  C   UNL     1       4.354   8.254  22.581  1.00  0.00     0.152 A 
ATOM      8  C   UNL     1       4.585   8.214  23.953  1.00  0.00     0.127 A 
ATOM      9  N   UNL     1       3.733   8.058  24.975  1.00  0.00    -0.340 N 
ATOM     10  H   UNL     1       2.697   7.931  24.948  1.00  0.00     0.168 HD
ENDROOT
BRANCH   7  11
ATOM     11  N   UNL     1       3.046   8.121  22.025  1.00  0.00    -0.382 N 
ATOM     12  H   UNL     1       2.778   7.285  21.459  1.00  0.00     0.158 HD
ATOM     13  H   UNL     1       2.333   8.867  22.181  1.00  0.00     0.158 HD
ENDBRANCH   7  11
TORSDOF 1
ENDMDL
MODEL 6
REMARK VINA RESULT:    -4.491      2.102      2.995
REMARK INTER + INTRA:          -4.622
REMARK INTER:                  -4.622
REMARK INTRA:                   0.000
REMARK UNBOUND:                 0.000
REMARK SMILES Nc1ncnc2nc[nH]c12
REMARK SMILES IDX 8 1 7 2 6 3 5 4 4 5 3 6 2 7 10 8 9 9 1 11
REMARK H PARENT 9 10 1 12 1 13
REMARK Flexibility Score: inf
ROOT
ATOM      1  C   UNL     1       5.152   7.000  24.536  1.00  0.00     0.199 A 
ATOM      2  N   UNL     1       4.274   7.153  23.508  1.00  0.00    -0.217 NA
ATOM      3  C   UNL     1       5.034   7.737  22.567  1.00  0.00     0.182 A 
ATOM      4  N   UNL     1       4.639   8.110  21.327  1.00  0.00    -0.215 NA
ATOM      5  C   UNL     1       5.561   8.695  20.504  1.00  0.00     0.226 A 
ATOM      6  N   UNL     1       6.850   8.893  20.933  1.00  0.00    -0.217 NA
ATOM      7  C   UNL     1       7.250   8.517  22.184  1.00  0.00     0.152 A 
ATOM      8  C   UNL     1       6.298   7.924  23.009  1.00  0.00     0.127 A 
ATOM      9  N   UNL     1       6.399   7.461  24.262  1.00  0.00    -0.340 N 
ATOM     10  H   UNL     1       7.232   7.453  24.890  1.00  0.00     0.168 HD
ENDROOT
BRANCH   7  11
ATOM     11  N   UNL     1       8.596   8.734  22.609  1.00  0.00    -0.382 N 
ATOM     12  H   UNL     1       9.099   8.037  23.201  1.00  0.00     0.158 HD
ATOM     13  H   UNL     1       9.100   9.604  22.327  1.00  0.00     0.158 HD
ENDBRANCH   7  11
TORSDOF 1
ENDMDL
MODEL 7
REMARK VINA RESULT:    -4.474      4.605      5.183
REMARK INTER + INTRA:          -4.605
REMARK INTER:                  -4.605
REMARK INTRA:                   0.000
REMARK UNBOUND:                 0.000
REMARK SMILES Nc1ncnc2nc[nH]c12
REMARK SMILES IDX 8 1 7 2 6 3 5 4 4 5 3 6 2 7 10 8 9 9 1 11
REMARK H PARENT 9 10 1 12 1 13
REMARK Flexibility Score: inf
ROOT
ATOM      1  C   UNL     1       3.987   4.602  22.087  1.00  0.00     0.199 A 
ATOM      2  N   UNL     1       3.340   5.623  21.461  1.00  0.00    -0.217 NA
ATOM      3  C   UNL     1       3.819   6.702  22.104  1.00  0.00     0.182 A 
ATOM      4  N   UNL     1       3.493   7.994  21.867  1.00  0.00    -0.215 NA
ATOM      5  C   UNL     1       4.087   8.960  22.630  1.00  0.00     0.226 A 
ATOM      6  N   UNL     1       4.989   8.619  23.607  1.00  0.00    -0.217 NA
ATOM      7  C   UNL     1       5.319   7.315  23.848  1.00  0.00     0.152 A 
ATOM      8  C   UNL     1       4.704   6.344  23.063  1.00  0.00     0.127 A 
ATOM      9  N   UNL     1       4.829   5.010  23.071  1.00  0.00    -0.340 N 
ATOM     10  H   UNL     1       5.427   4.415  23.684  1.00  0.00     0.168 HD
ENDROOT
BRANCH   7  11
ATOM     11  N   UNL     1       6.258   6.984  24.870  1.00  0.00    -0.382 N 
ATOM     12  H   UNL     1       6.615   7.705  25.536  1.00  0.00     0.158 HD
ATOM     13  H   UNL     1       6.604   6.003  24.966  1.00  0.00     0.158 HD
ENDBRANCH   7  11
TORSDOF 1
ENDMDL
MODEL 8
REMARK VINA RESULT:    -4.469      0.969      3.782
REMARK INTER + INTRA:          -4.599
REMARK INTER:                  -4.599
REMARK INTRA:                   0.000
REMARK UNBOUND:                 0.000
REMARK SMILES Nc1ncnc2nc[nH]c12
REMARK SMILES IDX 8 1 7 2 6 3 5 4 4 5 3 6 2 7 10 8 9 9 1 11
REMARK H PARENT 9 10 1 12 1 13
REMARK Flexibility Score: inf
ROOT
ATOM      1  C   UNL     1       9.948   9.124  20.197  1.00  0.00     0.199 A 
ATOM      2  N   UNL     1       9.819   8.880  21.530  1.00  0.00    -0.217 NA
ATOM      3  C   UNL     1       8.488   8.772  21.674  1.00  0.00     0.182 A 
ATOM      4  N   UNL     1       7.817   8.528  22.824  1.00  0.00    -0.215 NA
ATOM      5  C   UNL     1       6.453   8.453  22.772  1.00  0.00     0.226 A 
ATOM      6  N   UNL     1       5.791   8.622  21.582  1.00  0.00    -0.217 NA
ATOM      7  C   UNL     1       6.466   8.869  20.420  1.00  0.00     0.152 A 
ATOM      8  C   UNL     1       7.855   8.943  20.490  1.00  0.00     0.127 A 
ATOM      9  N   UNL     1       8.765   9.168  19.533  1.00  0.00    -0.340 N 
ATOM     10  H   UNL     1       8.612   9.338  18.515  1.00  0.00     0.168 HD
ENDROOT
BRANCH   7  11
ATOM     11  N   UNL     1       5.757   9.042  19.194  1.00  0.00    -0.382 N 
ATOM     12  H   UNL     1       5.792   8.323  18.438  1.00  0.00     0.158 HD
ATOM     13  H   UNL     1       5.185   9.902  19.037  1.00  0.00     0.158 HD
ENDBRANCH   7  11
TORSDOF 1
ENDMDL
MODEL 9
REMARK VINA RESULT:    -4.361      3.190      4.995
REMARK INTER + INTRA:          -4.488
REMARK INTER:                  -4.488
REMARK INTRA:                   0.000
REMARK UNBOUND:                 0.000
REMARK SMILES Nc1ncnc2nc[nH]c12
REMARK SMILES IDX 8 1 7 2 6 3 5 4 4 5 3 6 2 7 10 8 9 9 1 11
REMARK H PARENT 9 10 1 12 1 13
REMARK Flexibility Score: inf
ROOT
ATOM      1  C   UNL     1       3.170   7.827  21.164  1.00  0.00     0.199 A 
ATOM      2  N   UNL     1       4.454   8.066  20.782  1.00  0.00    -0.217 NA
ATOM      3  C   UNL     1       5.094   8.142  21.962  1.00  0.00     0.182 A 
ATOM      4  N   UNL     1       6.414   8.370  22.151  1.00  0.00    -0.215 NA
ATOM      5  C   UNL     1       6.885   8.413  23.434  1.00  0.00     0.226 A 
ATOM      6  N   UNL     1       6.033   8.228  24.494  1.00  0.00    -0.217 NA
ATOM      7  C   UNL     1       4.699   7.999  24.305  1.00  0.00     0.152 A 
ATOM      8  C   UNL     1       4.237   7.958  22.992  1.00  0.00     0.127 A 
ATOM      9  N   UNL     1       3.004   7.755  22.509  1.00  0.00    -0.340 N 
ATOM     10  H   UNL     1       2.118   7.582  23.033  1.00  0.00     0.168 HD
ENDROOT
BRANCH   7  11
ATOM     11  N   UNL     1       3.832   7.811  25.423  1.00  0.00    -0.382 N 
ATOM     12  H   UNL     1       3.255   6.947  25.525  1.00  0.00     0.158 HD
ATOM     13  H   UNL     1       3.766   8.545  26.163  1.00  0.00     0.158 HD
ENDBRANCH   7  11
TORSDOF 1
ENDMDL
