MODEL 1
REMARK VINA RESULT:    -7.601      0.000      0.000
REMARK INTER + INTRA:          -8.524
REMARK INTER:                  -8.267
REMARK INTRA:                  -0.257
REMARK UNBOUND:                -0.257
REMARK SMILES C[C@H]1[C@H]2C3=CC[C@H]4[C@]5(C)CC[C@H](O)C(C)(C)[C@@H]5CC[C@]4(C)[C@@]3(C)CC[C@@]2(C(=O)[O-])CC[C@@H]1C
REMARK SMILES IDX 26 1 30 2 25 3 3 4 31 5 24 6 4 7 2 8 32 9 22 10 5 11 1 12
REMARK SMILES IDX 33 13 23 14 20 15 6 16 7 17 19 18 21 19 8 20 18 21 17 22
REMARK SMILES IDX 10 23 9 24 14 25 11 26 12 27 15 28 16 29 27 30 28 31 29 32
REMARK SMILES IDX 13 33
REMARK H PARENT 13 34
REMARK Flexibility Score: inf
ROOT
ATOM      1  C   UNL     1      29.083  -6.950  55.652  1.00  0.00     0.017 C 
ATOM      2  C   UNL     1      29.609  -8.345  55.193  1.00  0.00     0.014 C 
ATOM      3  C   UNL     1      30.223  -5.928  55.457  1.00  0.00     0.014 C 
ATOM      4  C   UNL     1      28.649  -6.951  57.172  1.00  0.00     0.030 C 
ATOM      5  C   UNL     1      28.866  -9.481  55.886  1.00  0.00     0.004 C 
ATOM      6  C   UNL     1      29.804  -4.487  55.744  1.00  0.00     0.013 C 
ATOM      7  C   UNL     1      28.706  -5.562  57.852  1.00  0.00    -0.063 C 
ATOM      8  C   UNL     1      29.360  -8.079  58.016  1.00  0.00    -0.003 C 
ATOM      9  C   UNL     1      29.182  -9.509  57.395  1.00  0.00    -0.011 C 
ATOM     10  C   UNL     1      28.991  -4.254  57.078  1.00  0.00    -0.006 C 
ATOM     11  C   UNL     1      28.263  -5.469  59.132  1.00  0.00    -0.027 C 
ATOM     12  C   UNL     1      30.841  -7.788  58.329  1.00  0.00     0.008 C 
ATOM     13  C   UNL     1      28.094 -10.306  58.131  1.00  0.00     0.008 C 
ATOM     14  C   UNL     1      27.575  -3.739  56.642  1.00  0.00     0.017 C 
ATOM     15  C   UNL     1      29.760  -3.222  58.058  1.00  0.00    -0.020 C 
ATOM     16  C   UNL     1      28.428  -4.267  60.026  1.00  0.00     0.032 C 
ATOM     17  C   UNL     1      28.848  -2.950  59.313  1.00  0.00     0.006 C 
ATOM     18  C   UNL     1      30.047  -1.856  57.346  1.00  0.00     0.008 C 
ATOM     19  C   UNL     1      31.125  -3.863  58.484  1.00  0.00     0.012 C 
ATOM     20  C   UNL     1      29.282  -1.793  60.312  1.00  0.00    -0.025 C 
ATOM     21  C   UNL     1      30.490  -0.715  58.275  1.00  0.00     0.005 C 
ATOM     22  C   UNL     1      29.599  -0.460  59.524  1.00  0.00     0.003 C 
ATOM     23  C   UNL     1      28.117  -1.546  61.334  1.00  0.00     0.010 C 
ATOM     24  C   UNL     1      30.542  -2.171  61.156  1.00  0.00     0.012 C 
ATOM     25  C   UNL     1      28.387   0.559  59.369  1.00  0.00    -0.006 C 
ATOM     26  C   UNL     1      28.107  -0.123  61.894  1.00  0.00     0.033 C 
ATOM     27  C   UNL     1      27.845   0.942  60.808  1.00  0.00     0.120 C 
ATOM     28  C   UNL     1      28.877   1.875  58.704  1.00  0.00     0.014 C 
ATOM     29  C   UNL     1      27.233   0.022  58.479  1.00  0.00     0.014 C 
ENDROOT
BRANCH   1  30
ATOM     30  C   UNL     1      27.911  -6.610  54.730  1.00  0.00     0.048 C 
ATOM     31  O   UNL     1      28.124  -6.302  53.527  1.00  0.00    -0.550 OA
ATOM     32  O   UNL     1      26.593  -6.750  55.153  1.00  0.00    -0.550 OA
ENDBRANCH   1  30
BRANCH  27  33
ATOM     33  O   UNL     1      26.469   1.237  60.786  1.00  0.00    -0.393 OA
ATOM     34  H   UNL     1      26.323   2.001  61.403  1.00  0.00     0.210 HD
ENDBRANCH  27  33
TORSDOF 2
ENDMDL
MODEL 2
REMARK VINA RESULT:    -7.520      2.064      7.959
REMARK INTER + INTRA:          -8.437
REMARK INTER:                  -8.174
REMARK INTRA:                  -0.264
REMARK UNBOUND:                -0.257
REMARK SMILES C[C@H]1[C@H]2C3=CC[C@H]4[C@]5(C)CC[C@H](O)C(C)(C)[C@@H]5CC[C@]4(C)[C@@]3(C)CC[C@@]2(C(=O)[O-])CC[C@@H]1C
REMARK SMILES IDX 26 1 30 2 25 3 3 4 31 5 24 6 4 7 2 8 32 9 22 10 5 11 1 12
REMARK SMILES IDX 33 13 23 14 20 15 6 16 7 17 19 18 21 19 8 20 18 21 17 22
REMARK SMILES IDX 10 23 9 24 14 25 11 26 12 27 15 28 16 29 27 30 28 31 29 32
REMARK SMILES IDX 13 33
REMARK H PARENT 13 34
REMARK Flexibility Score: inf
ROOT
ATOM      1  C   UNL     1      29.894  -1.633  59.915  1.00  0.00     0.017 C 
ATOM      2  C   UNL     1      30.107  -0.088  59.869  1.00  0.00     0.014 C 
ATOM      3  C   UNL     1      31.125  -2.299  59.264  1.00  0.00     0.014 C 
ATOM      4  C   UNL     1      28.596  -2.075  59.128  1.00  0.00     0.030 C 
ATOM      5  C   UNL     1      28.781   0.662  59.885  1.00  0.00     0.004 C 
ATOM      6  C   UNL     1      31.113  -3.824  59.358  1.00  0.00     0.013 C 
ATOM      7  C   UNL     1      28.632  -3.533  58.609  1.00  0.00    -0.063 C 
ATOM      8  C   UNL     1      28.161  -1.039  58.022  1.00  0.00    -0.003 C 
ATOM      9  C   UNL     1      27.991   0.416  58.583  1.00  0.00    -0.011 C 
ATOM     10  C   UNL     1      29.755  -4.532  58.972  1.00  0.00    -0.006 C 
ATOM     11  C   UNL     1      27.516  -4.012  58.003  1.00  0.00    -0.027 C 
ATOM     12  C   UNL     1      29.054  -1.050  56.766  1.00  0.00     0.008 C 
ATOM     13  C   UNL     1      26.510   0.758  58.811  1.00  0.00     0.008 C 
ATOM     14  C   UNL     1      29.245  -5.241  60.275  1.00  0.00     0.017 C 
ATOM     15  C   UNL     1      29.962  -5.558  57.739  1.00  0.00    -0.020 C 
ATOM     16  C   UNL     1      27.424  -5.317  57.253  1.00  0.00     0.032 C 
ATOM     17  C   UNL     1      28.602  -6.307  57.478  1.00  0.00     0.006 C 
ATOM     18  C   UNL     1      31.066  -6.625  58.056  1.00  0.00     0.008 C 
ATOM     19  C   UNL     1      30.404  -4.740  56.478  1.00  0.00     0.012 C 
ATOM     20  C   UNL     1      28.609  -7.533  56.466  1.00  0.00    -0.025 C 
ATOM     21  C   UNL     1      31.119  -7.817  57.088  1.00  0.00     0.005 C 
ATOM     22  C   UNL     1      29.771  -8.545  56.816  1.00  0.00     0.003 C 
ATOM     23  C   UNL     1      27.222  -8.262  56.548  1.00  0.00     0.010 C 
ATOM     24  C   UNL     1      28.787  -7.081  54.981  1.00  0.00     0.012 C 
ATOM     25  C   UNL     1      29.376  -9.749  57.779  1.00  0.00    -0.006 C 
ATOM     26  C   UNL     1      27.302  -9.740  56.162  1.00  0.00     0.033 C 
ATOM     27  C   UNL     1      28.182 -10.561  57.128  1.00  0.00     0.120 C 
ATOM     28  C   UNL     1      30.570 -10.733  57.920  1.00  0.00     0.014 C 
ATOM     29  C   UNL     1      29.007  -9.298  59.219  1.00  0.00     0.014 C 
ENDROOT
BRANCH   1  30
ATOM     30  C   UNL     1      29.815  -2.010  61.395  1.00  0.00     0.048 C 
ATOM     31  O   UNL     1      30.844  -1.944  62.118  1.00  0.00    -0.550 OA
ATOM     32  O   UNL     1      28.600  -2.311  62.001  1.00  0.00    -0.550 OA
ENDBRANCH   1  30
BRANCH  27  33
ATOM     33  O   UNL     1      27.355 -11.146  58.106  1.00  0.00    -0.393 OA
ATOM     34  H   UNL     1      26.830 -10.414  58.522  1.00  0.00     0.210 HD
ENDBRANCH  27  33
TORSDOF 2
ENDMDL
MODEL 3
REMARK VINA RESULT:    -6.401      1.809      7.922
REMARK INTER + INTRA:          -7.220
REMARK INTER:                  -6.955
REMARK INTRA:                  -0.265
REMARK UNBOUND:                -0.257
REMARK SMILES C[C@H]1[C@H]2C3=CC[C@H]4[C@]5(C)CC[C@H](O)C(C)(C)[C@@H]5CC[C@]4(C)[C@@]3(C)CC[C@@]2(C(=O)[O-])CC[C@@H]1C
REMARK SMILES IDX 26 1 30 2 25 3 3 4 31 5 24 6 4 7 2 8 32 9 22 10 5 11 1 12
REMARK SMILES IDX 33 13 23 14 20 15 6 16 7 17 19 18 21 19 8 20 18 21 17 22
REMARK SMILES IDX 10 23 9 24 14 25 11 26 12 27 15 28 16 29 27 30 28 31 29 32
REMARK SMILES IDX 13 33
REMARK H PARENT 13 34
REMARK Flexibility Score: inf
ROOT
ATOM      1  C   UNL     1      29.853  -1.782  61.556  1.00  0.00     0.017 C 
ATOM      2  C   UNL     1      30.291  -0.421  62.179  1.00  0.00     0.014 C 
ATOM      3  C   UNL     1      31.125  -2.514  61.079  1.00  0.00     0.014 C 
ATOM      4  C   UNL     1      28.882  -1.585  60.324  1.00  0.00     0.030 C 
ATOM      5  C   UNL     1      29.175   0.614  62.107  1.00  0.00     0.004 C 
ATOM      6  C   UNL     1      30.857  -3.927  60.563  1.00  0.00     0.013 C 
ATOM      7  C   UNL     1      28.892  -2.755  59.311  1.00  0.00    -0.063 C 
ATOM      8  C   UNL     1      29.038  -0.174  59.636  1.00  0.00    -0.003 C 
ATOM      9  C   UNL     1      28.889   1.017  60.646  1.00  0.00    -0.011 C 
ATOM     10  C   UNL     1      29.647  -4.081  59.560  1.00  0.00    -0.006 C 
ATOM     11  C   UNL     1      28.018  -2.696  58.274  1.00  0.00    -0.027 C 
ATOM     12  C   UNL     1      30.316  -0.028  58.787  1.00  0.00     0.008 C 
ATOM     13  C   UNL     1      27.494   1.656  60.556  1.00  0.00     0.008 C 
ATOM     14  C   UNL     1      28.598  -5.001  60.278  1.00  0.00     0.017 C 
ATOM     15  C   UNL     1      30.137  -4.680  58.140  1.00  0.00    -0.020 C 
ATOM     16  C   UNL     1      28.017  -3.621  57.083  1.00  0.00     0.032 C 
ATOM     17  C   UNL     1      28.873  -4.910  57.230  1.00  0.00     0.006 C 
ATOM     18  C   UNL     1      30.880  -6.049  58.316  1.00  0.00     0.008 C 
ATOM     19  C   UNL     1      31.124  -3.655  57.482  1.00  0.00     0.012 C 
ATOM     20  C   UNL     1      29.070  -5.705  55.868  1.00  0.00    -0.025 C 
ATOM     21  C   UNL     1      31.109  -6.839  57.019  1.00  0.00     0.005 C 
ATOM     22  C   UNL     1      29.863  -7.050  56.112  1.00  0.00     0.003 C 
ATOM     23  C   UNL     1      27.659  -6.020  55.259  1.00  0.00     0.010 C 
ATOM     24  C   UNL     1      29.842  -4.872  54.795  1.00  0.00     0.012 C 
ATOM     25  C   UNL     1      28.973  -8.343  56.372  1.00  0.00    -0.006 C 
ATOM     26  C   UNL     1      27.658  -7.262  54.367  1.00  0.00     0.033 C 
ATOM     27  C   UNL     1      27.993  -8.553  55.144  1.00  0.00     0.120 C 
ATOM     28  C   UNL     1      29.875  -9.606  56.453  1.00  0.00     0.014 C 
ATOM     29  C   UNL     1      28.173  -8.290  57.703  1.00  0.00     0.014 C 
ENDROOT
BRANCH   1  30
ATOM     30  C   UNL     1      29.184  -2.574  62.682  1.00  0.00     0.048 C 
ATOM     31  O   UNL     1      29.871  -3.000  63.647  1.00  0.00    -0.550 OA
ATOM     32  O   UNL     1      27.804  -2.733  62.733  1.00  0.00    -0.550 OA
ENDBRANCH   1  30
BRANCH  27  33
ATOM     33  O   UNL     1      26.791  -9.171  55.535  1.00  0.00    -0.393 OA
ATOM     34  H   UNL     1      26.613  -8.898  56.472  1.00  0.00     0.210 HD
ENDBRANCH  27  33
TORSDOF 2
ENDMDL
MODEL 4
REMARK VINA RESULT:    -4.686      1.518      2.140
REMARK INTER + INTRA:          -5.354
REMARK INTER:                  -5.288
REMARK INTRA:                  -0.066
REMARK UNBOUND:                -0.257
REMARK SMILES C[C@H]1[C@H]2C3=CC[C@H]4[C@]5(C)CC[C@H](O)C(C)(C)[C@@H]5CC[C@]4(C)[C@@]3(C)CC[C@@]2(C(=O)[O-])CC[C@@H]1C
REMARK SMILES IDX 26 1 30 2 25 3 3 4 31 5 24 6 4 7 2 8 32 9 22 10 5 11 1 12
REMARK SMILES IDX 33 13 23 14 20 15 6 16 7 17 19 18 21 19 8 20 18 21 17 22
REMARK SMILES IDX 10 23 9 24 14 25 11 26 12 27 15 28 16 29 27 30 28 31 29 32
REMARK SMILES IDX 13 33
REMARK H PARENT 13 34
REMARK Flexibility Score: inf
ROOT
ATOM      1  C   UNL     1      29.730  -5.071  56.157  1.00  0.00     0.017 C 
ATOM      2  C   UNL     1      30.124  -6.526  55.754  1.00  0.00     0.014 C 
ATOM      3  C   UNL     1      31.024  -4.321  56.541  1.00  0.00     0.014 C 
ATOM      4  C   UNL     1      28.739  -5.046  57.388  1.00  0.00     0.030 C 
ATOM      5  C   UNL     1      28.970  -7.498  55.962  1.00  0.00     0.004 C 
ATOM      6  C   UNL     1      30.803  -2.837  56.833  1.00  0.00     0.013 C 
ATOM      7  C   UNL     1      28.781  -3.737  58.213  1.00  0.00    -0.063 C 
ATOM      8  C   UNL     1      28.833  -6.341  58.284  1.00  0.00    -0.003 C 
ATOM      9  C   UNL     1      28.651  -7.665  57.462  1.00  0.00    -0.011 C 
ATOM     10  C   UNL     1      29.588  -2.491  57.781  1.00  0.00    -0.006 C 
ATOM     11  C   UNL     1      27.893  -3.607  59.232  1.00  0.00    -0.027 C 
ATOM     12  C   UNL     1      30.095  -6.402  59.166  1.00  0.00     0.008 C 
ATOM     13  C   UNL     1      27.233  -8.233  57.623  1.00  0.00     0.008 C 
ATOM     14  C   UNL     1      28.583  -1.654  56.914  1.00  0.00     0.017 C 
ATOM     15  C   UNL     1      30.084  -1.702  59.102  1.00  0.00    -0.020 C 
ATOM     16  C   UNL     1      27.913  -2.514  60.270  1.00  0.00     0.032 C 
ATOM     17  C   UNL     1      28.819  -1.293  59.946  1.00  0.00     0.006 C 
ATOM     18  C   UNL     1      30.880  -0.403  58.735  1.00  0.00     0.008 C 
ATOM     19  C   UNL     1      31.023  -2.650  59.924  1.00  0.00     0.012 C 
ATOM     20  C   UNL     1      29.030  -0.309  61.175  1.00  0.00    -0.025 C 
ATOM     21  C   UNL     1      31.123   0.566  59.901  1.00  0.00     0.005 C 
ATOM     22  C   UNL     1      29.876   0.956  60.745  1.00  0.00     0.003 C 
ATOM     23  C   UNL     1      27.625   0.144  61.706  1.00  0.00     0.010 C 
ATOM     24  C   UNL     1      29.758  -0.997  62.374  1.00  0.00     0.012 C 
ATOM     25  C   UNL     1      29.037   2.225  60.278  1.00  0.00    -0.006 C 
ATOM     26  C   UNL     1      27.659   1.507  62.400  1.00  0.00     0.033 C 
ATOM     27  C   UNL     1      28.053   2.652  61.443  1.00  0.00     0.120 C 
ATOM     28  C   UNL     1      29.988   3.428  60.023  1.00  0.00     0.014 C 
ATOM     29  C   UNL     1      28.252   2.000  58.957  1.00  0.00     0.014 C 
ENDROOT
BRANCH   1  30
ATOM     30  C   UNL     1      29.105  -4.436  54.914  1.00  0.00     0.048 C 
ATOM     31  O   UNL     1      27.935  -3.972  54.964  1.00  0.00    -0.550 OA
ATOM     32  O   UNL     1      29.843  -4.243  53.751  1.00  0.00    -0.550 OA
ENDBRANCH   1  30
BRANCH  27  33
ATOM     33  O   UNL     1      26.879   3.247  60.944  1.00  0.00    -0.393 OA
ATOM     34  H   UNL     1      26.165   2.558  60.975  1.00  0.00     0.210 HD
ENDBRANCH  27  33
TORSDOF 2
ENDMDL
