MODEL 1
REMARK VINA RESULT:    -3.832      0.000      0.000
REMARK INTER + INTRA:          -4.413
REMARK INTER:                  -4.392
REMARK INTRA:                  -0.021
REMARK UNBOUND:                -0.021
REMARK SMILES CC(C)[C@H]([NH3+])C(=O)[O-]
REMARK SMILES IDX 4 1 5 2 6 6 7 7 8 8 2 9 1 10 3 11
REMARK H PARENT 5 3 5 4 5 5
REMARK Flexibility Score: inf
ROOT
ATOM      1  C   UNL     1     -25.110   4.626 -15.132  1.00  0.00     0.230 C 
ENDROOT
BRANCH   1   2
ATOM      2  N   UNL     1     -24.236   3.822 -16.001  1.00  0.00    -0.350 N 
ATOM      3  H   UNL     1     -23.249   4.157 -15.931  1.00  0.00     0.345 HD
ATOM      4  H   UNL     1     -24.554   3.874 -16.997  1.00  0.00     0.345 HD
ATOM      5  H   UNL     1     -24.245   2.822 -15.694  1.00  0.00     0.345 HD
ENDBRANCH   1   2
BRANCH   1   6
ATOM      6  C   UNL     1     -26.397   4.925 -15.859  1.00  0.00     0.099 C 
ATOM      7  O   UNL     1     -27.317   5.564 -15.284  1.00  0.00    -0.544 OA
ATOM      8  O   UNL     1     -26.576   4.498 -17.170  1.00  0.00    -0.544 OA
ENDBRANCH   1   6
BRANCH   1   9
ATOM      9  C   UNL     1     -24.415   5.946 -14.675  1.00  0.00     0.047 C 
ATOM     10  C   UNL     1     -22.899   5.915 -14.931  1.00  0.00     0.014 C 
ATOM     11  C   UNL     1     -24.668   6.219 -13.181  1.00  0.00     0.014 C 
ENDBRANCH   1   9
TORSDOF 3
ENDMDL
MODEL 2
REMARK VINA RESULT:    -3.830      3.173      3.767
REMARK INTER + INTRA:          -4.411
REMARK INTER:                  -4.360
REMARK INTRA:                  -0.050
REMARK UNBOUND:                -0.021
REMARK SMILES CC(C)[C@H]([NH3+])C(=O)[O-]
REMARK SMILES IDX 4 1 5 2 6 6 7 7 8 8 2 9 1 10 3 11
REMARK H PARENT 5 3 5 4 5 5
REMARK Flexibility Score: inf
ROOT
ATOM      1  C   UNL     1     -25.280   7.979 -14.522  1.00  0.00     0.230 C 
ENDROOT
BRANCH   1   2
ATOM      2  N   UNL     1     -26.246   8.927 -13.947  1.00  0.00    -0.350 N 
ATOM      3  H   UNL     1     -27.120   8.946 -14.520  1.00  0.00     0.345 HD
ATOM      4  H   UNL     1     -25.838   9.889 -13.898  1.00  0.00     0.345 HD
ATOM      5  H   UNL     1     -26.517   8.624 -12.982  1.00  0.00     0.345 HD
ENDBRANCH   1   2
BRANCH   1   6
ATOM      6  C   UNL     1     -25.462   6.629 -13.876  1.00  0.00     0.099 C 
ATOM      7  O   UNL     1     -25.835   5.642 -14.563  1.00  0.00    -0.544 OA
ATOM      8  O   UNL     1     -25.218   6.464 -12.518  1.00  0.00    -0.544 OA
ENDBRANCH   1   6
BRANCH   1   9
ATOM      9  C   UNL     1     -23.811   8.477 -14.356  1.00  0.00     0.047 C 
ATOM     10  C   UNL     1     -23.552   9.773 -15.141  1.00  0.00     0.014 C 
ATOM     11  C   UNL     1     -22.805   7.404 -14.809  1.00  0.00     0.014 C 
ENDBRANCH   1   9
TORSDOF 3
ENDMDL
MODEL 3
REMARK VINA RESULT:    -3.829      2.401      3.145
REMARK INTER + INTRA:          -4.410
REMARK INTER:                  -4.351
REMARK INTRA:                  -0.058
REMARK UNBOUND:                -0.021
REMARK SMILES CC(C)[C@H]([NH3+])C(=O)[O-]
REMARK SMILES IDX 4 1 5 2 6 6 7 7 8 8 2 9 1 10 3 11
REMARK H PARENT 5 3 5 4 5 5
REMARK Flexibility Score: inf
ROOT
ATOM      1  C   UNL     1     -24.356   6.284 -14.655  1.00  0.00     0.230 C 
ENDROOT
BRANCH   1   2
ATOM      2  N   UNL     1     -22.993   6.281 -14.100  1.00  0.00    -0.350 N 
ATOM      3  H   UNL     1     -23.025   6.155 -13.064  1.00  0.00     0.345 HD
ATOM      4  H   UNL     1     -22.497   7.174 -14.330  1.00  0.00     0.345 HD
ATOM      5  H   UNL     1     -22.447   5.479 -14.492  1.00  0.00     0.345 HD
ENDBRANCH   1   2
BRANCH   1   6
ATOM      6  C   UNL     1     -25.290   6.949 -13.676  1.00  0.00     0.099 C 
ATOM      7  O   UNL     1     -25.981   7.941 -14.031  1.00  0.00    -0.544 OA
ATOM      8  O   UNL     1     -25.397   6.472 -12.375  1.00  0.00    -0.544 OA
ENDBRANCH   1   6
BRANCH   1   9
ATOM      9  C   UNL     1     -24.846   4.843 -14.993  1.00  0.00     0.047 C 
ATOM     10  C   UNL     1     -23.889   4.122 -15.957  1.00  0.00     0.014 C 
ATOM     11  C   UNL     1     -26.257   4.865 -15.609  1.00  0.00     0.014 C 
ENDBRANCH   1   9
TORSDOF 3
ENDMDL
MODEL 4
REMARK VINA RESULT:    -3.827      2.816      3.721
REMARK INTER + INTRA:          -4.407
REMARK INTER:                  -4.360
REMARK INTRA:                  -0.047
REMARK UNBOUND:                -0.021
REMARK SMILES CC(C)[C@H]([NH3+])C(=O)[O-]
REMARK SMILES IDX 4 1 5 2 6 6 7 7 8 8 2 9 1 10 3 11
REMARK H PARENT 5 3 5 4 5 5
REMARK Flexibility Score: inf
ROOT
ATOM      1  C   UNL     1     -24.365   5.846 -14.000  1.00  0.00     0.230 C 
ENDROOT
BRANCH   1   2
ATOM      2  N   UNL     1     -25.556   6.145 -13.190  1.00  0.00    -0.350 N 
ATOM      3  H   UNL     1     -26.366   5.568 -13.510  1.00  0.00     0.345 HD
ATOM      4  H   UNL     1     -25.801   7.160 -13.252  1.00  0.00     0.345 HD
ATOM      5  H   UNL     1     -25.380   5.899 -12.188  1.00  0.00     0.345 HD
ENDBRANCH   1   2
BRANCH   1   6
ATOM      6  C   UNL     1     -23.699   7.138 -14.402  1.00  0.00     0.099 C 
ATOM      7  O   UNL     1     -22.495   7.143 -14.771  1.00  0.00    -0.544 OA
ATOM      8  O   UNL     1     -24.410   8.332 -14.370  1.00  0.00    -0.544 OA
ENDBRANCH   1   6
BRANCH   1   9
ATOM      9  C   UNL     1     -24.720   4.993 -15.257  1.00  0.00     0.047 C 
ATOM     10  C   UNL     1     -26.237   4.936 -15.503  1.00  0.00     0.014 C 
ATOM     11  C   UNL     1     -24.176   3.559 -15.129  1.00  0.00     0.014 C 
ENDBRANCH   1   9
TORSDOF 3
ENDMDL
MODEL 5
REMARK VINA RESULT:    -3.704      2.216      2.624
REMARK INTER + INTRA:          -4.267
REMARK INTER:                  -4.189
REMARK INTRA:                  -0.078
REMARK UNBOUND:                -0.021
REMARK SMILES CC(C)[C@H]([NH3+])C(=O)[O-]
REMARK SMILES IDX 4 1 5 2 6 6 7 7 8 8 2 9 1 10 3 11
REMARK H PARENT 5 3 5 4 5 5
REMARK Flexibility Score: inf
ROOT
ATOM      1  C   UNL     1     -24.937   5.169 -15.454  1.00  0.00     0.230 C 
ENDROOT
BRANCH   1   2
ATOM      2  N   UNL     1     -26.253   4.572 -15.180  1.00  0.00    -0.350 N 
ATOM      3  H   UNL     1     -26.143   3.580 -14.871  1.00  0.00     0.345 HD
ATOM      4  H   UNL     1     -26.862   4.609 -16.030  1.00  0.00     0.345 HD
ATOM      5  H   UNL     1     -26.726   5.087 -14.401  1.00  0.00     0.345 HD
ENDBRANCH   1   2
BRANCH   1   6
ATOM      6  C   UNL     1     -23.991   4.094 -15.926  1.00  0.00     0.099 C 
ATOM      7  O   UNL     1     -23.751   3.096 -15.197  1.00  0.00    -0.544 OA
ATOM      8  O   UNL     1     -23.379   4.197 -17.169  1.00  0.00    -0.544 OA
ENDBRANCH   1   6
BRANCH   1   9
ATOM      9  C   UNL     1     -24.361   5.901 -14.203  1.00  0.00     0.047 C 
ATOM     10  C   UNL     1     -25.378   6.878 -13.590  1.00  0.00     0.014 C 
ATOM     11  C   UNL     1     -23.072   6.668 -14.551  1.00  0.00     0.014 C 
ENDBRANCH   1   9
TORSDOF 3
ENDMDL
MODEL 6
REMARK VINA RESULT:    -3.619      1.959      2.296
REMARK INTER + INTRA:          -4.169
REMARK INTER:                  -4.118
REMARK INTRA:                  -0.052
REMARK UNBOUND:                -0.021
REMARK SMILES CC(C)[C@H]([NH3+])C(=O)[O-]
REMARK SMILES IDX 4 1 5 2 6 6 7 7 8 8 2 9 1 10 3 11
REMARK H PARENT 5 3 5 4 5 5
REMARK Flexibility Score: inf
ROOT
ATOM      1  C   UNL     1     -23.551   5.432 -14.643  1.00  0.00     0.230 C 
ENDROOT
BRANCH   1   2
ATOM      2  N   UNL     1     -22.467   5.752 -15.583  1.00  0.00    -0.350 N 
ATOM      3  H   UNL     1     -21.958   4.882 -15.859  1.00  0.00     0.345 HD
ATOM      4  H   UNL     1     -21.794   6.431 -15.156  1.00  0.00     0.345 HD
ATOM      5  H   UNL     1     -22.860   6.170 -16.459  1.00  0.00     0.345 HD
ENDBRANCH   1   2
BRANCH   1   6
ATOM      6  C   UNL     1     -24.343   4.265 -15.175  1.00  0.00     0.099 C 
ATOM      7  O   UNL     1     -23.924   3.088 -15.014  1.00  0.00    -0.544 OA
ATOM      8  O   UNL     1     -25.542   4.478 -15.845  1.00  0.00    -0.544 OA
ENDBRANCH   1   6
BRANCH   1   9
ATOM      9  C   UNL     1     -24.480   6.660 -14.392  1.00  0.00     0.047 C 
ATOM     10  C   UNL     1     -23.707   7.988 -14.455  1.00  0.00     0.014 C 
ATOM     11  C   UNL     1     -25.186   6.554 -13.028  1.00  0.00     0.014 C 
ENDBRANCH   1   9
TORSDOF 3
ENDMDL
MODEL 7
REMARK VINA RESULT:    -3.598      2.313      2.534
REMARK INTER + INTRA:          -4.145
REMARK INTER:                  -4.218
REMARK INTRA:                   0.073
REMARK UNBOUND:                -0.021
REMARK SMILES CC(C)[C@H]([NH3+])C(=O)[O-]
REMARK SMILES IDX 4 1 5 2 6 6 7 7 8 8 2 9 1 10 3 11
REMARK H PARENT 5 3 5 4 5 5
REMARK Flexibility Score: inf
ROOT
ATOM      1  C   UNL     1     -24.970   6.879 -13.974  1.00  0.00     0.230 C 
ENDROOT
BRANCH   1   2
ATOM      2  N   UNL     1     -24.492   6.512 -12.632  1.00  0.00    -0.350 N 
ATOM      3  H   UNL     1     -24.429   5.472 -12.543  1.00  0.00     0.345 HD
ATOM      4  H   UNL     1     -25.131   6.889 -11.895  1.00  0.00     0.345 HD
ATOM      5  H   UNL     1     -23.530   6.893 -12.476  1.00  0.00     0.345 HD
ENDBRANCH   1   2
BRANCH   1   6
ATOM      6  C   UNL     1     -25.565   5.665 -14.641  1.00  0.00     0.099 C 
ATOM      7  O   UNL     1     -26.743   5.698 -15.084  1.00  0.00    -0.544 OA
ATOM      8  O   UNL     1     -24.817   4.501 -14.773  1.00  0.00    -0.544 OA
ENDBRANCH   1   6
BRANCH   1   9
ATOM      9  C   UNL     1     -23.829   7.486 -14.848  1.00  0.00     0.047 C 
ATOM     10  C   UNL     1     -22.491   6.762 -14.629  1.00  0.00     0.014 C 
ATOM     11  C   UNL     1     -23.644   8.987 -14.558  1.00  0.00     0.014 C 
ENDBRANCH   1   9
TORSDOF 3
ENDMDL
MODEL 8
REMARK VINA RESULT:    -3.524      1.686      2.144
REMARK INTER + INTRA:          -4.061
REMARK INTER:                  -4.186
REMARK INTRA:                   0.126
REMARK UNBOUND:                -0.021
REMARK SMILES CC(C)[C@H]([NH3+])C(=O)[O-]
REMARK SMILES IDX 4 1 5 2 6 6 7 7 8 8 2 9 1 10 3 11
REMARK H PARENT 5 3 5 4 5 5
REMARK Flexibility Score: inf
ROOT
ATOM      1  C   UNL     1     -24.471   4.214 -15.680  1.00  0.00     0.230 C 
ENDROOT
BRANCH   1   2
ATOM      2  N   UNL     1     -23.587   3.191 -15.101  1.00  0.00    -0.350 N 
ATOM      3  H   UNL     1     -23.677   2.294 -15.629  1.00  0.00     0.345 HD
ATOM      4  H   UNL     1     -23.817   3.029 -14.093  1.00  0.00     0.345 HD
ATOM      5  H   UNL     1     -22.588   3.494 -15.176  1.00  0.00     0.345 HD
ENDBRANCH   1   2
BRANCH   1   6
ATOM      6  C   UNL     1     -24.308   4.222 -17.179  1.00  0.00     0.099 C 
ATOM      7  O   UNL     1     -23.161   4.295 -17.693  1.00  0.00    -0.544 OA
ATOM      8  O   UNL     1     -25.424   4.146 -18.005  1.00  0.00    -0.544 OA
ENDBRANCH   1   6
BRANCH   1   9
ATOM      9  C   UNL     1     -24.186   5.628 -15.087  1.00  0.00     0.047 C 
ATOM     10  C   UNL     1     -22.680   5.928 -15.015  1.00  0.00     0.014 C 
ATOM     11  C   UNL     1     -24.797   5.775 -13.681  1.00  0.00     0.014 C 
ENDBRANCH   1   9
TORSDOF 3
ENDMDL
MODEL 9
REMARK VINA RESULT:    -3.433      2.430      3.026
REMARK INTER + INTRA:          -3.955
REMARK INTER:                  -4.212
REMARK INTRA:                   0.257
REMARK UNBOUND:                -0.021
REMARK SMILES CC(C)[C@H]([NH3+])C(=O)[O-]
REMARK SMILES IDX 4 1 5 2 6 6 7 7 8 8 2 9 1 10 3 11
REMARK H PARENT 5 3 5 4 5 5
REMARK Flexibility Score: inf
ROOT
ATOM      1  C   UNL     1     -25.756   5.422 -14.454  1.00  0.00     0.230 C 
ENDROOT
BRANCH   1   2
ATOM      2  N   UNL     1     -26.921   5.657 -15.320  1.00  0.00    -0.350 N 
ATOM      3  H   UNL     1     -26.648   5.568 -16.325  1.00  0.00     0.345 HD
ATOM      4  H   UNL     1     -27.326   6.606 -15.149  1.00  0.00     0.345 HD
ATOM      5  H   UNL     1     -27.657   4.936 -15.136  1.00  0.00     0.345 HD
ENDBRANCH   1   2
BRANCH   1   6
ATOM      6  C   UNL     1     -25.538   6.628 -13.575  1.00  0.00     0.099 C 
ATOM      7  O   UNL     1     -25.674   7.789 -14.045  1.00  0.00    -0.544 OA
ATOM      8  O   UNL     1     -25.186   6.467 -12.240  1.00  0.00    -0.544 OA
ENDBRANCH   1   6
BRANCH   1   9
ATOM      9  C   UNL     1     -24.473   5.103 -15.282  1.00  0.00     0.047 C 
ATOM     10  C   UNL     1     -24.107   3.611 -15.223  1.00  0.00     0.014 C 
ATOM     11  C   UNL     1     -23.274   5.936 -14.794  1.00  0.00     0.014 C 
ENDBRANCH   1   9
TORSDOF 3
ENDMDL
