MODEL 1
REMARK VINA RESULT:    -4.837      0.000      0.000
REMARK INTER + INTRA:          -6.822
REMARK INTER:                  -6.533
REMARK INTRA:                  -0.289
REMARK UNBOUND:                -0.289
REMARK SMILES [NH3+]CCCC[C@H]([NH3+])C(=O)[O-]
REMARK SMILES IDX 4 1 3 2 2 3 1 4 5 8 6 9 7 10 8 14 9 15 10 16
REMARK H PARENT 1 5 1 6 1 7 7 11 7 12 7 13
REMARK Flexibility Score: inf
ROOT
ATOM      1  C   UNL     1      95.670 689.728 273.007  1.00  0.00     0.012 C 
ENDROOT
BRANCH   1   2
ATOM      2  C   UNL     1      95.096 688.540 273.791  1.00  0.00     0.061 C 
BRANCH   2   3
ATOM      3  C   UNL     1      93.652 688.246 273.365  1.00  0.00     0.258 C 
BRANCH   3   4
ATOM      4  N   UNL     1      93.409 686.805 273.302  1.00  0.00    -0.358 N 
ATOM      5  H   UNL     1      94.242 686.336 272.878  1.00  0.00     0.344 HD
ATOM      6  H   UNL     1      92.571 686.608 272.708  1.00  0.00     0.344 HD
ATOM      7  H   UNL     1      93.259 686.424 274.264  1.00  0.00     0.344 HD
ENDBRANCH   3   4
ENDBRANCH   2   3
ENDBRANCH   1   2
BRANCH   1   8
ATOM      8  C   UNL     1      94.547 690.555 272.362  1.00  0.00     0.072 C 
BRANCH   8   9
ATOM      9  C   UNL     1      94.587 692.042 272.784  1.00  0.00     0.227 C 
BRANCH   9  10
ATOM     10  N   UNL     1      95.852 692.684 272.399  1.00  0.00    -0.350 N 
ATOM     11  H   UNL     1      96.597 692.459 273.096  1.00  0.00     0.345 HD
ATOM     12  H   UNL     1      95.737 693.722 272.336  1.00  0.00     0.345 HD
ATOM     13  H   UNL     1      96.168 692.318 271.471  1.00  0.00     0.345 HD
ENDBRANCH   9  10
BRANCH   9  14
ATOM     14  C   UNL     1      94.378 692.152 274.270  1.00  0.00     0.099 C 
ATOM     15  O   UNL     1      95.253 692.693 275.000  1.00  0.00    -0.544 OA
ATOM     16  O   UNL     1      93.226 691.638 274.851  1.00  0.00    -0.544 OA
ENDBRANCH   9  14
ENDBRANCH   8   9
ENDBRANCH   1   8
TORSDOF 7
ENDMDL
MODEL 2
REMARK VINA RESULT:    -4.803      1.794      2.117
REMARK INTER + INTRA:          -6.776
REMARK INTER:                  -6.603
REMARK INTRA:                  -0.173
REMARK UNBOUND:                -0.289
REMARK SMILES [NH3+]CCCC[C@H]([NH3+])C(=O)[O-]
REMARK SMILES IDX 4 1 3 2 2 3 1 4 5 8 6 9 7 10 8 14 9 15 10 16
REMARK H PARENT 1 5 1 6 1 7 7 11 7 12 7 13
REMARK Flexibility Score: inf
ROOT
ATOM      1  C   UNL     1      95.378 690.473 272.283  1.00  0.00     0.012 C 
ENDROOT
BRANCH   1   2
ATOM      2  C   UNL     1      95.547 689.396 273.363  1.00  0.00     0.061 C 
BRANCH   2   3
ATOM      3  C   UNL     1      94.242 688.617 273.572  1.00  0.00     0.258 C 
BRANCH   3   4
ATOM      4  N   UNL     1      93.651 688.234 272.291  1.00  0.00    -0.358 N 
ATOM      5  H   UNL     1      92.618 688.392 272.330  1.00  0.00     0.344 HD
ATOM      6  H   UNL     1      93.831 687.221 272.100  1.00  0.00     0.344 HD
ATOM      7  H   UNL     1      94.053 688.816 271.521  1.00  0.00     0.344 HD
ENDBRANCH   3   4
ENDBRANCH   2   3
ENDBRANCH   1   2
BRANCH   1   8
ATOM      8  C   UNL     1      95.907 691.830 272.772  1.00  0.00     0.072 C 
BRANCH   8   9
ATOM      9  C   UNL     1      95.482 692.146 274.224  1.00  0.00     0.227 C 
BRANCH   9  10
ATOM     10  N   UNL     1      94.072 692.555 274.303  1.00  0.00    -0.350 N 
ATOM     11  H   UNL     1      93.497 691.787 274.718  1.00  0.00     0.345 HD
ATOM     12  H   UNL     1      93.701 692.795 273.355  1.00  0.00     0.345 HD
ATOM     13  H   UNL     1      93.979 693.390 274.928  1.00  0.00     0.345 HD
ENDBRANCH   9  10
BRANCH   9  14
ATOM     14  C   UNL     1      96.368 693.224 274.788  1.00  0.00     0.099 C 
ATOM     15  O   UNL     1      97.419 693.568 274.183  1.00  0.00    -0.544 OA
ATOM     16  O   UNL     1      96.042 693.833 275.993  1.00  0.00    -0.544 OA
ENDBRANCH   9  14
ENDBRANCH   8   9
ENDBRANCH   1   8
TORSDOF 7
ENDMDL
MODEL 3
REMARK VINA RESULT:    -4.763      2.180      2.764
REMARK INTER + INTRA:          -6.722
REMARK INTER:                  -6.548
REMARK INTRA:                  -0.174
REMARK UNBOUND:                -0.289
REMARK SMILES [NH3+]CCCC[C@H]([NH3+])C(=O)[O-]
REMARK SMILES IDX 4 1 3 2 2 3 1 4 5 8 6 9 7 10 8 14 9 15 10 16
REMARK H PARENT 1 5 1 6 1 7 7 11 7 12 7 13
REMARK Flexibility Score: inf
ROOT
ATOM      1  C   UNL     1      95.250 692.501 271.875  1.00  0.00     0.012 C 
ENDROOT
BRANCH   1   2
ATOM      2  C   UNL     1      94.835 691.024 271.916  1.00  0.00     0.061 C 
BRANCH   2   3
ATOM      3  C   UNL     1      95.199 690.387 273.264  1.00  0.00     0.258 C 
BRANCH   3   4
ATOM      4  N   UNL     1      95.677 689.017 273.081  1.00  0.00    -0.358 N 
ATOM      5  H   UNL     1      94.860 688.392 272.893  1.00  0.00     0.344 HD
ATOM      6  H   UNL     1      96.163 688.688 273.947  1.00  0.00     0.344 HD
ATOM      7  H   UNL     1      96.332 688.970 272.268  1.00  0.00     0.344 HD
ENDBRANCH   3   4
ENDBRANCH   2   3
ENDBRANCH   1   2
BRANCH   1   8
ATOM      8  C   UNL     1      96.223 692.830 273.018  1.00  0.00     0.072 C 
BRANCH   8   9
ATOM      9  C   UNL     1      95.989 694.238 273.612  1.00  0.00     0.227 C 
BRANCH   9  10
ATOM     10  N   UNL     1      97.240 695.004 273.706  1.00  0.00    -0.350 N 
ATOM     11  H   UNL     1      97.358 695.384 274.673  1.00  0.00     0.345 HD
ATOM     12  H   UNL     1      97.246 695.793 273.019  1.00  0.00     0.345 HD
ATOM     13  H   UNL     1      98.056 694.377 273.513  1.00  0.00     0.345 HD
ENDBRANCH   9  10
BRANCH   9  14
ATOM     14  C   UNL     1      95.351 694.116 274.969  1.00  0.00     0.099 C 
ATOM     15  O   UNL     1      96.062 693.950 275.997  1.00  0.00    -0.544 OA
ATOM     16  O   UNL     1      93.968 694.164 275.094  1.00  0.00    -0.544 OA
ENDBRANCH   9  14
ENDBRANCH   8   9
ENDBRANCH   1   8
TORSDOF 7
ENDMDL
MODEL 4
REMARK VINA RESULT:    -4.692      2.045      2.461
REMARK INTER + INTRA:          -6.627
REMARK INTER:                  -6.539
REMARK INTRA:                  -0.088
REMARK UNBOUND:                -0.289
REMARK SMILES [NH3+]CCCC[C@H]([NH3+])C(=O)[O-]
REMARK SMILES IDX 4 1 3 2 2 3 1 4 5 8 6 9 7 10 8 14 9 15 10 16
REMARK H PARENT 1 5 1 6 1 7 7 11 7 12 7 13
REMARK Flexibility Score: inf
ROOT
ATOM      1  C   UNL     1      95.295 691.626 272.357  1.00  0.00     0.012 C 
ENDROOT
BRANCH   1   2
ATOM      2  C   UNL     1      95.536 690.114 272.255  1.00  0.00     0.061 C 
BRANCH   2   3
ATOM      3  C   UNL     1      94.508 689.335 273.086  1.00  0.00     0.258 C 
BRANCH   3   4
ATOM      4  N   UNL     1      93.730 688.431 272.240  1.00  0.00    -0.358 N 
ATOM      5  H   UNL     1      93.222 688.991 271.518  1.00  0.00     0.344 HD
ATOM      6  H   UNL     1      93.031 687.910 272.818  1.00  0.00     0.344 HD
ATOM      7  H   UNL     1      94.366 687.754 271.758  1.00  0.00     0.344 HD
ENDBRANCH   3   4
ENDBRANCH   2   3
ENDBRANCH   1   2
BRANCH   1   8
ATOM      8  C   UNL     1      95.899 692.193 273.651  1.00  0.00     0.072 C 
BRANCH   8   9
ATOM      9  C   UNL     1      96.206 693.705 273.552  1.00  0.00     0.227 C 
BRANCH   9  10
ATOM     10  N   UNL     1      97.506 694.038 274.152  1.00  0.00    -0.350 N 
ATOM     11  H   UNL     1      97.386 694.769 274.888  1.00  0.00     0.345 HD
ATOM     12  H   UNL     1      98.174 694.382 273.425  1.00  0.00     0.345 HD
ATOM     13  H   UNL     1      97.911 693.190 274.615  1.00  0.00     0.345 HD
ENDBRANCH   9  10
BRANCH   9  14
ATOM     14  C   UNL     1      95.109 694.489 274.220  1.00  0.00     0.099 C 
ATOM     15  O   UNL     1      94.464 695.360 273.577  1.00  0.00    -0.544 OA
ATOM     16  O   UNL     1      94.815 694.271 275.560  1.00  0.00    -0.544 OA
ENDBRANCH   9  14
ENDBRANCH   8   9
ENDBRANCH   1   8
TORSDOF 7
ENDMDL
MODEL 5
REMARK VINA RESULT:    -4.678      2.676      4.495
REMARK INTER + INTRA:          -6.607
REMARK INTER:                  -6.417
REMARK INTRA:                  -0.190
REMARK UNBOUND:                -0.289
REMARK SMILES [NH3+]CCCC[C@H]([NH3+])C(=O)[O-]
REMARK SMILES IDX 4 1 3 2 2 3 1 4 5 8 6 9 7 10 8 14 9 15 10 16
REMARK H PARENT 1 5 1 6 1 7 7 11 7 12 7 13
REMARK Flexibility Score: inf
ROOT
ATOM      1  C   UNL     1      95.601 690.410 272.252  1.00  0.00     0.012 C 
ENDROOT
BRANCH   1   2
ATOM      2  C   UNL     1      95.157 691.879 272.244  1.00  0.00     0.061 C 
BRANCH   2   3
ATOM      3  C   UNL     1      94.333 692.212 273.494  1.00  0.00     0.258 C 
BRANCH   3   4
ATOM      4  N   UNL     1      94.810 693.444 274.121  1.00  0.00    -0.358 N 
ATOM      5  H   UNL     1      95.729 693.259 274.583  1.00  0.00     0.344 HD
ATOM      6  H   UNL     1      94.126 693.767 274.844  1.00  0.00     0.344 HD
ATOM      7  H   UNL     1      94.938 694.189 273.398  1.00  0.00     0.344 HD
ENDBRANCH   3   4
ENDBRANCH   2   3
ENDBRANCH   1   2
BRANCH   1   8
ATOM      8  C   UNL     1      94.871 689.621 273.350  1.00  0.00     0.072 C 
BRANCH   8   9
ATOM      9  C   UNL     1      93.948 688.521 272.779  1.00  0.00     0.227 C 
BRANCH   9  10
ATOM     10  N   UNL     1      92.676 689.074 272.294  1.00  0.00    -0.350 N 
ATOM     11  H   UNL     1      91.913 688.367 272.397  1.00  0.00     0.345 HD
ATOM     12  H   UNL     1      92.753 689.359 271.290  1.00  0.00     0.345 HD
ATOM     13  H   UNL     1      92.410 689.909 272.866  1.00  0.00     0.345 HD
ENDBRANCH   9  10
BRANCH   9  14
ATOM     14  C   UNL     1      93.693 687.477 273.833  1.00  0.00     0.099 C 
ATOM     15  O   UNL     1      92.518 687.096 274.083  1.00  0.00    -0.544 OA
ATOM     16  O   UNL     1      94.754 686.942 274.553  1.00  0.00    -0.544 OA
ENDBRANCH   9  14
ENDBRANCH   8   9
ENDBRANCH   1   8
TORSDOF 7
ENDMDL
MODEL 6
REMARK VINA RESULT:    -4.648     10.283     10.982
REMARK INTER + INTRA:          -6.567
REMARK INTER:                  -6.034
REMARK INTRA:                  -0.532
REMARK UNBOUND:                -0.289
REMARK SMILES [NH3+]CCCC[C@H]([NH3+])C(=O)[O-]
REMARK SMILES IDX 4 1 3 2 2 3 1 4 5 8 6 9 7 10 8 14 9 15 10 16
REMARK H PARENT 1 5 1 6 1 7 7 11 7 12 7 13
REMARK Flexibility Score: inf
ROOT
ATOM      1  C   UNL     1      87.742 688.982 282.159  1.00  0.00     0.012 C 
ENDROOT
BRANCH   1   2
ATOM      2  C   UNL     1      86.592 689.317 283.117  1.00  0.00     0.061 C 
BRANCH   2   3
ATOM      3  C   UNL     1      85.301 689.617 282.345  1.00  0.00     0.258 C 
BRANCH   3   4
ATOM      4  N   UNL     1      84.836 690.978 282.613  1.00  0.00    -0.358 N 
ATOM      5  H   UNL     1      83.997 690.936 283.237  1.00  0.00     0.344 HD
ATOM      6  H   UNL     1      84.569 691.449 281.718  1.00  0.00     0.344 HD
ATOM      7  H   UNL     1      85.586 691.526 283.093  1.00  0.00     0.344 HD
ENDBRANCH   3   4
ENDBRANCH   2   3
ENDBRANCH   1   2
BRANCH   1   8
ATOM      8  C   UNL     1      88.634 690.210 281.920  1.00  0.00     0.072 C 
BRANCH   8   9
ATOM      9  C   UNL     1      88.466 690.800 280.501  1.00  0.00     0.227 C 
BRANCH   9  10
ATOM     10  N   UNL     1      89.764 691.032 279.850  1.00  0.00    -0.350 N 
ATOM     11  H   UNL     1      90.298 691.769 280.364  1.00  0.00     0.345 HD
ATOM     12  H   UNL     1      89.633 691.327 278.855  1.00  0.00     0.345 HD
ATOM     13  H   UNL     1      90.335 690.155 279.874  1.00  0.00     0.345 HD
ENDBRANCH   9  10
BRANCH   9  14
ATOM     14  C   UNL     1      87.686 692.085 280.577  1.00  0.00     0.099 C 
ATOM     15  O   UNL     1      87.346 692.561 281.693  1.00  0.00    -0.544 OA
ATOM     16  O   UNL     1      87.317 692.744 279.411  1.00  0.00    -0.544 OA
ENDBRANCH   9  14
ENDBRANCH   8   9
ENDBRANCH   1   8
TORSDOF 7
ENDMDL
MODEL 7
REMARK VINA RESULT:    -4.597      8.890      9.703
REMARK INTER + INTRA:          -6.498
REMARK INTER:                  -6.106
REMARK INTRA:                  -0.391
REMARK UNBOUND:                -0.289
REMARK SMILES [NH3+]CCCC[C@H]([NH3+])C(=O)[O-]
REMARK SMILES IDX 4 1 3 2 2 3 1 4 5 8 6 9 7 10 8 14 9 15 10 16
REMARK H PARENT 1 5 1 6 1 7 7 11 7 12 7 13
REMARK Flexibility Score: inf
ROOT
ATOM      1  C   UNL     1      86.955 687.981 280.641  1.00  0.00     0.012 C 
ENDROOT
BRANCH   1   2
ATOM      2  C   UNL     1      87.673 686.639 280.452  1.00  0.00     0.061 C 
BRANCH   2   3
ATOM      3  C   UNL     1      88.991 686.604 281.237  1.00  0.00     0.258 C 
BRANCH   3   4
ATOM      4  N   UNL     1      90.138 686.576 280.330  1.00  0.00    -0.358 N 
ATOM      5  H   UNL     1      90.722 687.428 280.491  1.00  0.00     0.344 HD
ATOM      6  H   UNL     1      89.810 686.574 279.336  1.00  0.00     0.344 HD
ATOM      7  H   UNL     1      90.720 685.727 280.512  1.00  0.00     0.344 HD
ENDBRANCH   3   4
ENDBRANCH   2   3
ENDBRANCH   1   2
BRANCH   1   8
ATOM      8  C   UNL     1      87.800 688.941 281.493  1.00  0.00     0.072 C 
BRANCH   8   9
ATOM      9  C   UNL     1      87.858 690.368 280.901  1.00  0.00     0.227 C 
BRANCH   9  10
ATOM     10  N   UNL     1      86.902 690.540 279.798  1.00  0.00    -0.350 N 
ATOM     11  H   UNL     1      86.871 689.677 279.210  1.00  0.00     0.345 HD
ATOM     12  H   UNL     1      87.165 691.358 279.202  1.00  0.00     0.345 HD
ATOM     13  H   UNL     1      85.940 690.693 280.182  1.00  0.00     0.345 HD
ENDBRANCH   9  10
BRANCH   9  14
ATOM     14  C   UNL     1      89.256 690.663 280.428  1.00  0.00     0.099 C 
ATOM     15  O   UNL     1      89.491 691.686 279.730  1.00  0.00    -0.544 OA
ATOM     16  O   UNL     1      90.294 689.796 280.743  1.00  0.00    -0.544 OA
ENDBRANCH   9  14
ENDBRANCH   8   9
ENDBRANCH   1   8
TORSDOF 7
ENDMDL
MODEL 8
REMARK VINA RESULT:    -4.578      2.209      4.135
REMARK INTER + INTRA:          -6.473
REMARK INTER:                  -5.979
REMARK INTRA:                  -0.494
REMARK UNBOUND:                -0.289
REMARK SMILES [NH3+]CCCC[C@H]([NH3+])C(=O)[O-]
REMARK SMILES IDX 4 1 3 2 2 3 1 4 5 8 6 9 7 10 8 14 9 15 10 16
REMARK H PARENT 1 5 1 6 1 7 7 11 7 12 7 13
REMARK Flexibility Score: inf
ROOT
ATOM      1  C   UNL     1      95.967 692.835 272.250  1.00  0.00     0.012 C 
ENDROOT
BRANCH   1   2
ATOM      2  C   UNL     1      96.192 693.491 273.619  1.00  0.00     0.061 C 
BRANCH   2   3
ATOM      3  C   UNL     1      95.327 694.748 273.776  1.00  0.00     0.258 C 
BRANCH   3   4
ATOM      4  N   UNL     1      94.158 694.476 274.612  1.00  0.00    -0.358 N 
ATOM      5  H   UNL     1      93.452 695.234 274.469  1.00  0.00     0.344 HD
ATOM      6  H   UNL     1      94.435 694.458 275.621  1.00  0.00     0.344 HD
ATOM      7  H   UNL     1      93.730 693.560 274.345  1.00  0.00     0.344 HD
ENDBRANCH   3   4
ENDBRANCH   2   3
ENDBRANCH   1   2
BRANCH   1   8
ATOM      8  C   UNL     1      94.961 691.678 272.354  1.00  0.00     0.072 C 
BRANCH   8   9
ATOM      9  C   UNL     1      95.312 690.684 273.485  1.00  0.00     0.227 C 
BRANCH   9  10
ATOM     10  N   UNL     1      95.727 689.378 272.954  1.00  0.00    -0.350 N 
ATOM     11  H   UNL     1      95.215 689.170 272.067  1.00  0.00     0.345 HD
ATOM     12  H   UNL     1      95.543 688.618 273.649  1.00  0.00     0.345 HD
ATOM     13  H   UNL     1      96.750 689.395 272.729  1.00  0.00     0.345 HD
ENDBRANCH   9  10
BRANCH   9  14
ATOM     14  C   UNL     1      94.128 690.521 274.400  1.00  0.00     0.099 C 
ATOM     15  O   UNL     1      93.528 691.531 274.855  1.00  0.00    -0.544 OA
ATOM     16  O   UNL     1      93.703 689.250 274.767  1.00  0.00    -0.544 OA
ENDBRANCH   9  14
ENDBRANCH   8   9
ENDBRANCH   1   8
TORSDOF 7
ENDMDL
