MODEL 1
REMARK VINA RESULT:    -3.587      0.000      0.000
REMARK INTER + INTRA:          -8.305
REMARK INTER:                  -6.523
REMARK INTRA:                  -1.782
REMARK UNBOUND:                -1.782
REMARK SMILES CCCCCCCCCCCCCC[C@@H](C)C(=O)[O-]
REMARK SMILES IDX 9 1 10 2 11 3 12 4 13 5 14 6 15 7 16 8 17 9 18 10 19 11 8 12
REMARK SMILES IDX 7 13 6 14 5 15 4 16 3 17 2 18 1 19
REMARK H PARENT
REMARK Flexibility Score: inf
ROOT
ATOM      1  C   UNL     1      48.311  34.205  87.547  1.00  0.00     0.000 C 
ENDROOT
BRANCH   1   2
ATOM      2  C   UNL     1      48.610  32.731  87.885  1.00  0.00     0.000 C 
BRANCH   2   3
ATOM      3  C   UNL     1      47.549  32.032  88.757  1.00  0.00     0.000 C 
BRANCH   3   4
ATOM      4  C   UNL     1      48.116  31.106  89.850  1.00  0.00     0.000 C 
BRANCH   4   5
ATOM      5  C   UNL     1      47.188  30.882  91.061  1.00  0.00     0.001 C 
BRANCH   5   6
ATOM      6  C   UNL     1      45.771  31.474  90.919  1.00  0.00     0.009 C 
BRANCH   6   7
ATOM      7  C   UNL     1      44.631  30.497  91.286  1.00  0.00     0.032 C 
ATOM      8  C   UNL     1      44.985  29.075  90.843  1.00  0.00     0.014 C 
BRANCH   7   9
ATOM      9  C   UNL     1      44.348  30.513  92.764  1.00  0.00     0.044 C 
ATOM     10  O   UNL     1      44.427  29.450  93.434  1.00  0.00    -0.550 OA
ATOM     11  O   UNL     1      43.997  31.698  93.399  1.00  0.00    -0.550 OA
ENDBRANCH   7   9
ENDBRANCH   6   7
ENDBRANCH   5   6
ENDBRANCH   4   5
ENDBRANCH   3   4
ENDBRANCH   2   3
ENDBRANCH   1   2
BRANCH   1  12
ATOM     12  C   UNL     1      49.533  35.141  87.597  1.00  0.00     0.000 C 
BRANCH  12  13
ATOM     13  C   UNL     1      50.856  34.383  87.795  1.00  0.00    -0.000 C 
BRANCH  13  14
ATOM     14  C   UNL     1      51.745  34.417  86.542  1.00  0.00    -0.000 C 
BRANCH  14  15
ATOM     15  C   UNL     1      51.810  33.054  85.830  1.00  0.00    -0.000 C 
BRANCH  15  16
ATOM     16  C   UNL     1      50.687  32.867  84.793  1.00  0.00    -0.000 C 
BRANCH  16  17
ATOM     17  C   UNL     1      50.283  34.147  84.039  1.00  0.00    -0.000 C 
BRANCH  17  18
ATOM     18  C   UNL     1      48.769  34.254  83.808  1.00  0.00    -0.003 C 
ATOM     19  C   UNL     1      48.075  32.922  84.084  1.00  0.00     0.004 C 
ENDBRANCH  17  18
ENDBRANCH  16  17
ENDBRANCH  15  16
ENDBRANCH  14  15
ENDBRANCH  13  14
ENDBRANCH  12  13
ENDBRANCH   1  12
TORSDOF 14
ENDMDL
MODEL 2
REMARK VINA RESULT:    -3.576      3.566      7.591
REMARK INTER + INTRA:          -8.284
REMARK INTER:                  -6.003
REMARK INTRA:                  -2.281
REMARK UNBOUND:                -1.782
REMARK SMILES CCCCCCCCCCCCCC[C@@H](C)C(=O)[O-]
REMARK SMILES IDX 9 1 10 2 11 3 12 4 13 5 14 6 15 7 16 8 17 9 18 10 19 11 8 12
REMARK SMILES IDX 7 13 6 14 5 15 4 16 3 17 2 18 1 19
REMARK H PARENT
REMARK Flexibility Score: inf
ROOT
ATOM      1  C   UNL     1      48.386  28.876  89.455  1.00  0.00     0.000 C 
ENDROOT
BRANCH   1   2
ATOM      2  C   UNL     1      48.583  29.374  90.901  1.00  0.00     0.000 C 
BRANCH   2   3
ATOM      3  C   UNL     1      49.292  30.736  91.033  1.00  0.00     0.000 C 
BRANCH   3   4
ATOM      4  C   UNL     1      50.496  30.933  90.091  1.00  0.00     0.000 C 
BRANCH   4   5
ATOM      5  C   UNL     1      50.626  32.346  89.486  1.00  0.00     0.001 C 
BRANCH   5   6
ATOM      6  C   UNL     1      50.632  32.399  87.944  1.00  0.00     0.009 C 
BRANCH   6   7
ATOM      7  C   UNL     1      49.679  33.454  87.338  1.00  0.00     0.032 C 
ATOM      8  C   UNL     1      48.258  33.258  87.874  1.00  0.00     0.014 C 
BRANCH   7   9
ATOM      9  C   UNL     1      50.145  34.853  87.637  1.00  0.00     0.044 C 
ATOM     10  O   UNL     1      49.312  35.744  87.948  1.00  0.00    -0.550 OA
ATOM     11  O   UNL     1      51.496  35.172  87.571  1.00  0.00    -0.550 OA
ENDBRANCH   7   9
ENDBRANCH   6   7
ENDBRANCH   5   6
ENDBRANCH   4   5
ENDBRANCH   3   4
ENDBRANCH   2   3
ENDBRANCH   1   2
BRANCH   1  12
ATOM     12  C   UNL     1      47.398  29.705  88.614  1.00  0.00     0.000 C 
BRANCH  12  13
ATOM     13  C   UNL     1      45.932  29.312  88.861  1.00  0.00    -0.000 C 
BRANCH  13  14
ATOM     14  C   UNL     1      45.042  30.528  89.165  1.00  0.00    -0.000 C 
BRANCH  14  15
ATOM     15  C   UNL     1      45.764  31.588  90.014  1.00  0.00    -0.000 C 
BRANCH  15  16
ATOM     16  C   UNL     1      45.521  31.413  91.524  1.00  0.00    -0.000 C 
BRANCH  16  17
ATOM     17  C   UNL     1      44.192  30.725  91.889  1.00  0.00    -0.000 C 
BRANCH  17  18
ATOM     18  C   UNL     1      44.358  29.628  92.951  1.00  0.00    -0.003 C 
ATOM     19  C   UNL     1      45.347  28.561  92.490  1.00  0.00     0.004 C 
ENDBRANCH  17  18
ENDBRANCH  16  17
ENDBRANCH  15  16
ENDBRANCH  14  15
ENDBRANCH  13  14
ENDBRANCH  12  13
ENDBRANCH   1  12
TORSDOF 14
ENDMDL
MODEL 3
REMARK VINA RESULT:    -3.540      1.709      3.148
REMARK INTER + INTRA:          -8.220
REMARK INTER:                  -5.999
REMARK INTRA:                  -2.220
REMARK UNBOUND:                -1.782
REMARK SMILES CCCCCCCCCCCCCC[C@@H](C)C(=O)[O-]
REMARK SMILES IDX 9 1 10 2 11 3 12 4 13 5 14 6 15 7 16 8 17 9 18 10 19 11 8 12
REMARK SMILES IDX 7 13 6 14 5 15 4 16 3 17 2 18 1 19
REMARK H PARENT
REMARK Flexibility Score: inf
ROOT
ATOM      1  C   UNL     1      51.126  31.126  89.567  1.00  0.00     0.000 C 
ENDROOT
BRANCH   1   2
ATOM      2  C   UNL     1      51.097  31.469  91.070  1.00  0.00     0.000 C 
BRANCH   2   3
ATOM      3  C   UNL     1      49.869  30.938  91.837  1.00  0.00     0.000 C 
BRANCH   3   4
ATOM      4  C   UNL     1      49.199  29.700  91.212  1.00  0.00     0.000 C 
BRANCH   4   5
ATOM      5  C   UNL     1      47.685  29.837  90.957  1.00  0.00     0.001 C 
BRANCH   5   6
ATOM      6  C   UNL     1      47.170  31.286  90.828  1.00  0.00     0.009 C 
BRANCH   6   7
ATOM      7  C   UNL     1      45.684  31.401  90.420  1.00  0.00     0.032 C 
ATOM      8  C   UNL     1      45.427  30.632  89.121  1.00  0.00     0.014 C 
BRANCH   7   9
ATOM      9  C   UNL     1      44.774  30.887  91.503  1.00  0.00     0.044 C 
ATOM     10  O   UNL     1      44.502  31.612  92.495  1.00  0.00    -0.550 OA
ATOM     11  O   UNL     1      44.229  29.612  91.416  1.00  0.00    -0.550 OA
ENDBRANCH   7   9
ENDBRANCH   6   7
ENDBRANCH   5   6
ENDBRANCH   4   5
ENDBRANCH   3   4
ENDBRANCH   2   3
ENDBRANCH   1   2
BRANCH   1  12
ATOM     12  C   UNL     1      50.282  32.054  88.674  1.00  0.00     0.000 C 
BRANCH  12  13
ATOM     13  C   UNL     1      49.233  31.291  87.848  1.00  0.00    -0.000 C 
BRANCH  13  14
ATOM     14  C   UNL     1      48.192  32.226  87.214  1.00  0.00    -0.000 C 
BRANCH  14  15
ATOM     15  C   UNL     1      48.343  33.682  87.686  1.00  0.00    -0.000 C 
BRANCH  15  16
ATOM     16  C   UNL     1      48.572  34.667  86.525  1.00  0.00    -0.000 C 
BRANCH  16  17
ATOM     17  C   UNL     1      49.708  34.277  85.561  1.00  0.00    -0.000 C 
BRANCH  17  18
ATOM     18  C   UNL     1      51.103  34.440  86.182  1.00  0.00    -0.003 C 
ATOM     19  C   UNL     1      52.117  33.522  85.504  1.00  0.00     0.004 C 
ENDBRANCH  17  18
ENDBRANCH  16  17
ENDBRANCH  15  16
ENDBRANCH  14  15
ENDBRANCH  13  14
ENDBRANCH  12  13
ENDBRANCH   1  12
TORSDOF 14
ENDMDL
MODEL 4
REMARK VINA RESULT:    -3.517      3.898      7.008
REMARK INTER + INTRA:          -8.178
REMARK INTER:                  -6.241
REMARK INTRA:                  -1.937
REMARK UNBOUND:                -1.782
REMARK SMILES CCCCCCCCCCCCCC[C@@H](C)C(=O)[O-]
REMARK SMILES IDX 9 1 10 2 11 3 12 4 13 5 14 6 15 7 16 8 17 9 18 10 19 11 8 12
REMARK SMILES IDX 7 13 6 14 5 15 4 16 3 17 2 18 1 19
REMARK H PARENT
REMARK Flexibility Score: inf
ROOT
ATOM      1  C   UNL     1      52.793  31.823  91.491  1.00  0.00     0.000 C 
ENDROOT
BRANCH   1   2
ATOM      2  C   UNL     1      53.479  33.121  91.020  1.00  0.00     0.000 C 
BRANCH   2   3
ATOM      3  C   UNL     1      53.294  33.453  89.526  1.00  0.00     0.000 C 
BRANCH   3   4
ATOM      4  C   UNL     1      53.121  32.229  88.607  1.00  0.00     0.000 C 
BRANCH   4   5
ATOM      5  C   UNL     1      51.739  32.110  87.933  1.00  0.00     0.001 C 
BRANCH   5   6
ATOM      6  C   UNL     1      50.610  32.917  88.606  1.00  0.00     0.009 C 
BRANCH   6   7
ATOM      7  C   UNL     1      49.737  33.733  87.625  1.00  0.00     0.032 C 
ATOM      8  C   UNL     1      48.262  33.355  87.782  1.00  0.00     0.014 C 
BRANCH   7   9
ATOM      9  C   UNL     1      49.907  35.213  87.838  1.00  0.00     0.044 C 
ATOM     10  O   UNL     1      51.052  35.694  88.041  1.00  0.00    -0.550 OA
ATOM     11  O   UNL     1      48.803  36.057  87.813  1.00  0.00    -0.550 OA
ENDBRANCH   7   9
ENDBRANCH   6   7
ENDBRANCH   5   6
ENDBRANCH   4   5
ENDBRANCH   3   4
ENDBRANCH   2   3
ENDBRANCH   1   2
BRANCH   1  12
ATOM     12  C   UNL     1      51.624  32.027  92.472  1.00  0.00     0.000 C 
BRANCH  12  13
ATOM     13  C   UNL     1      50.430  31.104  92.175  1.00  0.00    -0.000 C 
BRANCH  13  14
ATOM     14  C   UNL     1      50.674  30.202  90.955  1.00  0.00    -0.000 C 
BRANCH  14  15
ATOM     15  C   UNL     1      49.368  29.797  90.252  1.00  0.00    -0.000 C 
BRANCH  15  16
ATOM     16  C   UNL     1      48.120  30.042  91.120  1.00  0.00    -0.000 C 
BRANCH  16  17
ATOM     17  C   UNL     1      46.783  29.998  90.357  1.00  0.00    -0.000 C 
BRANCH  17  18
ATOM     18  C   UNL     1      46.130  31.381  90.213  1.00  0.00    -0.003 C 
ATOM     19  C   UNL     1      44.698  31.371  90.741  1.00  0.00     0.004 C 
ENDBRANCH  17  18
ENDBRANCH  16  17
ENDBRANCH  15  16
ENDBRANCH  14  15
ENDBRANCH  13  14
ENDBRANCH  12  13
ENDBRANCH   1  12
TORSDOF 14
ENDMDL
MODEL 5
REMARK VINA RESULT:    -3.504      1.780      2.865
REMARK INTER + INTRA:          -8.154
REMARK INTER:                  -6.087
REMARK INTRA:                  -2.067
REMARK UNBOUND:                -1.782
REMARK SMILES CCCCCCCCCCCCCC[C@@H](C)C(=O)[O-]
REMARK SMILES IDX 9 1 10 2 11 3 12 4 13 5 14 6 15 7 16 8 17 9 18 10 19 11 8 12
REMARK SMILES IDX 7 13 6 14 5 15 4 16 3 17 2 18 1 19
REMARK H PARENT
REMARK Flexibility Score: inf
ROOT
ATOM      1  C   UNL     1      52.848  31.879  88.509  1.00  0.00     0.000 C 
ENDROOT
BRANCH   1   2
ATOM      2  C   UNL     1      51.469  31.296  88.877  1.00  0.00     0.000 C 
BRANCH   2   3
ATOM      3  C   UNL     1      50.788  31.948  90.097  1.00  0.00     0.000 C 
BRANCH   3   4
ATOM      4  C   UNL     1      49.851  31.018  90.890  1.00  0.00     0.000 C 
BRANCH   4   5
ATOM      5  C   UNL     1      48.514  30.692  90.195  1.00  0.00     0.001 C 
BRANCH   5   6
ATOM      6  C   UNL     1      47.319  30.468  91.145  1.00  0.00     0.009 C 
BRANCH   6   7
ATOM      7  C   UNL     1      46.058  31.288  90.788  1.00  0.00     0.032 C 
ATOM      8  C   UNL     1      45.631  31.008  89.345  1.00  0.00     0.014 C 
BRANCH   7   9
ATOM      9  C   UNL     1      44.919  30.980  91.723  1.00  0.00     0.044 C 
ATOM     10  O   UNL     1      44.269  29.910  91.596  1.00  0.00    -0.550 OA
ATOM     11  O   UNL     1      44.577  31.874  92.731  1.00  0.00    -0.550 OA
ENDBRANCH   7   9
ENDBRANCH   6   7
ENDBRANCH   5   6
ENDBRANCH   4   5
ENDBRANCH   3   4
ENDBRANCH   2   3
ENDBRANCH   1   2
BRANCH   1  12
ATOM     12  C   UNL     1      53.111  33.302  89.035  1.00  0.00     0.000 C 
BRANCH  12  13
ATOM     13  C   UNL     1      53.483  34.290  87.917  1.00  0.00    -0.000 C 
BRANCH  13  14
ATOM     14  C   UNL     1      52.309  34.569  86.965  1.00  0.00    -0.000 C 
BRANCH  14  15
ATOM     15  C   UNL     1      51.054  35.061  87.706  1.00  0.00    -0.000 C 
BRANCH  15  16
ATOM     16  C   UNL     1      49.748  34.712  86.969  1.00  0.00    -0.000 C 
BRANCH  16  17
ATOM     17  C   UNL     1      48.703  33.969  87.823  1.00  0.00    -0.000 C 
BRANCH  17  18
ATOM     18  C   UNL     1      48.239  32.651  87.187  1.00  0.00    -0.003 C 
ATOM     19  C   UNL     1      49.232  32.170  86.132  1.00  0.00     0.004 C 
ENDBRANCH  17  18
ENDBRANCH  16  17
ENDBRANCH  15  16
ENDBRANCH  14  15
ENDBRANCH  13  14
ENDBRANCH  12  13
ENDBRANCH   1  12
TORSDOF 14
ENDMDL
MODEL 6
REMARK VINA RESULT:    -3.441      1.902      3.345
REMARK INTER + INTRA:          -8.039
REMARK INTER:                  -5.674
REMARK INTRA:                  -2.365
REMARK UNBOUND:                -1.782
REMARK SMILES CCCCCCCCCCCCCC[C@@H](C)C(=O)[O-]
REMARK SMILES IDX 9 1 10 2 11 3 12 4 13 5 14 6 15 7 16 8 17 9 18 10 19 11 8 12
REMARK SMILES IDX 7 13 6 14 5 15 4 16 3 17 2 18 1 19
REMARK H PARENT
REMARK Flexibility Score: inf
ROOT
ATOM      1  C   UNL     1      53.036  33.463  88.503  1.00  0.00     0.000 C 
ENDROOT
BRANCH   1   2
ATOM      2  C   UNL     1      52.647  32.598  89.717  1.00  0.00     0.000 C 
BRANCH   2   3
ATOM      3  C   UNL     1      51.159  32.200  89.787  1.00  0.00     0.000 C 
BRANCH   3   4
ATOM      4  C   UNL     1      50.836  31.066  90.779  1.00  0.00     0.000 C 
BRANCH   4   5
ATOM      5  C   UNL     1      49.569  30.252  90.449  1.00  0.00     0.001 C 
BRANCH   5   6
ATOM      6  C   UNL     1      48.246  30.866  90.954  1.00  0.00     0.009 C 
BRANCH   6   7
ATOM      7  C   UNL     1      46.975  30.175  90.410  1.00  0.00     0.032 C 
ATOM      8  C   UNL     1      47.352  29.033  89.463  1.00  0.00     0.014 C 
BRANCH   7   9
ATOM      9  C   UNL     1      46.116  29.646  91.527  1.00  0.00     0.044 C 
ATOM     10  O   UNL     1      45.126  30.309  91.930  1.00  0.00    -0.550 OA
ATOM     11  O   UNL     1      46.410  28.424  92.120  1.00  0.00    -0.550 OA
ENDBRANCH   7   9
ENDBRANCH   6   7
ENDBRANCH   5   6
ENDBRANCH   4   5
ENDBRANCH   3   4
ENDBRANCH   2   3
ENDBRANCH   1   2
BRANCH   1  12
ATOM     12  C   UNL     1      52.196  33.216  87.236  1.00  0.00     0.000 C 
BRANCH  12  13
ATOM     13  C   UNL     1      51.475  34.483  86.744  1.00  0.00    -0.000 C 
BRANCH  13  14
ATOM     14  C   UNL     1      50.871  35.299  87.897  1.00  0.00    -0.000 C 
BRANCH  14  15
ATOM     15  C   UNL     1      49.362  35.542  87.718  1.00  0.00    -0.000 C 
BRANCH  15  16
ATOM     16  C   UNL     1      48.647  34.374  87.015  1.00  0.00    -0.000 C 
BRANCH  16  17
ATOM     17  C   UNL     1      48.157  33.257  87.954  1.00  0.00    -0.000 C 
BRANCH  17  18
ATOM     18  C   UNL     1      47.857  31.944  87.217  1.00  0.00    -0.003 C 
ATOM     19  C   UNL     1      49.146  31.225  86.827  1.00  0.00     0.004 C 
ENDBRANCH  17  18
ENDBRANCH  16  17
ENDBRANCH  15  16
ENDBRANCH  14  15
ENDBRANCH  13  14
ENDBRANCH  12  13
ENDBRANCH   1  12
TORSDOF 14
ENDMDL
MODEL 7
REMARK VINA RESULT:    -3.435      4.811      6.934
REMARK INTER + INTRA:          -8.029
REMARK INTER:                  -5.203
REMARK INTRA:                  -2.825
REMARK UNBOUND:                -1.782
REMARK SMILES CCCCCCCCCCCCCC[C@@H](C)C(=O)[O-]
REMARK SMILES IDX 9 1 10 2 11 3 12 4 13 5 14 6 15 7 16 8 17 9 18 10 19 11 8 12
REMARK SMILES IDX 7 13 6 14 5 15 4 16 3 17 2 18 1 19
REMARK H PARENT
REMARK Flexibility Score: inf
ROOT
ATOM      1  C   UNL     1      52.564  34.265  86.093  1.00  0.00     0.000 C 
ENDROOT
BRANCH   1   2
ATOM      2  C   UNL     1      52.551  34.959  87.469  1.00  0.00     0.000 C 
BRANCH   2   3
ATOM      3  C   UNL     1      51.150  35.283  88.024  1.00  0.00     0.000 C 
BRANCH   3   4
ATOM      4  C   UNL     1      49.981  34.907  87.094  1.00  0.00     0.000 C 
BRANCH   4   5
ATOM      5  C   UNL     1      48.941  33.949  87.709  1.00  0.00     0.001 C 
BRANCH   5   6
ATOM      6  C   UNL     1      48.432  32.840  86.764  1.00  0.00     0.009 C 
BRANCH   6   7
ATOM      7  C   UNL     1      49.116  32.819  85.378  1.00  0.00     0.032 C 
ATOM      8  C   UNL     1      49.516  31.390  85.002  1.00  0.00     0.014 C 
BRANCH   7   9
ATOM      9  C   UNL     1      48.220  33.392  84.313  1.00  0.00     0.044 C 
ATOM     10  O   UNL     1      48.252  34.623  84.056  1.00  0.00    -0.550 OA
ATOM     11  O   UNL     1      47.352  32.567  83.607  1.00  0.00    -0.550 OA
ENDBRANCH   7   9
ENDBRANCH   6   7
ENDBRANCH   5   6
ENDBRANCH   4   5
ENDBRANCH   3   4
ENDBRANCH   2   3
ENDBRANCH   1   2
BRANCH   1  12
ATOM     12  C   UNL     1      52.816  32.747  86.136  1.00  0.00     0.000 C 
BRANCH  12  13
ATOM     13  C   UNL     1      52.901  32.198  87.570  1.00  0.00    -0.000 C 
BRANCH  13  14
ATOM     14  C   UNL     1      51.739  31.249  87.905  1.00  0.00    -0.000 C 
BRANCH  14  15
ATOM     15  C   UNL     1      51.223  31.436  89.342  1.00  0.00    -0.000 C 
BRANCH  15  16
ATOM     16  C   UNL     1      52.081  32.414  90.164  1.00  0.00    -0.000 C 
BRANCH  16  17
ATOM     17  C   UNL     1      53.139  31.747  91.064  1.00  0.00    -0.000 C 
BRANCH  17  18
ATOM     18  C   UNL     1      54.424  32.577  91.193  1.00  0.00    -0.003 C 
ATOM     19  C   UNL     1      54.214  33.999  90.681  1.00  0.00     0.004 C 
ENDBRANCH  17  18
ENDBRANCH  16  17
ENDBRANCH  15  16
ENDBRANCH  14  15
ENDBRANCH  13  14
ENDBRANCH  12  13
ENDBRANCH   1  12
TORSDOF 14
ENDMDL
MODEL 8
REMARK VINA RESULT:    -3.425      2.037      3.504
REMARK INTER + INTRA:          -8.010
REMARK INTER:                  -5.430
REMARK INTRA:                  -2.580
REMARK UNBOUND:                -1.782
REMARK SMILES CCCCCCCCCCCCCC[C@@H](C)C(=O)[O-]
REMARK SMILES IDX 9 1 10 2 11 3 12 4 13 5 14 6 15 7 16 8 17 9 18 10 19 11 8 12
REMARK SMILES IDX 7 13 6 14 5 15 4 16 3 17 2 18 1 19
REMARK H PARENT
REMARK Flexibility Score: inf
ROOT
ATOM      1  C   UNL     1      52.971  33.269  86.980  1.00  0.00     0.000 C 
ENDROOT
BRANCH   1   2
ATOM      2  C   UNL     1      52.200  32.100  86.336  1.00  0.00     0.000 C 
BRANCH   2   3
ATOM      3  C   UNL     1      51.389  31.232  87.318  1.00  0.00     0.000 C 
BRANCH   3   4
ATOM      4  C   UNL     1      51.822  31.344  88.792  1.00  0.00     0.000 C 
BRANCH   4   5
ATOM      5  C   UNL     1      50.668  31.523  89.799  1.00  0.00     0.001 C 
BRANCH   5   6
ATOM      6  C   UNL     1      49.341  30.841  89.403  1.00  0.00     0.009 C 
BRANCH   6   7
ATOM      7  C   UNL     1      48.241  30.910  90.487  1.00  0.00     0.032 C 
ATOM      8  C   UNL     1      46.949  31.483  89.900  1.00  0.00     0.014 C 
BRANCH   7   9
ATOM      9  C   UNL     1      47.971  29.554  91.082  1.00  0.00     0.044 C 
ATOM     10  O   UNL     1      48.927  28.795  91.385  1.00  0.00    -0.550 OA
ATOM     11  O   UNL     1      46.665  29.132  91.303  1.00  0.00    -0.550 OA
ENDBRANCH   7   9
ENDBRANCH   6   7
ENDBRANCH   5   6
ENDBRANCH   4   5
ENDBRANCH   3   4
ENDBRANCH   2   3
ENDBRANCH   1   2
BRANCH   1  12
ATOM     12  C   UNL     1      52.322  34.653  86.795  1.00  0.00     0.000 C 
BRANCH  12  13
ATOM     13  C   UNL     1      51.541  35.114  88.037  1.00  0.00    -0.000 C 
BRANCH  13  14
ATOM     14  C   UNL     1      50.064  35.406  87.727  1.00  0.00    -0.000 C 
BRANCH  14  15
ATOM     15  C   UNL     1      49.163  34.180  87.948  1.00  0.00    -0.000 C 
BRANCH  15  16
ATOM     16  C   UNL     1      48.550  33.643  86.642  1.00  0.00    -0.000 C 
BRANCH  16  17
ATOM     17  C   UNL     1      48.617  34.616  85.449  1.00  0.00    -0.000 C 
BRANCH  17  18
ATOM     18  C   UNL     1      48.940  33.915  84.122  1.00  0.00    -0.003 C 
ATOM     19  C   UNL     1      50.397  34.138  83.723  1.00  0.00     0.004 C 
ENDBRANCH  17  18
ENDBRANCH  16  17
ENDBRANCH  15  16
ENDBRANCH  14  15
ENDBRANCH  13  14
ENDBRANCH  12  13
ENDBRANCH   1  12
TORSDOF 14
ENDMDL
MODEL 9
REMARK VINA RESULT:    -3.400      3.758      6.793
REMARK INTER + INTRA:          -7.965
REMARK INTER:                  -5.905
REMARK INTRA:                  -2.060
REMARK UNBOUND:                -1.782
REMARK SMILES CCCCCCCCCCCCCC[C@@H](C)C(=O)[O-]
REMARK SMILES IDX 9 1 10 2 11 3 12 4 13 5 14 6 15 7 16 8 17 9 18 10 19 11 8 12
REMARK SMILES IDX 7 13 6 14 5 15 4 16 3 17 2 18 1 19
REMARK H PARENT
REMARK Flexibility Score: inf
ROOT
ATOM      1  C   UNL     1      49.225  34.752  87.746  1.00  0.00     0.000 C 
ENDROOT
BRANCH   1   2
ATOM      2  C   UNL     1      50.669  35.291  87.762  1.00  0.00     0.000 C 
BRANCH   2   3
ATOM      3  C   UNL     1      51.622  34.637  86.741  1.00  0.00     0.000 C 
BRANCH   3   4
ATOM      4  C   UNL     1      52.866  33.966  87.353  1.00  0.00     0.000 C 
BRANCH   4   5
ATOM      5  C   UNL     1      52.824  32.425  87.390  1.00  0.00     0.001 C 
BRANCH   5   6
ATOM      6  C   UNL     1      51.839  31.821  88.413  1.00  0.00     0.009 C 
BRANCH   6   7
ATOM      7  C   UNL     1      51.964  32.403  89.839  1.00  0.00     0.032 C 
ATOM      8  C   UNL     1      50.872  31.829  90.746  1.00  0.00     0.014 C 
BRANCH   7   9
ATOM      9  C   UNL     1      53.318  32.120  90.432  1.00  0.00     0.044 C 
ATOM     10  O   UNL     1      53.776  30.949  90.429  1.00  0.00    -0.550 OA
ATOM     11  O   UNL     1      54.070  33.149  90.987  1.00  0.00    -0.550 OA
ENDBRANCH   7   9
ENDBRANCH   6   7
ENDBRANCH   5   6
ENDBRANCH   4   5
ENDBRANCH   3   4
ENDBRANCH   2   3
ENDBRANCH   1   2
BRANCH   1  12
ATOM     12  C   UNL     1      48.820  34.021  86.453  1.00  0.00     0.000 C 
BRANCH  12  13
ATOM     13  C   UNL     1      48.261  32.613  86.715  1.00  0.00    -0.000 C 
BRANCH  13  14
ATOM     14  C   UNL     1      47.996  32.355  88.207  1.00  0.00    -0.000 C 
BRANCH  14  15
ATOM     15  C   UNL     1      48.092  30.864  88.572  1.00  0.00    -0.000 C 
BRANCH  15  16
ATOM     16  C   UNL     1      47.289  30.504  89.835  1.00  0.00    -0.000 C 
BRANCH  16  17
ATOM     17  C   UNL     1      46.362  31.620  90.351  1.00  0.00    -0.000 C 
BRANCH  17  18
ATOM     18  C   UNL     1      44.890  31.189  90.425  1.00  0.00    -0.003 C 
ATOM     19  C   UNL     1      44.438  31.020  91.873  1.00  0.00     0.004 C 
ENDBRANCH  17  18
ENDBRANCH  16  17
ENDBRANCH  15  16
ENDBRANCH  14  15
ENDBRANCH  13  14
ENDBRANCH  12  13
ENDBRANCH   1  12
TORSDOF 14
ENDMDL
