MODEL 1
REMARK VINA RESULT:    -3.761      0.000      0.000
REMARK INTER + INTRA:          -4.005
REMARK INTER:                  -3.981
REMARK INTRA:                  -0.024
REMARK UNBOUND:                -0.024
REMARK SMILES O=C([O-])[C@@H]1CCC[NH2+]1
REMARK SMILES IDX 4 1 8 2 7 3 5 4 6 5 2 8 1 9 3 10
REMARK H PARENT 8 6 8 7
REMARK Flexibility Score: inf
ROOT
ATOM      1  C   UNL     1      31.617   4.994  48.660  1.00  0.00     0.229 C 
ATOM      2  N   UNL     1      31.408   4.667  47.247  1.00  0.00    -0.339 N 
ATOM      3  C   UNL     1      30.413   5.623  46.754  1.00  0.00     0.261 C 
ATOM      4  C   UNL     1      30.283   5.517  49.172  1.00  0.00     0.077 C 
ATOM      5  C   UNL     1      29.653   6.174  47.959  1.00  0.00     0.068 C 
ATOM      6  H   UNL     1      32.303   4.756  46.710  1.00  0.00     0.346 HD
ATOM      7  H   UNL     1      31.027   3.696  47.143  1.00  0.00     0.346 HD
ENDROOT
BRANCH   1   8
ATOM      8  C   UNL     1      32.123   3.814  49.453  1.00  0.00     0.099 C 
ATOM      9  O   UNL     1      32.221   2.681  48.911  1.00  0.00    -0.544 OA
ATOM     10  O   UNL     1      32.573   3.984  50.757  1.00  0.00    -0.544 OA
ENDBRANCH   1   8
TORSDOF 1
ENDMDL
MODEL 2
REMARK VINA RESULT:    -3.749      2.562      3.417
REMARK INTER + INTRA:          -3.992
REMARK INTER:                  -3.968
REMARK INTRA:                  -0.024
REMARK UNBOUND:                -0.024
REMARK SMILES O=C([O-])[C@@H]1CCC[NH2+]1
REMARK SMILES IDX 4 1 8 2 7 3 5 4 6 5 2 8 1 9 3 10
REMARK H PARENT 8 6 8 7
REMARK Flexibility Score: inf
ROOT
ATOM      1  C   UNL     1      31.029   5.121  48.666  1.00  0.00     0.229 C 
ATOM      2  N   UNL     1      31.714   4.009  48.000  1.00  0.00    -0.339 N 
ATOM      3  C   UNL     1      32.196   3.132  49.070  1.00  0.00     0.261 C 
ATOM      4  C   UNL     1      31.758   5.334  49.984  1.00  0.00     0.077 C 
ATOM      5  C   UNL     1      32.261   3.953  50.357  1.00  0.00     0.068 C 
ATOM      6  H   UNL     1      31.055   3.494  47.369  1.00  0.00     0.346 HD
ATOM      7  H   UNL     1      32.534   4.357  47.449  1.00  0.00     0.346 HD
ENDROOT
BRANCH   1   8
ATOM      8  C   UNL     1      30.991   6.365  47.813  1.00  0.00     0.099 C 
ATOM      9  O   UNL     1      29.916   7.008  47.677  1.00  0.00    -0.544 OA
ATOM     10  O   UNL     1      32.158   6.864  47.247  1.00  0.00    -0.544 OA
ENDBRANCH   1   8
TORSDOF 1
ENDMDL
MODEL 3
REMARK VINA RESULT:    -3.639     10.439     11.622
REMARK INTER + INTRA:          -3.876
REMARK INTER:                  -3.847
REMARK INTRA:                  -0.029
REMARK UNBOUND:                -0.024
REMARK SMILES O=C([O-])[C@@H]1CCC[NH2+]1
REMARK SMILES IDX 4 1 8 2 7 3 5 4 6 5 2 8 1 9 3 10
REMARK H PARENT 8 6 8 7
REMARK Flexibility Score: inf
ROOT
ATOM      1  C   UNL     1      23.985   2.531  40.082  1.00  0.00     0.229 C 
ATOM      2  N   UNL     1      24.227   2.287  41.507  1.00  0.00    -0.339 N 
ATOM      3  C   UNL     1      25.154   3.334  41.945  1.00  0.00     0.261 C 
ATOM      4  C   UNL     1      25.274   3.123  39.533  1.00  0.00     0.077 C 
ATOM      5  C   UNL     1      25.864   3.880  40.707  1.00  0.00     0.068 C 
ATOM      6  H   UNL     1      23.331   2.337  42.048  1.00  0.00     0.346 HD
ATOM      7  H   UNL     1      24.677   1.352  41.652  1.00  0.00     0.346 HD
ENDROOT
BRANCH   1   8
ATOM      8  C   UNL     1      23.560   1.281  39.351  1.00  0.00     0.099 C 
ATOM      9  O   UNL     1      24.062   0.167  39.654  1.00  0.00    -0.544 OA
ATOM     10  O   UNL     1      22.545   1.333  38.402  1.00  0.00    -0.544 OA
ENDBRANCH   1   8
TORSDOF 1
ENDMDL
MODEL 4
REMARK VINA RESULT:    -3.569     10.630     11.564
REMARK INTER + INTRA:          -3.802
REMARK INTER:                  -3.773
REMARK INTRA:                  -0.029
REMARK UNBOUND:                -0.024
REMARK SMILES O=C([O-])[C@@H]1CCC[NH2+]1
REMARK SMILES IDX 4 1 8 2 7 3 5 4 6 5 2 8 1 9 3 10
REMARK H PARENT 8 6 8 7
REMARK Flexibility Score: inf
ROOT
ATOM      1  C   UNL     1      23.635   1.767  41.232  1.00  0.00     0.229 C 
ATOM      2  N   UNL     1      23.824   0.350  40.909  1.00  0.00    -0.339 N 
ATOM      3  C   UNL     1      23.751   0.255  39.448  1.00  0.00     0.261 C 
ATOM      4  C   UNL     1      22.703   2.320  40.164  1.00  0.00     0.077 C 
ATOM      5  C   UNL     1      23.017   1.492  38.934  1.00  0.00     0.068 C 
ATOM      6  H   UNL     1      24.753   0.012  41.255  1.00  0.00     0.346 HD
ATOM      7  H   UNL     1      23.058  -0.231  41.325  1.00  0.00     0.346 HD
ENDROOT
BRANCH   1   8
ATOM      8  C   UNL     1      23.104   1.970  42.630  1.00  0.00     0.099 C 
ATOM      9  O   UNL     1      22.197   1.220  43.080  1.00  0.00    -0.544 OA
ATOM     10  O   UNL     1      23.675   2.922  43.467  1.00  0.00    -0.544 OA
ENDBRANCH   1   8
TORSDOF 1
ENDMDL
MODEL 5
REMARK VINA RESULT:    -3.400      1.289      1.859
REMARK INTER + INTRA:          -3.623
REMARK INTER:                  -3.593
REMARK INTRA:                  -0.029
REMARK UNBOUND:                -0.024
REMARK SMILES O=C([O-])[C@@H]1CCC[NH2+]1
REMARK SMILES IDX 4 1 8 2 7 3 5 4 6 5 2 8 1 9 3 10
REMARK H PARENT 8 6 8 7
REMARK Flexibility Score: inf
ROOT
ATOM      1  C   UNL     1      31.200   5.078  48.029  1.00  0.00     0.229 C 
ATOM      2  N   UNL     1      29.818   5.453  48.342  1.00  0.00    -0.339 N 
ATOM      3  C   UNL     1      29.491   6.572  47.454  1.00  0.00     0.261 C 
ATOM      4  C   UNL     1      31.901   6.364  47.618  1.00  0.00     0.077 C 
ATOM      5  C   UNL     1      30.803   7.199  46.986  1.00  0.00     0.068 C 
ATOM      6  H   UNL     1      29.170   4.648  48.175  1.00  0.00     0.346 HD
ATOM      7  H   UNL     1      29.737   5.773  49.337  1.00  0.00     0.346 HD
ENDROOT
BRANCH   1   8
ATOM      8  C   UNL     1      31.882   4.386  49.183  1.00  0.00     0.099 C 
ATOM      9  O   UNL     1      31.937   4.941  50.313  1.00  0.00    -0.544 OA
ATOM     10  O   UNL     1      32.372   3.093  49.037  1.00  0.00    -0.544 OA
ENDBRANCH   1   8
TORSDOF 1
ENDMDL
MODEL 6
REMARK VINA RESULT:    -3.286     12.948     13.516
REMARK INTER + INTRA:          -3.503
REMARK INTER:                  -3.482
REMARK INTRA:                  -0.021
REMARK UNBOUND:                -0.024
REMARK SMILES O=C([O-])[C@@H]1CCC[NH2+]1
REMARK SMILES IDX 4 1 8 2 7 3 5 4 6 5 2 8 1 9 3 10
REMARK H PARENT 8 6 8 7
REMARK Flexibility Score: inf
ROOT
ATOM      1  C   UNL     1      23.253  -1.899  55.936  1.00  0.00     0.229 C 
ATOM      2  N   UNL     1      22.141  -1.974  56.888  1.00  0.00    -0.339 N 
ATOM      3  C   UNL     1      22.705  -2.522  58.125  1.00  0.00     0.261 C 
ATOM      4  C   UNL     1      24.175  -3.061  56.275  1.00  0.00     0.077 C 
ATOM      5  C   UNL     1      24.000  -3.248  57.769  1.00  0.00     0.068 C 
ATOM      6  H   UNL     1      21.734  -1.024  57.056  1.00  0.00     0.346 HD
ATOM      7  H   UNL     1      21.396  -2.622  56.537  1.00  0.00     0.346 HD
ENDROOT
BRANCH   1   8
ATOM      8  C   UNL     1      22.783  -1.928  54.502  1.00  0.00     0.099 C 
ATOM      9  O   UNL     1      23.616  -2.035  53.563  1.00  0.00    -0.544 OA
ATOM     10  O   UNL     1      21.424  -1.931  54.209  1.00  0.00    -0.544 OA
ENDBRANCH   1   8
TORSDOF 1
ENDMDL
MODEL 7
REMARK VINA RESULT:    -3.276     11.271     12.173
REMARK INTER + INTRA:          -3.491
REMARK INTER:                  -3.467
REMARK INTRA:                  -0.025
REMARK UNBOUND:                -0.024
REMARK SMILES O=C([O-])[C@@H]1CCC[NH2+]1
REMARK SMILES IDX 4 1 8 2 7 3 5 4 6 5 2 8 1 9 3 10
REMARK H PARENT 8 6 8 7
REMARK Flexibility Score: inf
ROOT
ATOM      1  C   UNL     1      22.529   2.424  40.747  1.00  0.00     0.229 C 
ATOM      2  N   UNL     1      22.189   2.722  39.352  1.00  0.00    -0.339 N 
ATOM      3  C   UNL     1      22.644   1.569  38.570  1.00  0.00     0.261 C 
ATOM      4  C   UNL     1      23.801   1.592  40.700  1.00  0.00     0.077 C 
ATOM      5  C   UNL     1      23.698   0.830  39.393  1.00  0.00     0.068 C 
ATOM      6  H   UNL     1      21.156   2.857  39.244  1.00  0.00     0.346 HD
ATOM      7  H   UNL     1      22.695   3.578  39.022  1.00  0.00     0.346 HD
ENDROOT
BRANCH   1   8
ATOM      8  C   UNL     1      22.680   3.674  41.579  1.00  0.00     0.099 C 
ATOM      9  O   UNL     1      23.826   4.112  41.863  1.00  0.00    -0.544 OA
ATOM     10  O   UNL     1      21.560   4.404  41.960  1.00  0.00    -0.544 OA
ENDBRANCH   1   8
TORSDOF 1
ENDMDL
MODEL 8
REMARK VINA RESULT:    -3.274     13.337     13.914
REMARK INTER + INTRA:          -3.490
REMARK INTER:                  -3.469
REMARK INTRA:                  -0.022
REMARK UNBOUND:                -0.024
REMARK SMILES O=C([O-])[C@@H]1CCC[NH2+]1
REMARK SMILES IDX 4 1 8 2 7 3 5 4 6 5 2 8 1 9 3 10
REMARK H PARENT 8 6 8 7
REMARK Flexibility Score: inf
ROOT
ATOM      1  C   UNL     1      22.819  -1.509  56.698  1.00  0.00     0.229 C 
ATOM      2  N   UNL     1      22.647  -2.538  57.728  1.00  0.00    -0.339 N 
ATOM      3  C   UNL     1      23.886  -3.321  57.727  1.00  0.00     0.261 C 
ATOM      4  C   UNL     1      23.695  -2.134  55.622  1.00  0.00     0.077 C 
ATOM      5  C   UNL     1      24.576  -3.107  56.381  1.00  0.00     0.068 C 
ATOM      6  H   UNL     1      22.489  -2.099  58.665  1.00  0.00     0.346 HD
ATOM      7  H   UNL     1      21.846  -3.170  57.491  1.00  0.00     0.346 HD
ENDROOT
BRANCH   1   8
ATOM      8  C   UNL     1      21.500  -1.013  56.159  1.00  0.00     0.099 C 
ATOM      9  O   UNL     1      20.422  -1.331  56.728  1.00  0.00    -0.544 OA
ATOM     10  O   UNL     1      21.467  -0.125  55.089  1.00  0.00    -0.544 OA
ENDBRANCH   1   8
TORSDOF 1
ENDMDL
MODEL 9
REMARK VINA RESULT:    -3.263     10.688     11.731
REMARK INTER + INTRA:          -3.478
REMARK INTER:                  -3.452
REMARK INTRA:                  -0.026
REMARK UNBOUND:                -0.024
REMARK SMILES O=C([O-])[C@@H]1CCC[NH2+]1
REMARK SMILES IDX 4 1 8 2 7 3 5 4 6 5 2 8 1 9 3 10
REMARK H PARENT 8 6 8 7
REMARK Flexibility Score: inf
ROOT
ATOM      1  C   UNL     1      23.543   1.688  40.900  1.00  0.00     0.229 C 
ATOM      2  N   UNL     1      24.802   2.435  40.983  1.00  0.00    -0.339 N 
ATOM      3  C   UNL     1      24.528   3.593  41.839  1.00  0.00     0.261 C 
ATOM      4  C   UNL     1      22.433   2.725  40.984  1.00  0.00     0.077 C 
ATOM      5  C   UNL     1      23.019   3.826  41.847  1.00  0.00     0.068 C 
ATOM      6  H   UNL     1      25.558   1.840  41.397  1.00  0.00     0.346 HD
ATOM      7  H   UNL     1      25.095   2.774  40.036  1.00  0.00     0.346 HD
ENDROOT
BRANCH   1   8
ATOM      8  C   UNL     1      23.459   0.844  39.652  1.00  0.00     0.099 C 
ATOM      9  O   UNL     1      22.924   1.305  38.609  1.00  0.00    -0.544 OA
ATOM     10  O   UNL     1      24.054  -0.412  39.612  1.00  0.00    -0.544 OA
ENDBRANCH   1   8
TORSDOF 1
ENDMDL
