MODEL 1
REMARK VINA RESULT:    -5.029      0.000      0.000
REMARK INTER + INTRA:         -10.920
REMARK INTER:                  -9.438
REMARK INTRA:                  -1.482
REMARK UNBOUND:                -1.482
REMARK SMILES O=C([O-])CCCCCCCCCCCCCCC(=O)[O-]
REMARK SMILES IDX 10 1 9 2 8 3 7 4 6 5 5 6 4 7 2 8 1 9 3 10 11 11 12 12 13 13
REMARK SMILES IDX 14 14 15 15 16 16 17 17 18 18 19 19 20 20
REMARK H PARENT
REMARK Flexibility Score: inf
ROOT
ATOM      1  C   UNL     1      -9.711 -21.041  33.222  1.00  0.00     0.000 C 
ENDROOT
BRANCH   1   2
ATOM      2  C   UNL     1     -10.935 -20.761  34.113  1.00  0.00     0.000 C 
BRANCH   2   3
ATOM      3  C   UNL     1     -11.979 -19.871  33.419  1.00  0.00     0.000 C 
BRANCH   3   4
ATOM      4  C   UNL     1     -11.691 -19.678  31.923  1.00  0.00     0.000 C 
BRANCH   4   5
ATOM      5  C   UNL     1     -11.070 -18.302  31.656  1.00  0.00     0.000 C 
BRANCH   5   6
ATOM      6  C   UNL     1     -10.752 -18.121  30.164  1.00  0.00     0.006 C 
BRANCH   6   7
ATOM      7  C   UNL     1      -9.509 -18.911  29.735  1.00  0.00     0.053 C 
BRANCH   7   8
ATOM      8  C   UNL     1      -9.771 -19.740  28.514  1.00  0.00     0.041 C 
ATOM      9  O   UNL     1      -9.628 -19.241  27.367  1.00  0.00    -0.550 OA
ATOM     10  O   UNL     1     -10.203 -21.054  28.644  1.00  0.00    -0.550 OA
ENDBRANCH   7   8
ENDBRANCH   6   7
ENDBRANCH   5   6
ENDBRANCH   4   5
ENDBRANCH   3   4
ENDBRANCH   2   3
ENDBRANCH   1   2
BRANCH   1  11
ATOM     11  C   UNL     1      -8.520 -21.599  34.018  1.00  0.00     0.000 C 
BRANCH  11  12
ATOM     12  C   UNL     1      -7.286 -20.683  33.952  1.00  0.00     0.000 C 
BRANCH  12  13
ATOM     13  C   UNL     1      -7.626 -19.261  33.479  1.00  0.00     0.000 C 
BRANCH  13  14
ATOM     14  C   UNL     1      -6.607 -18.719  32.463  1.00  0.00     0.000 C 
BRANCH  14  15
ATOM     15  C   UNL     1      -5.186 -19.263  32.688  1.00  0.00     0.000 C 
BRANCH  15  16
ATOM     16  C   UNL     1      -4.319 -18.457  33.675  1.00  0.00     0.006 C 
BRANCH  16  17
ATOM     17  C   UNL     1      -4.239 -19.070  35.086  1.00  0.00     0.053 C 
BRANCH  17  18
ATOM     18  C   UNL     1      -3.523 -20.387  35.104  1.00  0.00     0.041 C 
ATOM     19  O   UNL     1      -4.124 -21.432  35.467  1.00  0.00    -0.550 OA
ATOM     20  O   UNL     1      -2.178 -20.454  34.762  1.00  0.00    -0.550 OA
ENDBRANCH  17  18
ENDBRANCH  16  17
ENDBRANCH  15  16
ENDBRANCH  14  15
ENDBRANCH  13  14
ENDBRANCH  12  13
ENDBRANCH  11  12
ENDBRANCH   1  11
TORSDOF 15
ENDMDL
MODEL 2
REMARK VINA RESULT:    -4.998     20.734     21.917
REMARK INTER + INTRA:         -10.863
REMARK INTER:                  -9.193
REMARK INTRA:                  -1.670
REMARK UNBOUND:                -1.482
REMARK SMILES O=C([O-])CCCCCCCCCCCCCCC(=O)[O-]
REMARK SMILES IDX 10 1 9 2 8 3 7 4 6 5 5 6 4 7 2 8 1 9 3 10 11 11 12 12 13 13
REMARK SMILES IDX 14 14 15 15 16 16 17 17 18 18 19 19 20 20
REMARK H PARENT
REMARK Flexibility Score: inf
ROOT
ATOM      1  C   UNL     1       0.604 -35.663  20.676  1.00  0.00     0.000 C 
ENDROOT
BRANCH   1   2
ATOM      2  C   UNL     1       0.197 -36.937  21.438  1.00  0.00     0.000 C 
BRANCH   2   3
ATOM      3  C   UNL     1      -1.259 -37.349  21.167  1.00  0.00     0.000 C 
BRANCH   3   4
ATOM      4  C   UNL     1      -2.205 -36.143  21.070  1.00  0.00     0.000 C 
BRANCH   4   5
ATOM      5  C   UNL     1      -3.281 -36.201  22.161  1.00  0.00     0.000 C 
BRANCH   5   6
ATOM      6  C   UNL     1      -3.405 -34.852  22.885  1.00  0.00     0.006 C 
BRANCH   6   7
ATOM      7  C   UNL     1      -2.073 -34.093  22.932  1.00  0.00     0.053 C 
BRANCH   7   8
ATOM      8  C   UNL     1      -2.158 -32.875  23.801  1.00  0.00     0.041 C 
ATOM      9  O   UNL     1      -3.209 -32.181  23.820  1.00  0.00    -0.550 OA
ATOM     10  O   UNL     1      -1.064 -32.487  24.565  1.00  0.00    -0.550 OA
ENDBRANCH   7   8
ENDBRANCH   6   7
ENDBRANCH   5   6
ENDBRANCH   4   5
ENDBRANCH   3   4
ENDBRANCH   2   3
ENDBRANCH   1   2
BRANCH   1  11
ATOM     11  C   UNL     1       1.712 -35.923  19.644  1.00  0.00     0.000 C 
BRANCH  11  12
ATOM     12  C   UNL     1       1.651 -37.346  19.059  1.00  0.00     0.000 C 
BRANCH  12  13
ATOM     13  C   UNL     1       2.984 -37.789  18.437  1.00  0.00     0.000 C 
BRANCH  13  14
ATOM     14  C   UNL     1       3.912 -36.603  18.125  1.00  0.00     0.000 C 
BRANCH  14  15
ATOM     15  C   UNL     1       5.220 -36.635  18.933  1.00  0.00     0.000 C 
BRANCH  15  16
ATOM     16  C   UNL     1       5.182 -37.484  20.219  1.00  0.00     0.006 C 
BRANCH  16  17
ATOM     17  C   UNL     1       5.191 -36.659  21.519  1.00  0.00     0.053 C 
BRANCH  17  18
ATOM     18  C   UNL     1       3.962 -36.878  22.350  1.00  0.00     0.041 C 
ATOM     19  O   UNL     1       3.503 -35.949  23.065  1.00  0.00    -0.550 OA
ATOM     20  O   UNL     1       3.348 -38.125  22.370  1.00  0.00    -0.550 OA
ENDBRANCH  17  18
ENDBRANCH  16  17
ENDBRANCH  15  16
ENDBRANCH  14  15
ENDBRANCH  13  14
ENDBRANCH  12  13
ENDBRANCH  11  12
ENDBRANCH   1  11
TORSDOF 15
ENDMDL
MODEL 3
REMARK VINA RESULT:    -4.951     20.800     22.600
REMARK INTER + INTRA:         -10.775
REMARK INTER:                  -9.270
REMARK INTRA:                  -1.505
REMARK UNBOUND:                -1.482
REMARK SMILES O=C([O-])CCCCCCCCCCCCCCC(=O)[O-]
REMARK SMILES IDX 10 1 9 2 8 3 7 4 6 5 5 6 4 7 2 8 1 9 3 10 11 11 12 12 13 13
REMARK SMILES IDX 14 14 15 15 16 16 17 17 18 18 19 19 20 20
REMARK H PARENT
REMARK Flexibility Score: inf
ROOT
ATOM      1  C   UNL     1       1.602 -35.858  19.771  1.00  0.00     0.000 C 
ENDROOT
BRANCH   1   2
ATOM      2  C   UNL     1       1.768 -37.205  19.045  1.00  0.00     0.000 C 
BRANCH   2   3
ATOM      3  C   UNL     1       2.770 -37.129  17.881  1.00  0.00     0.000 C 
BRANCH   3   4
ATOM      4  C   UNL     1       4.030 -37.971  18.130  1.00  0.00     0.000 C 
BRANCH   4   5
ATOM      5  C   UNL     1       5.043 -37.204  18.986  1.00  0.00     0.000 C 
BRANCH   5   6
ATOM      6  C   UNL     1       5.171 -37.831  20.383  1.00  0.00     0.006 C 
BRANCH   6   7
ATOM      7  C   UNL     1       5.378 -36.776  21.477  1.00  0.00     0.053 C 
BRANCH   7   8
ATOM      8  C   UNL     1       4.182 -36.660  22.372  1.00  0.00     0.041 C 
ATOM      9  O   UNL     1       3.820 -35.535  22.805  1.00  0.00    -0.550 OA
ATOM     10  O   UNL     1       3.486 -37.800  22.754  1.00  0.00    -0.550 OA
ENDBRANCH   7   8
ENDBRANCH   6   7
ENDBRANCH   5   6
ENDBRANCH   4   5
ENDBRANCH   3   4
ENDBRANCH   2   3
ENDBRANCH   1   2
BRANCH   1  11
ATOM     11  C   UNL     1       0.779 -35.983  21.063  1.00  0.00     0.000 C 
BRANCH  11  12
ATOM     12  C   UNL     1       0.236 -37.406  21.280  1.00  0.00     0.000 C 
BRANCH  12  13
ATOM     13  C   UNL     1      -1.264 -37.524  20.967  1.00  0.00     0.000 C 
BRANCH  13  14
ATOM     14  C   UNL     1      -2.000 -36.179  21.095  1.00  0.00     0.000 C 
BRANCH  14  15
ATOM     15  C   UNL     1      -3.132 -36.210  22.135  1.00  0.00     0.000 C 
BRANCH  15  16
ATOM     16  C   UNL     1      -3.339 -34.904  22.927  1.00  0.00     0.006 C 
BRANCH  16  17
ATOM     17  C   UNL     1      -2.113 -33.972  22.935  1.00  0.00     0.053 C 
BRANCH  17  18
ATOM     18  C   UNL     1      -2.296 -32.786  23.834  1.00  0.00     0.041 C 
ATOM     19  O   UNL     1      -3.302 -32.040  23.706  1.00  0.00    -0.550 OA
ATOM     20  O   UNL     1      -1.331 -32.477  24.786  1.00  0.00    -0.550 OA
ENDBRANCH  17  18
ENDBRANCH  16  17
ENDBRANCH  15  16
ENDBRANCH  14  15
ENDBRANCH  13  14
ENDBRANCH  12  13
ENDBRANCH  11  12
ENDBRANCH   1  11
TORSDOF 15
ENDMDL
MODEL 4
REMARK VINA RESULT:    -4.794      2.839      6.613
REMARK INTER + INTRA:         -10.480
REMARK INTER:                  -8.674
REMARK INTRA:                  -1.806
REMARK UNBOUND:                -1.482
REMARK SMILES O=C([O-])CCCCCCCCCCCCCCC(=O)[O-]
REMARK SMILES IDX 10 1 9 2 8 3 7 4 6 5 5 6 4 7 2 8 1 9 3 10 11 11 12 12 13 13
REMARK SMILES IDX 14 14 15 15 16 16 17 17 18 18 19 19 20 20
REMARK H PARENT
REMARK Flexibility Score: inf
ROOT
ATOM      1  C   UNL     1      -8.243 -18.647  29.829  1.00  0.00     0.000 C 
ENDROOT
BRANCH   1   2
ATOM      2  C   UNL     1      -7.495 -18.684  31.174  1.00  0.00     0.000 C 
BRANCH   2   3
ATOM      3  C   UNL     1      -8.251 -17.946  32.291  1.00  0.00     0.000 C 
BRANCH   3   4
ATOM      4  C   UNL     1      -8.120 -18.642  33.653  1.00  0.00     0.000 C 
BRANCH   4   5
ATOM      5  C   UNL     1      -7.718 -20.112  33.482  1.00  0.00     0.000 C 
BRANCH   5   6
ATOM      6  C   UNL     1      -6.538 -20.471  34.397  1.00  0.00     0.006 C 
BRANCH   6   7
ATOM      7  C   UNL     1      -5.740 -19.235  34.828  1.00  0.00     0.053 C 
BRANCH   7   8
ATOM      8  C   UNL     1      -4.316 -19.302  34.365  1.00  0.00     0.041 C 
ATOM      9  O   UNL     1      -3.783 -18.307  33.807  1.00  0.00    -0.550 OA
ATOM     10  O   UNL     1      -3.588 -20.475  34.521  1.00  0.00    -0.550 OA
ENDBRANCH   7   8
ENDBRANCH   6   7
ENDBRANCH   5   6
ENDBRANCH   4   5
ENDBRANCH   3   4
ENDBRANCH   2   3
ENDBRANCH   1   2
BRANCH   1  11
ATOM     11  C   UNL     1      -9.770 -18.665  30.005  1.00  0.00     0.000 C 
BRANCH  11  12
ATOM     12  C   UNL     1     -10.343 -20.093  30.034  1.00  0.00     0.000 C 
BRANCH  12  13
ATOM     13  C   UNL     1     -10.787 -20.526  31.439  1.00  0.00     0.000 C 
BRANCH  13  14
ATOM     14  C   UNL     1     -12.270 -20.221  31.709  1.00  0.00     0.000 C 
BRANCH  14  15
ATOM     15  C   UNL     1     -12.594 -20.088  33.207  1.00  0.00     0.000 C 
BRANCH  15  16
ATOM     16  C   UNL     1     -11.399 -20.281  34.161  1.00  0.00     0.006 C 
BRANCH  16  17
ATOM     17  C   UNL     1     -11.760 -20.967  35.492  1.00  0.00     0.053 C 
BRANCH  17  18
ATOM     18  C   UNL     1     -11.389 -22.420  35.512  1.00  0.00     0.041 C 
ATOM     19  O   UNL     1     -12.284 -23.305  35.510  1.00  0.00    -0.550 OA
ATOM     20  O   UNL     1     -10.053 -22.796  35.578  1.00  0.00    -0.550 OA
ENDBRANCH  17  18
ENDBRANCH  16  17
ENDBRANCH  15  16
ENDBRANCH  14  15
ENDBRANCH  13  14
ENDBRANCH  12  13
ENDBRANCH  11  12
ENDBRANCH   1  11
TORSDOF 15
ENDMDL
MODEL 5
REMARK VINA RESULT:    -4.762      3.030      4.451
REMARK INTER + INTRA:         -10.420
REMARK INTER:                  -8.539
REMARK INTRA:                  -1.881
REMARK UNBOUND:                -1.482
REMARK SMILES O=C([O-])CCCCCCCCCCCCCCC(=O)[O-]
REMARK SMILES IDX 10 1 9 2 8 3 7 4 6 5 5 6 4 7 2 8 1 9 3 10 11 11 12 12 13 13
REMARK SMILES IDX 14 14 15 15 16 16 17 17 18 18 19 19 20 20
REMARK H PARENT
REMARK Flexibility Score: inf
ROOT
ATOM      1  C   UNL     1      -9.961 -20.302  30.586  1.00  0.00     0.000 C 
ENDROOT
BRANCH   1   2
ATOM      2  C   UNL     1     -11.487 -20.099  30.582  1.00  0.00     0.000 C 
BRANCH   2   3
ATOM      3  C   UNL     1     -12.091 -20.138  31.995  1.00  0.00     0.000 C 
BRANCH   3   4
ATOM      4  C   UNL     1     -11.724 -18.902  32.829  1.00  0.00     0.000 C 
BRANCH   4   5
ATOM      5  C   UNL     1     -11.776 -19.216  34.329  1.00  0.00     0.000 C 
BRANCH   5   6
ATOM      6  C   UNL     1     -12.328 -20.628  34.578  1.00  0.00     0.006 C 
BRANCH   6   7
ATOM      7  C   UNL     1     -11.760 -21.257  35.856  1.00  0.00     0.053 C 
BRANCH   7   8
ATOM      8  C   UNL     1     -11.329 -22.675  35.634  1.00  0.00     0.041 C 
ATOM      9  O   UNL     1     -10.105 -22.971  35.628  1.00  0.00    -0.550 OA
ATOM     10  O   UNL     1     -12.277 -23.663  35.402  1.00  0.00    -0.550 OA
ENDBRANCH   7   8
ENDBRANCH   6   7
ENDBRANCH   5   6
ENDBRANCH   4   5
ENDBRANCH   3   4
ENDBRANCH   2   3
ENDBRANCH   1   2
BRANCH   1  11
ATOM     11  C   UNL     1      -9.198 -19.029  30.187  1.00  0.00     0.000 C 
BRANCH  11  12
ATOM     12  C   UNL     1      -7.925 -18.817  31.026  1.00  0.00     0.000 C 
BRANCH  12  13
ATOM     13  C   UNL     1      -8.191 -18.037  32.322  1.00  0.00     0.000 C 
BRANCH  13  14
ATOM     14  C   UNL     1      -7.772 -18.820  33.578  1.00  0.00     0.000 C 
BRANCH  14  15
ATOM     15  C   UNL     1      -8.282 -20.271  33.580  1.00  0.00     0.000 C 
BRANCH  15  16
ATOM     16  C   UNL     1      -7.328 -21.306  34.207  1.00  0.00     0.006 C 
BRANCH  16  17
ATOM     17  C   UNL     1      -5.848 -20.880  34.207  1.00  0.00     0.053 C 
BRANCH  17  18
ATOM     18  C   UNL     1      -5.055 -21.545  35.293  1.00  0.00     0.041 C 
ATOM     19  O   UNL     1      -5.579 -22.443  36.003  1.00  0.00    -0.550 OA
ATOM     20  O   UNL     1      -3.752 -21.140  35.551  1.00  0.00    -0.550 OA
ENDBRANCH  17  18
ENDBRANCH  16  17
ENDBRANCH  15  16
ENDBRANCH  14  15
ENDBRANCH  13  14
ENDBRANCH  12  13
ENDBRANCH  11  12
ENDBRANCH   1  11
TORSDOF 15
ENDMDL
MODEL 6
REMARK VINA RESULT:    -4.666      1.050      6.779
REMARK INTER + INTRA:         -10.240
REMARK INTER:                  -8.691
REMARK INTRA:                  -1.549
REMARK UNBOUND:                -1.482
REMARK SMILES O=C([O-])CCCCCCCCCCCCCCC(=O)[O-]
REMARK SMILES IDX 10 1 9 2 8 3 7 4 6 5 5 6 4 7 2 8 1 9 3 10 11 11 12 12 13 13
REMARK SMILES IDX 14 14 15 15 16 16 17 17 18 18 19 19 20 20
REMARK H PARENT
REMARK Flexibility Score: inf
ROOT
ATOM      1  C   UNL     1      -9.755 -22.010  34.569  1.00  0.00     0.000 C 
ENDROOT
BRANCH   1   2
ATOM      2  C   UNL     1      -8.437 -21.584  33.899  1.00  0.00     0.000 C 
BRANCH   2   3
ATOM      3  C   UNL     1      -8.543 -20.217  33.203  1.00  0.00     0.000 C 
BRANCH   3   4
ATOM      4  C   UNL     1      -7.568 -19.182  33.782  1.00  0.00     0.000 C 
BRANCH   4   5
ATOM      5  C   UNL     1      -6.537 -18.752  32.731  1.00  0.00     0.000 C 
BRANCH   5   6
ATOM      6  C   UNL     1      -5.183 -19.436  32.975  1.00  0.00     0.006 C 
BRANCH   6   7
ATOM      7  C   UNL     1      -4.790 -19.435  34.458  1.00  0.00     0.053 C 
BRANCH   7   8
ATOM      8  C   UNL     1      -4.090 -20.700  34.848  1.00  0.00     0.041 C 
ATOM      9  O   UNL     1      -4.722 -21.621  35.430  1.00  0.00    -0.550 OA
ATOM     10  O   UNL     1      -2.731 -20.850  34.600  1.00  0.00    -0.550 OA
ENDBRANCH   7   8
ENDBRANCH   6   7
ENDBRANCH   5   6
ENDBRANCH   4   5
ENDBRANCH   3   4
ENDBRANCH   2   3
ENDBRANCH   1   2
BRANCH   1  11
ATOM     11  C   UNL     1     -10.685 -20.819  34.850  1.00  0.00     0.000 C 
BRANCH  11  12
ATOM     12  C   UNL     1     -12.173 -21.203  34.780  1.00  0.00     0.000 C 
BRANCH  12  13
ATOM     13  C   UNL     1     -13.030 -20.134  34.084  1.00  0.00     0.000 C 
BRANCH  13  14
ATOM     14  C   UNL     1     -12.275 -19.419  32.952  1.00  0.00     0.000 C 
BRANCH  14  15
ATOM     15  C   UNL     1     -12.339 -20.176  31.614  1.00  0.00     0.000 C 
BRANCH  15  16
ATOM     16  C   UNL     1     -11.040 -20.163  30.785  1.00  0.00     0.006 C 
BRANCH  16  17
ATOM     17  C   UNL     1     -10.715 -18.800  30.144  1.00  0.00     0.053 C 
BRANCH  17  18
ATOM     18  C   UNL     1      -9.544 -18.865  29.210  1.00  0.00     0.041 C 
ATOM     19  O   UNL     1      -8.378 -18.660  29.637  1.00  0.00    -0.550 OA
ATOM     20  O   UNL     1      -9.746 -19.108  27.856  1.00  0.00    -0.550 OA
ENDBRANCH  17  18
ENDBRANCH  16  17
ENDBRANCH  15  16
ENDBRANCH  14  15
ENDBRANCH  13  14
ENDBRANCH  12  13
ENDBRANCH  11  12
ENDBRANCH   1  11
TORSDOF 15
ENDMDL
MODEL 7
REMARK VINA RESULT:    -4.639     21.560     22.740
REMARK INTER + INTRA:         -10.188
REMARK INTER:                  -8.683
REMARK INTRA:                  -1.505
REMARK UNBOUND:                -1.482
REMARK SMILES O=C([O-])CCCCCCCCCCCCCCC(=O)[O-]
REMARK SMILES IDX 10 1 9 2 8 3 7 4 6 5 5 6 4 7 2 8 1 9 3 10 11 11 12 12 13 13
REMARK SMILES IDX 14 14 15 15 16 16 17 17 18 18 19 19 20 20
REMARK H PARENT
REMARK Flexibility Score: inf
ROOT
ATOM      1  C   UNL     1       0.517 -35.397  21.800  1.00  0.00     0.000 C 
ENDROOT
BRANCH   1   2
ATOM      2  C   UNL     1      -0.913 -34.834  21.880  1.00  0.00     0.000 C 
BRANCH   2   3
ATOM      3  C   UNL     1      -1.925 -35.682  21.092  1.00  0.00     0.000 C 
BRANCH   3   4
ATOM      4  C   UNL     1      -3.051 -36.234  21.979  1.00  0.00     0.000 C 
BRANCH   4   5
ATOM      5  C   UNL     1      -3.609 -37.543  21.407  1.00  0.00     0.000 C 
BRANCH   5   6
ATOM      6  C   UNL     1      -3.264 -37.684  19.917  1.00  0.00     0.006 C 
BRANCH   6   7
ATOM      7  C   UNL     1      -4.475 -38.108  19.077  1.00  0.00     0.053 C 
BRANCH   7   8
ATOM      8  C   UNL     1      -4.720 -37.166  17.938  1.00  0.00     0.041 C 
ATOM      9  O   UNL     1      -4.695 -35.922  18.128  1.00  0.00    -0.550 OA
ATOM     10  O   UNL     1      -5.007 -37.664  16.673  1.00  0.00    -0.550 OA
ENDBRANCH   7   8
ENDBRANCH   6   7
ENDBRANCH   5   6
ENDBRANCH   4   5
ENDBRANCH   3   4
ENDBRANCH   2   3
ENDBRANCH   1   2
BRANCH   1  11
ATOM     11  C   UNL     1       0.838 -35.997  20.422  1.00  0.00     0.000 C 
BRANCH  11  12
ATOM     12  C   UNL     1       0.918 -37.534  20.453  1.00  0.00     0.000 C 
BRANCH  12  13
ATOM     13  C   UNL     1       1.623 -38.116  19.218  1.00  0.00     0.000 C 
BRANCH  13  14
ATOM     14  C   UNL     1       2.047 -37.030  18.215  1.00  0.00     0.000 C 
BRANCH  14  15
ATOM     15  C   UNL     1       3.572 -36.926  18.050  1.00  0.00     0.000 C 
BRANCH  15  16
ATOM     16  C   UNL     1       4.403 -37.718  19.080  1.00  0.00     0.006 C 
BRANCH  16  17
ATOM     17  C   UNL     1       5.125 -36.837  20.117  1.00  0.00     0.053 C 
BRANCH  17  18
ATOM     18  C   UNL     1       4.497 -36.913  21.476  1.00  0.00     0.041 C 
ATOM     19  O   UNL     1       4.325 -38.028  22.036  1.00  0.00    -0.550 OA
ATOM     20  O   UNL     1       4.058 -35.755  22.107  1.00  0.00    -0.550 OA
ENDBRANCH  17  18
ENDBRANCH  16  17
ENDBRANCH  15  16
ENDBRANCH  14  15
ENDBRANCH  13  14
ENDBRANCH  12  13
ENDBRANCH  11  12
ENDBRANCH   1  11
TORSDOF 15
ENDMDL
MODEL 8
REMARK VINA RESULT:    -4.536      2.308      3.841
REMARK INTER + INTRA:          -9.995
REMARK INTER:                  -8.328
REMARK INTRA:                  -1.667
REMARK UNBOUND:                -1.482
REMARK SMILES O=C([O-])CCCCCCCCCCCCCCC(=O)[O-]
REMARK SMILES IDX 10 1 9 2 8 3 7 4 6 5 5 6 4 7 2 8 1 9 3 10 11 11 12 12 13 13
REMARK SMILES IDX 14 14 15 15 16 16 17 17 18 18 19 19 20 20
REMARK H PARENT
REMARK Flexibility Score: inf
ROOT
ATOM      1  C   UNL     1      -9.393 -19.817  30.802  1.00  0.00     0.000 C 
ENDROOT
BRANCH   1   2
ATOM      2  C   UNL     1     -10.870 -19.399  30.697  1.00  0.00     0.000 C 
BRANCH   2   3
ATOM      3  C   UNL     1     -11.121 -17.979  31.230  1.00  0.00     0.000 C 
BRANCH   3   4
ATOM      4  C   UNL     1     -11.345 -17.949  32.749  1.00  0.00     0.000 C 
BRANCH   4   5
ATOM      5  C   UNL     1     -12.002 -19.247  33.233  1.00  0.00     0.000 C 
BRANCH   5   6
ATOM      6  C   UNL     1     -11.427 -19.683  34.589  1.00  0.00     0.006 C 
BRANCH   6   7
ATOM      7  C   UNL     1     -11.677 -21.168  34.876  1.00  0.00     0.053 C 
BRANCH   7   8
ATOM      8  C   UNL     1     -10.403 -21.956  34.883  1.00  0.00     0.041 C 
ATOM      9  O   UNL     1      -9.481 -21.678  34.072  1.00  0.00    -0.550 OA
ATOM     10  O   UNL     1     -10.246 -23.019  35.765  1.00  0.00    -0.550 OA
ENDBRANCH   7   8
ENDBRANCH   6   7
ENDBRANCH   5   6
ENDBRANCH   4   5
ENDBRANCH   3   4
ENDBRANCH   2   3
ENDBRANCH   1   2
BRANCH   1  11
ATOM     11  C   UNL     1      -8.432 -18.697  30.372  1.00  0.00     0.000 C 
BRANCH  11  12
ATOM     12  C   UNL     1      -7.498 -18.252  31.512  1.00  0.00     0.000 C 
BRANCH  12  13
ATOM     13  C   UNL     1      -7.846 -18.911  32.856  1.00  0.00     0.000 C 
BRANCH  13  14
ATOM     14  C   UNL     1      -6.626 -19.570  33.522  1.00  0.00     0.000 C 
BRANCH  14  15
ATOM     15  C   UNL     1      -5.324 -19.362  32.731  1.00  0.00     0.000 C 
BRANCH  15  16
ATOM     16  C   UNL     1      -4.227 -18.562  33.461  1.00  0.00     0.006 C 
BRANCH  16  17
ATOM     17  C   UNL     1      -3.989 -19.004  34.917  1.00  0.00     0.053 C 
BRANCH  17  18
ATOM     18  C   UNL     1      -3.277 -20.321  35.011  1.00  0.00     0.041 C 
ATOM     19  O   UNL     1      -2.043 -20.394  34.774  1.00  0.00    -0.550 OA
ATOM     20  O   UNL     1      -3.986 -21.476  35.317  1.00  0.00    -0.550 OA
ENDBRANCH  17  18
ENDBRANCH  16  17
ENDBRANCH  15  16
ENDBRANCH  14  15
ENDBRANCH  13  14
ENDBRANCH  12  13
ENDBRANCH  11  12
ENDBRANCH   1  11
TORSDOF 15
ENDMDL
MODEL 9
REMARK VINA RESULT:    -4.436      1.554      2.223
REMARK INTER + INTRA:          -9.808
REMARK INTER:                  -8.675
REMARK INTRA:                  -1.133
REMARK UNBOUND:                -1.482
REMARK SMILES O=C([O-])CCCCCCCCCCCCCCC(=O)[O-]
REMARK SMILES IDX 10 1 9 2 8 3 7 4 6 5 5 6 4 7 2 8 1 9 3 10 11 11 12 12 13 13
REMARK SMILES IDX 14 14 15 15 16 16 17 17 18 18 19 19 20 20
REMARK H PARENT
REMARK Flexibility Score: inf
ROOT
ATOM      1  C   UNL     1      -9.462 -21.569  34.243  1.00  0.00     0.000 C 
ENDROOT
BRANCH   1   2
ATOM      2  C   UNL     1     -10.918 -21.070  34.245  1.00  0.00     0.000 C 
BRANCH   2   3
ATOM      3  C   UNL     1     -11.022 -19.550  34.042  1.00  0.00     0.000 C 
BRANCH   3   4
ATOM      4  C   UNL     1     -11.693 -19.176  32.712  1.00  0.00     0.000 C 
BRANCH   4   5
ATOM      5  C   UNL     1     -11.063 -17.913  32.115  1.00  0.00     0.000 C 
BRANCH   5   6
ATOM      6  C   UNL     1      -9.955 -18.270  31.114  1.00  0.00     0.006 C 
BRANCH   6   7
ATOM      7  C   UNL     1     -10.488 -18.411  29.683  1.00  0.00     0.053 C 
BRANCH   7   8
ATOM      8  C   UNL     1     -10.125 -19.735  29.082  1.00  0.00     0.041 C 
ATOM      9  O   UNL     1      -9.901 -19.830  27.847  1.00  0.00    -0.550 OA
ATOM     10  O   UNL     1     -10.065 -20.869  29.881  1.00  0.00    -0.550 OA
ENDBRANCH   7   8
ENDBRANCH   6   7
ENDBRANCH   5   6
ENDBRANCH   4   5
ENDBRANCH   3   4
ENDBRANCH   2   3
ENDBRANCH   1   2
BRANCH   1  11
ATOM     11  C   UNL     1      -8.536 -20.677  33.400  1.00  0.00     0.000 C 
BRANCH  11  12
ATOM     12  C   UNL     1      -7.140 -20.519  34.028  1.00  0.00     0.000 C 
BRANCH  12  13
ATOM     13  C   UNL     1      -6.476 -21.867  34.348  1.00  0.00     0.000 C 
BRANCH  13  14
ATOM     14  C   UNL     1      -5.892 -21.913  35.770  1.00  0.00     0.000 C 
BRANCH  14  15
ATOM     15  C   UNL     1      -4.792 -20.864  36.002  1.00  0.00     0.000 C 
BRANCH  15  16
ATOM     16  C   UNL     1      -3.596 -20.935  35.032  1.00  0.00     0.006 C 
BRANCH  16  17
ATOM     17  C   UNL     1      -3.029 -19.560  34.630  1.00  0.00     0.053 C 
BRANCH  17  18
ATOM     18  C   UNL     1      -4.100 -18.584  34.244  1.00  0.00     0.041 C 
ATOM     19  O   UNL     1      -4.359 -18.372  33.031  1.00  0.00    -0.550 OA
ATOM     20  O   UNL     1      -4.783 -17.875  35.225  1.00  0.00    -0.550 OA
ENDBRANCH  17  18
ENDBRANCH  16  17
ENDBRANCH  15  16
ENDBRANCH  14  15
ENDBRANCH  13  14
ENDBRANCH  12  13
ENDBRANCH  11  12
ENDBRANCH   1  11
TORSDOF 15
ENDMDL
