MODEL 1
REMARK VINA RESULT:    -5.284      0.000      0.000
REMARK INTER + INTRA:          -5.846
REMARK INTER:                  -5.592
REMARK INTRA:                  -0.253
REMARK UNBOUND:                -0.253
REMARK SMILES O=c1cc(-c2ccccc2)oc2ccccc12
REMARK SMILES IDX 4 1 3 2 2 3 1 4 17 5 16 6 15 7 14 8 13 9 12 10 11 11 5 12
REMARK SMILES IDX 8 13 7 14 9 15 6 16 10 17
REMARK H PARENT
REMARK Flexibility Score: inf
ROOT
ATOM      1  C   UNL     1     120.373 128.606 129.491  1.00  0.00     0.138 A 
ATOM      2  C   UNL     1     119.405 128.149 128.571  1.00  0.00     0.100 A 
ATOM      3  C   UNL     1     118.711 126.966 128.833  1.00  0.00     0.193 A 
ATOM      4  O   UNL     1     117.845 126.559 128.011  1.00  0.00    -0.289 OA
ATOM      5  C   UNL     1     118.986 126.250 130.006  1.00  0.00     0.065 A 
ATOM      6  C   UNL     1     118.323 125.051 130.329  1.00  0.00     0.016 A 
ATOM      7  C   UNL     1     118.636 124.376 131.513  1.00  0.00     0.001 A 
ATOM      8  C   UNL     1     119.608 124.887 132.378  1.00  0.00     0.004 A 
ATOM      9  C   UNL     1     120.272 126.077 132.064  1.00  0.00     0.048 A 
ATOM     10  C   UNL     1     119.966 126.761 130.883  1.00  0.00     0.138 A 
ATOM     11  O   UNL     1     120.603 127.891 130.593  1.00  0.00    -0.456 OA
ENDROOT
BRANCH   1  12
ATOM     12  C   UNL     1     121.161 129.861 129.287  1.00  0.00     0.017 A 
ATOM     13  C   UNL     1     122.646 132.244 129.000  1.00  0.00     0.000 A 
ATOM     14  C   UNL     1     122.249 131.816 130.267  1.00  0.00     0.001 A 
ATOM     15  C   UNL     1     122.308 131.492 127.875  1.00  0.00     0.001 A 
ATOM     16  C   UNL     1     121.514 130.636 130.412  1.00  0.00     0.012 A 
ATOM     17  C   UNL     1     121.572 130.311 128.011  1.00  0.00     0.012 A 
ENDBRANCH   1  12
TORSDOF 1
ENDMDL
MODEL 2
REMARK VINA RESULT:    -5.081     13.589     14.991
REMARK INTER + INTRA:          -5.632
REMARK INTER:                  -5.371
REMARK INTRA:                  -0.261
REMARK UNBOUND:                -0.253
REMARK SMILES O=c1cc(-c2ccccc2)oc2ccccc12
REMARK SMILES IDX 4 1 3 2 2 3 1 4 17 5 16 6 15 7 14 8 13 9 12 10 11 11 5 12
REMARK SMILES IDX 8 13 7 14 9 15 6 16 10 17
REMARK H PARENT
REMARK Flexibility Score: inf
ROOT
ATOM      1  C   UNL     1     132.819 136.194 129.563  1.00  0.00     0.138 A 
ATOM      2  C   UNL     1     133.561 135.929 130.734  1.00  0.00     0.100 A 
ATOM      3  C   UNL     1     133.939 134.618 131.028  1.00  0.00     0.193 A 
ATOM      4  O   UNL     1     134.603 134.382 132.075  1.00  0.00    -0.289 OA
ATOM      5  C   UNL     1     133.575 133.583 130.156  1.00  0.00     0.065 A 
ATOM      6  C   UNL     1     133.924 132.240 130.395  1.00  0.00     0.016 A 
ATOM      7  C   UNL     1     133.535 131.246 129.491  1.00  0.00     0.001 A 
ATOM      8  C   UNL     1     132.799 131.580 128.350  1.00  0.00     0.004 A 
ATOM      9  C   UNL     1     132.449 132.912 128.107  1.00  0.00     0.048 A 
ATOM     10  C   UNL     1     132.833 133.915 129.003  1.00  0.00     0.138 A 
ATOM     11  O   UNL     1     132.494 135.178 128.763  1.00  0.00    -0.456 OA
ENDROOT
BRANCH   1  12
ATOM     12  C   UNL     1     132.374 137.568 129.174  1.00  0.00     0.017 A 
ATOM     13  C   UNL     1     131.467 140.120 128.380  1.00  0.00     0.000 A 
ATOM     14  C   UNL     1     130.856 138.973 127.875  1.00  0.00     0.001 A 
ATOM     15  C   UNL     1     132.528 140.004 129.279  1.00  0.00     0.001 A 
ATOM     16  C   UNL     1     131.303 137.708 128.267  1.00  0.00     0.012 A 
ATOM     17  C   UNL     1     132.981 138.742 129.675  1.00  0.00     0.012 A 
ENDBRANCH   1  12
TORSDOF 1
ENDMDL
MODEL 3
REMARK VINA RESULT:    -5.012     13.511     16.000
REMARK INTER + INTRA:          -5.558
REMARK INTER:                  -5.296
REMARK INTRA:                  -0.262
REMARK UNBOUND:                -0.253
REMARK SMILES O=c1cc(-c2ccccc2)oc2ccccc12
REMARK SMILES IDX 4 1 3 2 2 3 1 4 17 5 16 6 15 7 14 8 13 9 12 10 11 11 5 12
REMARK SMILES IDX 8 13 7 14 9 15 6 16 10 17
REMARK H PARENT
REMARK Flexibility Score: inf
ROOT
ATOM      1  C   UNL     1     133.126 135.384 129.453  1.00  0.00     0.138 A 
ATOM      2  C   UNL     1     134.039 136.149 130.209  1.00  0.00     0.100 A 
ATOM      3  C   UNL     1     133.947 137.542 130.197  1.00  0.00     0.193 A 
ATOM      4  O   UNL     1     134.763 138.225 130.875  1.00  0.00    -0.289 OA
ATOM      5  C   UNL     1     132.947 138.161 129.434  1.00  0.00     0.065 A 
ATOM      6  C   UNL     1     132.800 139.559 129.378  1.00  0.00     0.016 A 
ATOM      7  C   UNL     1     131.784 140.125 128.600  1.00  0.00     0.001 A 
ATOM      8  C   UNL     1     130.914 139.306 127.875  1.00  0.00     0.004 A 
ATOM      9  C   UNL     1     131.055 137.915 127.925  1.00  0.00     0.048 A 
ATOM     10  C   UNL     1     132.066 137.338 128.700  1.00  0.00     0.138 A 
ATOM     11  O   UNL     1     132.192 136.016 128.741  1.00  0.00    -0.456 OA
ENDROOT
BRANCH   1  12
ATOM     12  C   UNL     1     133.155 133.889 129.410  1.00  0.00     0.017 A 
ATOM     13  C   UNL     1     133.266 131.069 129.410  1.00  0.00     0.000 A 
ATOM     14  C   UNL     1     133.908 131.793 130.414  1.00  0.00     0.001 A 
ATOM     15  C   UNL     1     132.569 131.740 128.405  1.00  0.00     0.001 A 
ATOM     16  C   UNL     1     133.854 133.190 130.417  1.00  0.00     0.012 A 
ATOM     17  C   UNL     1     132.511 133.138 128.400  1.00  0.00     0.012 A 
ENDBRANCH   1  12
TORSDOF 1
ENDMDL
MODEL 4
REMARK VINA RESULT:    -4.977      1.386      2.506
REMARK INTER + INTRA:          -5.521
REMARK INTER:                  -5.282
REMARK INTRA:                  -0.240
REMARK UNBOUND:                -0.253
REMARK SMILES O=c1cc(-c2ccccc2)oc2ccccc12
REMARK SMILES IDX 4 1 3 2 2 3 1 4 17 5 16 6 15 7 14 8 13 9 12 10 11 11 5 12
REMARK SMILES IDX 8 13 7 14 9 15 6 16 10 17
REMARK H PARENT
REMARK Flexibility Score: inf
ROOT
ATOM      1  C   UNL     1     120.589 129.092 129.661  1.00  0.00     0.138 A 
ATOM      2  C   UNL     1     120.994 128.075 130.551  1.00  0.00     0.100 A 
ATOM      3  C   UNL     1     120.166 126.969 130.754  1.00  0.00     0.193 A 
ATOM      4  O   UNL     1     120.529 126.059 131.549  1.00  0.00    -0.289 OA
ATOM      5  C   UNL     1     118.945 126.885 130.070  1.00  0.00     0.065 A 
ATOM      6  C   UNL     1     118.066 125.798 130.231  1.00  0.00     0.016 A 
ATOM      7  C   UNL     1     116.859 125.765 129.524  1.00  0.00     0.001 A 
ATOM      8  C   UNL     1     116.522 126.809 128.658  1.00  0.00     0.004 A 
ATOM      9  C   UNL     1     117.391 127.893 128.494  1.00  0.00     0.048 A 
ATOM     10  C   UNL     1     118.600 127.937 129.195  1.00  0.00     0.138 A 
ATOM     11  O   UNL     1     119.419 128.971 129.033  1.00  0.00    -0.456 OA
ENDROOT
BRANCH   1  12
ATOM     12  C   UNL     1     121.414 130.309 129.386  1.00  0.00     0.017 A 
ATOM     13  C   UNL     1     122.978 132.622 128.965  1.00  0.00     0.000 A 
ATOM     14  C   UNL     1     122.672 132.212 130.262  1.00  0.00     0.001 A 
ATOM     15  C   UNL     1     122.509 131.887 127.875  1.00  0.00     0.001 A 
ATOM     16  C   UNL     1     121.898 131.067 130.473  1.00  0.00     0.012 A 
ATOM     17  C   UNL     1     121.734 130.741 128.078  1.00  0.00     0.012 A 
ENDBRANCH   1  12
TORSDOF 1
ENDMDL
MODEL 5
REMARK VINA RESULT:    -4.953      1.436      6.291
REMARK INTER + INTRA:          -5.496
REMARK INTER:                  -5.238
REMARK INTRA:                  -0.258
REMARK UNBOUND:                -0.253
REMARK SMILES O=c1cc(-c2ccccc2)oc2ccccc12
REMARK SMILES IDX 4 1 3 2 2 3 1 4 17 5 16 6 15 7 14 8 13 9 12 10 11 11 5 12
REMARK SMILES IDX 8 13 7 14 9 15 6 16 10 17
REMARK H PARENT
REMARK Flexibility Score: inf
ROOT
ATOM      1  C   UNL     1     120.429 128.780 130.247  1.00  0.00     0.138 A 
ATOM      2  C   UNL     1     120.764 129.350 131.494  1.00  0.00     0.100 A 
ATOM      3  C   UNL     1     121.503 130.534 131.533  1.00  0.00     0.193 A 
ATOM      4  O   UNL     1     121.801 131.044 132.648  1.00  0.00    -0.289 OA
ATOM      5  C   UNL     1     121.901 131.139 130.333  1.00  0.00     0.065 A 
ATOM      6  C   UNL     1     122.647 132.332 130.304  1.00  0.00     0.016 A 
ATOM      7  C   UNL     1     123.019 132.894 129.078  1.00  0.00     0.001 A 
ATOM      8  C   UNL     1     122.653 132.274 127.880  1.00  0.00     0.004 A 
ATOM      9  C   UNL     1     121.912 131.088 127.901  1.00  0.00     0.048 A 
ATOM     10  C   UNL     1     121.534 130.517 129.121  1.00  0.00     0.138 A 
ATOM     11  O   UNL     1     120.830 129.390 129.131  1.00  0.00    -0.456 OA
ENDROOT
BRANCH   1  12
ATOM     12  C   UNL     1     119.642 127.515 130.115  1.00  0.00     0.017 A 
ATOM     13  C   UNL     1     118.190 125.099 129.955  1.00  0.00     0.000 A 
ATOM     14  C   UNL     1     118.959 125.378 131.084  1.00  0.00     0.001 A 
ATOM     15  C   UNL     1     118.139 126.016 128.905  1.00  0.00     0.001 A 
ATOM     16  C   UNL     1     119.679 126.574 131.166  1.00  0.00     0.012 A 
ATOM     17  C   UNL     1     118.856 127.215 128.979  1.00  0.00     0.012 A 
ENDBRANCH   1  12
TORSDOF 1
ENDMDL
MODEL 6
REMARK VINA RESULT:    -4.939     11.087     13.891
REMARK INTER + INTRA:          -5.481
REMARK INTER:                  -5.232
REMARK INTRA:                  -0.249
REMARK UNBOUND:                -0.253
REMARK SMILES O=c1cc(-c2ccccc2)oc2ccccc12
REMARK SMILES IDX 4 1 3 2 2 3 1 4 17 5 16 6 15 7 14 8 13 9 12 10 11 11 5 12
REMARK SMILES IDX 8 13 7 14 9 15 6 16 10 17
REMARK H PARENT
REMARK Flexibility Score: inf
ROOT
ATOM      1  C   UNL     1     123.738 122.627 140.882  1.00  0.00     0.138 A 
ATOM      2  C   UNL     1     124.876 121.832 140.626  1.00  0.00     0.100 A 
ATOM      3  C   UNL     1     125.559 121.245 141.692  1.00  0.00     0.193 A 
ATOM      4  O   UNL     1     126.576 120.533 141.463  1.00  0.00    -0.289 OA
ATOM      5  C   UNL     1     125.105 121.452 143.001  1.00  0.00     0.065 A 
ATOM      6  C   UNL     1     125.747 120.889 144.120  1.00  0.00     0.016 A 
ATOM      7  C   UNL     1     125.251 121.128 145.406  1.00  0.00     0.001 A 
ATOM      8  C   UNL     1     124.118 121.927 145.585  1.00  0.00     0.004 A 
ATOM      9  C   UNL     1     123.474 122.490 144.479  1.00  0.00     0.048 A 
ATOM     10  C   UNL     1     123.961 122.258 143.188  1.00  0.00     0.138 A 
ATOM     11  O   UNL     1     123.342 122.798 142.143  1.00  0.00    -0.456 OA
ENDROOT
BRANCH   1  12
ATOM     12  C   UNL     1     122.950 123.292 139.799  1.00  0.00     0.017 A 
ATOM     13  C   UNL     1     121.452 124.628 137.813  1.00  0.00     0.000 A 
ATOM     14  C   UNL     1     121.733 125.263 139.022  1.00  0.00     0.001 A 
ATOM     15  C   UNL     1     121.912 123.330 137.587  1.00  0.00     0.001 A 
ATOM     16  C   UNL     1     122.475 124.605 140.007  1.00  0.00     0.012 A 
ATOM     17  C   UNL     1     122.654 122.664 138.567  1.00  0.00     0.012 A 
ENDBRANCH   1  12
TORSDOF 1
ENDMDL
MODEL 7
REMARK VINA RESULT:    -4.880     11.064     14.819
REMARK INTER + INTRA:          -5.418
REMARK INTER:                  -5.160
REMARK INTRA:                  -0.258
REMARK UNBOUND:                -0.253
REMARK SMILES O=c1cc(-c2ccccc2)oc2ccccc12
REMARK SMILES IDX 4 1 3 2 2 3 1 4 17 5 16 6 15 7 14 8 13 9 12 10 11 11 5 12
REMARK SMILES IDX 8 13 7 14 9 15 6 16 10 17
REMARK H PARENT
REMARK Flexibility Score: inf
ROOT
ATOM      1  C   UNL     1     127.729 137.324 135.741  1.00  0.00     0.138 A 
ATOM      2  C   UNL     1     126.804 138.228 136.306  1.00  0.00     0.100 A 
ATOM      3  C   UNL     1     127.243 139.169 137.239  1.00  0.00     0.193 A 
ATOM      4  O   UNL     1     126.416 139.978 137.743  1.00  0.00    -0.289 OA
ATOM      5  C   UNL     1     128.597 139.202 137.601  1.00  0.00     0.065 A 
ATOM      6  C   UNL     1     129.104 140.125 138.535  1.00  0.00     0.016 A 
ATOM      7  C   UNL     1     130.464 140.115 138.861  1.00  0.00     0.001 A 
ATOM      8  C   UNL     1     131.324 139.189 138.262  1.00  0.00     0.004 A 
ATOM      9  C   UNL     1     130.828 138.269 137.333  1.00  0.00     0.048 A 
ATOM     10  C   UNL     1     129.469 138.270 137.000  1.00  0.00     0.138 A 
ATOM     11  O   UNL     1     129.007 137.392 136.116  1.00  0.00    -0.456 OA
ENDROOT
BRANCH   1  12
ATOM     12  C   UNL     1     127.343 136.286 134.736  1.00  0.00     0.017 A 
ATOM     13  C   UNL     1     126.690 134.270 132.870  1.00  0.00     0.000 A 
ATOM     14  C   UNL     1     127.778 134.104 133.726  1.00  0.00     0.001 A 
ATOM     15  C   UNL     1     125.925 135.435 132.937  1.00  0.00     0.001 A 
ATOM     16  C   UNL     1     128.103 135.100 134.652  1.00  0.00     0.012 A 
ATOM     17  C   UNL     1     126.244 136.437 133.859  1.00  0.00     0.012 A 
ENDBRANCH   1  12
TORSDOF 1
ENDMDL
MODEL 8
REMARK VINA RESULT:    -4.800      1.508      6.015
REMARK INTER + INTRA:          -5.334
REMARK INTER:                  -5.071
REMARK INTRA:                  -0.263
REMARK UNBOUND:                -0.253
REMARK SMILES O=c1cc(-c2ccccc2)oc2ccccc12
REMARK SMILES IDX 4 1 3 2 2 3 1 4 17 5 16 6 15 7 14 8 13 9 12 10 11 11 5 12
REMARK SMILES IDX 8 13 7 14 9 15 6 16 10 17
REMARK H PARENT
REMARK Flexibility Score: inf
ROOT
ATOM      1  C   UNL     1     120.741 127.782 130.705  1.00  0.00     0.138 A 
ATOM      2  C   UNL     1     120.513 128.296 129.411  1.00  0.00     0.100 A 
ATOM      3  C   UNL     1     121.110 129.500 129.033  1.00  0.00     0.193 A 
ATOM      4  O   UNL     1     120.907 129.958 127.875  1.00  0.00    -0.289 OA
ATOM      5  C   UNL     1     121.927 130.181 129.945  1.00  0.00     0.065 A 
ATOM      6  C   UNL     1     122.557 131.399 129.628  1.00  0.00     0.016 A 
ATOM      7  C   UNL     1     123.364 132.038 130.576  1.00  0.00     0.001 A 
ATOM      8  C   UNL     1     123.545 131.471 131.841  1.00  0.00     0.004 A 
ATOM      9  C   UNL     1     122.921 130.262 132.164  1.00  0.00     0.048 A 
ATOM     10  C   UNL     1     122.114 129.614 131.224  1.00  0.00     0.138 A 
ATOM     11  O   UNL     1     121.525 128.465 131.541  1.00  0.00    -0.456 OA
ENDROOT
BRANCH   1  12
ATOM     12  C   UNL     1     120.141 126.501 131.191  1.00  0.00     0.017 A 
ATOM     13  C   UNL     1     118.944 124.087 132.032  1.00  0.00     0.000 A 
ATOM     14  C   UNL     1     118.470 124.743 130.897  1.00  0.00     0.001 A 
ATOM     15  C   UNL     1     120.011 124.625 132.751  1.00  0.00     0.001 A 
ATOM     16  C   UNL     1     119.061 125.939 130.478  1.00  0.00     0.012 A 
ATOM     17  C   UNL     1     120.608 125.821 132.339  1.00  0.00     0.012 A 
ENDBRANCH   1  12
TORSDOF 1
ENDMDL
MODEL 9
REMARK VINA RESULT:    -4.751      1.341      2.661
REMARK INTER + INTRA:          -5.282
REMARK INTER:                  -5.021
REMARK INTRA:                  -0.262
REMARK UNBOUND:                -0.253
REMARK SMILES O=c1cc(-c2ccccc2)oc2ccccc12
REMARK SMILES IDX 4 1 3 2 2 3 1 4 17 5 16 6 15 7 14 8 13 9 12 10 11 11 5 12
REMARK SMILES IDX 8 13 7 14 9 15 6 16 10 17
REMARK H PARENT
REMARK Flexibility Score: inf
ROOT
ATOM      1  C   UNL     1     121.329 128.543 130.745  1.00  0.00     0.138 A 
ATOM      2  C   UNL     1     121.870 128.221 132.008  1.00  0.00     0.100 A 
ATOM      3  C   UNL     1     121.415 127.087 132.683  1.00  0.00     0.193 A 
ATOM      4  O   UNL     1     121.899 126.799 133.812  1.00  0.00    -0.289 OA
ATOM      5  C   UNL     1     120.428 126.284 132.095  1.00  0.00     0.065 A 
ATOM      6  C   UNL     1     119.927 125.128 132.722  1.00  0.00     0.016 A 
ATOM      7  C   UNL     1     118.941 124.361 132.091  1.00  0.00     0.001 A 
ATOM      8  C   UNL     1     118.451 124.740 130.838  1.00  0.00     0.004 A 
ATOM      9  C   UNL     1     118.944 125.888 130.209  1.00  0.00     0.048 A 
ATOM     10  C   UNL     1     119.929 126.662 130.831  1.00  0.00     0.138 A 
ATOM     11  O   UNL     1     120.391 127.751 130.225  1.00  0.00    -0.456 OA
ENDROOT
BRANCH   1  12
ATOM     12  C   UNL     1     121.759 129.739 129.956  1.00  0.00     0.017 A 
ATOM     13  C   UNL     1     122.606 132.035 128.550  1.00  0.00     0.000 A 
ATOM     14  C   UNL     1     122.842 131.929 129.920  1.00  0.00     0.001 A 
ATOM     15  C   UNL     1     121.951 131.005 127.875  1.00  0.00     0.001 A 
ATOM     16  C   UNL     1     122.424 130.792 130.619  1.00  0.00     0.012 A 
ATOM     17  C   UNL     1     121.529 129.865 128.567  1.00  0.00     0.012 A 
ENDBRANCH   1  12
TORSDOF 1
ENDMDL
