MODEL 1
REMARK VINA RESULT:    -5.210      0.000      0.000
REMARK INTER + INTRA:          -8.051
REMARK INTER:                  -7.037
REMARK INTRA:                  -1.013
REMARK UNBOUND:                -1.013
REMARK SMILES O=c1c(-c2ccc(O)cc2)coc2c([C@H]3O[C@H](CO)[C@H](O)[C@H](O)[C@H]3O)c(O)ccc12
REMARK SMILES IDX 3 1 11 2 12 3 13 4 30 5 2 6 1 7 29 8 28 9 26 10 14 11 4 12
REMARK SMILES IDX 5 13 6 14 7 15 10 16 9 17 8 18 15 20 24 21 16 22 22 23 17 24
REMARK SMILES IDX 20 25 25 26 23 28 18 30 19 31 21 33 27 35
REMARK H PARENT 8 19 25 27 23 29 19 32 21 34 27 36
REMARK Flexibility Score: inf
ROOT
ATOM      1  C   UNL     1      53.159   7.658 -50.441  1.00  0.00     0.065 A 
ATOM      2  C   UNL     1      51.995   6.926 -50.710  1.00  0.00     0.208 A 
ATOM      3  O   UNL     1      51.274   7.171 -51.797  1.00  0.00    -0.463 OA
ATOM      4  C   UNL     1      51.590   8.108 -52.688  1.00  0.00     0.147 A 
ATOM      5  C   UNL     1      52.739   8.910 -52.482  1.00  0.00     0.066 A 
ATOM      6  C   UNL     1      53.527   8.676 -51.340  1.00  0.00     0.200 A 
ATOM      7  O   UNL     1      54.546   9.387 -51.113  1.00  0.00    -0.288 OA
ATOM      8  C   UNL     1      53.059   9.914 -53.408  1.00  0.00     0.020 A 
ATOM      9  C   UNL     1      52.248  10.124 -54.521  1.00  0.00     0.047 A 
ATOM     10  C   UNL     1      51.112   9.335 -54.738  1.00  0.00     0.125 A 
ATOM     11  C   UNL     1      50.782   8.301 -53.834  1.00  0.00     0.069 A 
ENDROOT
BRANCH   1  12
ATOM     12  C   UNL     1      53.956   7.357 -49.227  1.00  0.00    -0.011 A 
ATOM     13  C   UNL     1      55.097   6.541 -49.309  1.00  0.00     0.013 A 
ATOM     14  C   UNL     1      55.842   6.250 -48.162  1.00  0.00     0.047 A 
ATOM     15  C   UNL     1      55.467   6.782 -46.925  1.00  0.00     0.115 A 
ATOM     16  C   UNL     1      53.589   7.897 -47.981  1.00  0.00     0.013 A 
ATOM     17  C   UNL     1      54.342   7.613 -46.838  1.00  0.00     0.047 A 
BRANCH  15  18
ATOM     18  O   UNL     1      56.216   6.481 -45.790  1.00  0.00    -0.508 OA
ATOM     19  H   UNL     1      56.620   5.561 -45.651  1.00  0.00     0.293 HD
ENDBRANCH  15  18
ENDBRANCH   1  12
BRANCH  11  20
ATOM     20  C   UNL     1      49.543   7.447 -54.077  1.00  0.00     0.188 C 
ATOM     21  C   UNL     1      49.866   6.265 -55.030  1.00  0.00     0.179 C 
ATOM     22  O   UNL     1      48.438   8.274 -54.442  1.00  0.00    -0.362 OA
ATOM     23  C   UNL     1      48.585   5.444 -55.309  1.00  0.00     0.177 C 
ATOM     24  C   UNL     1      47.731   7.846 -55.595  1.00  0.00     0.176 C 
ATOM     25  C   UNL     1      47.334   6.353 -55.501  1.00  0.00     0.177 C 
BRANCH  21  26
ATOM     26  O   UNL     1      50.418   6.740 -56.233  1.00  0.00    -0.387 OA
ATOM     27  H   UNL     1      50.306   7.727 -56.232  1.00  0.00     0.211 HD
ENDBRANCH  21  26
BRANCH  23  28
ATOM     28  O   UNL     1      48.366   4.532 -54.256  1.00  0.00    -0.387 OA
ATOM     29  H   UNL     1      47.780   3.814 -54.612  1.00  0.00     0.211 HD
ENDBRANCH  23  28
BRANCH  24  30
ATOM     30  C   UNL     1      46.501   8.753 -55.768  1.00  0.00     0.191 C 
BRANCH  30  31
ATOM     31  O   UNL     1      45.995   9.165 -54.527  1.00  0.00    -0.394 OA
ATOM     32  H   UNL     1      45.937  10.157 -54.560  1.00  0.00     0.210 HD
ENDBRANCH  30  31
ENDBRANCH  24  30
BRANCH  25  33
ATOM     33  O   UNL     1      46.418   6.181 -54.443  1.00  0.00    -0.388 OA
ATOM     34  H   UNL     1      45.904   7.027 -54.368  1.00  0.00     0.211 HD
ENDBRANCH  25  33
ENDBRANCH  11  20
BRANCH  10  35
ATOM     35  O   UNL     1      50.309   9.580 -55.851  1.00  0.00    -0.507 OA
ATOM     36  H   UNL     1      50.663  10.063 -56.669  1.00  0.00     0.293 HD
ENDBRANCH  10  35
TORSDOF 9
ENDMDL
MODEL 2
REMARK VINA RESULT:    -4.973     12.403     14.541
REMARK INTER + INTRA:          -7.731
REMARK INTER:                  -7.158
REMARK INTRA:                  -0.573
REMARK UNBOUND:                -1.013
REMARK SMILES O=c1c(-c2ccc(O)cc2)coc2c([C@H]3O[C@H](CO)[C@H](O)[C@H](O)[C@H]3O)c(O)ccc12
REMARK SMILES IDX 3 1 11 2 12 3 13 4 30 5 2 6 1 7 29 8 28 9 26 10 14 11 4 12
REMARK SMILES IDX 5 13 6 14 7 15 10 16 9 17 8 18 15 20 24 21 16 22 22 23 17 24
REMARK SMILES IDX 20 25 25 26 23 28 18 30 19 31 21 33 27 35
REMARK H PARENT 8 19 25 27 23 29 19 32 21 34 27 36
REMARK Flexibility Score: inf
ROOT
ATOM      1  C   UNL     1      46.984  -0.024 -43.798  1.00  0.00     0.065 A 
ATOM      2  C   UNL     1      46.740  -0.871 -44.887  1.00  0.00     0.208 A 
ATOM      3  O   UNL     1      46.813  -2.189 -44.753  1.00  0.00    -0.463 OA
ATOM      4  C   UNL     1      47.120  -2.791 -43.607  1.00  0.00     0.147 A 
ATOM      5  C   UNL     1      47.403  -2.010 -42.460  1.00  0.00     0.066 A 
ATOM      6  C   UNL     1      47.334  -0.608 -42.567  1.00  0.00     0.200 A 
ATOM      7  O   UNL     1      47.602   0.121 -41.571  1.00  0.00    -0.288 OA
ATOM      8  C   UNL     1      47.750  -2.643 -41.257  1.00  0.00     0.020 A 
ATOM      9  C   UNL     1      47.820  -4.032 -41.193  1.00  0.00     0.047 A 
ATOM     10  C   UNL     1      47.537  -4.816 -42.318  1.00  0.00     0.125 A 
ATOM     11  C   UNL     1      47.161  -4.204 -43.534  1.00  0.00     0.069 A 
ENDROOT
BRANCH   1  12
ATOM     12  C   UNL     1      46.883   1.446 -43.969  1.00  0.00    -0.011 A 
ATOM     13  C   UNL     1      45.634   2.086 -43.910  1.00  0.00     0.013 A 
ATOM     14  C   UNL     1      45.539   3.470 -44.080  1.00  0.00     0.047 A 
ATOM     15  C   UNL     1      46.690   4.233 -44.296  1.00  0.00     0.115 A 
ATOM     16  C   UNL     1      48.039   2.221 -44.178  1.00  0.00     0.013 A 
ATOM     17  C   UNL     1      47.943   3.606 -44.337  1.00  0.00     0.047 A 
BRANCH  15  18
ATOM     18  O   UNL     1      46.581   5.611 -44.469  1.00  0.00    -0.508 OA
ATOM     19  H   UNL     1      46.659   6.038 -45.386  1.00  0.00     0.293 HD
ENDBRANCH  15  18
ENDBRANCH   1  12
BRANCH  11  20
ATOM     20  C   UNL     1      46.856  -5.065 -44.755  1.00  0.00     0.188 C 
ATOM     21  C   UNL     1      48.151  -5.362 -45.557  1.00  0.00     0.179 C 
ATOM     22  O   UNL     1      45.766  -4.508 -45.490  1.00  0.00    -0.362 OA
ATOM     23  C   UNL     1      47.814  -6.187 -46.821  1.00  0.00     0.177 C 
ATOM     24  C   UNL     1      45.994  -4.380 -46.884  1.00  0.00     0.176 C 
ATOM     25  C   UNL     1      46.500  -5.704 -47.505  1.00  0.00     0.177 C 
BRANCH  21  26
ATOM     26  O   UNL     1      48.796  -4.163 -45.909  1.00  0.00    -0.387 OA
ATOM     27  H   UNL     1      48.818  -4.128 -46.902  1.00  0.00     0.211 HD
ENDBRANCH  21  26
BRANCH  23  28
ATOM     28  O   UNL     1      47.713  -7.552 -46.484  1.00  0.00    -0.387 OA
ATOM     29  H   UNL     1      46.756  -7.731 -46.284  1.00  0.00     0.211 HD
ENDBRANCH  23  28
BRANCH  24  30
ATOM     30  C   UNL     1      44.688  -3.904 -47.543  1.00  0.00     0.191 C 
BRANCH  30  31
ATOM     31  O   UNL     1      43.578  -4.197 -46.739  1.00  0.00    -0.394 OA
ATOM     32  H   UNL     1      42.777  -3.880 -47.236  1.00  0.00     0.210 HD
ENDBRANCH  30  31
ENDBRANCH  24  30
BRANCH  25  33
ATOM     33  O   UNL     1      45.489  -6.681 -47.404  1.00  0.00    -0.388 OA
ATOM     34  H   UNL     1      45.900  -7.547 -47.661  1.00  0.00     0.211 HD
ENDBRANCH  25  33
ENDBRANCH  11  20
BRANCH  10  35
ATOM     35  O   UNL     1      47.633  -6.204 -42.228  1.00  0.00    -0.507 OA
ATOM     36  H   UNL     1      47.295  -6.711 -41.419  1.00  0.00     0.293 HD
ENDBRANCH  10  35
TORSDOF 9
ENDMDL
MODEL 3
REMARK VINA RESULT:    -4.930      6.633     10.130
REMARK INTER + INTRA:          -7.672
REMARK INTER:                  -6.780
REMARK INTRA:                  -0.892
REMARK UNBOUND:                -1.013
REMARK SMILES O=c1c(-c2ccc(O)cc2)coc2c([C@H]3O[C@H](CO)[C@H](O)[C@H](O)[C@H]3O)c(O)ccc12
REMARK SMILES IDX 3 1 11 2 12 3 13 4 30 5 2 6 1 7 29 8 28 9 26 10 14 11 4 12
REMARK SMILES IDX 5 13 6 14 7 15 10 16 9 17 8 18 15 20 24 21 16 22 22 23 17 24
REMARK SMILES IDX 20 25 25 26 23 28 18 30 19 31 21 33 27 35
REMARK H PARENT 8 19 25 27 23 29 19 32 21 34 27 36
REMARK Flexibility Score: inf
ROOT
ATOM      1  C   UNL     1      57.189   1.324 -49.332  1.00  0.00     0.065 A 
ATOM      2  C   UNL     1      57.131   1.676 -47.976  1.00  0.00     0.208 A 
ATOM      3  O   UNL     1      56.648   2.853 -47.600  1.00  0.00    -0.463 OA
ATOM      4  C   UNL     1      56.200   3.767 -48.456  1.00  0.00     0.147 A 
ATOM      5  C   UNL     1      56.242   3.503 -49.847  1.00  0.00     0.066 A 
ATOM      6  C   UNL     1      56.747   2.264 -50.281  1.00  0.00     0.200 A 
ATOM      7  O   UNL     1      56.821   2.003 -51.515  1.00  0.00    -0.288 OA
ATOM      8  C   UNL     1      55.792   4.476 -50.752  1.00  0.00     0.020 A 
ATOM      9  C   UNL     1      55.310   5.696 -50.285  1.00  0.00     0.047 A 
ATOM     10  C   UNL     1      55.258   5.967 -48.912  1.00  0.00     0.125 A 
ATOM     11  C   UNL     1      55.682   4.995 -47.980  1.00  0.00     0.069 A 
ENDROOT
BRANCH   1  12
ATOM     12  C   UNL     1      57.720  -0.003 -49.728  1.00  0.00    -0.011 A 
ATOM     13  C   UNL     1      59.088  -0.291 -49.594  1.00  0.00     0.013 A 
ATOM     14  C   UNL     1      59.589  -1.539 -49.977  1.00  0.00     0.047 A 
ATOM     15  C   UNL     1      58.729  -2.517 -50.484  1.00  0.00     0.115 A 
ATOM     16  C   UNL     1      56.858  -0.994 -50.231  1.00  0.00     0.013 A 
ATOM     17  C   UNL     1      57.360  -2.245 -50.604  1.00  0.00     0.047 A 
BRANCH  15  18
ATOM     18  O   UNL     1      59.242  -3.755 -50.866  1.00  0.00    -0.508 OA
ATOM     19  H   UNL     1      59.083  -4.130 -51.795  1.00  0.00     0.293 HD
ENDBRANCH  15  18
ENDBRANCH   1  12
BRANCH  11  20
ATOM     20  C   UNL     1      55.623   5.299 -46.487  1.00  0.00     0.188 C 
ATOM     21  C   UNL     1      54.250   4.884 -45.893  1.00  0.00     0.179 C 
ATOM     22  O   UNL     1      56.043   6.640 -46.240  1.00  0.00    -0.362 OA
ATOM     23  C   UNL     1      54.188   5.251 -44.393  1.00  0.00     0.177 C 
ATOM     24  C   UNL     1      55.174   7.391 -45.407  1.00  0.00     0.176 C 
ATOM     25  C   UNL     1      54.841   6.635 -44.099  1.00  0.00     0.177 C 
BRANCH  21  26
ATOM     26  O   UNL     1      53.203   5.507 -46.596  1.00  0.00    -0.387 OA
ATOM     27  H   UNL     1      52.626   4.783 -46.956  1.00  0.00     0.211 HD
ENDBRANCH  21  26
BRANCH  23  28
ATOM     28  O   UNL     1      54.818   4.245 -43.631  1.00  0.00    -0.387 OA
ATOM     29  H   UNL     1      54.511   4.357 -42.693  1.00  0.00     0.211 HD
ENDBRANCH  23  28
BRANCH  24  30
ATOM     30  C   UNL     1      55.834   8.752 -45.127  1.00  0.00     0.191 C 
BRANCH  30  31
ATOM     31  O   UNL     1      55.297   9.350 -43.978  1.00  0.00    -0.394 OA
ATOM     32  H   UNL     1      54.641   8.704 -43.604  1.00  0.00     0.210 HD
ENDBRANCH  30  31
ENDBRANCH  24  30
BRANCH  25  33
ATOM     33  O   UNL     1      56.018   6.487 -43.336  1.00  0.00    -0.388 OA
ATOM     34  H   UNL     1      55.745   6.504 -42.381  1.00  0.00     0.211 HD
ENDBRANCH  25  33
ENDBRANCH  11  20
BRANCH  10  35
ATOM     35  O   UNL     1      54.787   7.205 -48.475  1.00  0.00    -0.507 OA
ATOM     36  H   UNL     1      55.337   7.801 -47.867  1.00  0.00     0.293 HD
ENDBRANCH  10  35
TORSDOF 9
ENDMDL
MODEL 4
REMARK VINA RESULT:    -4.913     12.885     14.756
REMARK INTER + INTRA:          -7.649
REMARK INTER:                  -6.651
REMARK INTRA:                  -0.998
REMARK UNBOUND:                -1.013
REMARK SMILES O=c1c(-c2ccc(O)cc2)coc2c([C@H]3O[C@H](CO)[C@H](O)[C@H](O)[C@H]3O)c(O)ccc12
REMARK SMILES IDX 3 1 11 2 12 3 13 4 30 5 2 6 1 7 29 8 28 9 26 10 14 11 4 12
REMARK SMILES IDX 5 13 6 14 7 15 10 16 9 17 8 18 15 20 24 21 16 22 22 23 17 24
REMARK SMILES IDX 20 25 25 26 23 28 18 30 19 31 21 33 27 35
REMARK H PARENT 8 19 25 27 23 29 19 32 21 34 27 36
REMARK Flexibility Score: inf
ROOT
ATOM      1  C   UNL     1      51.070  -6.443 -47.196  1.00  0.00     0.065 A 
ATOM      2  C   UNL     1      50.796  -5.074 -47.323  1.00  0.00     0.208 A 
ATOM      3  O   UNL     1      49.549  -4.623 -47.268  1.00  0.00    -0.463 OA
ATOM      4  C   UNL     1      48.492  -5.413 -47.099  1.00  0.00     0.147 A 
ATOM      5  C   UNL     1      48.676  -6.812 -46.984  1.00  0.00     0.066 A 
ATOM      6  C   UNL     1      49.986  -7.325 -47.036  1.00  0.00     0.200 A 
ATOM      7  O   UNL     1      50.185  -8.570 -46.960  1.00  0.00    -0.288 OA
ATOM      8  C   UNL     1      47.561  -7.649 -46.830  1.00  0.00     0.020 A 
ATOM      9  C   UNL     1      46.279  -7.106 -46.795  1.00  0.00     0.047 A 
ATOM     10  C   UNL     1      46.084  -5.723 -46.902  1.00  0.00     0.125 A 
ATOM     11  C   UNL     1      47.192  -4.858 -47.033  1.00  0.00     0.069 A 
ENDROOT
BRANCH   1  12
ATOM     12  C   UNL     1      52.472  -6.923 -47.246  1.00  0.00    -0.011 A 
ATOM     13  C   UNL     1      53.060  -7.278 -48.472  1.00  0.00     0.013 A 
ATOM     14  C   UNL     1      54.379  -7.740 -48.517  1.00  0.00     0.047 A 
ATOM     15  C   UNL     1      55.130  -7.838 -47.342  1.00  0.00     0.115 A 
ATOM     16  C   UNL     1      53.237  -7.016 -46.069  1.00  0.00     0.013 A 
ATOM     17  C   UNL     1      54.559  -7.468 -46.118  1.00  0.00     0.047 A 
BRANCH  15  18
ATOM     18  O   UNL     1      56.442  -8.304 -47.401  1.00  0.00    -0.508 OA
ATOM     19  H   UNL     1      56.765  -8.882 -48.169  1.00  0.00     0.293 HD
ENDBRANCH  15  18
ENDBRANCH   1  12
BRANCH  11  20
ATOM     20  C   UNL     1      46.971  -3.354 -47.151  1.00  0.00     0.188 C 
ATOM     21  C   UNL     1      46.893  -2.696 -45.747  1.00  0.00     0.179 C 
ATOM     22  O   UNL     1      45.888  -3.083 -48.041  1.00  0.00    -0.362 OA
ATOM     23  C   UNL     1      46.613  -1.182 -45.885  1.00  0.00     0.177 C 
ATOM     24  C   UNL     1      44.921  -2.174 -47.540  1.00  0.00     0.176 C 
ATOM     25  C   UNL     1      45.577  -0.876 -47.009  1.00  0.00     0.177 C 
BRANCH  21  26
ATOM     26  O   UNL     1      45.896  -3.313 -44.970  1.00  0.00    -0.387 OA
ATOM     27  H   UNL     1      45.101  -3.423 -45.556  1.00  0.00     0.211 HD
ENDBRANCH  21  26
BRANCH  23  28
ATOM     28  O   UNL     1      47.819  -0.496 -46.137  1.00  0.00    -0.387 OA
ATOM     29  H   UNL     1      47.905  -0.413 -47.123  1.00  0.00     0.211 HD
ENDBRANCH  23  28
BRANCH  24  30
ATOM     30  C   UNL     1      43.910  -1.884 -48.661  1.00  0.00     0.191 C 
BRANCH  30  31
ATOM     31  O   UNL     1      43.244  -0.669 -48.443  1.00  0.00    -0.394 OA
ATOM     32  H   UNL     1      42.274  -0.883 -48.397  1.00  0.00     0.210 HD
ENDBRANCH  30  31
ENDBRANCH  24  30
BRANCH  25  33
ATOM     33  O   UNL     1      46.183  -0.190 -48.081  1.00  0.00    -0.388 OA
ATOM     34  H   UNL     1      45.451   0.111 -48.680  1.00  0.00     0.211 HD
ENDBRANCH  25  33
ENDBRANCH  11  20
BRANCH  10  35
ATOM     35  O   UNL     1      44.788  -5.210 -46.882  1.00  0.00    -0.507 OA
ATOM     36  H   UNL     1      44.609  -4.212 -46.870  1.00  0.00     0.293 HD
ENDBRANCH  10  35
TORSDOF 9
ENDMDL
MODEL 5
REMARK VINA RESULT:    -4.877     14.075     15.691
REMARK INTER + INTRA:          -7.601
REMARK INTER:                  -6.671
REMARK INTRA:                  -0.930
REMARK UNBOUND:                -1.013
REMARK SMILES O=c1c(-c2ccc(O)cc2)coc2c([C@H]3O[C@H](CO)[C@H](O)[C@H](O)[C@H]3O)c(O)ccc12
REMARK SMILES IDX 3 1 11 2 12 3 13 4 30 5 2 6 1 7 29 8 28 9 26 10 14 11 4 12
REMARK SMILES IDX 5 13 6 14 7 15 10 16 9 17 8 18 15 20 24 21 16 22 22 23 17 24
REMARK SMILES IDX 20 25 25 26 23 28 18 30 19 31 21 33 27 35
REMARK H PARENT 8 19 25 27 23 29 19 32 21 34 27 36
REMARK Flexibility Score: inf
ROOT
ATOM      1  C   UNL     1      47.994  -4.715 -45.071  1.00  0.00     0.065 A 
ATOM      2  C   UNL     1      49.270  -5.149 -45.454  1.00  0.00     0.208 A 
ATOM      3  O   UNL     1      49.464  -5.737 -46.628  1.00  0.00    -0.463 OA
ATOM      4  C   UNL     1      48.489  -5.958 -47.505  1.00  0.00     0.147 A 
ATOM      5  C   UNL     1      47.163  -5.571 -47.190  1.00  0.00     0.066 A 
ATOM      6  C   UNL     1      46.922  -4.944 -45.954  1.00  0.00     0.200 A 
ATOM      7  O   UNL     1      45.748  -4.606 -45.629  1.00  0.00    -0.288 OA
ATOM      8  C   UNL     1      46.130  -5.827 -48.104  1.00  0.00     0.020 A 
ATOM      9  C   UNL     1      46.406  -6.461 -49.312  1.00  0.00     0.047 A 
ATOM     10  C   UNL     1      47.713  -6.843 -49.638  1.00  0.00     0.125 A 
ATOM     11  C   UNL     1      48.775  -6.575 -48.746  1.00  0.00     0.069 A 
ENDROOT
BRANCH   1  12
ATOM     12  C   UNL     1      47.803  -4.048 -43.761  1.00  0.00    -0.011 A 
ATOM     13  C   UNL     1      47.785  -2.646 -43.671  1.00  0.00     0.013 A 
ATOM     14  C   UNL     1      47.614  -2.018 -42.434  1.00  0.00     0.047 A 
ATOM     15  C   UNL     1      47.445  -2.781 -41.275  1.00  0.00     0.115 A 
ATOM     16  C   UNL     1      47.622  -4.810 -42.592  1.00  0.00     0.013 A 
ATOM     17  C   UNL     1      47.442  -4.180 -41.357  1.00  0.00     0.047 A 
BRANCH  15  18
ATOM     18  O   UNL     1      47.280  -2.142 -40.048  1.00  0.00    -0.508 OA
ATOM     19  H   UNL     1      48.055  -1.682 -39.582  1.00  0.00     0.293 HD
ENDBRANCH  15  18
ENDBRANCH   1  12
BRANCH  11  20
ATOM     20  C   UNL     1      50.195  -6.996 -49.108  1.00  0.00     0.188 C 
ATOM     21  C   UNL     1      50.939  -5.850 -49.844  1.00  0.00     0.179 C 
ATOM     22  O   UNL     1      50.181  -8.267 -49.759  1.00  0.00    -0.362 OA
ATOM     23  C   UNL     1      52.356  -6.315 -50.252  1.00  0.00     0.177 C 
ATOM     24  C   UNL     1      50.929  -8.325 -50.963  1.00  0.00     0.176 C 
ATOM     25  C   UNL     1      52.367  -7.785 -50.770  1.00  0.00     0.177 C 
BRANCH  21  26
ATOM     26  O   UNL     1      50.211  -5.438 -50.975  1.00  0.00    -0.387 OA
ATOM     27  H   UNL     1      49.335  -5.904 -50.939  1.00  0.00     0.211 HD
ENDBRANCH  21  26
BRANCH  23  28
ATOM     28  O   UNL     1      53.235  -6.179 -49.158  1.00  0.00    -0.387 OA
ATOM     29  H   UNL     1      52.676  -5.988 -48.359  1.00  0.00     0.211 HD
ENDBRANCH  23  28
BRANCH  24  30
ATOM     30  C   UNL     1      50.929  -9.781 -51.458  1.00  0.00     0.191 C 
BRANCH  30  31
ATOM     31  O   UNL     1      52.162 -10.122 -52.032  1.00  0.00    -0.394 OA
ATOM     32  H   UNL     1      52.008 -10.190 -53.012  1.00  0.00     0.210 HD
ENDBRANCH  30  31
ENDBRANCH  24  30
BRANCH  25  33
ATOM     33  O   UNL     1      53.065  -8.628 -49.881  1.00  0.00    -0.388 OA
ATOM     34  H   UNL     1      53.898  -8.151 -49.628  1.00  0.00     0.211 HD
ENDBRANCH  25  33
ENDBRANCH  11  20
BRANCH  10  35
ATOM     35  O   UNL     1      47.956  -7.493 -50.848  1.00  0.00    -0.507 OA
ATOM     36  H   UNL     1      47.223  -7.637 -51.533  1.00  0.00     0.293 HD
ENDBRANCH  10  35
TORSDOF 9
ENDMDL
MODEL 6
REMARK VINA RESULT:    -4.826      3.208     10.145
REMARK INTER + INTRA:          -7.531
REMARK INTER:                  -6.579
REMARK INTRA:                  -0.952
REMARK UNBOUND:                -1.013
REMARK SMILES O=c1c(-c2ccc(O)cc2)coc2c([C@H]3O[C@H](CO)[C@H](O)[C@H](O)[C@H]3O)c(O)ccc12
REMARK SMILES IDX 3 1 11 2 12 3 13 4 30 5 2 6 1 7 29 8 28 9 26 10 14 11 4 12
REMARK SMILES IDX 5 13 6 14 7 15 10 16 9 17 8 18 15 20 24 21 16 22 22 23 17 24
REMARK SMILES IDX 20 25 25 26 23 28 18 30 19 31 21 33 27 35
REMARK H PARENT 8 19 25 27 23 29 19 32 21 34 27 36
REMARK Flexibility Score: inf
ROOT
ATOM      1  C   UNL     1      53.947   7.324 -49.894  1.00  0.00     0.065 A 
ATOM      2  C   UNL     1      54.662   6.122 -49.966  1.00  0.00     0.208 A 
ATOM      3  O   UNL     1      55.170   5.567 -48.872  1.00  0.00    -0.463 OA
ATOM      4  C   UNL     1      55.048   6.099 -47.659  1.00  0.00     0.147 A 
ATOM      5  C   UNL     1      54.360   7.326 -47.499  1.00  0.00     0.066 A 
ATOM      6  C   UNL     1      53.807   7.940 -48.637  1.00  0.00     0.200 A 
ATOM      7  O   UNL     1      53.205   9.047 -48.535  1.00  0.00    -0.288 OA
ATOM      8  C   UNL     1      54.251   7.899 -46.223  1.00  0.00     0.020 A 
ATOM      9  C   UNL     1      54.822   7.267 -45.121  1.00  0.00     0.047 A 
ATOM     10  C   UNL     1      55.502   6.051 -45.266  1.00  0.00     0.125 A 
ATOM     11  C   UNL     1      55.603   5.440 -46.535  1.00  0.00     0.069 A 
ENDROOT
BRANCH   1  12
ATOM     12  C   UNL     1      53.376   7.918 -51.127  1.00  0.00    -0.011 A 
ATOM     13  C   UNL     1      54.051   8.951 -51.799  1.00  0.00     0.013 A 
ATOM     14  C   UNL     1      53.507   9.517 -52.956  1.00  0.00     0.047 A 
ATOM     15  C   UNL     1      52.292   9.049 -53.464  1.00  0.00     0.115 A 
ATOM     16  C   UNL     1      52.158   7.445 -51.648  1.00  0.00     0.013 A 
ATOM     17  C   UNL     1      51.621   8.006 -52.811  1.00  0.00     0.047 A 
BRANCH  15  18
ATOM     18  O   UNL     1      51.759   9.624 -54.615  1.00  0.00    -0.508 OA
ATOM     19  H   UNL     1      51.532  10.612 -54.657  1.00  0.00     0.293 HD
ENDBRANCH  15  18
ENDBRANCH   1  12
BRANCH  11  20
ATOM     20  C   UNL     1      56.345   4.117 -46.684  1.00  0.00     0.188 C 
ATOM     21  C   UNL     1      55.397   2.920 -46.409  1.00  0.00     0.179 C 
ATOM     22  O   UNL     1      57.562   4.149 -45.939  1.00  0.00    -0.362 OA
ATOM     23  C   UNL     1      56.180   1.590 -46.509  1.00  0.00     0.177 C 
ATOM     24  C   UNL     1      57.775   3.024 -45.102  1.00  0.00     0.176 C 
ATOM     25  C   UNL     1      57.599   1.694 -45.874  1.00  0.00     0.177 C 
BRANCH  21  26
ATOM     26  O   UNL     1      54.800   3.046 -45.142  1.00  0.00    -0.387 OA
ATOM     27  H   UNL     1      53.937   2.557 -45.179  1.00  0.00     0.211 HD
ENDBRANCH  21  26
BRANCH  23  28
ATOM     28  O   UNL     1      56.280   1.198 -47.860  1.00  0.00    -0.387 OA
ATOM     29  H   UNL     1      56.731   0.313 -47.872  1.00  0.00     0.211 HD
ENDBRANCH  23  28
BRANCH  24  30
ATOM     30  C   UNL     1      59.179   3.143 -44.485  1.00  0.00     0.191 C 
BRANCH  30  31
ATOM     31  O   UNL     1      60.015   3.942 -45.277  1.00  0.00    -0.394 OA
ATOM     32  H   UNL     1      60.949   3.715 -45.019  1.00  0.00     0.210 HD
ENDBRANCH  30  31
ENDBRANCH  24  30
BRANCH  25  33
ATOM     33  O   UNL     1      58.602   1.593 -46.860  1.00  0.00    -0.388 OA
ATOM     34  H   UNL     1      58.248   0.995 -47.569  1.00  0.00     0.211 HD
ENDBRANCH  25  33
ENDBRANCH  11  20
BRANCH  10  35
ATOM     35  O   UNL     1      56.078   5.451 -44.147  1.00  0.00    -0.507 OA
ATOM     36  H   UNL     1      56.543   5.995 -43.429  1.00  0.00     0.293 HD
ENDBRANCH  10  35
TORSDOF 9
ENDMDL
MODEL 7
REMARK VINA RESULT:    -4.820      2.685      4.940
REMARK INTER + INTRA:          -7.524
REMARK INTER:                  -6.627
REMARK INTRA:                  -0.898
REMARK UNBOUND:                -1.013
REMARK SMILES O=c1c(-c2ccc(O)cc2)coc2c([C@H]3O[C@H](CO)[C@H](O)[C@H](O)[C@H]3O)c(O)ccc12
REMARK SMILES IDX 3 1 11 2 12 3 13 4 30 5 2 6 1 7 29 8 28 9 26 10 14 11 4 12
REMARK SMILES IDX 5 13 6 14 7 15 10 16 9 17 8 18 15 20 24 21 16 22 22 23 17 24
REMARK SMILES IDX 20 25 25 26 23 28 18 30 19 31 21 33 27 35
REMARK H PARENT 8 19 25 27 23 29 19 32 21 34 27 36
REMARK Flexibility Score: inf
ROOT
ATOM      1  C   UNL     1      54.549   7.138 -48.059  1.00  0.00     0.065 A 
ATOM      2  C   UNL     1      53.791   7.921 -48.940  1.00  0.00     0.208 A 
ATOM      3  O   UNL     1      53.763   7.649 -50.239  1.00  0.00    -0.463 OA
ATOM      4  C   UNL     1      54.438   6.643 -50.790  1.00  0.00     0.147 A 
ATOM      5  C   UNL     1      55.248   5.815 -49.975  1.00  0.00     0.066 A 
ATOM      6  C   UNL     1      55.299   6.075 -48.593  1.00  0.00     0.200 A 
ATOM      7  O   UNL     1      56.029   5.370 -47.839  1.00  0.00    -0.288 OA
ATOM      8  C   UNL     1      55.979   4.770 -50.558  1.00  0.00     0.020 A 
ATOM      9  C   UNL     1      55.912   4.551 -51.932  1.00  0.00     0.047 A 
ATOM     10  C   UNL     1      55.111   5.360 -52.747  1.00  0.00     0.125 A 
ATOM     11  C   UNL     1      54.346   6.403 -52.181  1.00  0.00     0.069 A 
ENDROOT
BRANCH   1  12
ATOM     12  C   UNL     1      54.554   7.453 -46.609  1.00  0.00    -0.011 A 
ATOM     13  C   UNL     1      55.647   8.118 -46.029  1.00  0.00     0.013 A 
ATOM     14  C   UNL     1      55.655   8.405 -44.661  1.00  0.00     0.047 A 
ATOM     15  C   UNL     1      54.567   8.046 -43.860  1.00  0.00     0.115 A 
ATOM     16  C   UNL     1      53.458   7.102 -45.800  1.00  0.00     0.013 A 
ATOM     17  C   UNL     1      53.464   7.400 -44.434  1.00  0.00     0.047 A 
BRANCH  15  18
ATOM     18  O   UNL     1      54.590   8.334 -42.497  1.00  0.00    -0.508 OA
ATOM     19  H   UNL     1      53.749   8.285 -41.931  1.00  0.00     0.293 HD
ENDBRANCH  15  18
ENDBRANCH   1  12
BRANCH  11  20
ATOM     20  C   UNL     1      53.477   7.279 -53.076  1.00  0.00     0.188 C 
ATOM     21  C   UNL     1      52.117   6.592 -53.368  1.00  0.00     0.179 C 
ATOM     22  O   UNL     1      54.224   7.718 -54.211  1.00  0.00    -0.362 OA
ATOM     23  C   UNL     1      51.273   7.470 -54.322  1.00  0.00     0.177 C 
ATOM     24  C   UNL     1      53.573   7.536 -55.458  1.00  0.00     0.176 C 
ATOM     25  C   UNL     1      52.139   8.118 -55.444  1.00  0.00     0.177 C 
BRANCH  21  26
ATOM     26  O   UNL     1      52.320   5.316 -53.924  1.00  0.00    -0.387 OA
ATOM     27  H   UNL     1      51.422   4.916 -54.064  1.00  0.00     0.211 HD
ENDBRANCH  21  26
BRANCH  23  28
ATOM     28  O   UNL     1      50.607   8.469 -53.584  1.00  0.00    -0.387 OA
ATOM     29  H   UNL     1      49.672   8.501 -53.918  1.00  0.00     0.211 HD
ENDBRANCH  23  28
BRANCH  24  30
ATOM     30  C   UNL     1      54.440   8.182 -56.551  1.00  0.00     0.191 C 
BRANCH  30  31
ATOM     31  O   UNL     1      54.774   9.503 -56.221  1.00  0.00    -0.394 OA
ATOM     32  H   UNL     1      54.801   9.548 -55.228  1.00  0.00     0.210 HD
ENDBRANCH  30  31
ENDBRANCH  24  30
BRANCH  25  33
ATOM     33  O   UNL     1      52.207   9.517 -55.285  1.00  0.00    -0.388 OA
ATOM     34  H   UNL     1      52.291   9.691 -54.311  1.00  0.00     0.211 HD
ENDBRANCH  25  33
ENDBRANCH  11  20
BRANCH  10  35
ATOM     35  O   UNL     1      55.078   5.128 -54.122  1.00  0.00    -0.507 OA
ATOM     36  H   UNL     1      54.205   5.012 -54.623  1.00  0.00     0.293 HD
ENDBRANCH  10  35
TORSDOF 9
ENDMDL
MODEL 8
REMARK VINA RESULT:    -4.806      6.247     10.725
REMARK INTER + INTRA:          -7.505
REMARK INTER:                  -6.716
REMARK INTRA:                  -0.788
REMARK UNBOUND:                -1.013
REMARK SMILES O=c1c(-c2ccc(O)cc2)coc2c([C@H]3O[C@H](CO)[C@H](O)[C@H](O)[C@H]3O)c(O)ccc12
REMARK SMILES IDX 3 1 11 2 12 3 13 4 30 5 2 6 1 7 29 8 28 9 26 10 14 11 4 12
REMARK SMILES IDX 5 13 6 14 7 15 10 16 9 17 8 18 15 20 24 21 16 22 22 23 17 24
REMARK SMILES IDX 20 25 25 26 23 28 18 30 19 31 21 33 27 35
REMARK H PARENT 8 19 25 27 23 29 19 32 21 34 27 36
REMARK Flexibility Score: inf
ROOT
ATOM      1  C   UNL     1      55.424   4.768 -48.733  1.00  0.00     0.065 A 
ATOM      2  C   UNL     1      55.306   3.736 -49.674  1.00  0.00     0.208 A 
ATOM      3  O   UNL     1      55.898   2.565 -49.475  1.00  0.00    -0.463 OA
ATOM      4  C   UNL     1      56.632   2.290 -48.400  1.00  0.00     0.147 A 
ATOM      5  C   UNL     1      56.822   3.284 -47.409  1.00  0.00     0.066 A 
ATOM      6  C   UNL     1      56.207   4.537 -47.588  1.00  0.00     0.200 A 
ATOM      7  O   UNL     1      56.373   5.455 -46.735  1.00  0.00    -0.288 OA
ATOM      8  C   UNL     1      57.616   3.003 -46.287  1.00  0.00     0.020 A 
ATOM      9  C   UNL     1      58.218   1.754 -46.151  1.00  0.00     0.047 A 
ATOM     10  C   UNL     1      58.034   0.762 -47.122  1.00  0.00     0.125 A 
ATOM     11  C   UNL     1      57.219   1.011 -48.248  1.00  0.00     0.069 A 
ENDROOT
BRANCH   1  12
ATOM     12  C   UNL     1      54.742   6.064 -48.969  1.00  0.00    -0.011 A 
ATOM     13  C   UNL     1      55.029   6.820 -50.119  1.00  0.00     0.013 A 
ATOM     14  C   UNL     1      54.393   8.046 -50.336  1.00  0.00     0.047 A 
ATOM     15  C   UNL     1      53.454   8.524 -49.417  1.00  0.00     0.115 A 
ATOM     16  C   UNL     1      53.789   6.546 -48.054  1.00  0.00     0.013 A 
ATOM     17  C   UNL     1      53.147   7.768 -48.278  1.00  0.00     0.047 A 
BRANCH  15  18
ATOM     18  O   UNL     1      52.831   9.749 -49.644  1.00  0.00    -0.508 OA
ATOM     19  H   UNL     1      51.854   9.898 -49.411  1.00  0.00     0.293 HD
ENDBRANCH  15  18
ENDBRANCH   1  12
BRANCH  11  20
ATOM     20  C   UNL     1      57.025  -0.075 -49.300  1.00  0.00     0.188 C 
ATOM     21  C   UNL     1      55.847  -1.010 -48.917  1.00  0.00     0.179 C 
ATOM     22  O   UNL     1      58.271  -0.708 -49.589  1.00  0.00    -0.362 OA
ATOM     23  C   UNL     1      55.702  -2.137 -49.966  1.00  0.00     0.177 C 
ATOM     24  C   UNL     1      58.236  -2.126 -49.566  1.00  0.00     0.176 C 
ATOM     25  C   UNL     1      57.083  -2.684 -50.435  1.00  0.00     0.177 C 
BRANCH  21  26
ATOM     26  O   UNL     1      56.047  -1.553 -47.635  1.00  0.00    -0.387 OA
ATOM     27  H   UNL     1      55.748  -2.499 -47.672  1.00  0.00     0.211 HD
ENDBRANCH  21  26
BRANCH  23  28
ATOM     28  O   UNL     1      54.965  -1.665 -51.072  1.00  0.00    -0.387 OA
ATOM     29  H   UNL     1      55.088  -2.325 -51.804  1.00  0.00     0.211 HD
ENDBRANCH  23  28
BRANCH  24  30
ATOM     30  C   UNL     1      59.605  -2.649 -50.032  1.00  0.00     0.191 C 
BRANCH  30  31
ATOM     31  O   UNL     1      59.500  -3.938 -50.572  1.00  0.00    -0.394 OA
ATOM     32  H   UNL     1      58.529  -4.146 -50.621  1.00  0.00     0.210 HD
ENDBRANCH  30  31
ENDBRANCH  24  30
BRANCH  25  33
ATOM     33  O   UNL     1      57.322  -2.361 -51.787  1.00  0.00    -0.388 OA
ATOM     34  H   UNL     1      56.509  -2.624 -52.292  1.00  0.00     0.211 HD
ENDBRANCH  25  33
ENDBRANCH  11  20
BRANCH  10  35
ATOM     35  O   UNL     1      58.664  -0.473 -46.967  1.00  0.00    -0.507 OA
ATOM     36  H   UNL     1      58.775  -0.906 -46.058  1.00  0.00     0.293 HD
ENDBRANCH  10  35
TORSDOF 9
ENDMDL
MODEL 9
REMARK VINA RESULT:    -4.733      3.906      5.646
REMARK INTER + INTRA:          -7.406
REMARK INTER:                  -6.717
REMARK INTRA:                  -0.690
REMARK UNBOUND:                -1.013
REMARK SMILES O=c1c(-c2ccc(O)cc2)coc2c([C@H]3O[C@H](CO)[C@H](O)[C@H](O)[C@H]3O)c(O)ccc12
REMARK SMILES IDX 3 1 11 2 12 3 13 4 30 5 2 6 1 7 29 8 28 9 26 10 14 11 4 12
REMARK SMILES IDX 5 13 6 14 7 15 10 16 9 17 8 18 15 20 24 21 16 22 22 23 17 24
REMARK SMILES IDX 20 25 25 26 23 28 18 30 19 31 21 33 27 35
REMARK H PARENT 8 19 25 27 23 29 19 32 21 34 27 36
REMARK Flexibility Score: inf
ROOT
ATOM      1  C   UNL     1      53.975   7.409 -48.763  1.00  0.00     0.065 A 
ATOM      2  C   UNL     1      54.309   6.183 -49.352  1.00  0.00     0.208 A 
ATOM      3  O   UNL     1      54.342   6.049 -50.672  1.00  0.00    -0.463 OA
ATOM      4  C   UNL     1      54.063   7.041 -51.514  1.00  0.00     0.147 A 
ATOM      5  C   UNL     1      53.694   8.309 -51.004  1.00  0.00     0.066 A 
ATOM      6  C   UNL     1      53.649   8.486 -49.609  1.00  0.00     0.200 A 
ATOM      7  O   UNL     1      53.302   9.597 -49.118  1.00  0.00    -0.288 OA
ATOM      8  C   UNL     1      53.376   9.348 -51.891  1.00  0.00     0.020 A 
ATOM      9  C   UNL     1      53.419   9.132 -53.266  1.00  0.00     0.047 A 
ATOM     10  C   UNL     1      53.788   7.884 -53.783  1.00  0.00     0.125 A 
ATOM     11  C   UNL     1      54.137   6.829 -52.912  1.00  0.00     0.069 A 
ENDROOT
BRANCH   1  12
ATOM     12  C   UNL     1      53.957   7.539 -47.286  1.00  0.00    -0.011 A 
ATOM     13  C   UNL     1      55.131   7.866 -46.586  1.00  0.00     0.013 A 
ATOM     14  C   UNL     1      55.116   7.979 -45.193  1.00  0.00     0.047 A 
ATOM     15  C   UNL     1      53.927   7.780 -44.483  1.00  0.00     0.115 A 
ATOM     16  C   UNL     1      52.763   7.349 -46.567  1.00  0.00     0.013 A 
ATOM     17  C   UNL     1      52.748   7.472 -45.175  1.00  0.00     0.047 A 
BRANCH  15  18
ATOM     18  O   UNL     1      53.927   7.891 -43.095  1.00  0.00    -0.508 OA
ATOM     19  H   UNL     1      53.517   8.693 -42.627  1.00  0.00     0.293 HD
ENDBRANCH  15  18
ENDBRANCH   1  12
BRANCH  11  20
ATOM     20  C   UNL     1      54.536   5.473 -53.483  1.00  0.00     0.188 C 
ATOM     21  C   UNL     1      53.301   4.542 -53.607  1.00  0.00     0.179 C 
ATOM     22  O   UNL     1      55.658   4.950 -52.772  1.00  0.00    -0.362 OA
ATOM     23  C   UNL     1      53.733   3.154 -54.134  1.00  0.00     0.177 C 
ATOM     24  C   UNL     1      55.515   3.605 -52.344  1.00  0.00     0.176 C 
ATOM     25  C   UNL     1      55.077   2.679 -53.504  1.00  0.00     0.177 C 
BRANCH  21  26
ATOM     26  O   UNL     1      52.653   4.417 -52.365  1.00  0.00    -0.387 OA
ATOM     27  H   UNL     1      51.710   4.699 -52.502  1.00  0.00     0.211 HD
ENDBRANCH  21  26
BRANCH  23  28
ATOM     28  O   UNL     1      53.843   3.192 -55.540  1.00  0.00    -0.387 OA
ATOM     29  H   UNL     1      54.481   2.477 -55.800  1.00  0.00     0.211 HD
ENDBRANCH  23  28
BRANCH  24  30
ATOM     30  C   UNL     1      56.848   3.153 -51.726  1.00  0.00     0.191 C 
BRANCH  30  31
ATOM     31  O   UNL     1      57.933   3.820 -52.313  1.00  0.00    -0.394 OA
ATOM     32  H   UNL     1      58.367   4.346 -51.590  1.00  0.00     0.210 HD
ENDBRANCH  30  31
ENDBRANCH  24  30
BRANCH  25  33
ATOM     33  O   UNL     1      56.101   2.632 -54.472  1.00  0.00    -0.388 OA
ATOM     34  H   UNL     1      56.588   1.778 -54.334  1.00  0.00     0.211 HD
ENDBRANCH  25  33
ENDBRANCH  11  20
BRANCH  10  35
ATOM     35  O   UNL     1      53.805   7.692 -55.164  1.00  0.00    -0.507 OA
ATOM     36  H   UNL     1      53.060   7.199 -55.644  1.00  0.00     0.293 HD
ENDBRANCH  10  35
TORSDOF 9
ENDMDL
