MODEL 1
REMARK VINA RESULT:    15.955      0.000      0.000
REMARK INTER + INTRA:          21.159
REMARK INTER:                  19.687
REMARK INTRA:                   1.473
REMARK UNBOUND:                 1.473
REMARK SMILES C=C1CC[C@@H]2[C@H]1[C@H]1[C@H](CC[C@@H]2C)C1(C)C
REMARK SMILES IDX 6 1 5 2 4 3 3 4 2 5 1 6 11 7 12 8 10 9 7 11 8 12 13 13 14 14
REMARK SMILES IDX 15 15 9 16
REMARK H PARENT
REMARK Flexibility Score: 80.00
ROOT
ATOM      1  C   UNL     1       1.097   6.080  -9.994  1.00  0.00     0.022 C 
ATOM      2  C   UNL     1       0.407   5.272 -11.130  1.00  0.00    -0.000 C 
ATOM      3  C   UNL     1       0.407   3.794 -10.685  1.00  0.00     0.009 C 
ATOM      4  C   UNL     1       1.511   3.649  -9.637  1.00  0.00     0.031 C 
ATOM      5  C   UNL     1       1.857   5.043  -9.235  1.00  0.00    -0.074 C 
ATOM      6  C   UNL     1       2.905   5.325  -8.450  1.00  0.00     0.008 C 
ENDROOT
BRANCH   2   7
ATOM      7  C   UNL     1      -0.962   5.822 -11.696  1.00  0.00    -0.011 C 
ATOM      8  C   UNL     1      -1.217   5.221 -13.088  1.00  0.00     0.008 C 
BRANCH   7   9
ATOM      9  C   UNL     1      -2.243   5.610 -10.820  1.00  0.00     0.004 CG0
ATOM     10  G   UNL     1      -2.281   6.401  -9.500  1.00  0.00     0.000 G0
ENDBRANCH   7   9
ENDBRANCH   2   7
BRANCH   1  11
ATOM     11  C   UNL     1       0.121   6.972  -9.190  1.00  0.00     0.006 C 
ATOM     12  C   UNL     1      -1.038   6.090  -8.673  1.00  0.00    -0.001 C 
ATOM     13  C   UNL     1      -0.328   7.032  -7.715  1.00  0.00    -0.029 C 
ATOM     14  C   UNL     1      -1.109   8.282  -7.284  1.00  0.00     0.012 C 
ATOM     15  C   UNL     1       0.528   6.365  -6.631  1.00  0.00     0.012 C 
BRANCH  12  16
ATOM     16  C   UNL     1      -2.285   6.402  -9.491  1.00  0.00     0.005 CG0
ATOM     17  G   UNL     1      -2.232   5.611 -10.810  1.00  0.00     0.000 G0
ENDBRANCH  12  16
ENDBRANCH   1  11
TORSDOF 0
ENDMDL
