MODEL 1
REMARK VINA RESULT:    -5.174      0.000      0.000
REMARK INTER + INTRA:          -9.457
REMARK INTER:                  -8.199
REMARK INTRA:                  -1.258
REMARK UNBOUND:                -1.258
REMARK SMILES CCCCCCCCCCCC(=O)[O-]
REMARK SMILES IDX 7 1 8 2 9 3 10 4 11 5 12 6 13 7 14 8 6 9 5 10 4 11 3 12 2 13
REMARK SMILES IDX 1 14
REMARK H PARENT
REMARK Flexibility Score: inf
ROOT
ATOM      1  C   UNL     1      20.817  12.519   0.821  1.00  0.00     0.000 C 
ENDROOT
BRANCH   1   2
ATOM      2  C   UNL     1      22.255  11.974   0.875  1.00  0.00     0.000 C 
BRANCH   2   3
ATOM      3  C   UNL     1      23.345  12.968   0.436  1.00  0.00     0.000 C 
BRANCH   3   4
ATOM      4  C   UNL     1      22.790  14.366   0.119  1.00  0.00     0.006 C 
BRANCH   4   5
ATOM      5  C   UNL     1      23.163  15.395   1.195  1.00  0.00     0.053 C 
BRANCH   5   6
ATOM      6  C   UNL     1      21.953  16.094   1.736  1.00  0.00     0.041 C 
ATOM      7  O   UNL     1      20.996  16.386   0.972  1.00  0.00    -0.550 OA
ATOM      8  O   UNL     1      21.900  16.455   3.076  1.00  0.00    -0.550 OA
ENDBRANCH   5   6
ENDBRANCH   4   5
ENDBRANCH   3   4
ENDBRANCH   2   3
ENDBRANCH   1   2
BRANCH   1   9
ATOM      9  C   UNL     1      20.014  11.974  -0.375  1.00  0.00     0.000 C 
BRANCH   9  10
ATOM     10  C   UNL     1      19.588  13.083  -1.352  1.00  0.00    -0.000 C 
BRANCH  10  11
ATOM     11  C   UNL     1      20.150  12.865  -2.768  1.00  0.00    -0.000 C 
BRANCH  11  12
ATOM     12  C   UNL     1      21.476  12.089  -2.763  1.00  0.00    -0.000 C 
BRANCH  12  13
ATOM     13  C   UNL     1      22.407  12.495  -3.915  1.00  0.00    -0.003 C 
ATOM     14  C   UNL     1      23.462  13.491  -3.444  1.00  0.00     0.004 C 
ENDBRANCH  12  13
ENDBRANCH  11  12
ENDBRANCH  10  11
ENDBRANCH   9  10
ENDBRANCH   1   9
TORSDOF 10
ENDMDL
MODEL 2
REMARK VINA RESULT:    -5.138      2.287      4.993
REMARK INTER + INTRA:          -9.399
REMARK INTER:                  -7.968
REMARK INTRA:                  -1.431
REMARK UNBOUND:                -1.258
REMARK SMILES CCCCCCCCCCCC(=O)[O-]
REMARK SMILES IDX 7 1 8 2 9 3 10 4 11 5 12 6 13 7 14 8 6 9 5 10 4 11 3 12 2 13
REMARK SMILES IDX 1 14
REMARK H PARENT
REMARK Flexibility Score: inf
ROOT
ATOM      1  C   UNL     1      23.540  12.555   0.766  1.00  0.00     0.000 C 
ENDROOT
BRANCH   1   2
ATOM      2  C   UNL     1      22.265  11.772   1.130  1.00  0.00     0.000 C 
BRANCH   2   3
ATOM      3  C   UNL     1      21.591  11.043  -0.046  1.00  0.00     0.000 C 
BRANCH   3   4
ATOM      4  C   UNL     1      20.206  11.614  -0.392  1.00  0.00     0.006 C 
BRANCH   4   5
ATOM      5  C   UNL     1      19.808  12.769   0.537  1.00  0.00     0.053 C 
BRANCH   5   6
ATOM      6  C   UNL     1      19.496  14.017  -0.232  1.00  0.00     0.041 C 
ATOM      7  O   UNL     1      19.124  15.057   0.373  1.00  0.00    -0.550 OA
ATOM      8  O   UNL     1      19.583  14.020  -1.617  1.00  0.00    -0.550 OA
ENDBRANCH   5   6
ENDBRANCH   4   5
ENDBRANCH   3   4
ENDBRANCH   2   3
ENDBRANCH   1   2
BRANCH   1   9
ATOM      9  C   UNL     1      23.243  13.949   0.187  1.00  0.00     0.000 C 
BRANCH   9  10
ATOM     10  C   UNL     1      23.579  15.080   1.173  1.00  0.00    -0.000 C 
BRANCH  10  11
ATOM     11  C   UNL     1      22.320  15.783   1.713  1.00  0.00    -0.000 C 
BRANCH  11  12
ATOM     12  C   UNL     1      21.802  15.148   3.012  1.00  0.00    -0.000 C 
BRANCH  12  13
ATOM     13  C   UNL     1      22.934  14.683   3.939  1.00  0.00    -0.003 C 
ATOM     14  C   UNL     1      22.628  13.314   4.539  1.00  0.00     0.004 C 
ENDBRANCH  12  13
ENDBRANCH  11  12
ENDBRANCH  10  11
ENDBRANCH   9  10
ENDBRANCH   1   9
TORSDOF 10
ENDMDL
MODEL 3
REMARK VINA RESULT:    -5.118      2.276      3.537
REMARK INTER + INTRA:          -9.368
REMARK INTER:                  -7.843
REMARK INTRA:                  -1.524
REMARK UNBOUND:                -1.258
REMARK SMILES CCCCCCCCCCCC(=O)[O-]
REMARK SMILES IDX 7 1 8 2 9 3 10 4 11 5 12 6 13 7 14 8 6 9 5 10 4 11 3 12 2 13
REMARK SMILES IDX 1 14
REMARK H PARENT
REMARK Flexibility Score: inf
ROOT
ATOM      1  C   UNL     1      22.641  13.186  -1.737  1.00  0.00     0.000 C 
ENDROOT
BRANCH   1   2
ATOM      2  C   UNL     1      23.076  12.655  -0.359  1.00  0.00     0.000 C 
BRANCH   2   3
ATOM      3  C   UNL     1      22.300  11.422   0.139  1.00  0.00     0.000 C 
BRANCH   3   4
ATOM      4  C   UNL     1      22.101  11.413   1.664  1.00  0.00     0.006 C 
BRANCH   4   5
ATOM      5  C   UNL     1      22.128  12.827   2.259  1.00  0.00     0.053 C 
BRANCH   5   6
ATOM      6  C   UNL     1      23.202  12.973   3.294  1.00  0.00     0.041 C 
ATOM      7  O   UNL     1      24.318  13.466   2.984  1.00  0.00    -0.550 OA
ATOM      8  O   UNL     1      22.981  12.530   4.592  1.00  0.00    -0.550 OA
ENDBRANCH   5   6
ENDBRANCH   4   5
ENDBRANCH   3   4
ENDBRANCH   2   3
ENDBRANCH   1   2
BRANCH   1   9
ATOM      9  C   UNL     1      21.976  12.108  -2.612  1.00  0.00     0.000 C 
BRANCH   9  10
ATOM     10  C   UNL     1      20.557  12.503  -3.054  1.00  0.00    -0.000 C 
BRANCH  10  11
ATOM     11  C   UNL     1      19.907  13.524  -2.103  1.00  0.00    -0.000 C 
BRANCH  11  12
ATOM     12  C   UNL     1      19.113  12.852  -0.972  1.00  0.00    -0.000 C 
BRANCH  12  13
ATOM     13  C   UNL     1      19.026  13.721   0.291  1.00  0.00    -0.003 C 
ATOM     14  C   UNL     1      19.867  14.987   0.145  1.00  0.00     0.004 C 
ENDBRANCH  12  13
ENDBRANCH  11  12
ENDBRANCH  10  11
ENDBRANCH   9  10
ENDBRANCH   1   9
TORSDOF 10
ENDMDL
MODEL 4
REMARK VINA RESULT:    -5.087      2.114      2.995
REMARK INTER + INTRA:          -9.318
REMARK INTER:                  -7.635
REMARK INTRA:                  -1.683
REMARK UNBOUND:                -1.258
REMARK SMILES CCCCCCCCCCCC(=O)[O-]
REMARK SMILES IDX 7 1 8 2 9 3 10 4 11 5 12 6 13 7 14 8 6 9 5 10 4 11 3 12 2 13
REMARK SMILES IDX 1 14
REMARK H PARENT
REMARK Flexibility Score: inf
ROOT
ATOM      1  C   UNL     1      19.852  14.682  -0.119  1.00  0.00     0.000 C 
ENDROOT
BRANCH   1   2
ATOM      2  C   UNL     1      20.603  15.330   1.058  1.00  0.00     0.000 C 
BRANCH   2   3
ATOM      3  C   UNL     1      21.996  15.887   0.714  1.00  0.00     0.000 C 
BRANCH   3   4
ATOM      4  C   UNL     1      23.065  15.513   1.754  1.00  0.00     0.006 C 
BRANCH   4   5
ATOM      5  C   UNL     1      22.487  14.678   2.904  1.00  0.00     0.053 C 
BRANCH   5   6
ATOM      6  C   UNL     1      23.345  13.488   3.212  1.00  0.00     0.041 C 
ATOM      7  O   UNL     1      24.473  13.364   2.667  1.00  0.00    -0.550 OA
ATOM      8  O   UNL     1      22.883  12.501   4.072  1.00  0.00    -0.550 OA
ENDBRANCH   5   6
ENDBRANCH   4   5
ENDBRANCH   3   4
ENDBRANCH   2   3
ENDBRANCH   1   2
BRANCH   1   9
ATOM      9  C   UNL     1      19.511  13.201   0.130  1.00  0.00     0.000 C 
BRANCH   9  10
ATOM     10  C   UNL     1      20.672  12.431   0.780  1.00  0.00    -0.000 C 
BRANCH  10  11
ATOM     11  C   UNL     1      21.577  11.746  -0.260  1.00  0.00    -0.000 C 
BRANCH  11  12
ATOM     12  C   UNL     1      22.911  12.484  -0.458  1.00  0.00    -0.000 C 
BRANCH  12  13
ATOM     13  C   UNL     1      22.963  13.272  -1.774  1.00  0.00    -0.003 C 
ATOM     14  C   UNL     1      21.948  12.734  -2.778  1.00  0.00     0.004 C 
ENDBRANCH  12  13
ENDBRANCH  11  12
ENDBRANCH  10  11
ENDBRANCH   9  10
ENDBRANCH   1   9
TORSDOF 10
ENDMDL
MODEL 5
REMARK VINA RESULT:    -5.080      2.728      4.691
REMARK INTER + INTRA:          -9.308
REMARK INTER:                  -7.861
REMARK INTRA:                  -1.447
REMARK UNBOUND:                -1.258
REMARK SMILES CCCCCCCCCCCC(=O)[O-]
REMARK SMILES IDX 7 1 8 2 9 3 10 4 11 5 12 6 13 7 14 8 6 9 5 10 4 11 3 12 2 13
REMARK SMILES IDX 1 14
REMARK H PARENT
REMARK Flexibility Score: inf
ROOT
ATOM      1  C   UNL     1      21.802  15.252   3.022  1.00  0.00     0.000 C 
ENDROOT
BRANCH   1   2
ATOM      2  C   UNL     1      22.193  16.076   1.782  1.00  0.00     0.000 C 
BRANCH   2   3
ATOM      3  C   UNL     1      21.078  16.244   0.734  1.00  0.00     0.000 C 
BRANCH   3   4
ATOM      4  C   UNL     1      20.146  15.024   0.648  1.00  0.00     0.006 C 
BRANCH   4   5
ATOM      5  C   UNL     1      20.187  14.360  -0.735  1.00  0.00     0.053 C 
BRANCH   5   6
ATOM      6  C   UNL     1      19.160  13.277  -0.861  1.00  0.00     0.041 C 
ATOM      7  O   UNL     1      18.360  13.274  -1.833  1.00  0.00    -0.550 OA
ATOM      8  O   UNL     1      19.063  12.293   0.114  1.00  0.00    -0.550 OA
ENDBRANCH   5   6
ENDBRANCH   4   5
ENDBRANCH   3   4
ENDBRANCH   2   3
ENDBRANCH   1   2
BRANCH   1   9
ATOM      9  C   UNL     1      23.021  14.696   3.781  1.00  0.00     0.000 C 
BRANCH   9  10
ATOM     10  C   UNL     1      23.192  13.180   3.590  1.00  0.00    -0.000 C 
BRANCH  10  11
ATOM     11  C   UNL     1      22.000  12.542   2.853  1.00  0.00    -0.000 C 
BRANCH  11  12
ATOM     12  C   UNL     1      22.357  12.102   1.425  1.00  0.00    -0.000 C 
BRANCH  12  13
ATOM     13  C   UNL     1      23.703  12.666   0.948  1.00  0.00    -0.003 C 
ATOM     14  C   UNL     1      23.658  13.013  -0.537  1.00  0.00     0.004 C 
ENDBRANCH  12  13
ENDBRANCH  11  12
ENDBRANCH  10  11
ENDBRANCH   9  10
ENDBRANCH   1   9
TORSDOF 10
ENDMDL
MODEL 6
REMARK VINA RESULT:    -5.054      2.856      5.191
REMARK INTER + INTRA:          -9.266
REMARK INTER:                  -7.818
REMARK INTRA:                  -1.448
REMARK UNBOUND:                -1.258
REMARK SMILES CCCCCCCCCCCC(=O)[O-]
REMARK SMILES IDX 7 1 8 2 9 3 10 4 11 5 12 6 13 7 14 8 6 9 5 10 4 11 3 12 2 13
REMARK SMILES IDX 1 14
REMARK H PARENT
REMARK Flexibility Score: inf
ROOT
ATOM      1  C   UNL     1      22.656  14.065  -0.385  1.00  0.00     0.000 C 
ENDROOT
BRANCH   1   2
ATOM      2  C   UNL     1      22.434  15.332   0.460  1.00  0.00     0.000 C 
BRANCH   2   3
ATOM      3  C   UNL     1      21.039  15.452   1.100  1.00  0.00     0.000 C 
BRANCH   3   4
ATOM      4  C   UNL     1      19.896  15.246   0.092  1.00  0.00     0.006 C 
BRANCH   4   5
ATOM      5  C   UNL     1      19.043  14.015   0.427  1.00  0.00     0.053 C 
BRANCH   5   6
ATOM      6  C   UNL     1      19.087  12.995  -0.669  1.00  0.00     0.041 C 
ATOM      7  O   UNL     1      19.464  11.819  -0.424  1.00  0.00    -0.550 OA
ATOM      8  O   UNL     1      18.746  13.352  -1.966  1.00  0.00    -0.550 OA
ENDBRANCH   5   6
ENDBRANCH   4   5
ENDBRANCH   3   4
ENDBRANCH   2   3
ENDBRANCH   1   2
BRANCH   1   9
ATOM      9  C   UNL     1      23.521  13.011   0.330  1.00  0.00     0.000 C 
BRANCH   9  10
ATOM     10  C   UNL     1      22.699  11.804   0.812  1.00  0.00    -0.000 C 
BRANCH  10  11
ATOM     11  C   UNL     1      22.073  12.035   2.198  1.00  0.00    -0.000 C 
BRANCH  11  12
ATOM     12  C   UNL     1      23.079  12.602   3.212  1.00  0.00    -0.000 C 
BRANCH  12  13
ATOM     13  C   UNL     1      22.425  13.545   4.233  1.00  0.00    -0.003 C 
ATOM     14  C   UNL     1      22.965  14.965   4.093  1.00  0.00     0.004 C 
ENDBRANCH  12  13
ENDBRANCH  11  12
ENDBRANCH  10  11
ENDBRANCH   9  10
ENDBRANCH   1   9
TORSDOF 10
ENDMDL
MODEL 7
REMARK VINA RESULT:    -5.030      2.710      5.147
REMARK INTER + INTRA:          -9.229
REMARK INTER:                  -7.535
REMARK INTRA:                  -1.693
REMARK UNBOUND:                -1.258
REMARK SMILES CCCCCCCCCCCC(=O)[O-]
REMARK SMILES IDX 7 1 8 2 9 3 10 4 11 5 12 6 13 7 14 8 6 9 5 10 4 11 3 12 2 13
REMARK SMILES IDX 1 14
REMARK H PARENT
REMARK Flexibility Score: inf
ROOT
ATOM      1  C   UNL     1      20.540  15.486   1.083  1.00  0.00     0.000 C 
ENDROOT
BRANCH   1   2
ATOM      2  C   UNL     1      19.890  14.761  -0.109  1.00  0.00     0.000 C 
BRANCH   2   3
ATOM      3  C   UNL     1      19.188  13.435   0.239  1.00  0.00     0.000 C 
BRANCH   3   4
ATOM      4  C   UNL     1      19.562  12.290  -0.716  1.00  0.00     0.006 C 
BRANCH   4   5
ATOM      5  C   UNL     1      20.049  12.806  -2.077  1.00  0.00     0.053 C 
BRANCH   5   6
ATOM      6  C   UNL     1      21.376  12.219  -2.451  1.00  0.00     0.041 C 
ATOM      7  O   UNL     1      21.705  11.079  -2.029  1.00  0.00    -0.550 OA
ATOM      8  O   UNL     1      22.262  12.946  -3.234  1.00  0.00    -0.550 OA
ENDBRANCH   5   6
ENDBRANCH   4   5
ENDBRANCH   3   4
ENDBRANCH   2   3
ENDBRANCH   1   2
BRANCH   1   9
ATOM      9  C   UNL     1      22.047  15.733   0.885  1.00  0.00     0.000 C 
BRANCH   9  10
ATOM     10  C   UNL     1      22.731  14.599   0.103  1.00  0.00    -0.000 C 
BRANCH  10  11
ATOM     11  C   UNL     1      23.519  13.646   1.020  1.00  0.00    -0.000 C 
BRANCH  11  12
ATOM     12  C   UNL     1      22.901  12.240   1.080  1.00  0.00    -0.000 C 
BRANCH  12  13
ATOM     13  C   UNL     1      21.942  12.064   2.267  1.00  0.00    -0.003 C 
ATOM     14  C   UNL     1      22.339  12.966   3.432  1.00  0.00     0.004 C 
ENDBRANCH  12  13
ENDBRANCH  11  12
ENDBRANCH  10  11
ENDBRANCH   9  10
ENDBRANCH   1   9
TORSDOF 10
ENDMDL
MODEL 8
REMARK VINA RESULT:    -4.986      1.398      3.008
REMARK INTER + INTRA:          -9.159
REMARK INTER:                  -7.640
REMARK INTRA:                  -1.519
REMARK UNBOUND:                -1.258
REMARK SMILES CCCCCCCCCCCC(=O)[O-]
REMARK SMILES IDX 7 1 8 2 9 3 10 4 11 5 12 6 13 7 14 8 6 9 5 10 4 11 3 12 2 13
REMARK SMILES IDX 1 14
REMARK H PARENT
REMARK Flexibility Score: inf
ROOT
ATOM      1  C   UNL     1      19.208  12.878  -1.072  1.00  0.00     0.000 C 
ENDROOT
BRANCH   1   2
ATOM      2  C   UNL     1      19.129  14.222  -0.326  1.00  0.00     0.000 C 
BRANCH   2   3
ATOM      3  C   UNL     1      20.213  14.437   0.746  1.00  0.00     0.000 C 
BRANCH   3   4
ATOM      4  C   UNL     1      20.805  15.856   0.724  1.00  0.00     0.006 C 
BRANCH   4   5
ATOM      5  C   UNL     1      22.290  15.869   1.113  1.00  0.00     0.053 C 
BRANCH   5   6
ATOM      6  C   UNL     1      22.496  15.430   2.531  1.00  0.00     0.041 C 
ATOM      7  O   UNL     1      21.753  15.874   3.445  1.00  0.00    -0.550 OA
ATOM      8  O   UNL     1      23.530  14.559   2.845  1.00  0.00    -0.550 OA
ENDBRANCH   5   6
ENDBRANCH   4   5
ENDBRANCH   3   4
ENDBRANCH   2   3
ENDBRANCH   1   2
BRANCH   1   9
ATOM      9  C   UNL     1      19.985  12.973  -2.397  1.00  0.00     0.000 C 
BRANCH   9  10
ATOM     10  C   UNL     1      21.313  12.198  -2.357  1.00  0.00    -0.000 C 
BRANCH  10  11
ATOM     11  C   UNL     1      22.499  13.086  -1.938  1.00  0.00    -0.000 C 
BRANCH  11  12
ATOM     12  C   UNL     1      23.109  12.658  -0.593  1.00  0.00    -0.000 C 
BRANCH  12  13
ATOM     13  C   UNL     1      22.452  11.395  -0.018  1.00  0.00    -0.003 C 
ATOM     14  C   UNL     1      22.225  11.529   1.485  1.00  0.00     0.004 C 
ENDBRANCH  12  13
ENDBRANCH  11  12
ENDBRANCH  10  11
ENDBRANCH   9  10
ENDBRANCH   1   9
TORSDOF 10
ENDMDL
MODEL 9
REMARK VINA RESULT:    -4.904      2.453      4.809
REMARK INTER + INTRA:          -9.030
REMARK INTER:                  -7.610
REMARK INTRA:                  -1.419
REMARK UNBOUND:                -1.258
REMARK SMILES CCCCCCCCCCCC(=O)[O-]
REMARK SMILES IDX 7 1 8 2 9 3 10 4 11 5 12 6 13 7 14 8 6 9 5 10 4 11 3 12 2 13
REMARK SMILES IDX 1 14
REMARK H PARENT
REMARK Flexibility Score: inf
ROOT
ATOM      1  C   UNL     1      22.057  12.121   2.006  1.00  0.00     0.000 C 
ENDROOT
BRANCH   1   2
ATOM      2  C   UNL     1      22.586  11.575   0.668  1.00  0.00     0.000 C 
BRANCH   2   3
ATOM      3  C   UNL     1      23.277  12.616  -0.232  1.00  0.00     0.000 C 
BRANCH   3   4
ATOM      4  C   UNL     1      22.401  13.063  -1.415  1.00  0.00     0.006 C 
BRANCH   4   5
ATOM      5  C   UNL     1      21.285  12.055  -1.721  1.00  0.00     0.053 C 
BRANCH   5   6
ATOM      6  C   UNL     1      19.926  12.661  -1.540  1.00  0.00     0.041 C 
ATOM      7  O   UNL     1      19.515  13.544  -2.337  1.00  0.00    -0.550 OA
ATOM      8  O   UNL     1      19.130  12.274  -0.470  1.00  0.00    -0.550 OA
ENDBRANCH   5   6
ENDBRANCH   4   5
ENDBRANCH   3   4
ENDBRANCH   2   3
ENDBRANCH   1   2
BRANCH   1   9
ATOM      9  C   UNL     1      23.074  13.021   2.731  1.00  0.00     0.000 C 
BRANCH   9  10
ATOM     10  C   UNL     1      22.411  13.941   3.769  1.00  0.00    -0.000 C 
BRANCH  10  11
ATOM     11  C   UNL     1      22.317  15.400   3.287  1.00  0.00    -0.000 C 
BRANCH  11  12
ATOM     12  C   UNL     1      22.815  15.577   1.844  1.00  0.00    -0.000 C 
BRANCH  12  13
ATOM     13  C   UNL     1      21.765  16.222   0.928  1.00  0.00    -0.003 C 
ATOM     14  C   UNL     1      20.490  15.384   0.880  1.00  0.00     0.004 C 
ENDBRANCH  12  13
ENDBRANCH  11  12
ENDBRANCH  10  11
ENDBRANCH   9  10
ENDBRANCH   1   9
TORSDOF 10
ENDMDL
