MODEL 1
REMARK VINA RESULT:    -8.915      0.000      0.000
REMARK INTER + INTRA:         -10.526
REMARK INTER:                 -10.218
REMARK INTRA:                  -0.308
REMARK UNBOUND:                -0.308
REMARK SMILES O=C1C[C@H](c2ccc(O)cc2)Oc2cc(O)cc(O)c21
REMARK SMILES IDX 3 1 4 2 12 3 13 4 14 5 15 6 17 7 18 8 20 9 2 10 1 11 5 12
REMARK SMILES IDX 6 13 11 14 7 15 10 16 8 17 9 18 19 20 16 22
REMARK H PARENT 9 19 19 21 16 23
REMARK Flexibility Score: inf
ROOT
ATOM      1  C   UNL     1     134.755 133.285 112.260  1.00  0.00     0.131 C 
ATOM      2  C   UNL     1     135.188 134.694 112.687  1.00  0.00     0.211 C 
ATOM      3  O   UNL     1     134.199 135.292 113.530  1.00  0.00    -0.484 OA
ATOM      4  C   UNL     1     132.823 135.138 113.307  1.00  0.00     0.138 A 
ATOM      5  C   UNL     1     131.930 135.962 113.995  1.00  0.00     0.093 A 
ATOM      6  C   UNL     1     130.556 135.842 113.787  1.00  0.00     0.123 A 
ATOM      7  C   UNL     1     130.069 134.871 112.905  1.00  0.00     0.093 A 
ATOM      8  C   UNL     1     130.945 134.007 112.235  1.00  0.00     0.133 A 
ATOM      9  C   UNL     1     132.345 134.159 112.410  1.00  0.00     0.102 A 
ATOM     10  C   UNL     1     133.365 133.348 111.700  1.00  0.00     0.174 C 
ATOM     11  O   UNL     1     133.109 132.763 110.614  1.00  0.00    -0.294 OA
ENDROOT
BRANCH   2  12
ATOM     12  C   UNL     1     136.517 134.651 113.401  1.00  0.00    -0.007 A 
ATOM     13  C   UNL     1     136.575 134.805 114.797  1.00  0.00     0.011 A 
ATOM     14  C   UNL     1     137.715 134.514 112.677  1.00  0.00     0.011 A 
ATOM     15  C   UNL     1     137.807 134.794 115.458  1.00  0.00     0.046 A 
ATOM     16  C   UNL     1     138.945 134.503 113.341  1.00  0.00     0.046 A 
ATOM     17  C   UNL     1     138.995 134.641 114.731  1.00  0.00     0.115 A 
BRANCH  17  18
ATOM     18  O   UNL     1     140.228 134.627 115.381  1.00  0.00    -0.508 OA
ATOM     19  H   UNL     1     140.326 134.268 116.323  1.00  0.00     0.293 HD
ENDBRANCH  17  18
ENDBRANCH   2  12
BRANCH   8  20
ATOM     20  O   UNL     1     130.377 133.004 111.445  1.00  0.00    -0.507 OA
ATOM     21  H   UNL     1     129.937 133.171 110.553  1.00  0.00     0.293 HD
ENDBRANCH   8  20
BRANCH   6  22
ATOM     22  O   UNL     1     129.681 136.686 114.467  1.00  0.00    -0.508 OA
ATOM     23  H   UNL     1     129.148 136.365 115.267  1.00  0.00     0.293 HD
ENDBRANCH   6  22
TORSDOF 4
ENDMDL
MODEL 2
REMARK VINA RESULT:    -8.269      2.322      6.829
REMARK INTER + INTRA:          -9.785
REMARK INTER:                  -9.477
REMARK INTRA:                  -0.309
REMARK UNBOUND:                -0.308
REMARK SMILES O=C1C[C@H](c2ccc(O)cc2)Oc2cc(O)cc(O)c21
REMARK SMILES IDX 3 1 4 2 12 3 13 4 14 5 15 6 17 7 18 8 20 9 2 10 1 11 5 12
REMARK SMILES IDX 6 13 11 14 7 15 10 16 8 17 9 18 19 20 16 22
REMARK H PARENT 9 19 19 21 16 23
REMARK Flexibility Score: inf
ROOT
ATOM      1  C   UNL     1     134.354 134.660 113.713  1.00  0.00     0.131 C 
ATOM      2  C   UNL     1     134.216 133.976 115.080  1.00  0.00     0.211 C 
ATOM      3  O   UNL     1     135.320 134.315 115.926  1.00  0.00    -0.484 OA
ATOM      4  C   UNL     1     136.633 134.424 115.449  1.00  0.00     0.138 A 
ATOM      5  C   UNL     1     137.684 134.486 116.367  1.00  0.00     0.093 A 
ATOM      6  C   UNL     1     139.002 134.583 115.923  1.00  0.00     0.123 A 
ATOM      7  C   UNL     1     139.272 134.647 114.552  1.00  0.00     0.093 A 
ATOM      8  C   UNL     1     138.231 134.627 113.615  1.00  0.00     0.133 A 
ATOM      9  C   UNL     1     136.891 134.480 114.063  1.00  0.00     0.102 A 
ATOM     10  C   UNL     1     135.719 134.378 113.159  1.00  0.00     0.174 C 
ATOM     11  O   UNL     1     135.835 134.007 111.961  1.00  0.00    -0.294 OA
ENDROOT
BRANCH   2  12
ATOM     12  C   UNL     1     132.918 134.365 115.744  1.00  0.00    -0.007 A 
ATOM     13  C   UNL     1     132.767 134.230 117.134  1.00  0.00     0.011 A 
ATOM     14  C   UNL     1     131.828 134.812 114.976  1.00  0.00     0.011 A 
ATOM     15  C   UNL     1     131.555 134.562 117.748  1.00  0.00     0.046 A 
ATOM     16  C   UNL     1     130.618 135.144 115.593  1.00  0.00     0.046 A 
ATOM     17  C   UNL     1     130.478 135.022 116.979  1.00  0.00     0.115 A 
BRANCH  17  18
ATOM     18  O   UNL     1     129.267 135.357 117.581  1.00  0.00    -0.508 OA
ATOM     19  H   UNL     1     129.223 136.010 118.355  1.00  0.00     0.293 HD
ENDBRANCH  17  18
ENDBRANCH   2  12
BRANCH   8  20
ATOM     20  O   UNL     1     138.574 134.789 112.271  1.00  0.00    -0.507 OA
ATOM     21  H   UNL     1     139.289 135.422 111.944  1.00  0.00     0.293 HD
ENDBRANCH   8  20
BRANCH   6  22
ATOM     22  O   UNL     1     140.039 134.623 116.853  1.00  0.00    -0.508 OA
ATOM     23  H   UNL     1     140.782 135.310 116.790  1.00  0.00     0.293 HD
ENDBRANCH   6  22
TORSDOF 4
ENDMDL
MODEL 3
REMARK VINA RESULT:    -8.206      3.276      7.820
REMARK INTER + INTRA:          -9.714
REMARK INTER:                  -9.426
REMARK INTRA:                  -0.288
REMARK UNBOUND:                -0.308
REMARK SMILES O=C1C[C@H](c2ccc(O)cc2)Oc2cc(O)cc(O)c21
REMARK SMILES IDX 3 1 4 2 12 3 13 4 14 5 15 6 17 7 18 8 20 9 2 10 1 11 5 12
REMARK SMILES IDX 6 13 11 14 7 15 10 16 8 17 9 18 19 20 16 22
REMARK H PARENT 9 19 19 21 16 23
REMARK Flexibility Score: inf
ROOT
ATOM      1  C   UNL     1     130.251 132.999 110.447  1.00  0.00     0.131 C 
ATOM      2  C   UNL     1     129.335 133.994 111.172  1.00  0.00     0.211 C 
ATOM      3  O   UNL     1     130.108 134.936 111.923  1.00  0.00    -0.484 OA
ATOM      4  C   UNL     1     131.264 134.574 112.628  1.00  0.00     0.138 A 
ATOM      5  C   UNL     1     131.805 135.474 113.548  1.00  0.00     0.093 A 
ATOM      6  C   UNL     1     132.948 135.138 114.274  1.00  0.00     0.123 A 
ATOM      7  C   UNL     1     133.572 133.904 114.058  1.00  0.00     0.093 A 
ATOM      8  C   UNL     1     133.069 133.003 113.111  1.00  0.00     0.133 A 
ATOM      9  C   UNL     1     131.879 133.323 112.406  1.00  0.00     0.102 A 
ATOM     10  C   UNL     1     131.220 132.417 111.432  1.00  0.00     0.174 C 
ATOM     11  O   UNL     1     131.410 131.172 111.451  1.00  0.00    -0.294 OA
ENDROOT
BRANCH   2  12
ATOM     12  C   UNL     1     128.450 134.721 110.189  1.00  0.00    -0.007 A 
ATOM     13  C   UNL     1     128.985 135.218 108.989  1.00  0.00     0.011 A 
ATOM     14  C   UNL     1     127.096 134.959 110.486  1.00  0.00     0.011 A 
ATOM     15  C   UNL     1     128.173 135.916 108.089  1.00  0.00     0.046 A 
ATOM     16  C   UNL     1     126.287 135.657 109.584  1.00  0.00     0.046 A 
ATOM     17  C   UNL     1     126.821 136.135 108.384  1.00  0.00     0.115 A 
BRANCH  17  18
ATOM     18  O   UNL     1     126.004 136.829 107.494  1.00  0.00    -0.508 OA
ATOM     19  H   UNL     1     125.849 136.497 106.549  1.00  0.00     0.293 HD
ENDBRANCH  17  18
ENDBRANCH   2  12
BRANCH   8  20
ATOM     20  O   UNL     1     133.800 131.834 112.886  1.00  0.00    -0.507 OA
ATOM     21  H   UNL     1     133.571 130.939 113.291  1.00  0.00     0.293 HD
ENDBRANCH   8  20
BRANCH   6  22
ATOM     22  O   UNL     1     133.462 136.040 115.203  1.00  0.00    -0.508 OA
ATOM     23  H   UNL     1     133.824 136.944 114.920  1.00  0.00     0.293 HD
ENDBRANCH   6  22
TORSDOF 4
ENDMDL
MODEL 4
REMARK VINA RESULT:    -8.142      4.073      9.000
REMARK INTER + INTRA:          -9.641
REMARK INTER:                  -9.322
REMARK INTRA:                  -0.319
REMARK UNBOUND:                -0.308
REMARK SMILES O=C1C[C@H](c2ccc(O)cc2)Oc2cc(O)cc(O)c21
REMARK SMILES IDX 3 1 4 2 12 3 13 4 14 5 15 6 17 7 18 8 20 9 2 10 1 11 5 12
REMARK SMILES IDX 6 13 11 14 7 15 10 16 8 17 9 18 19 20 16 22
REMARK H PARENT 9 19 19 21 16 23
REMARK Flexibility Score: inf
ROOT
ATOM      1  C   UNL     1     128.632 134.611 113.580  1.00  0.00     0.131 C 
ATOM      2  C   UNL     1     128.311 134.936 112.115  1.00  0.00     0.211 C 
ATOM      3  O   UNL     1     128.904 133.970 111.242  1.00  0.00    -0.484 OA
ATOM      4  C   UNL     1     130.180 133.434 111.463  1.00  0.00     0.138 A 
ATOM      5  C   UNL     1     130.798 132.714 110.439  1.00  0.00     0.093 A 
ATOM      6  C   UNL     1     132.073 132.178 110.624  1.00  0.00     0.123 A 
ATOM      7  C   UNL     1     132.724 132.339 111.852  1.00  0.00     0.093 A 
ATOM      8  C   UNL     1     132.105 133.023 112.906  1.00  0.00     0.133 A 
ATOM      9  C   UNL     1     130.828 133.610 112.705  1.00  0.00     0.102 A 
ATOM     10  C   UNL     1     130.111 134.413 113.725  1.00  0.00     0.174 C 
ATOM     11  O   UNL     1     130.720 134.978 114.673  1.00  0.00    -0.294 OA
ENDROOT
BRANCH   2  12
ATOM     12  C   UNL     1     126.819 134.986 111.893  1.00  0.00    -0.007 A 
ATOM     13  C   UNL     1     125.965 135.424 112.920  1.00  0.00     0.011 A 
ATOM     14  C   UNL     1     126.261 134.542 110.681  1.00  0.00     0.011 A 
ATOM     15  C   UNL     1     124.580 135.443 112.727  1.00  0.00     0.046 A 
ATOM     16  C   UNL     1     124.876 134.563 110.491  1.00  0.00     0.046 A 
ATOM     17  C   UNL     1     124.033 135.015 111.510  1.00  0.00     0.115 A 
BRANCH  17  18
ATOM     18  O   UNL     1     122.654 135.032 111.307  1.00  0.00    -0.508 OA
ATOM     19  H   UNL     1     122.112 135.880 111.422  1.00  0.00     0.293 HD
ENDBRANCH  17  18
ENDBRANCH   2  12
BRANCH   8  20
ATOM     20  O   UNL     1     132.779 133.060 114.129  1.00  0.00    -0.507 OA
ATOM     21  H   UNL     1     133.666 133.521 114.271  1.00  0.00     0.293 HD
ENDBRANCH   8  20
BRANCH   6  22
ATOM     22  O   UNL     1     132.682 131.480 109.583  1.00  0.00    -0.508 OA
ATOM     23  H   UNL     1     133.634 131.140 109.660  1.00  0.00     0.293 HD
ENDBRANCH   6  22
TORSDOF 4
ENDMDL
MODEL 5
REMARK VINA RESULT:    -8.116      7.996      9.347
REMARK INTER + INTRA:          -9.611
REMARK INTER:                  -9.313
REMARK INTRA:                  -0.298
REMARK UNBOUND:                -0.308
REMARK SMILES O=C1C[C@H](c2ccc(O)cc2)Oc2cc(O)cc(O)c21
REMARK SMILES IDX 3 1 4 2 12 3 13 4 14 5 15 6 17 7 18 8 20 9 2 10 1 11 5 12
REMARK SMILES IDX 6 13 11 14 7 15 10 16 8 17 9 18 19 20 16 22
REMARK H PARENT 9 19 19 21 16 23
REMARK Flexibility Score: inf
ROOT
ATOM      1  C   UNL     1     124.995 134.231 109.990  1.00  0.00     0.131 C 
ATOM      2  C   UNL     1     126.375 134.897 110.079  1.00  0.00     0.211 C 
ATOM      3  O   UNL     1     126.988 134.619 111.342  1.00  0.00    -0.484 OA
ATOM      4  C   UNL     1     126.265 134.590 112.544  1.00  0.00     0.138 A 
ATOM      5  C   UNL     1     126.963 134.584 113.753  1.00  0.00     0.093 A 
ATOM      6  C   UNL     1     126.273 134.568 114.965  1.00  0.00     0.123 A 
ATOM      7  C   UNL     1     124.874 134.528 114.968  1.00  0.00     0.093 A 
ATOM      8  C   UNL     1     124.156 134.494 113.767  1.00  0.00     0.133 A 
ATOM      9  C   UNL     1     124.854 134.558 112.533  1.00  0.00     0.102 A 
ATOM     10  C   UNL     1     124.195 134.597 111.204  1.00  0.00     0.174 C 
ATOM     11  O   UNL     1     123.003 134.982 111.066  1.00  0.00    -0.294 OA
ENDROOT
BRANCH   2  12
ATOM     12  C   UNL     1     127.269 134.428 108.958  1.00  0.00    -0.007 A 
ATOM     13  C   UNL     1     127.910 133.180 109.039  1.00  0.00     0.011 A 
ATOM     14  C   UNL     1     127.516 135.255 107.847  1.00  0.00     0.011 A 
ATOM     15  C   UNL     1     128.762 132.756 108.014  1.00  0.00     0.046 A 
ATOM     16  C   UNL     1     128.368 134.827 106.823  1.00  0.00     0.046 A 
ATOM     17  C   UNL     1     128.991 133.578 106.903  1.00  0.00     0.115 A 
BRANCH  17  18
ATOM     18  O   UNL     1     129.836 133.164 105.875  1.00  0.00    -0.508 OA
ATOM     19  H   UNL     1     130.388 132.318 105.952  1.00  0.00     0.293 HD
ENDBRANCH  17  18
ENDBRANCH   2  12
BRANCH   8  20
ATOM     20  O   UNL     1     122.768 134.360 113.853  1.00  0.00    -0.507 OA
ATOM     21  H   UNL     1     122.302 133.540 114.213  1.00  0.00     0.293 HD
ENDBRANCH   8  20
BRANCH   6  22
ATOM     22  O   UNL     1     126.986 134.583 116.162  1.00  0.00    -0.508 OA
ATOM     23  H   UNL     1     126.641 134.111 116.990  1.00  0.00     0.293 HD
ENDBRANCH   6  22
TORSDOF 4
ENDMDL
MODEL 6
REMARK VINA RESULT:    -8.024      4.023      6.409
REMARK INTER + INTRA:          -9.505
REMARK INTER:                  -9.220
REMARK INTRA:                  -0.285
REMARK UNBOUND:                -0.308
REMARK SMILES O=C1C[C@H](c2ccc(O)cc2)Oc2cc(O)cc(O)c21
REMARK SMILES IDX 3 1 4 2 12 3 13 4 14 5 15 6 17 7 18 8 20 9 2 10 1 11 5 12
REMARK SMILES IDX 6 13 11 14 7 15 10 16 8 17 9 18 19 20 16 22
REMARK H PARENT 9 19 19 21 16 23
REMARK Flexibility Score: inf
ROOT
ATOM      1  C   UNL     1     128.460 133.947 109.653  1.00  0.00     0.131 C 
ATOM      2  C   UNL     1     129.228 134.737 110.721  1.00  0.00     0.211 C 
ATOM      3  O   UNL     1     128.533 134.702 111.971  1.00  0.00    -0.484 OA
ATOM      4  C   UNL     1     127.136 134.786 112.062  1.00  0.00     0.138 A 
ATOM      5  C   UNL     1     126.552 135.019 113.309  1.00  0.00     0.093 A 
ATOM      6  C   UNL     1     125.166 135.119 113.430  1.00  0.00     0.123 A 
ATOM      7  C   UNL     1     124.356 134.958 112.301  1.00  0.00     0.093 A 
ATOM      8  C   UNL     1     124.918 134.684 111.048  1.00  0.00     0.133 A 
ATOM      9  C   UNL     1     126.330 134.628 110.914  1.00  0.00     0.102 A 
ATOM     10  C   UNL     1     127.036 134.414 109.626  1.00  0.00     0.174 C 
ATOM     11  O   UNL     1     126.489 134.669 108.520  1.00  0.00    -0.294 OA
ENDROOT
BRANCH   2  12
ATOM     12  C   UNL     1     130.624 134.189 110.891  1.00  0.00    -0.007 A 
ATOM     13  C   UNL     1     130.828 132.807 111.043  1.00  0.00     0.011 A 
ATOM     14  C   UNL     1     131.730 135.056 110.957  1.00  0.00     0.011 A 
ATOM     15  C   UNL     1     132.117 132.300 111.229  1.00  0.00     0.046 A 
ATOM     16  C   UNL     1     133.018 134.545 111.143  1.00  0.00     0.046 A 
ATOM     17  C   UNL     1     133.216 133.168 111.278  1.00  0.00     0.115 A 
BRANCH  17  18
ATOM     18  O   UNL     1     134.505 132.672 111.462  1.00  0.00    -0.508 OA
ATOM     19  H   UNL     1     134.840 132.395 112.377  1.00  0.00     0.293 HD
ENDBRANCH  17  18
ENDBRANCH   2  12
BRANCH   8  20
ATOM     20  O   UNL     1     124.040 134.443 109.989  1.00  0.00    -0.507 OA
ATOM     21  H   UNL     1     124.302 134.497 109.016  1.00  0.00     0.293 HD
ENDBRANCH   8  20
BRANCH   6  22
ATOM     22  O   UNL     1     124.602 135.372 114.679  1.00  0.00    -0.508 OA
ATOM     23  H   UNL     1     123.783 134.870 115.002  1.00  0.00     0.293 HD
ENDBRANCH   6  22
TORSDOF 4
ENDMDL
MODEL 7
REMARK VINA RESULT:    -8.006      1.818      3.701
REMARK INTER + INTRA:          -9.485
REMARK INTER:                  -9.179
REMARK INTRA:                  -0.306
REMARK UNBOUND:                -0.308
REMARK SMILES O=C1C[C@H](c2ccc(O)cc2)Oc2cc(O)cc(O)c21
REMARK SMILES IDX 3 1 4 2 12 3 13 4 14 5 15 6 17 7 18 8 20 9 2 10 1 11 5 12
REMARK SMILES IDX 6 13 11 14 7 15 10 16 8 17 9 18 19 20 16 22
REMARK H PARENT 9 19 19 21 16 23
REMARK Flexibility Score: inf
ROOT
ATOM      1  C   UNL     1     132.063 135.693 113.418  1.00  0.00     0.131 C 
ATOM      2  C   UNL     1     132.758 134.325 113.414  1.00  0.00     0.211 C 
ATOM      3  O   UNL     1     132.512 133.638 112.183  1.00  0.00    -0.484 OA
ATOM      4  C   UNL     1     131.271 133.674 111.532  1.00  0.00     0.138 A 
ATOM      5  C   UNL     1     131.024 132.772 110.495  1.00  0.00     0.093 A 
ATOM      6  C   UNL     1     129.795 132.774 109.836  1.00  0.00     0.123 A 
ATOM      7  C   UNL     1     128.814 133.705 110.197  1.00  0.00     0.093 A 
ATOM      8  C   UNL     1     129.055 134.644 111.207  1.00  0.00     0.133 A 
ATOM      9  C   UNL     1     130.287 134.613 111.911  1.00  0.00     0.102 A 
ATOM     10  C   UNL     1     130.623 135.513 113.042  1.00  0.00     0.174 C 
ATOM     11  O   UNL     1     129.730 136.081 113.726  1.00  0.00    -0.294 OA
ENDROOT
BRANCH   2  12
ATOM     12  C   UNL     1     134.244 134.479 113.632  1.00  0.00    -0.007 A 
ATOM     13  C   UNL     1     135.121 134.493 112.535  1.00  0.00     0.011 A 
ATOM     14  C   UNL     1     134.772 134.551 114.933  1.00  0.00     0.011 A 
ATOM     15  C   UNL     1     136.500 134.607 112.735  1.00  0.00     0.046 A 
ATOM     16  C   UNL     1     136.152 134.665 115.130  1.00  0.00     0.046 A 
ATOM     17  C   UNL     1     137.019 134.695 114.034  1.00  0.00     0.115 A 
BRANCH  17  18
ATOM     18  O   UNL     1     138.391 134.810 114.244  1.00  0.00    -0.508 OA
ATOM     19  H   UNL     1     138.764 135.279 115.061  1.00  0.00     0.293 HD
ENDBRANCH  17  18
ENDBRANCH   2  12
BRANCH   8  20
ATOM     20  O   UNL     1     128.063 135.599 111.445  1.00  0.00    -0.507 OA
ATOM     21  H   UNL     1     127.955 136.445 110.906  1.00  0.00     0.293 HD
ENDBRANCH   8  20
BRANCH   6  22
ATOM     22  O   UNL     1     129.559 131.853 108.818  1.00  0.00    -0.508 OA
ATOM     23  H   UNL     1     129.514 130.858 109.003  1.00  0.00     0.293 HD
ENDBRANCH   6  22
TORSDOF 4
ENDMDL
MODEL 8
REMARK VINA RESULT:    -7.899      3.710      6.997
REMARK INTER + INTRA:          -9.362
REMARK INTER:                  -9.064
REMARK INTRA:                  -0.299
REMARK UNBOUND:                -0.308
REMARK SMILES O=C1C[C@H](c2ccc(O)cc2)Oc2cc(O)cc(O)c21
REMARK SMILES IDX 3 1 4 2 12 3 13 4 14 5 15 6 17 7 18 8 20 9 2 10 1 11 5 12
REMARK SMILES IDX 6 13 11 14 7 15 10 16 8 17 9 18 19 20 16 22
REMARK H PARENT 9 19 19 21 16 23
REMARK Flexibility Score: inf
ROOT
ATOM      1  C   UNL     1     132.059 133.062 111.384  1.00  0.00     0.131 C 
ATOM      2  C   UNL     1     130.525 133.082 111.396  1.00  0.00     0.211 C 
ATOM      3  O   UNL     1     130.040 134.040 112.342  1.00  0.00    -0.484 OA
ATOM      4  C   UNL     1     130.645 134.243 113.591  1.00  0.00     0.138 A 
ATOM      5  C   UNL     1     129.967 134.986 114.559  1.00  0.00     0.093 A 
ATOM      6  C   UNL     1     130.536 135.195 115.814  1.00  0.00     0.123 A 
ATOM      7  C   UNL     1     131.807 134.680 116.096  1.00  0.00     0.093 A 
ATOM      8  C   UNL     1     132.521 133.965 115.127  1.00  0.00     0.133 A 
ATOM      9  C   UNL     1     131.924 133.712 113.864  1.00  0.00     0.102 A 
ATOM     10  C   UNL     1     132.559 132.909 112.790  1.00  0.00     0.174 C 
ATOM     11  O   UNL     1     133.462 132.067 113.036  1.00  0.00    -0.294 OA
ENDROOT
BRANCH   2  12
ATOM     12  C   UNL     1     129.983 133.393 110.022  1.00  0.00    -0.007 A 
ATOM     13  C   UNL     1     129.511 132.359 109.198  1.00  0.00     0.011 A 
ATOM     14  C   UNL     1     129.997 134.711 109.530  1.00  0.00     0.011 A 
ATOM     15  C   UNL     1     129.035 132.641 107.913  1.00  0.00     0.046 A 
ATOM     16  C   UNL     1     129.520 134.990 108.245  1.00  0.00     0.046 A 
ATOM     17  C   UNL     1     129.037 133.958 107.435  1.00  0.00     0.115 A 
BRANCH  17  18
ATOM     18  O   UNL     1     128.563 134.250 106.157  1.00  0.00    -0.508 OA
ATOM     19  H   UNL     1     128.502 133.538 105.439  1.00  0.00     0.293 HD
ENDBRANCH  17  18
ENDBRANCH   2  12
BRANCH   8  20
ATOM     20  O   UNL     1     133.820 133.566 115.452  1.00  0.00    -0.507 OA
ATOM     21  H   UNL     1     134.617 134.185 115.453  1.00  0.00     0.293 HD
ENDBRANCH   8  20
BRANCH   6  22
ATOM     22  O   UNL     1     129.836 135.922 116.775  1.00  0.00    -0.508 OA
ATOM     23  H   UNL     1     129.321 135.462 117.517  1.00  0.00     0.293 HD
ENDBRANCH   6  22
TORSDOF 4
ENDMDL
MODEL 9
REMARK VINA RESULT:    -7.886      3.695      5.565
REMARK INTER + INTRA:          -9.347
REMARK INTER:                  -9.026
REMARK INTRA:                  -0.321
REMARK UNBOUND:                -0.308
REMARK SMILES O=C1C[C@H](c2ccc(O)cc2)Oc2cc(O)cc(O)c21
REMARK SMILES IDX 3 1 4 2 12 3 13 4 14 5 15 6 17 7 18 8 20 9 2 10 1 11 5 12
REMARK SMILES IDX 6 13 11 14 7 15 10 16 8 17 9 18 19 20 16 22
REMARK H PARENT 9 19 19 21 16 23
REMARK Flexibility Score: inf
ROOT
ATOM      1  C   UNL     1     132.831 133.094 113.835  1.00  0.00     0.131 C 
ATOM      2  C   UNL     1     131.820 134.229 114.051  1.00  0.00     0.211 C 
ATOM      3  O   UNL     1     130.630 133.995 113.291  1.00  0.00    -0.484 OA
ATOM      4  C   UNL     1     130.654 133.462 111.995  1.00  0.00     0.138 A 
ATOM      5  C   UNL     1     129.493 133.517 111.220  1.00  0.00     0.093 A 
ATOM      6  C   UNL     1     129.488 133.006 109.922  1.00  0.00     0.123 A 
ATOM      7  C   UNL     1     130.643 132.409 109.404  1.00  0.00     0.093 A 
ATOM      8  C   UNL     1     131.805 132.308 110.179  1.00  0.00     0.133 A 
ATOM      9  C   UNL     1     131.828 132.870 111.482  1.00  0.00     0.102 A 
ATOM     10  C   UNL     1     133.022 132.881 112.363  1.00  0.00     0.174 C 
ATOM     11  O   UNL     1     134.189 132.775 111.900  1.00  0.00    -0.294 OA
ENDROOT
BRANCH   2  12
ATOM     12  C   UNL     1     131.479 134.369 115.515  1.00  0.00    -0.007 A 
ATOM     13  C   UNL     1     132.491 134.303 116.486  1.00  0.00     0.011 A 
ATOM     14  C   UNL     1     130.141 134.511 115.927  1.00  0.00     0.011 A 
ATOM     15  C   UNL     1     132.174 134.404 117.845  1.00  0.00     0.046 A 
ATOM     16  C   UNL     1     129.828 134.612 117.286  1.00  0.00     0.046 A 
ATOM     17  C   UNL     1     130.841 134.561 118.247  1.00  0.00     0.115 A 
BRANCH  17  18
ATOM     18  O   UNL     1     130.515 134.664 119.598  1.00  0.00    -0.508 OA
ATOM     19  H   UNL     1     130.117 133.884 120.108  1.00  0.00     0.293 HD
ENDBRANCH  17  18
ENDBRANCH   2  12
BRANCH   8  20
ATOM     20  O   UNL     1     132.886 131.616 109.626  1.00  0.00    -0.507 OA
ATOM     21  H   UNL     1     133.232 131.766 108.690  1.00  0.00     0.293 HD
ENDBRANCH   8  20
BRANCH   6  22
ATOM     22  O   UNL     1     128.327 133.088 109.156  1.00  0.00    -0.508 OA
ATOM     23  H   UNL     1     128.235 132.589 108.278  1.00  0.00     0.293 HD
ENDBRANCH   6  22
TORSDOF 4
ENDMDL
