MODEL 1
REMARK VINA RESULT:     4.263      0.000      0.000
REMARK INTER + INTRA:           5.170
REMARK INTER:                   5.260
REMARK INTRA:                  -0.090
REMARK UNBOUND:                -0.090
REMARK SMILES Oc1cc(O)c2cc(O)c(-c3cc(O)c(O)c(O)c3)[o+]c2c1
REMARK SMILES IDX 10 1 20 2 21 3 22 4 2 5 3 6 4 7 6 8 7 9 8 10 11 11 12 12
REMARK SMILES IDX 13 13 19 14 15 15 17 16 14 17 16 19 18 21 9 23 1 25 5 27
REMARK H PARENT 14 18 16 20 18 22 9 24 1 26 5 28
REMARK Flexibility Score: inf
ROOT
ATOM      1  C   UNL     1     -22.020 -16.232 -13.968  1.00  0.00     0.402 A 
ATOM      2  O   UNL     1     -22.353 -17.513 -14.125  1.00  0.00    -0.202 OA
ATOM      3  C   UNL     1     -23.555 -17.907 -14.531  1.00  0.00     0.368 A 
ATOM      4  C   UNL     1     -23.826 -19.272 -14.666  1.00  0.00     0.162 A 
ATOM      5  C   UNL     1     -25.092 -19.701 -15.091  1.00  0.00     0.128 A 
ATOM      6  C   UNL     1     -26.086 -18.759 -15.380  1.00  0.00     0.093 A 
ATOM      7  C   UNL     1     -25.827 -17.387 -15.250  1.00  0.00     0.136 A 
ATOM      8  C   UNL     1     -24.557 -16.957 -14.823  1.00  0.00     0.125 A 
ATOM      9  C   UNL     1     -24.241 -15.601 -14.683  1.00  0.00     0.078 A 
ATOM     10  C   UNL     1     -22.961 -15.225 -14.263  1.00  0.00     0.223 A 
ENDROOT
BRANCH   1  11
ATOM     11  C   UNL     1     -20.650 -15.917 -13.500  1.00  0.00     0.091 A 
ATOM     12  C   UNL     1     -19.554 -16.555 -14.098  1.00  0.00     0.068 A 
ATOM     13  C   UNL     1     -18.248 -16.291 -13.661  1.00  0.00     0.162 A 
ATOM     14  C   UNL     1     -20.427 -15.033 -12.431  1.00  0.00     0.068 A 
ATOM     15  C   UNL     1     -18.032 -15.389 -12.605  1.00  0.00     0.200 A 
ATOM     16  C   UNL     1     -19.128 -14.764 -11.988  1.00  0.00     0.162 A 
BRANCH  13  17
ATOM     17  O   UNL     1     -17.166 -16.922 -14.273  1.00  0.00    -0.504 OA
ATOM     18  H   UNL     1     -17.270 -17.432 -15.143  1.00  0.00     0.293 HD
ENDBRANCH  13  17
BRANCH  15  19
ATOM     19  O   UNL     1     -16.739 -15.112 -12.160  1.00  0.00    -0.502 OA
ATOM     20  H   UNL     1     -16.123 -15.833 -11.805  1.00  0.00     0.293 HD
ENDBRANCH  15  19
BRANCH  16  21
ATOM     21  O   UNL     1     -18.947 -13.875 -10.928  1.00  0.00    -0.504 OA
ATOM     22  H   UNL     1     -18.359 -13.056 -11.006  1.00  0.00     0.293 HD
ENDBRANCH  16  21
ENDBRANCH   1  11
BRANCH  10  23
ATOM     23  O   UNL     1     -22.623 -13.875 -14.170  1.00  0.00    -0.500 OA
ATOM     24  H   UNL     1     -21.657 -13.571 -14.127  1.00  0.00     0.294 HD
ENDBRANCH  10  23
BRANCH   5  25
ATOM     25  O   UNL     1     -25.371 -21.058 -15.228  1.00  0.00    -0.507 OA
ATOM     26  H   UNL     1     -24.914 -21.754 -14.650  1.00  0.00     0.293 HD
ENDBRANCH   5  25
BRANCH   7  27
ATOM     27  O   UNL     1     -26.828 -16.459 -15.543  1.00  0.00    -0.507 OA
ATOM     28  H   UNL     1     -26.670 -15.463 -15.453  1.00  0.00     0.293 HD
ENDBRANCH   7  27
TORSDOF 7
ENDMDL
MODEL 2
REMARK VINA RESULT:     6.912      0.117      1.798
REMARK INTER + INTRA:           8.439
REMARK INTER:                   8.425
REMARK INTRA:                   0.014
REMARK UNBOUND:                -0.090
REMARK SMILES Oc1cc(O)c2cc(O)c(-c3cc(O)c(O)c(O)c3)[o+]c2c1
REMARK SMILES IDX 10 1 20 2 21 3 22 4 2 5 3 6 4 7 6 8 7 9 8 10 11 11 12 12
REMARK SMILES IDX 13 13 19 14 15 15 17 16 14 17 16 19 18 21 9 23 1 25 5 27
REMARK H PARENT 14 18 16 20 18 22 9 24 1 26 5 28
REMARK Flexibility Score: inf
ROOT
ATOM      1  C   UNL     1     -21.998 -16.249 -13.896  1.00  0.00     0.402 A 
ATOM      2  O   UNL     1     -22.340 -17.517 -14.125  1.00  0.00    -0.202 OA
ATOM      3  C   UNL     1     -23.545 -17.879 -14.553  1.00  0.00     0.368 A 
ATOM      4  C   UNL     1     -23.827 -19.232 -14.765  1.00  0.00     0.162 A 
ATOM      5  C   UNL     1     -25.095 -19.626 -15.214  1.00  0.00     0.128 A 
ATOM      6  C   UNL     1     -26.082 -18.663 -15.450  1.00  0.00     0.093 A 
ATOM      7  C   UNL     1     -25.813 -17.303 -15.243  1.00  0.00     0.136 A 
ATOM      8  C   UNL     1     -24.540 -16.906 -14.792  1.00  0.00     0.125 A 
ATOM      9  C   UNL     1     -24.214 -15.563 -14.576  1.00  0.00     0.078 A 
ATOM     10  C   UNL     1     -22.931 -15.221 -14.134  1.00  0.00     0.223 A 
ENDROOT
BRANCH   1  11
ATOM     11  C   UNL     1     -20.627 -15.972 -13.411  1.00  0.00     0.091 A 
ATOM     12  C   UNL     1     -20.438 -15.064 -12.358  1.00  0.00     0.068 A 
ATOM     13  C   UNL     1     -19.149 -14.769 -11.893  1.00  0.00     0.162 A 
ATOM     14  C   UNL     1     -19.503 -16.557 -14.018  1.00  0.00     0.068 A 
ATOM     15  C   UNL     1     -18.031 -15.374 -12.493  1.00  0.00     0.200 A 
ATOM     16  C   UNL     1     -18.214 -16.267 -13.562  1.00  0.00     0.162 A 
BRANCH  13  17
ATOM     17  O   UNL     1     -18.976 -13.875 -10.837  1.00  0.00    -0.504 OA
ATOM     18  H   UNL     1     -18.087 -13.782 -10.359  1.00  0.00     0.293 HD
ENDBRANCH  13  17
BRANCH  15  19
ATOM     19  O   UNL     1     -16.742 -15.094 -12.040  1.00  0.00    -0.502 OA
ATOM     20  H   UNL     1     -16.448 -15.287 -11.091  1.00  0.00     0.293 HD
ENDBRANCH  15  19
BRANCH  16  21
ATOM     21  O   UNL     1     -17.124 -16.873 -14.187  1.00  0.00    -0.504 OA
ATOM     22  H   UNL     1     -16.190 -16.836 -13.799  1.00  0.00     0.293 HD
ENDBRANCH  16  21
ENDBRANCH   1  11
BRANCH  10  23
ATOM     23  O   UNL     1     -22.584 -13.881 -13.965  1.00  0.00    -0.500 OA
ATOM     24  H   UNL     1     -22.851 -13.173 -14.640  1.00  0.00     0.294 HD
ENDBRANCH  10  23
BRANCH   5  25
ATOM     25  O   UNL     1     -25.384 -20.972 -15.428  1.00  0.00    -0.507 OA
ATOM     26  H   UNL     1     -26.330 -21.329 -15.352  1.00  0.00     0.293 HD
ENDBRANCH   5  25
BRANCH   7  27
ATOM     27  O   UNL     1     -26.806 -16.352 -15.483  1.00  0.00    -0.507 OA
ATOM     28  H   UNL     1     -26.578 -15.391 -15.707  1.00  0.00     0.293 HD
ENDBRANCH   7  27
TORSDOF 7
ENDMDL
