MODEL 1
REMARK VINA RESULT:    -4.916      0.000      0.000
REMARK INTER + INTRA:          -5.901
REMARK INTER:                  -5.634
REMARK INTRA:                  -0.267
REMARK UNBOUND:                -0.267
REMARK SMILES COC(=O)c1ccccc1O
REMARK SMILES IDX 5 1 6 2 7 3 8 4 9 5 10 6 3 7 4 8 2 9 1 10 11 11
REMARK H PARENT 11 12
REMARK Flexibility Score: inf
ROOT
ATOM      1  C   UNL     1     113.242 113.929 111.497  1.00  0.00     0.101 A 
ATOM      2  C   UNL     1     113.852 113.182 110.469  1.00  0.00     0.019 A 
ATOM      3  C   UNL     1     115.215 113.325 110.196  1.00  0.00     0.001 A 
ATOM      4  C   UNL     1     115.990 114.211 110.942  1.00  0.00     0.004 A 
ATOM      5  C   UNL     1     115.405 114.959 111.965  1.00  0.00     0.047 A 
ATOM      6  C   UNL     1     114.037 114.826 112.250  1.00  0.00     0.130 A 
ENDROOT
BRANCH   1   7
ATOM      7  C   UNL     1     111.791 113.756 111.766  1.00  0.00     0.341 C 
ATOM      8  O   UNL     1     111.368 113.752 112.956  1.00  0.00    -0.246 OA
BRANCH   7   9
ATOM      9  O   UNL     1     110.886 113.597 110.711  1.00  0.00    -0.465 OA
ATOM     10  C   UNL     1     109.476 113.603 110.898  1.00  0.00     0.282 C 
ENDBRANCH   7   9
ENDBRANCH   1   7
BRANCH   6  11
ATOM     11  O   UNL     1     113.479 115.586 113.278  1.00  0.00    -0.507 OA
ATOM     12  H   UNL     1     112.494 115.524 113.513  1.00  0.00     0.293 HD
ENDBRANCH   6  11
TORSDOF 3
ENDMDL
MODEL 2
REMARK VINA RESULT:    -4.772      1.891      4.387
REMARK INTER + INTRA:          -5.736
REMARK INTER:                  -5.412
REMARK INTRA:                  -0.324
REMARK UNBOUND:                -0.267
REMARK SMILES COC(=O)c1ccccc1O
REMARK SMILES IDX 5 1 6 2 7 3 8 4 9 5 10 6 3 7 4 8 2 9 1 10 11 11
REMARK H PARENT 11 12
REMARK Flexibility Score: inf
ROOT
ATOM      1  C   UNL     1     112.636 113.992 111.232  1.00  0.00     0.101 A 
ATOM      2  C   UNL     1     112.048 113.711 112.482  1.00  0.00     0.019 A 
ATOM      3  C   UNL     1     110.659 113.684 112.628  1.00  0.00     0.001 A 
ATOM      4  C   UNL     1     109.835 113.937 111.532  1.00  0.00     0.004 A 
ATOM      5  C   UNL     1     110.398 114.216 110.285  1.00  0.00     0.047 A 
ATOM      6  C   UNL     1     111.792 114.246 110.125  1.00  0.00     0.130 A 
ENDROOT
BRANCH   1   7
ATOM      7  C   UNL     1     114.117 114.013 111.108  1.00  0.00     0.341 C 
ATOM      8  O   UNL     1     114.697 113.178 110.357  1.00  0.00    -0.246 OA
BRANCH   7   9
ATOM      9  O   UNL     1     114.877 114.949 111.816  1.00  0.00    -0.465 OA
ATOM     10  C   UNL     1     114.681 116.353 111.692  1.00  0.00     0.282 C 
ENDBRANCH   7   9
ENDBRANCH   1   7
BRANCH   6  11
ATOM     11  O   UNL     1     112.328 114.529 108.868  1.00  0.00    -0.507 OA
ATOM     12  H   UNL     1     113.208 115.021 108.762  1.00  0.00     0.293 HD
ENDBRANCH   6  11
TORSDOF 3
ENDMDL
MODEL 3
REMARK VINA RESULT:    -4.693      1.928      4.620
REMARK INTER + INTRA:          -5.646
REMARK INTER:                  -5.354
REMARK INTRA:                  -0.291
REMARK UNBOUND:                -0.267
REMARK SMILES COC(=O)c1ccccc1O
REMARK SMILES IDX 5 1 6 2 7 3 8 4 9 5 10 6 3 7 4 8 2 9 1 10 11 11
REMARK H PARENT 11 12
REMARK Flexibility Score: inf
ROOT
ATOM      1  C   UNL     1     111.280 114.051 110.604  1.00  0.00     0.101 A 
ATOM      2  C   UNL     1     110.026 114.023 111.247  1.00  0.00     0.019 A 
ATOM      3  C   UNL     1     108.884 114.506 110.604  1.00  0.00     0.001 A 
ATOM      4  C   UNL     1     108.973 115.023 109.312  1.00  0.00     0.004 A 
ATOM      5  C   UNL     1     110.206 115.058 108.658  1.00  0.00     0.047 A 
ATOM      6  C   UNL     1     111.361 114.577 109.293  1.00  0.00     0.130 A 
ENDROOT
BRANCH   1   7
ATOM      7  C   UNL     1     112.478 113.530 111.313  1.00  0.00     0.341 C 
ATOM      8  O   UNL     1     113.189 112.636 110.774  1.00  0.00    -0.246 OA
BRANCH   7   9
ATOM      9  O   UNL     1     112.827 114.021 112.576  1.00  0.00    -0.465 OA
ATOM     10  C   UNL     1     113.928 114.897 112.785  1.00  0.00     0.282 C 
ENDBRANCH   7   9
ENDBRANCH   1   7
BRANCH   6  11
ATOM     11  O   UNL     1     112.580 114.625 108.616  1.00  0.00    -0.507 OA
ATOM     12  H   UNL     1     113.465 114.548 109.105  1.00  0.00     0.293 HD
ENDBRANCH   6  11
TORSDOF 3
ENDMDL
MODEL 4
REMARK VINA RESULT:    -4.631      1.743      2.632
REMARK INTER + INTRA:          -5.574
REMARK INTER:                  -5.288
REMARK INTRA:                  -0.286
REMARK UNBOUND:                -0.267
REMARK SMILES COC(=O)c1ccccc1O
REMARK SMILES IDX 5 1 6 2 7 3 8 4 9 5 10 6 3 7 4 8 2 9 1 10 11 11
REMARK H PARENT 11 12
REMARK Flexibility Score: inf
ROOT
ATOM      1  C   UNL     1     113.352 114.285 110.271  1.00  0.00     0.101 A 
ATOM      2  C   UNL     1     113.756 114.406 111.615  1.00  0.00     0.019 A 
ATOM      3  C   UNL     1     115.110 114.383 111.959  1.00  0.00     0.001 A 
ATOM      4  C   UNL     1     116.081 114.238 110.969  1.00  0.00     0.004 A 
ATOM      5  C   UNL     1     115.701 114.117 109.631  1.00  0.00     0.047 A 
ATOM      6  C   UNL     1     114.344 114.139 109.273  1.00  0.00     0.130 A 
ENDROOT
BRANCH   1   7
ATOM      7  C   UNL     1     111.904 114.314 109.935  1.00  0.00     0.341 C 
ATOM      8  O   UNL     1     111.456 115.202 109.157  1.00  0.00    -0.246 OA
BRANCH   7   9
ATOM      9  O   UNL     1     111.029 113.365 110.476  1.00  0.00    -0.465 OA
ATOM     10  C   UNL     1     109.783 113.716 111.066  1.00  0.00     0.282 C 
ENDBRANCH   7   9
ENDBRANCH   1   7
BRANCH   6  11
ATOM     11  O   UNL     1     113.993 114.016 107.928  1.00  0.00    -0.507 OA
ATOM     12  H   UNL     1     113.895 113.110 107.483  1.00  0.00     0.293 HD
ENDBRANCH   6  11
TORSDOF 3
ENDMDL
MODEL 5
REMARK VINA RESULT:    -4.614      2.732      4.158
REMARK INTER + INTRA:          -5.556
REMARK INTER:                  -5.240
REMARK INTRA:                  -0.316
REMARK UNBOUND:                -0.267
REMARK SMILES COC(=O)c1ccccc1O
REMARK SMILES IDX 5 1 6 2 7 3 8 4 9 5 10 6 3 7 4 8 2 9 1 10 11 11
REMARK H PARENT 11 12
REMARK Flexibility Score: inf
ROOT
ATOM      1  C   UNL     1     110.638 114.368 110.097  1.00  0.00     0.101 A 
ATOM      2  C   UNL     1     109.805 114.164 111.216  1.00  0.00     0.019 A 
ATOM      3  C   UNL     1     110.345 113.793 112.449  1.00  0.00     0.001 A 
ATOM      4  C   UNL     1     111.721 113.619 112.588  1.00  0.00     0.004 A 
ATOM      5  C   UNL     1     112.563 113.817 111.492  1.00  0.00     0.047 A 
ATOM      6  C   UNL     1     112.034 114.190 110.247  1.00  0.00     0.130 A 
ENDROOT
BRANCH   1   7
ATOM      7  C   UNL     1     110.035 114.763 108.797  1.00  0.00     0.341 C 
ATOM      8  O   UNL     1     109.085 114.086 108.312  1.00  0.00    -0.246 OA
BRANCH   7   9
ATOM      9  O   UNL     1     110.512 115.879 108.102  1.00  0.00    -0.465 OA
ATOM     10  C   UNL     1     110.521 115.956 106.681  1.00  0.00     0.282 C 
ENDBRANCH   7   9
ENDBRANCH   1   7
BRANCH   6  11
ATOM     11  O   UNL     1     112.899 114.381 109.169  1.00  0.00    -0.507 OA
ATOM     12  H   UNL     1     113.804 114.822 109.283  1.00  0.00     0.293 HD
ENDBRANCH   6  11
TORSDOF 3
ENDMDL
MODEL 6
REMARK VINA RESULT:    -4.518      1.978      4.365
REMARK INTER + INTRA:          -5.445
REMARK INTER:                  -5.088
REMARK INTRA:                  -0.357
REMARK UNBOUND:                -0.267
REMARK SMILES COC(=O)c1ccccc1O
REMARK SMILES IDX 5 1 6 2 7 3 8 4 9 5 10 6 3 7 4 8 2 9 1 10 11 11
REMARK H PARENT 11 12
REMARK Flexibility Score: inf
ROOT
ATOM      1  C   UNL     1     112.177 114.405 110.306  1.00  0.00     0.101 A 
ATOM      2  C   UNL     1     111.272 114.996 109.402  1.00  0.00     0.019 A 
ATOM      3  C   UNL     1     109.906 115.049 109.691  1.00  0.00     0.001 A 
ATOM      4  C   UNL     1     109.422 114.515 110.884  1.00  0.00     0.004 A 
ATOM      5  C   UNL     1     110.303 113.926 111.793  1.00  0.00     0.047 A 
ATOM      6  C   UNL     1     111.677 113.866 111.515  1.00  0.00     0.130 A 
ENDROOT
BRANCH   1   7
ATOM      7  C   UNL     1     113.625 114.364 109.971  1.00  0.00     0.341 C 
ATOM      8  O   UNL     1     113.998 113.936 108.843  1.00  0.00    -0.246 OA
BRANCH   7   9
ATOM      9  O   UNL     1     114.581 114.794 110.897  1.00  0.00    -0.465 OA
ATOM     10  C   UNL     1     114.705 116.153 111.301  1.00  0.00     0.282 C 
ENDBRANCH   7   9
ENDBRANCH   1   7
BRANCH   6  11
ATOM     11  O   UNL     1     112.534 113.271 112.441  1.00  0.00    -0.507 OA
ATOM     12  H   UNL     1     112.457 112.291 112.686  1.00  0.00     0.293 HD
ENDBRANCH   6  11
TORSDOF 3
ENDMDL
MODEL 7
REMARK VINA RESULT:    -4.478      2.758      3.921
REMARK INTER + INTRA:          -5.399
REMARK INTER:                  -5.133
REMARK INTRA:                  -0.266
REMARK UNBOUND:                -0.267
REMARK SMILES COC(=O)c1ccccc1O
REMARK SMILES IDX 5 1 6 2 7 3 8 4 9 5 10 6 3 7 4 8 2 9 1 10 11 11
REMARK H PARENT 11 12
REMARK Flexibility Score: inf
ROOT
ATOM      1  C   UNL     1     110.300 114.143 110.496  1.00  0.00     0.101 A 
ATOM      2  C   UNL     1     109.972 113.827 111.830  1.00  0.00     0.019 A 
ATOM      3  C   UNL     1     110.971 113.686 112.796  1.00  0.00     0.001 A 
ATOM      4  C   UNL     1     112.310 113.857 112.449  1.00  0.00     0.004 A 
ATOM      5  C   UNL     1     112.655 114.172 111.133  1.00  0.00     0.047 A 
ATOM      6  C   UNL     1     111.662 114.316 110.153  1.00  0.00     0.130 A 
ENDROOT
BRANCH   1   7
ATOM      7  C   UNL     1     109.216 114.288 109.490  1.00  0.00     0.341 C 
ATOM      8  O   UNL     1     109.418 113.941 108.292  1.00  0.00    -0.246 OA
BRANCH   7   9
ATOM      9  O   UNL     1     107.970 114.807 109.856  1.00  0.00    -0.465 OA
ATOM     10  C   UNL     1     106.763 114.457 109.189  1.00  0.00     0.282 C 
ENDBRANCH   7   9
ENDBRANCH   1   7
BRANCH   6  11
ATOM     11  O   UNL     1     112.035 114.631 108.846  1.00  0.00    -0.507 OA
ATOM     12  H   UNL     1     111.837 115.537 108.438  1.00  0.00     0.293 HD
ENDBRANCH   6  11
TORSDOF 3
ENDMDL
MODEL 8
REMARK VINA RESULT:    -4.466      2.396      3.570
REMARK INTER + INTRA:          -5.386
REMARK INTER:                  -5.079
REMARK INTRA:                  -0.307
REMARK UNBOUND:                -0.267
REMARK SMILES COC(=O)c1ccccc1O
REMARK SMILES IDX 5 1 6 2 7 3 8 4 9 5 10 6 3 7 4 8 2 9 1 10 11 11
REMARK H PARENT 11 12
REMARK Flexibility Score: inf
ROOT
ATOM      1  C   UNL     1     115.200 115.034 111.769  1.00  0.00     0.101 A 
ATOM      2  C   UNL     1     115.911 114.416 112.818  1.00  0.00     0.019 A 
ATOM      3  C   UNL     1     115.946 114.990 114.091  1.00  0.00     0.001 A 
ATOM      4  C   UNL     1     115.275 116.186 114.339  1.00  0.00     0.004 A 
ATOM      5  C   UNL     1     114.564 116.813 113.314  1.00  0.00     0.047 A 
ATOM      6  C   UNL     1     114.521 116.247 112.031  1.00  0.00     0.130 A 
ENDROOT
BRANCH   1   7
ATOM      7  C   UNL     1     115.180 114.400 110.425  1.00  0.00     0.341 C 
ATOM      8  O   UNL     1     115.779 114.952 109.460  1.00  0.00    -0.246 OA
BRANCH   7   9
ATOM      9  O   UNL     1     114.499 113.196 110.217  1.00  0.00    -0.465 OA
ATOM     10  C   UNL     1     113.147 112.997 110.613  1.00  0.00     0.282 C 
ENDBRANCH   7   9
ENDBRANCH   1   7
BRANCH   6  11
ATOM     11  O   UNL     1     113.803 116.896 111.025  1.00  0.00    -0.507 OA
ATOM     12  H   UNL     1     113.030 117.517 111.237  1.00  0.00     0.293 HD
ENDBRANCH   6  11
TORSDOF 3
ENDMDL
MODEL 9
REMARK VINA RESULT:    -4.389      1.727      2.420
REMARK INTER + INTRA:          -5.298
REMARK INTER:                  -4.987
REMARK INTRA:                  -0.311
REMARK UNBOUND:                -0.267
REMARK SMILES COC(=O)c1ccccc1O
REMARK SMILES IDX 5 1 6 2 7 3 8 4 9 5 10 6 3 7 4 8 2 9 1 10 11 11
REMARK H PARENT 11 12
REMARK Flexibility Score: inf
ROOT
ATOM      1  C   UNL     1     113.181 114.592 110.638  1.00  0.00     0.101 A 
ATOM      2  C   UNL     1     113.904 115.796 110.757  1.00  0.00     0.019 A 
ATOM      3  C   UNL     1     115.299 115.786 110.834  1.00  0.00     0.001 A 
ATOM      4  C   UNL     1     115.994 114.578 110.795  1.00  0.00     0.004 A 
ATOM      5  C   UNL     1     115.295 113.375 110.678  1.00  0.00     0.047 A 
ATOM      6  C   UNL     1     113.894 113.371 110.599  1.00  0.00     0.130 A 
ENDROOT
BRANCH   1   7
ATOM      7  C   UNL     1     111.697 114.634 110.557  1.00  0.00     0.341 C 
ATOM      8  O   UNL     1     111.006 113.860 111.277  1.00  0.00    -0.246 OA
BRANCH   7   9
ATOM      9  O   UNL     1     111.057 115.524 109.688  1.00  0.00    -0.465 OA
ATOM     10  C   UNL     1     110.799 115.215 108.323  1.00  0.00     0.282 C 
ENDBRANCH   7   9
ENDBRANCH   1   7
BRANCH   6  11
ATOM     11  O   UNL     1     113.222 112.154 110.482  1.00  0.00    -0.507 OA
ATOM     12  H   UNL     1     112.287 112.096 110.095  1.00  0.00     0.293 HD
ENDBRANCH   6  11
TORSDOF 3
ENDMDL
