MODEL 1
REMARK VINA RESULT:    -3.277      0.000      0.000
REMARK INTER + INTRA:          -4.861
REMARK INTER:                  -5.001
REMARK INTRA:                   0.140
REMARK UNBOUND:                 0.140
REMARK SMILES CC1=CCC[C@H](C)C(=O)C[C@@H](C(C)C)C(=O)C1
REMARK SMILES IDX 8 1 9 2 6 3 7 4 5 5 4 6 3 7 2 8 1 9 10 11 11 12 15 13 16 14
REMARK SMILES IDX 17 15 12 17 13 18 14 19
REMARK H PARENT
REMARK Flexibility Score: 70.00
ROOT
ATOM      1  C   UNL     1     -13.692  26.494  15.755  1.00  0.00     0.136 C 
ATOM      2  O   UNL     1     -12.621  26.120  15.301  1.00  0.00    -0.299 OA
ENDROOT
BRANCH   1   3
ATOM      3  C   UNL     1     -14.886  25.561  15.670  1.00  0.00     0.053 C 
ATOM      4  C   UNL     1     -15.133  25.118  14.220  1.00  0.00     0.016 C 
BRANCH   3   5
ATOM      5  C   UNL     1     -14.718  24.347  16.604  1.00  0.00     0.015 C 
BRANCH   5   6
ATOM      6  C   UNL     1     -15.747  24.359  17.752  1.00  0.00     0.028 C 
BRANCH   6   7
ATOM      7  C   UNL     1     -17.030  25.032  17.338  1.00  0.00    -0.028 C 
ATOM      8  C   UNL     1     -17.439  26.245  17.774  1.00  0.00    -0.070 CG0
ATOM      9  C   UNL     1     -18.764  26.767  17.280  1.00  0.00     0.039 C 
ATOM     10  G   UNL     1     -16.634  27.101  18.740  1.00  0.00     0.000 G0
ENDBRANCH   6   7
ENDBRANCH   5   6
ENDBRANCH   3   5
ENDBRANCH   1   3
BRANCH   1  11
ATOM     11  C   UNL     1     -13.778  27.838  16.451  1.00  0.00     0.087 C 
BRANCH  11  12
ATOM     12  C   UNL     1     -14.200  27.791  17.943  1.00  0.00     0.066 C 
BRANCH  12  13
ATOM     13  C   UNL     1     -15.690  28.075  18.089  1.00  0.00     0.140 C 
ATOM     14  O   UNL     1     -16.135  29.108  17.608  1.00  0.00    -0.299 OA
BRANCH  13  15
ATOM     15  C   UNL     1     -16.639  27.107  18.763  1.00  0.00     0.106 CG0
ATOM     16  G   UNL     1     -17.422  26.269  17.765  1.00  0.00     0.000 G0
ENDBRANCH  13  15
ENDBRANCH  12  13
BRANCH  12  17
ATOM     17  C   UNL     1     -13.309  28.622  18.925  1.00  0.00    -0.006 C 
ATOM     18  C   UNL     1     -13.321  30.115  18.545  1.00  0.00     0.008 C 
ATOM     19  C   UNL     1     -13.768  28.489  20.388  1.00  0.00     0.008 C 
ENDBRANCH  12  17
ENDBRANCH  11  12
ENDBRANCH   1  11
TORSDOF 1
ENDMDL
MODEL 2
REMARK VINA RESULT:    -3.209      2.125      4.228
REMARK INTER + INTRA:          -4.758
REMARK INTER:                  -4.593
REMARK INTRA:                  -0.165
REMARK UNBOUND:                 0.140
REMARK SMILES CC1=CCC[C@H](C)C(=O)C[C@@H](C(C)C)C(=O)C1
REMARK SMILES IDX 8 1 9 2 6 3 7 4 5 5 4 6 3 7 2 8 1 9 10 11 11 12 15 13 16 14
REMARK SMILES IDX 17 15 12 17 13 18 14 19
REMARK H PARENT
REMARK Flexibility Score: 70.00
ROOT
ATOM      1  C   UNL     1     -14.364  28.002  19.327  1.00  0.00     0.136 C 
ATOM      2  O   UNL     1     -13.306  27.856  19.919  1.00  0.00    -0.299 OA
ENDROOT
BRANCH   1   3
ATOM      3  C   UNL     1     -14.536  29.210  18.424  1.00  0.00     0.053 C 
ATOM      4  C   UNL     1     -14.101  30.496  19.142  1.00  0.00     0.016 C 
BRANCH   3   5
ATOM      5  C   UNL     1     -13.778  29.029  17.093  1.00  0.00     0.015 C 
BRANCH   5   6
ATOM      6  C   UNL     1     -14.741  28.876  15.900  1.00  0.00     0.028 C 
BRANCH   6   7
ATOM      7  C   UNL     1     -16.089  29.481  16.196  1.00  0.00    -0.028 C 
ATOM      8  C   UNL     1     -17.231  28.775  16.361  1.00  0.00    -0.070 CG0
ATOM      9  C   UNL     1     -18.504  29.536  16.630  1.00  0.00     0.039 C 
ATOM     10  G   UNL     1     -17.294  27.257  16.282  1.00  0.00     0.000 G0
ENDBRANCH   6   7
ENDBRANCH   5   6
ENDBRANCH   3   5
ENDBRANCH   1   3
BRANCH   1  11
ATOM     11  C   UNL     1     -15.440  26.942  19.451  1.00  0.00     0.087 C 
BRANCH  11  12
ATOM     12  C   UNL     1     -15.770  26.168  18.148  1.00  0.00     0.066 C 
BRANCH  12  13
ATOM     13  C   UNL     1     -17.133  26.581  17.607  1.00  0.00     0.140 C 
ATOM     14  O   UNL     1     -18.118  26.388  18.306  1.00  0.00    -0.299 OA
BRANCH  13  15
ATOM     15  C   UNL     1     -17.302  27.258  16.264  1.00  0.00     0.106 CG0
ATOM     16  G   UNL     1     -17.225  28.774  16.363  1.00  0.00     0.000 G0
ENDBRANCH  13  15
ENDBRANCH  12  13
BRANCH  12  17
ATOM     17  C   UNL     1     -15.569  24.616  18.212  1.00  0.00    -0.006 C 
ATOM     18  C   UNL     1     -14.614  24.142  17.100  1.00  0.00     0.008 C 
ATOM     19  C   UNL     1     -15.005  24.154  19.567  1.00  0.00     0.008 C 
ENDBRANCH  12  17
ENDBRANCH  11  12
ENDBRANCH   1  11
TORSDOF 1
ENDMDL
MODEL 3
REMARK VINA RESULT:    -3.198      2.581      4.839
REMARK INTER + INTRA:          -4.741
REMARK INTER:                  -4.865
REMARK INTRA:                   0.124
REMARK UNBOUND:                 0.140
REMARK SMILES CC1=CCC[C@H](C)C(=O)C[C@@H](C(C)C)C(=O)C1
REMARK SMILES IDX 8 1 9 2 6 3 7 4 5 5 4 6 3 7 2 8 1 9 10 11 11 12 15 13 16 14
REMARK SMILES IDX 17 15 12 17 13 18 14 19
REMARK H PARENT
REMARK Flexibility Score: 70.00
ROOT
ATOM      1  C   UNL     1     -15.024  27.003  19.310  1.00  0.00     0.136 C 
ATOM      2  O   UNL     1     -14.807  26.045  20.036  1.00  0.00    -0.299 OA
ENDROOT
BRANCH   1   3
ATOM      3  C   UNL     1     -14.655  28.391  19.802  1.00  0.00     0.053 C 
ATOM      4  C   UNL     1     -13.242  28.776  19.342  1.00  0.00     0.016 C 
BRANCH   3   5
ATOM      5  C   UNL     1     -15.693  29.440  19.355  1.00  0.00     0.015 C 
BRANCH   5   6
ATOM      6  C   UNL     1     -15.058  30.543  18.488  1.00  0.00     0.028 C 
BRANCH   6   7
ATOM      7  C   UNL     1     -16.000  31.010  17.408  1.00  0.00    -0.028 C 
ATOM      8  C   UNL     1     -15.966  30.591  16.123  1.00  0.00    -0.070 CG0
ATOM      9  C   UNL     1     -16.968  31.175  15.159  1.00  0.00     0.039 C 
ATOM     10  G   UNL     1     -14.968  29.568  15.602  1.00  0.00     0.000 G0
ENDBRANCH   6   7
ENDBRANCH   5   6
ENDBRANCH   3   5
ENDBRANCH   1   3
BRANCH   1  11
ATOM     11  C   UNL     1     -15.583  26.773  17.920  1.00  0.00     0.087 C 
BRANCH  11  12
ATOM     12  C   UNL     1     -14.660  27.202  16.750  1.00  0.00     0.066 C 
BRANCH  12  13
ATOM     13  C   UNL     1     -15.395  28.144  15.804  1.00  0.00     0.140 C 
ATOM     14  O   UNL     1     -16.394  27.730  15.231  1.00  0.00    -0.299 OA
BRANCH  13  15
ATOM     15  C   UNL     1     -14.960  29.577  15.585  1.00  0.00     0.106 CG0
ATOM     16  G   UNL     1     -15.971  30.580  16.119  1.00  0.00     0.000 G0
ENDBRANCH  13  15
ENDBRANCH  12  13
BRANCH  12  17
ATOM     17  C   UNL     1     -13.913  26.039  16.015  1.00  0.00    -0.006 C 
ATOM     18  C   UNL     1     -14.830  24.811  15.862  1.00  0.00     0.008 C 
ATOM     19  C   UNL     1     -13.415  26.452  14.618  1.00  0.00     0.008 C 
ENDBRANCH  12  17
ENDBRANCH  11  12
ENDBRANCH   1  11
TORSDOF 1
ENDMDL
MODEL 4
REMARK VINA RESULT:    -3.196      3.640      5.799
REMARK INTER + INTRA:          -4.738
REMARK INTER:                  -4.510
REMARK INTRA:                  -0.227
REMARK UNBOUND:                 0.140
REMARK SMILES CC1=CCC[C@H](C)C(=O)C[C@@H](C(C)C)C(=O)C1
REMARK SMILES IDX 8 1 9 2 6 3 7 4 5 5 4 6 3 7 2 8 1 9 10 11 11 12 15 13 16 14
REMARK SMILES IDX 17 15 12 17 13 18 14 19
REMARK H PARENT
REMARK Flexibility Score: 70.00
ROOT
ATOM      1  C   UNL     1     -16.085  32.330  19.398  1.00  0.00     0.136 C 
ATOM      2  O   UNL     1     -15.153  32.909  19.935  1.00  0.00    -0.299 OA
ENDROOT
BRANCH   1   3
ATOM      3  C   UNL     1     -17.025  33.126  18.511  1.00  0.00     0.053 C 
ATOM      4  C   UNL     1     -17.558  34.364  19.248  1.00  0.00     0.016 C 
BRANCH   3   5
ATOM      5  C   UNL     1     -16.348  33.516  17.182  1.00  0.00     0.015 C 
BRANCH   5   6
ATOM      6  C   UNL     1     -16.752  32.572  16.033  1.00  0.00     0.028 C 
BRANCH   6   7
ATOM      7  C   UNL     1     -18.089  31.927  16.291  1.00  0.00    -0.028 C 
ATOM      8  C   UNL     1     -18.289  30.597  16.430  1.00  0.00    -0.070 CG0
ATOM      9  C   UNL     1     -19.697  30.110  16.662  1.00  0.00     0.039 C 
ATOM     10  G   UNL     1     -17.168  29.571  16.358  1.00  0.00     0.000 G0
ENDBRANCH   6   7
ENDBRANCH   5   6
ENDBRANCH   3   5
ENDBRANCH   1   3
BRANCH   1  11
ATOM     11  C   UNL     1     -16.231  30.832  19.572  1.00  0.00     0.087 C 
BRANCH  11  12
ATOM     12  C   UNL     1     -15.573  29.964  18.467  1.00  0.00     0.066 C 
BRANCH  12  13
ATOM     13  C   UNL     1     -16.627  29.158  17.718  1.00  0.00     0.140 C 
ATOM     14  O   UNL     1     -17.087  28.161  18.256  1.00  0.00    -0.299 OA
BRANCH  13  15
ATOM     15  C   UNL     1     -17.152  29.573  16.360  1.00  0.00     0.106 CG0
ATOM     16  G   UNL     1     -18.283  30.584  16.457  1.00  0.00     0.000 G0
ENDBRANCH  13  15
ENDBRANCH  12  13
BRANCH  12  17
ATOM     17  C   UNL     1     -14.341  29.110  18.920  1.00  0.00    -0.006 C 
ATOM     18  C   UNL     1     -13.049  29.946  18.870  1.00  0.00     0.008 C 
ATOM     19  C   UNL     1     -14.506  28.555  20.346  1.00  0.00     0.008 C 
ENDBRANCH  12  17
ENDBRANCH  11  12
ENDBRANCH   1  11
TORSDOF 1
ENDMDL
MODEL 5
REMARK VINA RESULT:    -3.176      1.904      4.096
REMARK INTER + INTRA:          -4.707
REMARK INTER:                  -4.479
REMARK INTRA:                  -0.227
REMARK UNBOUND:                 0.140
REMARK SMILES CC1=CCC[C@H](C)C(=O)C[C@@H](C(C)C)C(=O)C1
REMARK SMILES IDX 8 1 9 2 6 3 7 4 5 5 4 6 3 7 2 8 1 9 10 11 11 12 15 13 16 14
REMARK SMILES IDX 17 15 12 17 13 18 14 19
REMARK H PARENT
REMARK Flexibility Score: 70.00
ROOT
ATOM      1  C   UNL     1     -13.951  28.673  17.350  1.00  0.00     0.136 C 
ATOM      2  O   UNL     1     -14.241  29.790  16.951  1.00  0.00    -0.299 OA
ENDROOT
BRANCH   1   3
ATOM      3  C   UNL     1     -13.920  28.416  18.846  1.00  0.00     0.053 C 
ATOM      4  C   UNL     1     -13.719  29.726  19.622  1.00  0.00     0.016 C 
BRANCH   3   5
ATOM      5  C   UNL     1     -15.190  27.678  19.315  1.00  0.00     0.015 C 
BRANCH   5   6
ATOM      6  C   UNL     1     -14.952  26.163  19.465  1.00  0.00     0.028 C 
BRANCH   6   7
ATOM      7  C   UNL     1     -16.087  25.364  18.879  1.00  0.00    -0.028 C 
ATOM      8  C   UNL     1     -16.059  24.759  17.669  1.00  0.00    -0.070 CG0
ATOM      9  C   UNL     1     -17.290  24.015  17.218  1.00  0.00     0.039 C 
ATOM     10  G   UNL     1     -14.853  24.799  16.742  1.00  0.00     0.000 G0
ENDBRANCH   6   7
ENDBRANCH   5   6
ENDBRANCH   3   5
ENDBRANCH   1   3
BRANCH   1  11
ATOM     11  C   UNL     1     -13.703  27.564  16.347  1.00  0.00     0.087 C 
BRANCH  11  12
ATOM     12  C   UNL     1     -14.930  27.150  15.492  1.00  0.00     0.066 C 
BRANCH  12  13
ATOM     13  C   UNL     1     -15.104  25.636  15.499  1.00  0.00     0.140 C 
ATOM     14  O   UNL     1     -15.417  25.082  14.455  1.00  0.00    -0.299 OA
BRANCH  13  15
ATOM     15  C   UNL     1     -14.859  24.797  16.735  1.00  0.00     0.106 CG0
ATOM     16  G   UNL     1     -16.066  24.756  17.659  1.00  0.00     0.000 G0
ENDBRANCH  13  15
ENDBRANCH  12  13
BRANCH  12  17
ATOM     17  C   UNL     1     -15.002  27.778  14.060  1.00  0.00    -0.006 C 
ATOM     18  C   UNL     1     -15.839  29.072  14.073  1.00  0.00     0.008 C 
ATOM     19  C   UNL     1     -13.609  28.105  13.493  1.00  0.00     0.008 C 
ENDBRANCH  12  17
ENDBRANCH  11  12
ENDBRANCH   1  11
TORSDOF 1
ENDMDL
MODEL 6
REMARK VINA RESULT:    -3.173      2.827      3.908
REMARK INTER + INTRA:          -4.703
REMARK INTER:                  -4.662
REMARK INTRA:                  -0.041
REMARK UNBOUND:                 0.140
REMARK SMILES CC1=CCC[C@H](C)C(=O)C[C@@H](C(C)C)C(=O)C1
REMARK SMILES IDX 8 1 9 2 6 3 7 4 5 5 4 6 3 7 2 8 1 9 10 11 11 12 15 13 16 14
REMARK SMILES IDX 17 15 12 17 13 18 14 19
REMARK H PARENT
REMARK Flexibility Score: 70.00
ROOT
ATOM      1  C   UNL     1     -13.733  27.563  15.792  1.00  0.00     0.136 C 
ATOM      2  O   UNL     1     -13.715  26.378  16.089  1.00  0.00    -0.299 OA
ENDROOT
BRANCH   1   3
ATOM      3  C   UNL     1     -13.747  27.948  14.324  1.00  0.00     0.053 C 
ATOM      4  C   UNL     1     -14.707  27.050  13.532  1.00  0.00     0.016 C 
BRANCH   3   5
ATOM      5  C   UNL     1     -14.094  29.439  14.139  1.00  0.00     0.015 C 
BRANCH   5   6
ATOM      6  C   UNL     1     -15.616  29.671  14.079  1.00  0.00     0.028 C 
BRANCH   6   7
ATOM      7  C   UNL     1     -15.990  31.031  14.609  1.00  0.00    -0.028 C 
ATOM      8  C   UNL     1     -16.585  31.255  15.803  1.00  0.00    -0.070 CG0
ATOM      9  C   UNL     1     -16.916  32.678  16.175  1.00  0.00     0.039 C 
ATOM     10  G   UNL     1     -16.941  30.146  16.781  1.00  0.00     0.000 G0
ENDBRANCH   6   7
ENDBRANCH   5   6
ENDBRANCH   3   5
ENDBRANCH   1   3
BRANCH   1  11
ATOM     11  C   UNL     1     -13.814  28.605  16.890  1.00  0.00     0.087 C 
BRANCH  11  12
ATOM     12  C   UNL     1     -15.077  28.531  17.788  1.00  0.00     0.066 C 
BRANCH  12  13
ATOM     13  C   UNL     1     -15.828  29.857  17.769  1.00  0.00     0.140 C 
ATOM     14  O   UNL     1     -15.487  30.729  18.555  1.00  0.00    -0.299 OA
BRANCH  13  15
ATOM     15  C   UNL     1     -16.942  30.144  16.787  1.00  0.00     0.106 CG0
ATOM     16  G   UNL     1     -16.584  31.250  15.806  1.00  0.00     0.000 G0
ENDBRANCH  13  15
ENDBRANCH  12  13
BRANCH  12  17
ATOM     17  C   UNL     1     -14.851  27.964  19.230  1.00  0.00    -0.006 C 
ATOM     18  C   UNL     1     -15.168  26.457  19.281  1.00  0.00     0.008 C 
ATOM     19  C   UNL     1     -13.408  28.174  19.723  1.00  0.00     0.008 C 
ENDBRANCH  12  17
ENDBRANCH  11  12
ENDBRANCH   1  11
TORSDOF 1
ENDMDL
MODEL 7
REMARK VINA RESULT:    -3.077      2.221      4.690
REMARK INTER + INTRA:          -4.556
REMARK INTER:                  -4.724
REMARK INTRA:                   0.168
REMARK UNBOUND:                 0.140
REMARK SMILES CC1=CCC[C@H](C)C(=O)C[C@@H](C(C)C)C(=O)C1
REMARK SMILES IDX 8 1 9 2 6 3 7 4 5 5 4 6 3 7 2 8 1 9 10 11 11 12 15 13 16 14
REMARK SMILES IDX 17 15 12 17 13 18 14 19
REMARK H PARENT
REMARK Flexibility Score: 70.00
ROOT
ATOM      1  C   UNL     1     -14.785  28.202  18.916  1.00  0.00     0.136 C 
ATOM      2  O   UNL     1     -13.846  27.926  19.647  1.00  0.00    -0.299 OA
ENDROOT
BRANCH   1   3
ATOM      3  C   UNL     1     -14.809  29.559  18.237  1.00  0.00     0.053 C 
ATOM      4  C   UNL     1     -13.606  30.409  18.670  1.00  0.00     0.016 C 
BRANCH   3   5
ATOM      5  C   UNL     1     -14.871  29.418  16.703  1.00  0.00     0.015 C 
BRANCH   5   6
ATOM      6  C   UNL     1     -13.762  28.492  16.166  1.00  0.00     0.028 C 
BRANCH   6   7
ATOM      7  C   UNL     1     -14.162  27.848  14.864  1.00  0.00    -0.028 C 
ATOM      8  C   UNL     1     -14.381  26.524  14.694  1.00  0.00    -0.070 CG0
ATOM      9  C   UNL     1     -14.753  26.037  13.317  1.00  0.00     0.039 C 
ATOM     10  G   UNL     1     -14.266  25.507  15.819  1.00  0.00     0.000 G0
ENDBRANCH   6   7
ENDBRANCH   5   6
ENDBRANCH   3   5
ENDBRANCH   1   3
BRANCH   1  11
ATOM     11  C   UNL     1     -15.854  27.160  18.652  1.00  0.00     0.087 C 
BRANCH  11  12
ATOM     12  C   UNL     1     -15.332  25.754  18.255  1.00  0.00     0.066 C 
BRANCH  12  13
ATOM     13  C   UNL     1     -15.474  25.532  16.755  1.00  0.00     0.140 C 
ATOM     14  O   UNL     1     -16.598  25.413  16.288  1.00  0.00    -0.299 OA
BRANCH  13  15
ATOM     15  C   UNL     1     -14.282  25.499  15.823  1.00  0.00     0.106 CG0
ATOM     16  G   UNL     1     -14.397  26.511  14.694  1.00  0.00     0.000 G0
ENDBRANCH  13  15
ENDBRANCH  12  13
BRANCH  12  17
ATOM     17  C   UNL     1     -15.874  24.563  19.115  1.00  0.00    -0.006 C 
ATOM     18  C   UNL     1     -15.540  23.213  18.452  1.00  0.00     0.008 C 
ATOM     19  C   UNL     1     -15.297  24.560  20.542  1.00  0.00     0.008 C 
ENDBRANCH  12  17
ENDBRANCH  11  12
ENDBRANCH   1  11
TORSDOF 1
ENDMDL
MODEL 8
REMARK VINA RESULT:    -3.063      2.867      4.321
REMARK INTER + INTRA:          -4.535
REMARK INTER:                  -4.627
REMARK INTRA:                   0.092
REMARK UNBOUND:                 0.140
REMARK SMILES CC1=CCC[C@H](C)C(=O)C[C@@H](C(C)C)C(=O)C1
REMARK SMILES IDX 8 1 9 2 6 3 7 4 5 5 4 6 3 7 2 8 1 9 10 11 11 12 15 13 16 14
REMARK SMILES IDX 17 15 12 17 13 18 14 19
REMARK H PARENT
REMARK Flexibility Score: 70.00
ROOT
ATOM      1  C   UNL     1     -14.418  30.634  18.589  1.00  0.00     0.136 C 
ATOM      2  O   UNL     1     -14.027  31.384  19.471  1.00  0.00    -0.299 OA
ENDROOT
BRANCH   1   3
ATOM      3  C   UNL     1     -13.643  29.358  18.319  1.00  0.00     0.053 C 
ATOM      4  C   UNL     1     -13.470  28.539  19.606  1.00  0.00     0.016 C 
BRANCH   3   5
ATOM      5  C   UNL     1     -14.311  28.520  17.209  1.00  0.00     0.015 C 
BRANCH   5   6
ATOM      6  C   UNL     1     -15.074  27.311  17.784  1.00  0.00     0.028 C 
BRANCH   6   7
ATOM      7  C   UNL     1     -16.500  27.275  17.298  1.00  0.00    -0.028 C 
ATOM      8  C   UNL     1     -17.531  27.919  17.891  1.00  0.00    -0.070 CG0
ATOM      9  C   UNL     1     -18.906  27.761  17.292  1.00  0.00     0.039 C 
ATOM     10  G   UNL     1     -17.374  28.785  19.132  1.00  0.00     0.000 G0
ENDBRANCH   6   7
ENDBRANCH   5   6
ENDBRANCH   3   5
ENDBRANCH   1   3
BRANCH   1  11
ATOM     11  C   UNL     1     -15.698  30.961  17.847  1.00  0.00     0.087 C 
BRANCH  11  12
ATOM     12  C   UNL     1     -16.898  31.383  18.736  1.00  0.00     0.066 C 
BRANCH  12  13
ATOM     13  C   UNL     1     -17.865  30.220  18.920  1.00  0.00     0.140 C 
ATOM     14  O   UNL     1     -19.065  30.445  18.849  1.00  0.00    -0.299 OA
BRANCH  13  15
ATOM     15  C   UNL     1     -17.392  28.799  19.140  1.00  0.00     0.106 CG0
ATOM     16  G   UNL     1     -17.534  27.938  17.894  1.00  0.00     0.000 G0
ENDBRANCH  13  15
ENDBRANCH  12  13
BRANCH  12  17
ATOM     17  C   UNL     1     -17.602  32.721  18.333  1.00  0.00    -0.006 C 
ATOM     18  C   UNL     1     -17.137  33.878  19.238  1.00  0.00     0.008 C 
ATOM     19  C   UNL     1     -17.330  33.110  16.869  1.00  0.00     0.008 C 
ENDBRANCH  12  17
ENDBRANCH  11  12
ENDBRANCH   1  11
TORSDOF 1
ENDMDL
MODEL 9
REMARK VINA RESULT:    -2.976      2.149      3.357
REMARK INTER + INTRA:          -4.402
REMARK INTER:                  -4.185
REMARK INTRA:                  -0.218
REMARK UNBOUND:                 0.140
REMARK SMILES CC1=CCC[C@H](C)C(=O)C[C@@H](C(C)C)C(=O)C1
REMARK SMILES IDX 8 1 9 2 6 3 7 4 5 5 4 6 3 7 2 8 1 9 10 11 11 12 15 13 16 14
REMARK SMILES IDX 17 15 12 17 13 18 14 19
REMARK H PARENT
REMARK Flexibility Score: 70.00
ROOT
ATOM      1  C   UNL     1     -14.837  26.487  19.059  1.00  0.00     0.136 C 
ATOM      2  O   UNL     1     -15.055  26.325  20.250  1.00  0.00    -0.299 OA
ENDROOT
BRANCH   1   3
ATOM      3  C   UNL     1     -15.357  25.456  18.074  1.00  0.00     0.053 C 
ATOM      4  C   UNL     1     -14.973  24.036  18.515  1.00  0.00     0.016 C 
BRANCH   3   5
ATOM      5  C   UNL     1     -16.880  25.586  17.875  1.00  0.00     0.015 C 
BRANCH   5   6
ATOM      6  C   UNL     1     -17.230  26.210  16.511  1.00  0.00     0.028 C 
BRANCH   6   7
ATOM      7  C   UNL     1     -16.110  26.033  15.518  1.00  0.00    -0.028 C 
ATOM      8  C   UNL     1     -15.377  27.043  14.996  1.00  0.00    -0.070 CG0
ATOM      9  C   UNL     1     -14.304  26.697  13.994  1.00  0.00     0.039 C 
ATOM     10  G   UNL     1     -15.584  28.504  15.364  1.00  0.00     0.000 G0
ENDBRANCH   6   7
ENDBRANCH   5   6
ENDBRANCH   3   5
ENDBRANCH   1   3
BRANCH   1  11
ATOM     11  C   UNL     1     -14.125  27.742  18.596  1.00  0.00     0.087 C 
BRANCH  11  12
ATOM     12  C   UNL     1     -15.027  28.818  17.937  1.00  0.00     0.066 C 
BRANCH  12  13
ATOM     13  C   UNL     1     -14.679  28.981  16.463  1.00  0.00     0.140 C 
ATOM     14  O   UNL     1     -13.601  29.478  16.171  1.00  0.00    -0.299 OA
BRANCH  13  15
ATOM     15  C   UNL     1     -15.598  28.511  15.356  1.00  0.00     0.106 CG0
ATOM     16  G   UNL     1     -15.373  27.051  14.993  1.00  0.00     0.000 G0
ENDBRANCH  13  15
ENDBRANCH  12  13
BRANCH  12  17
ATOM     17  C   UNL     1     -15.132  30.178  18.706  1.00  0.00    -0.006 C 
ATOM     18  C   UNL     1     -16.270  30.133  19.744  1.00  0.00     0.008 C 
ATOM     19  C   UNL     1     -13.825  30.543  19.433  1.00  0.00     0.008 C 
ENDBRANCH  12  17
ENDBRANCH  11  12
ENDBRANCH   1  11
TORSDOF 1
ENDMDL
