MODEL 1
REMARK VINA RESULT:    -3.619      0.000      0.000
REMARK INTER + INTRA:          -5.137
REMARK INTER:                  -4.465
REMARK INTRA:                  -0.672
REMARK UNBOUND:                -0.672
REMARK SMILES C=CC(=C)CCC=C(C)C
REMARK SMILES IDX 5 1 6 2 7 3 9 4 8 5 10 6 3 7 4 8 2 9 1 10
REMARK H PARENT
REMARK Flexibility Score: inf
ROOT
ATOM      1  C   UNL     1     139.743 133.311 135.736  1.00  0.00     0.039 C 
ENDROOT
BRANCH   1   2
ATOM      2  C   UNL     1     139.753 134.777 135.287  1.00  0.00     0.032 C 
BRANCH   2   3
ATOM      3  C   UNL     1     140.726 134.983 134.154  1.00  0.00    -0.028 C 
ATOM      4  C   UNL     1     139.027 136.085 132.681  1.00  0.00     0.039 C 
ATOM      5  C   UNL     1     140.421 135.592 132.986  1.00  0.00    -0.080 C 
ATOM      6  C   UNL     1     141.512 135.762 131.960  1.00  0.00     0.039 C 
ENDBRANCH   2   3
ENDBRANCH   1   2
BRANCH   1   7
ATOM      7  C   UNL     1     138.392 132.680 135.480  1.00  0.00    -0.055 C 
ATOM      8  C   UNL     1     137.898 131.818 136.375  1.00  0.00     0.012 C 
BRANCH   7   9
ATOM      9  C   UNL     1     137.572 133.020 134.288  1.00  0.00    -0.005 C 
ATOM     10  C   UNL     1     137.804 132.549 133.062  1.00  0.00     0.009 C 
ENDBRANCH   7   9
ENDBRANCH   1   7
TORSDOF 4
ENDMDL
MODEL 2
REMARK VINA RESULT:    -3.606      4.218      5.982
REMARK INTER + INTRA:          -5.121
REMARK INTER:                  -4.452
REMARK INTRA:                  -0.668
REMARK UNBOUND:                -0.672
REMARK SMILES C=CC(=C)CCC=C(C)C
REMARK SMILES IDX 5 1 6 2 7 3 9 4 8 5 10 6 3 7 4 8 2 9 1 10
REMARK H PARENT
REMARK Flexibility Score: inf
ROOT
ATOM      1  C   UNL     1     139.329 139.782 135.635  1.00  0.00     0.039 C 
ENDROOT
BRANCH   1   2
ATOM      2  C   UNL     1     137.858 139.809 135.207  1.00  0.00     0.032 C 
BRANCH   2   3
ATOM      3  C   UNL     1     137.645 140.793 134.085  1.00  0.00    -0.028 C 
ATOM      4  C   UNL     1     136.630 139.085 132.562  1.00  0.00     0.039 C 
ATOM      5  C   UNL     1     137.071 140.489 132.900  1.00  0.00    -0.080 C 
ATOM      6  C   UNL     1     136.888 141.590 131.887  1.00  0.00     0.039 C 
ENDBRANCH   2   3
ENDBRANCH   1   2
BRANCH   1   7
ATOM      7  C   UNL     1     139.935 138.417 135.392  1.00  0.00    -0.055 C 
ATOM      8  C   UNL     1     140.781 137.912 136.296  1.00  0.00     0.012 C 
BRANCH   7   9
ATOM      9  C   UNL     1     139.585 137.595 134.204  1.00  0.00    -0.005 C 
ATOM     10  C   UNL     1     140.128 137.757 132.998  1.00  0.00     0.009 C 
ENDBRANCH   7   9
ENDBRANCH   1   7
TORSDOF 4
ENDMDL
MODEL 3
REMARK VINA RESULT:    -3.604      5.058      6.872
REMARK INTER + INTRA:          -5.119
REMARK INTER:                  -4.201
REMARK INTRA:                  -0.917
REMARK UNBOUND:                -0.672
REMARK SMILES C=CC(=C)CCC=C(C)C
REMARK SMILES IDX 5 1 6 2 7 3 9 4 8 5 10 6 3 7 4 8 2 9 1 10
REMARK H PARENT
REMARK Flexibility Score: inf
ROOT
ATOM      1  C   UNL     1     131.865 134.782 136.364  1.00  0.00     0.039 C 
ENDROOT
BRANCH   1   2
ATOM      2  C   UNL     1     132.977 133.898 136.940  1.00  0.00     0.032 C 
BRANCH   2   3
ATOM      3  C   UNL     1     133.471 132.919 135.906  1.00  0.00    -0.028 C 
ATOM      4  C   UNL     1     135.684 134.061 135.646  1.00  0.00     0.039 C 
ATOM      5  C   UNL     1     134.695 132.964 135.333  1.00  0.00    -0.080 C 
ATOM      6  C   UNL     1     135.064 131.890 134.343  1.00  0.00     0.039 C 
ENDBRANCH   2   3
ENDBRANCH   1   2
BRANCH   1   7
ATOM      7  C   UNL     1     132.448 135.971 135.632  1.00  0.00    -0.055 C 
ATOM      8  C   UNL     1     133.218 136.834 136.303  1.00  0.00     0.012 C 
BRANCH   7   9
ATOM      9  C   UNL     1     132.233 136.189 134.178  1.00  0.00    -0.005 C 
ATOM     10  C   UNL     1     132.591 135.320 133.231  1.00  0.00     0.009 C 
ENDBRANCH   7   9
ENDBRANCH   1   7
TORSDOF 4
ENDMDL
MODEL 4
REMARK VINA RESULT:    -3.602      6.850      8.599
REMARK INTER + INTRA:          -5.116
REMARK INTER:                  -4.371
REMARK INTRA:                  -0.745
REMARK UNBOUND:                -0.672
REMARK SMILES C=CC(=C)CCC=C(C)C
REMARK SMILES IDX 5 1 6 2 7 3 9 4 8 5 10 6 3 7 4 8 2 9 1 10
REMARK H PARENT
REMARK Flexibility Score: inf
ROOT
ATOM      1  C   UNL     1     132.909 139.504 135.957  1.00  0.00     0.039 C 
ENDROOT
BRANCH   1   2
ATOM      2  C   UNL     1     133.154 138.410 134.912  1.00  0.00     0.032 C 
BRANCH   2   3
ATOM      3  C   UNL     1     132.335 137.182 135.220  1.00  0.00    -0.028 C 
ATOM      4  C   UNL     1     134.256 135.967 136.271  1.00  0.00     0.039 C 
ATOM      5  C   UNL     1     132.809 136.086 135.853  1.00  0.00    -0.080 C 
ATOM      6  C   UNL     1     131.860 134.949 136.129  1.00  0.00     0.039 C 
ENDBRANCH   2   3
ENDBRANCH   1   2
BRANCH   1   7
ATOM      7  C   UNL     1     134.199 139.881 136.652  1.00  0.00    -0.055 C 
ATOM      8  C   UNL     1     135.014 140.769 136.073  1.00  0.00     0.012 C 
BRANCH   7   9
ATOM      9  C   UNL     1     134.571 139.335 137.984  1.00  0.00    -0.005 C 
ATOM     10  C   UNL     1     133.744 138.633 138.760  1.00  0.00     0.009 C 
ENDBRANCH   7   9
ENDBRANCH   1   7
TORSDOF 4
ENDMDL
MODEL 5
REMARK VINA RESULT:    -3.596      1.379      2.290
REMARK INTER + INTRA:          -5.108
REMARK INTER:                  -4.193
REMARK INTRA:                  -0.915
REMARK UNBOUND:                -0.672
REMARK SMILES C=CC(=C)CCC=C(C)C
REMARK SMILES IDX 5 1 6 2 7 3 9 4 8 5 10 6 3 7 4 8 2 9 1 10
REMARK H PARENT
REMARK Flexibility Score: inf
ROOT
ATOM      1  C   UNL     1     137.872 131.891 136.318  1.00  0.00     0.039 C 
ENDROOT
BRANCH   1   2
ATOM      2  C   UNL     1     138.750 132.997 136.913  1.00  0.00     0.032 C 
BRANCH   2   3
ATOM      3  C   UNL     1     139.741 133.500 135.894  1.00  0.00    -0.028 C 
ATOM      4  C   UNL     1     138.582 135.702 135.615  1.00  0.00     0.039 C 
ATOM      5  C   UNL     1     139.694 134.723 135.320  1.00  0.00    -0.080 C 
ATOM      6  C   UNL     1     140.779 135.101 134.346  1.00  0.00     0.039 C 
ENDBRANCH   2   3
ENDBRANCH   1   2
BRANCH   1   7
ATOM      7  C   UNL     1     136.685 132.480 135.589  1.00  0.00    -0.055 C 
ATOM      8  C   UNL     1     135.807 133.224 136.271  1.00  0.00     0.012 C 
BRANCH   7   9
ATOM      9  C   UNL     1     136.483 132.300 134.128  1.00  0.00    -0.005 C 
ATOM     10  C   UNL     1     137.415 132.552 133.209  1.00  0.00     0.009 C 
ENDBRANCH   7   9
ENDBRANCH   1   7
TORSDOF 4
ENDMDL
MODEL 6
REMARK VINA RESULT:    -3.593      2.095      3.183
REMARK INTER + INTRA:          -5.105
REMARK INTER:                  -4.376
REMARK INTRA:                  -0.729
REMARK UNBOUND:                -0.672
REMARK SMILES C=CC(=C)CCC=C(C)C
REMARK SMILES IDX 5 1 6 2 7 3 9 4 8 5 10 6 3 7 4 8 2 9 1 10
REMARK H PARENT
REMARK Flexibility Score: inf
ROOT
ATOM      1  C   UNL     1     139.729 133.237 135.789  1.00  0.00     0.039 C 
ENDROOT
BRANCH   1   2
ATOM      2  C   UNL     1     139.381 134.457 134.928  1.00  0.00     0.032 C 
BRANCH   2   3
ATOM      3  C   UNL     1     140.269 135.626 135.272  1.00  0.00    -0.028 C 
ATOM      4  C   UNL     1     138.449 136.866 136.463  1.00  0.00     0.039 C 
ATOM      5  C   UNL     1     139.872 136.704 135.983  1.00  0.00    -0.080 C 
ATOM      6  C   UNL     1     140.885 137.778 136.285  1.00  0.00     0.039 C 
ENDBRANCH   2   3
ENDBRANCH   1   2
BRANCH   1   7
ATOM      7  C   UNL     1     138.528 132.784 136.589  1.00  0.00    -0.055 C 
ATOM      8  C   UNL     1     137.798 131.757 136.140  1.00  0.00     0.012 C 
BRANCH   7   9
ATOM      9  C   UNL     1     138.157 133.410 137.885  1.00  0.00    -0.005 C 
ATOM     10  C   UNL     1     139.025 134.012 138.699  1.00  0.00     0.009 C 
ENDBRANCH   7   9
ENDBRANCH   1   7
TORSDOF 4
ENDMDL
MODEL 7
REMARK VINA RESULT:    -3.587      4.153      6.123
REMARK INTER + INTRA:          -5.097
REMARK INTER:                  -4.303
REMARK INTRA:                  -0.794
REMARK UNBOUND:                -0.672
REMARK SMILES C=CC(=C)CCC=C(C)C
REMARK SMILES IDX 5 1 6 2 7 3 9 4 8 5 10 6 3 7 4 8 2 9 1 10
REMARK H PARENT
REMARK Flexibility Score: inf
ROOT
ATOM      1  C   UNL     1     133.021 132.996 135.739  1.00  0.00     0.039 C 
ENDROOT
BRANCH   1   2
ATOM      2  C   UNL     1     134.180 133.190 134.755  1.00  0.00     0.032 C 
BRANCH   2   3
ATOM      3  C   UNL     1     135.369 132.354 135.158  1.00  0.00    -0.028 C 
ATOM      4  C   UNL     1     136.673 134.321 135.994  1.00  0.00     0.039 C 
ATOM      5  C   UNL     1     136.486 132.844 135.739  1.00  0.00    -0.080 C 
ATOM      6  C   UNL     1     137.578 131.879 136.124  1.00  0.00     0.039 C 
ENDBRANCH   2   3
ENDBRANCH   1   2
BRANCH   1   7
ATOM      7  C   UNL     1     132.745 134.273 136.503  1.00  0.00    -0.055 C 
ATOM      8  C   UNL     1     131.855 135.143 136.015  1.00  0.00     0.012 C 
BRANCH   7   9
ATOM      9  C   UNL     1     133.397 134.573 137.804  1.00  0.00    -0.005 C 
ATOM     10  C   UNL     1     134.027 133.665 138.551  1.00  0.00     0.009 C 
ENDBRANCH   7   9
ENDBRANCH   1   7
TORSDOF 4
ENDMDL
MODEL 8
REMARK VINA RESULT:    -3.582      5.157      6.860
REMARK INTER + INTRA:          -5.091
REMARK INTER:                  -4.381
REMARK INTRA:                  -0.710
REMARK UNBOUND:                -0.672
REMARK SMILES C=CC(=C)CCC=C(C)C
REMARK SMILES IDX 5 1 6 2 7 3 9 4 8 5 10 6 3 7 4 8 2 9 1 10
REMARK H PARENT
REMARK Flexibility Score: inf
ROOT
ATOM      1  C   UNL     1     139.439 139.738 135.734  1.00  0.00     0.039 C 
ENDROOT
BRANCH   1   2
ATOM      2  C   UNL     1     138.216 139.445 134.856  1.00  0.00     0.032 C 
BRANCH   2   3
ATOM      3  C   UNL     1     137.054 140.321 135.248  1.00  0.00    -0.028 C 
ATOM      4  C   UNL     1     135.712 138.411 136.155  1.00  0.00     0.039 C 
ATOM      5  C   UNL     1     135.932 139.875 135.856  1.00  0.00    -0.080 C 
ATOM      6  C   UNL     1     134.869 140.877 136.225  1.00  0.00     0.039 C 
ENDBRANCH   2   3
ENDBRANCH   1   2
BRANCH   1   7
ATOM      7  C   UNL     1     139.769 138.550 136.610  1.00  0.00    -0.055 C 
ATOM      8  C   UNL     1     140.879 137.848 136.361  1.00  0.00     0.012 C 
BRANCH   7   9
ATOM      9  C   UNL     1     138.925 138.164 137.771  1.00  0.00    -0.005 C 
ATOM     10  C   UNL     1     138.621 138.982 138.779  1.00  0.00     0.009 C 
ENDBRANCH   7   9
ENDBRANCH   1   7
TORSDOF 4
ENDMDL
MODEL 9
REMARK VINA RESULT:    -3.540      3.682      4.991
REMARK INTER + INTRA:          -5.040
REMARK INTER:                  -4.185
REMARK INTRA:                  -0.854
REMARK UNBOUND:                -0.672
REMARK SMILES C=CC(=C)CCC=C(C)C
REMARK SMILES IDX 5 1 6 2 7 3 9 4 8 5 10 6 3 7 4 8 2 9 1 10
REMARK H PARENT
REMARK Flexibility Score: inf
ROOT
ATOM      1  C   UNL     1     140.830 137.883 136.331  1.00  0.00     0.039 C 
ENDROOT
BRANCH   1   2
ATOM      2  C   UNL     1     139.789 138.892 136.827  1.00  0.00     0.032 C 
BRANCH   2   3
ATOM      3  C   UNL     1     139.293 139.751 135.692  1.00  0.00    -0.028 C 
ATOM      4  C   UNL     1     136.928 138.957 135.910  1.00  0.00     0.039 C 
ATOM      5  C   UNL     1     138.005 139.810 135.284  1.00  0.00    -0.080 C 
ATOM      6  C   UNL     1     137.651 140.748 134.159  1.00  0.00     0.039 C 
ENDBRANCH   2   3
ENDBRANCH   1   2
BRANCH   1   7
ATOM      7  C   UNL     1     140.160 136.706 135.657  1.00  0.00    -0.055 C 
ATOM      8  C   UNL     1     139.293 135.965 136.355  1.00  0.00     0.012 C 
BRANCH   7   9
ATOM      9  C   UNL     1     140.396 136.371 134.228  1.00  0.00    -0.005 C 
ATOM     10  C   UNL     1     140.004 137.135 133.208  1.00  0.00     0.009 C 
ENDBRANCH   7   9
ENDBRANCH   1   7
TORSDOF 4
ENDMDL
