MODEL 1
REMARK VINA RESULT:    -0.431      0.000      0.000
REMARK INTER + INTRA:          -0.266
REMARK INTER:                  -0.507
REMARK INTRA:                   0.240
REMARK UNBOUND:                 0.240
REMARK SMILES O=C([O-])C=Cc1ccc(O)c(O)c1
REMARK SMILES IDX 6 1 13 2 7 3 11 4 8 5 9 6 5 7 4 8 2 9 1 10 3 11 12 12 10 14
REMARK H PARENT 12 13 10 15
REMARK Flexibility Score: inf
ROOT
ATOM      1  C   UNL     1      26.908  28.605   2.345  1.00  0.00    -0.022 A 
ATOM      2  C   UNL     1      26.017  29.398   1.607  1.00  0.00     0.058 A 
ATOM      3  C   UNL     1      28.284  28.881   2.288  1.00  0.00     0.012 A 
ATOM      4  C   UNL     1      26.494  30.421   0.778  1.00  0.00     0.157 A 
ATOM      5  C   UNL     1      28.764  29.900   1.461  1.00  0.00     0.051 A 
ATOM      6  C   UNL     1      27.874  30.671   0.701  1.00  0.00     0.157 A 
ENDROOT
BRANCH   1   7
ATOM      7  C   UNL     1      26.372  27.568   3.251  1.00  0.00     0.010 C 
ATOM      8  C   UNL     1      26.213  26.271   2.942  1.00  0.00     0.025 C 
BRANCH   8   9
ATOM      9  C   UNL     1      26.372  25.680   1.598  1.00  0.00     0.064 C 
ATOM     10  O   UNL     1      27.117  26.206   0.730  1.00  0.00    -0.545 OA
ATOM     11  O   UNL     1      25.627  24.557   1.261  1.00  0.00    -0.545 OA
ENDBRANCH   8   9
ENDBRANCH   1   7
BRANCH   4  12
ATOM     12  O   UNL     1      25.582  31.178   0.042  1.00  0.00    -0.504 OA
ATOM     13  H   UNL     1      25.857  31.706  -0.776  1.00  0.00     0.293 HD
ENDBRANCH   4  12
BRANCH   6  14
ATOM     14  O   UNL     1      28.356  31.687  -0.125  1.00  0.00    -0.504 OA
ATOM     15  H   UNL     1      28.119  31.728  -1.108  1.00  0.00     0.293 HD
ENDBRANCH   6  14
TORSDOF 4
ENDMDL
MODEL 2
REMARK VINA RESULT:     1.501      0.766      2.013
REMARK INTER + INTRA:           2.005
REMARK INTER:                   1.798
REMARK INTRA:                   0.207
REMARK UNBOUND:                 0.240
REMARK SMILES O=C([O-])C=Cc1ccc(O)c(O)c1
REMARK SMILES IDX 6 1 13 2 7 3 11 4 8 5 9 6 5 7 4 8 2 9 1 10 3 11 12 12 10 14
REMARK H PARENT 12 13 10 15
REMARK Flexibility Score: inf
ROOT
ATOM      1  C   UNL     1      26.836  28.636   2.515  1.00  0.00    -0.022 A 
ATOM      2  C   UNL     1      28.084  28.953   1.960  1.00  0.00     0.058 A 
ATOM      3  C   UNL     1      25.710  29.394   2.153  1.00  0.00     0.012 A 
ATOM      4  C   UNL     1      28.222  30.046   1.095  1.00  0.00     0.157 A 
ATOM      5  C   UNL     1      25.844  30.487   1.292  1.00  0.00     0.051 A 
ATOM      6  C   UNL     1      27.097  30.820   0.762  1.00  0.00     0.157 A 
ENDROOT
BRANCH   1   7
ATOM      7  C   UNL     1      26.711  27.446   3.381  1.00  0.00     0.010 C 
ATOM      8  C   UNL     1      26.539  26.185   2.951  1.00  0.00     0.025 C 
BRANCH   8   9
ATOM      9  C   UNL     1      26.265  25.780   1.558  1.00  0.00     0.064 C 
ATOM     10  O   UNL     1      25.440  24.868   1.287  1.00  0.00    -0.545 OA
ATOM     11  O   UNL     1      26.986  26.370   0.528  1.00  0.00    -0.545 OA
ENDBRANCH   8   9
ENDBRANCH   1   7
BRANCH   4  12
ATOM     12  O   UNL     1      29.482  30.345   0.576  1.00  0.00    -0.504 OA
ATOM     13  H   UNL     1      30.062  29.643   0.132  1.00  0.00     0.293 HD
ENDBRANCH   4  12
BRANCH   6  14
ATOM     14  O   UNL     1      27.228  31.912  -0.095  1.00  0.00    -0.504 OA
ATOM     15  H   UNL     1      26.837  31.902  -1.029  1.00  0.00     0.293 HD
ENDBRANCH   6  14
TORSDOF 4
ENDMDL
MODEL 3
REMARK VINA RESULT:     1.805      1.234      4.829
REMARK INTER + INTRA:           2.362
REMARK INTER:                   2.219
REMARK INTRA:                   0.142
REMARK UNBOUND:                 0.240
REMARK SMILES O=C([O-])C=Cc1ccc(O)c(O)c1
REMARK SMILES IDX 6 1 13 2 7 3 11 4 8 5 9 6 5 7 4 8 2 9 1 10 3 11 12 12 10 14
REMARK H PARENT 12 13 10 15
REMARK Flexibility Score: inf
ROOT
ATOM      1  C   UNL     1      27.880  28.063   1.970  1.00  0.00    -0.022 A 
ATOM      2  C   UNL     1      27.120  27.411   2.952  1.00  0.00     0.058 A 
ATOM      3  C   UNL     1      27.854  27.584   0.650  1.00  0.00     0.012 A 
ATOM      4  C   UNL     1      26.383  26.263   2.636  1.00  0.00     0.157 A 
ATOM      5  C   UNL     1      27.122  26.437   0.331  1.00  0.00     0.051 A 
ATOM      6  C   UNL     1      26.387  25.770   1.320  1.00  0.00     0.157 A 
ENDROOT
BRANCH   1   7
ATOM      7  C   UNL     1      28.604  29.302   2.321  1.00  0.00     0.010 C 
ATOM      8  C   UNL     1      28.292  30.534   1.887  1.00  0.00     0.025 C 
BRANCH   8   9
ATOM      9  C   UNL     1      27.292  30.855   0.849  1.00  0.00     0.064 C 
ATOM     10  O   UNL     1      27.569  31.604  -0.124  1.00  0.00    -0.545 OA
ATOM     11  O   UNL     1      25.996  30.376   0.988  1.00  0.00    -0.545 OA
ENDBRANCH   8   9
ENDBRANCH   1   7
BRANCH   4  12
ATOM     12  O   UNL     1      25.654  25.628   3.641  1.00  0.00    -0.504 OA
ATOM     13  H   UNL     1      26.091  25.017   4.320  1.00  0.00     0.293 HD
ENDBRANCH   4  12
BRANCH   6  14
ATOM     14  O   UNL     1      25.659  24.625   0.999  1.00  0.00    -0.504 OA
ATOM     15  H   UNL     1      24.734  24.462   1.377  1.00  0.00     0.293 HD
ENDBRANCH   6  14
TORSDOF 4
ENDMDL
MODEL 4
REMARK VINA RESULT:     2.145      0.937      4.773
REMARK INTER + INTRA:           2.761
REMARK INTER:                   2.658
REMARK INTRA:                   0.103
REMARK UNBOUND:                 0.240
REMARK SMILES O=C([O-])C=Cc1ccc(O)c(O)c1
REMARK SMILES IDX 6 1 13 2 7 3 11 4 8 5 9 6 5 7 4 8 2 9 1 10 3 11 12 12 10 14
REMARK H PARENT 12 13 10 15
REMARK Flexibility Score: inf
ROOT
ATOM      1  C   UNL     1      27.391  28.457   2.491  1.00  0.00    -0.022 A 
ATOM      2  C   UNL     1      27.911  27.781   1.377  1.00  0.00     0.058 A 
ATOM      3  C   UNL     1      26.387  27.844   3.260  1.00  0.00     0.012 A 
ATOM      4  C   UNL     1      27.401  26.533   1.000  1.00  0.00     0.157 A 
ATOM      5  C   UNL     1      25.875  26.600   2.886  1.00  0.00     0.051 A 
ATOM      6  C   UNL     1      26.375  25.940   1.755  1.00  0.00     0.157 A 
ENDROOT
BRANCH   1   7
ATOM      7  C   UNL     1      27.985  29.747   2.897  1.00  0.00     0.010 C 
ATOM      8  C   UNL     1      27.956  30.878   2.174  1.00  0.00     0.025 C 
BRANCH   8   9
ATOM      9  C   UNL     1      27.489  30.998   0.779  1.00  0.00     0.064 C 
ATOM     10  O   UNL     1      28.226  31.473  -0.125  1.00  0.00    -0.545 OA
ATOM     11  O   UNL     1      26.182  30.644   0.471  1.00  0.00    -0.545 OA
ENDBRANCH   8   9
ENDBRANCH   1   7
BRANCH   4  12
ATOM     12  O   UNL     1      27.927  25.898  -0.125  1.00  0.00    -0.504 OA
ATOM     13  H   UNL     1      27.898  24.892  -0.238  1.00  0.00     0.293 HD
ENDBRANCH   4  12
BRANCH   6  14
ATOM     14  O   UNL     1      25.859  24.699   1.383  1.00  0.00    -0.504 OA
ATOM     15  H   UNL     1      25.236  24.599   0.591  1.00  0.00     0.293 HD
ENDBRANCH   6  14
TORSDOF 4
ENDMDL
MODEL 5
REMARK VINA RESULT:     2.214      2.483      4.771
REMARK INTER + INTRA:           2.843
REMARK INTER:                   2.669
REMARK INTRA:                   0.174
REMARK UNBOUND:                 0.240
REMARK SMILES O=C([O-])C=Cc1ccc(O)c(O)c1
REMARK SMILES IDX 6 1 13 2 7 3 11 4 8 5 9 6 5 7 4 8 2 9 1 10 3 11 12 12 10 14
REMARK H PARENT 12 13 10 15
REMARK Flexibility Score: inf
ROOT
ATOM      1  C   UNL     1      27.286  28.573   2.052  1.00  0.00    -0.022 A 
ATOM      2  C   UNL     1      26.847  27.601   2.963  1.00  0.00     0.058 A 
ATOM      3  C   UNL     1      27.222  28.304   0.675  1.00  0.00     0.012 A 
ATOM      4  C   UNL     1      26.400  26.353   2.511  1.00  0.00     0.157 A 
ATOM      5  C   UNL     1      26.778  27.060   0.220  1.00  0.00     0.051 A 
ATOM      6  C   UNL     1      26.369  26.079   1.133  1.00  0.00     0.157 A 
ENDROOT
BRANCH   1   7
ATOM      7  C   UNL     1      27.701  29.899   2.555  1.00  0.00     0.010 C 
ATOM      8  C   UNL     1      28.896  30.186   3.096  1.00  0.00     0.025 C 
BRANCH   8   9
ATOM      9  C   UNL     1      29.940  29.204   3.452  1.00  0.00     0.064 C 
ATOM     10  O   UNL     1      30.656  29.346   4.478  1.00  0.00    -0.545 OA
ATOM     11  O   UNL     1      30.184  28.138   2.597  1.00  0.00    -0.545 OA
ENDBRANCH   8   9
ENDBRANCH   1   7
BRANCH   4  12
ATOM     12  O   UNL     1      25.990  25.401   3.445  1.00  0.00    -0.504 OA
ATOM     13  H   UNL     1      26.176  25.504   4.435  1.00  0.00     0.293 HD
ENDBRANCH   4  12
BRANCH   6  14
ATOM     14  O   UNL     1      25.928  24.837   0.677  1.00  0.00    -0.504 OA
ATOM     15  H   UNL     1      26.521  24.017   0.715  1.00  0.00     0.293 HD
ENDBRANCH   6  14
TORSDOF 4
ENDMDL
