MODEL 1
REMARK VINA RESULT:    -4.055      0.000      0.000
REMARK INTER + INTRA:         -10.181
REMARK INTER:                  -7.849
REMARK INTRA:                  -2.332
REMARK UNBOUND:                -2.332
REMARK SMILES CCCCCCCCCCCCCCCCCC(=O)[O-]
REMARK SMILES IDX 10 1 11 2 12 3 13 4 14 5 15 6 16 7 17 8 18 9 19 10 20 11
REMARK SMILES IDX 9 12 8 13 7 14 6 15 5 16 4 17 3 18 2 19 1 20
REMARK H PARENT
REMARK Flexibility Score: inf
ROOT
ATOM      1  C   UNL     1      49.050   1.969  20.430  1.00  0.00     0.000 C 
ENDROOT
BRANCH   1   2
ATOM      2  C   UNL     1      47.628   1.513  20.790  1.00  0.00     0.000 C 
BRANCH   2   3
ATOM      3  C   UNL     1      46.584   2.251  19.943  1.00  0.00     0.000 C 
BRANCH   3   4
ATOM      4  C   UNL     1      45.725   3.182  20.812  1.00  0.00     0.000 C 
BRANCH   4   5
ATOM      5  C   UNL     1      46.403   4.550  21.043  1.00  0.00     0.000 C 
BRANCH   5   6
ATOM      6  C   UNL     1      46.808   4.798  22.506  1.00  0.00     0.000 C 
BRANCH   6   7
ATOM      7  C   UNL     1      48.279   5.209  22.658  1.00  0.00     0.006 C 
BRANCH   7   8
ATOM      8  C   UNL     1      48.816   5.823  21.362  1.00  0.00     0.053 C 
BRANCH   8   9
ATOM      9  C   UNL     1      48.805   7.316  21.445  1.00  0.00     0.041 C 
ATOM     10  O   UNL     1      47.885   7.974  20.890  1.00  0.00    -0.550 OA
ATOM     11  O   UNL     1      49.842   7.985  22.086  1.00  0.00    -0.550 OA
ENDBRANCH   8   9
ENDBRANCH   7   8
ENDBRANCH   6   7
ENDBRANCH   5   6
ENDBRANCH   4   5
ENDBRANCH   3   4
ENDBRANCH   2   3
ENDBRANCH   1   2
BRANCH   1  12
ATOM     12  C   UNL     1      49.933   2.182  21.669  1.00  0.00     0.000 C 
BRANCH  12  13
ATOM     13  C   UNL     1      51.299   2.799  21.321  1.00  0.00    -0.000 C 
BRANCH  13  14
ATOM     14  C   UNL     1      51.936   2.156  20.078  1.00  0.00    -0.000 C 
BRANCH  14  15
ATOM     15  C   UNL     1      52.235   3.182  18.970  1.00  0.00    -0.000 C 
BRANCH  15  16
ATOM     16  C   UNL     1      51.582   4.547  19.238  1.00  0.00    -0.000 C 
BRANCH  16  17
ATOM     17  C   UNL     1      52.226   5.679  18.425  1.00  0.00    -0.000 C 
BRANCH  17  18
ATOM     18  C   UNL     1      51.916   7.045  19.047  1.00  0.00    -0.000 C 
BRANCH  18  19
ATOM     19  C   UNL     1      50.826   7.777  18.256  1.00  0.00    -0.003 C 
ATOM     20  C   UNL     1      50.575   9.171  18.822  1.00  0.00     0.004 C 
ENDBRANCH  18  19
ENDBRANCH  17  18
ENDBRANCH  16  17
ENDBRANCH  15  16
ENDBRANCH  14  15
ENDBRANCH  13  14
ENDBRANCH  12  13
ENDBRANCH   1  12
TORSDOF 16
ENDMDL
MODEL 2
REMARK VINA RESULT:    -4.053      3.227      6.363
REMARK INTER + INTRA:         -10.177
REMARK INTER:                  -7.474
REMARK INTRA:                  -2.703
REMARK UNBOUND:                -2.332
REMARK SMILES CCCCCCCCCCCCCCCCCC(=O)[O-]
REMARK SMILES IDX 10 1 11 2 12 3 13 4 14 5 15 6 16 7 17 8 18 9 19 10 20 11
REMARK SMILES IDX 9 12 8 13 7 14 6 15 5 16 4 17 3 18 2 19 1 20
REMARK H PARENT
REMARK Flexibility Score: inf
ROOT
ATOM      1  C   UNL     1      49.039  -0.396  22.593  1.00  0.00     0.000 C 
ENDROOT
BRANCH   1   2
ATOM      2  C   UNL     1      49.255   0.594  23.747  1.00  0.00     0.000 C 
BRANCH   2   3
ATOM      3  C   UNL     1      48.022   1.483  23.947  1.00  0.00     0.000 C 
BRANCH   3   4
ATOM      4  C   UNL     1      48.367   2.964  23.731  1.00  0.00     0.000 C 
BRANCH   4   5
ATOM      5  C   UNL     1      49.794   3.154  23.175  1.00  0.00     0.000 C 
BRANCH   5   6
ATOM      6  C   UNL     1      49.878   4.168  22.022  1.00  0.00     0.000 C 
BRANCH   6   7
ATOM      7  C   UNL     1      50.178   3.512  20.668  1.00  0.00     0.006 C 
BRANCH   7   8
ATOM      8  C   UNL     1      51.394   2.585  20.763  1.00  0.00     0.053 C 
BRANCH   8   9
ATOM      9  C   UNL     1      52.179   2.617  19.491  1.00  0.00     0.041 C 
ATOM     10  O   UNL     1      52.832   1.603  19.125  1.00  0.00    -0.550 OA
ATOM     11  O   UNL     1      52.238   3.783  18.738  1.00  0.00    -0.550 OA
ENDBRANCH   8   9
ENDBRANCH   7   8
ENDBRANCH   6   7
ENDBRANCH   5   6
ENDBRANCH   4   5
ENDBRANCH   3   4
ENDBRANCH   2   3
ENDBRANCH   1   2
BRANCH   1  12
ATOM     12  C   UNL     1      47.769  -0.090  21.783  1.00  0.00     0.000 C 
BRANCH  12  13
ATOM     13  C   UNL     1      48.065   0.714  20.504  1.00  0.00    -0.000 C 
BRANCH  13  14
ATOM     14  C   UNL     1      46.807   1.375  19.920  1.00  0.00    -0.000 C 
BRANCH  14  15
ATOM     15  C   UNL     1      46.566   2.787  20.484  1.00  0.00    -0.000 C 
BRANCH  15  16
ATOM     16  C   UNL     1      45.181   3.341  20.116  1.00  0.00    -0.000 C 
BRANCH  16  17
ATOM     17  C   UNL     1      44.041   2.607  20.836  1.00  0.00    -0.000 C 
BRANCH  17  18
ATOM     18  C   UNL     1      44.396   2.348  22.304  1.00  0.00    -0.000 C 
BRANCH  18  19
ATOM     19  C   UNL     1      44.216   0.868  22.662  1.00  0.00    -0.003 C 
ATOM     20  C   UNL     1      43.111   0.229  21.826  1.00  0.00     0.004 C 
ENDBRANCH  18  19
ENDBRANCH  17  18
ENDBRANCH  16  17
ENDBRANCH  15  16
ENDBRANCH  14  15
ENDBRANCH  13  14
ENDBRANCH  12  13
ENDBRANCH   1  12
TORSDOF 16
ENDMDL
MODEL 3
REMARK VINA RESULT:    -4.019      3.764      7.420
REMARK INTER + INTRA:         -10.110
REMARK INTER:                  -8.091
REMARK INTRA:                  -2.019
REMARK UNBOUND:                -2.332
REMARK SMILES CCCCCCCCCCCCCCCCCC(=O)[O-]
REMARK SMILES IDX 10 1 11 2 12 3 13 4 14 5 15 6 16 7 17 8 18 9 19 10 20 11
REMARK SMILES IDX 9 12 8 13 7 14 6 15 5 16 4 17 3 18 2 19 1 20
REMARK H PARENT
REMARK Flexibility Score: inf
ROOT
ATOM      1  C   UNL     1      43.656   2.059  21.714  1.00  0.00     0.000 C 
ENDROOT
BRANCH   1   2
ATOM      2  C   UNL     1      43.601   3.182  20.667  1.00  0.00     0.000 C 
BRANCH   2   3
ATOM      3  C   UNL     1      44.968   3.378  20.001  1.00  0.00     0.000 C 
BRANCH   3   4
ATOM      4  C   UNL     1      46.074   2.657  20.785  1.00  0.00     0.000 C 
BRANCH   4   5
ATOM      5  C   UNL     1      47.092   1.966  19.853  1.00  0.00     0.000 C 
BRANCH   5   6
ATOM      6  C   UNL     1      48.195   1.201  20.603  1.00  0.00     0.000 C 
BRANCH   6   7
ATOM      7  C   UNL     1      49.164   2.128  21.350  1.00  0.00     0.006 C 
BRANCH   7   8
ATOM      8  C   UNL     1      50.360   2.500  20.469  1.00  0.00     0.053 C 
BRANCH   8   9
ATOM      9  C   UNL     1      51.639   2.348  21.228  1.00  0.00     0.041 C 
ATOM     10  O   UNL     1      51.676   2.600  22.462  1.00  0.00    -0.550 OA
ATOM     11  O   UNL     1      52.804   1.984  20.564  1.00  0.00    -0.550 OA
ENDBRANCH   8   9
ENDBRANCH   7   8
ENDBRANCH   6   7
ENDBRANCH   5   6
ENDBRANCH   4   5
ENDBRANCH   3   4
ENDBRANCH   2   3
ENDBRANCH   1   2
BRANCH   1  12
ATOM     12  C   UNL     1      43.189   0.706  21.153  1.00  0.00     0.000 C 
BRANCH  12  13
ATOM     13  C   UNL     1      43.121  -0.388  22.232  1.00  0.00    -0.000 C 
BRANCH  13  14
ATOM     14  C   UNL     1      43.277   0.176  23.653  1.00  0.00    -0.000 C 
BRANCH  14  15
ATOM     15  C   UNL     1      44.507  -0.394  24.383  1.00  0.00    -0.000 C 
BRANCH  15  16
ATOM     16  C   UNL     1      45.664   0.613  24.464  1.00  0.00    -0.000 C 
BRANCH  16  17
ATOM     17  C   UNL     1      46.951   0.089  23.810  1.00  0.00    -0.000 C 
BRANCH  17  18
ATOM     18  C   UNL     1      46.667  -1.153  22.958  1.00  0.00    -0.000 C 
BRANCH  18  19
ATOM     19  C   UNL     1      47.725  -2.237  23.194  1.00  0.00    -0.003 C 
ATOM     20  C   UNL     1      49.006  -1.934  22.423  1.00  0.00     0.004 C 
ENDBRANCH  18  19
ENDBRANCH  17  18
ENDBRANCH  16  17
ENDBRANCH  15  16
ENDBRANCH  14  15
ENDBRANCH  13  14
ENDBRANCH  12  13
ENDBRANCH   1  12
TORSDOF 16
ENDMDL
MODEL 4
REMARK VINA RESULT:    -4.015      4.085      6.361
REMARK INTER + INTRA:         -10.103
REMARK INTER:                  -7.807
REMARK INTRA:                  -2.296
REMARK UNBOUND:                -2.332
REMARK SMILES CCCCCCCCCCCCCCCCCC(=O)[O-]
REMARK SMILES IDX 10 1 11 2 12 3 13 4 14 5 15 6 16 7 17 8 18 9 19 10 20 11
REMARK SMILES IDX 9 12 8 13 7 14 6 15 5 16 4 17 3 18 2 19 1 20
REMARK H PARENT
REMARK Flexibility Score: inf
ROOT
ATOM      1  C   UNL     1      43.455   2.457  22.039  1.00  0.00     0.000 C 
ENDROOT
BRANCH   1   2
ATOM      2  C   UNL     1      43.140   1.169  21.264  1.00  0.00     0.000 C 
BRANCH   2   3
ATOM      3  C   UNL     1      43.429  -0.071  22.119  1.00  0.00     0.000 C 
BRANCH   3   4
ATOM      4  C   UNL     1      44.435   0.249  23.235  1.00  0.00     0.000 C 
BRANCH   4   5
ATOM      5  C   UNL     1      45.865  -0.211  22.879  1.00  0.00     0.000 C 
BRANCH   5   6
ATOM      6  C   UNL     1      46.959   0.467  23.721  1.00  0.00     0.000 C 
BRANCH   6   7
ATOM      7  C   UNL     1      48.158  -0.451  23.996  1.00  0.00     0.006 C 
BRANCH   7   8
ATOM      8  C   UNL     1      48.066  -1.737  23.170  1.00  0.00     0.053 C 
BRANCH   8   9
ATOM      9  C   UNL     1      49.290  -1.908  22.326  1.00  0.00     0.041 C 
ATOM     10  O   UNL     1      50.082  -0.942  22.159  1.00  0.00    -0.550 OA
ATOM     11  O   UNL     1      49.526  -3.114  21.678  1.00  0.00    -0.550 OA
ENDBRANCH   8   9
ENDBRANCH   7   8
ENDBRANCH   6   7
ENDBRANCH   5   6
ENDBRANCH   4   5
ENDBRANCH   3   4
ENDBRANCH   2   3
ENDBRANCH   1   2
BRANCH   1  12
ATOM     12  C   UNL     1      43.839   3.623  21.114  1.00  0.00     0.000 C 
BRANCH  12  13
ATOM     13  C   UNL     1      44.874   3.216  20.051  1.00  0.00    -0.000 C 
BRANCH  13  14
ATOM     14  C   UNL     1      46.275   2.998  20.645  1.00  0.00    -0.000 C 
BRANCH  14  15
ATOM     15  C   UNL     1      47.010   1.808  20.002  1.00  0.00    -0.000 C 
BRANCH  15  16
ATOM     16  C   UNL     1      48.463   1.681  20.487  1.00  0.00    -0.000 C 
BRANCH  16  17
ATOM     17  C   UNL     1      48.886   2.843  21.397  1.00  0.00    -0.000 C 
BRANCH  17  18
ATOM     18  C   UNL     1      50.340   3.248  21.128  1.00  0.00    -0.000 C 
BRANCH  18  19
ATOM     19  C   UNL     1      50.916   2.472  19.938  1.00  0.00    -0.003 C 
ATOM     20  C   UNL     1      51.882   3.337  19.132  1.00  0.00     0.004 C 
ENDBRANCH  18  19
ENDBRANCH  17  18
ENDBRANCH  16  17
ENDBRANCH  15  16
ENDBRANCH  14  15
ENDBRANCH  13  14
ENDBRANCH  12  13
ENDBRANCH   1  12
TORSDOF 16
ENDMDL
MODEL 5
REMARK VINA RESULT:    -3.982      2.582      5.576
REMARK INTER + INTRA:         -10.039
REMARK INTER:                  -8.282
REMARK INTRA:                  -1.757
REMARK UNBOUND:                -2.332
REMARK SMILES CCCCCCCCCCCCCCCCCC(=O)[O-]
REMARK SMILES IDX 10 1 11 2 12 3 13 4 14 5 15 6 16 7 17 8 18 9 19 10 20 11
REMARK SMILES IDX 9 12 8 13 7 14 6 15 5 16 4 17 3 18 2 19 1 20
REMARK H PARENT
REMARK Flexibility Score: inf
ROOT
ATOM      1  C   UNL     1      50.025   7.328  25.078  1.00  0.00     0.000 C 
ENDROOT
BRANCH   1   2
ATOM      2  C   UNL     1      48.629   7.872  24.739  1.00  0.00     0.000 C 
BRANCH   2   3
ATOM      3  C   UNL     1      48.331   7.725  23.242  1.00  0.00     0.000 C 
BRANCH   3   4
ATOM      4  C   UNL     1      49.564   8.077  22.396  1.00  0.00     0.000 C 
BRANCH   4   5
ATOM      5  C   UNL     1      49.326   7.833  20.891  1.00  0.00     0.000 C 
BRANCH   5   6
ATOM      6  C   UNL     1      50.567   7.312  20.147  1.00  0.00     0.000 C 
BRANCH   6   7
ATOM      7  C   UNL     1      51.104   8.305  19.107  1.00  0.00     0.006 C 
BRANCH   7   8
ATOM      8  C   UNL     1      49.984   8.793  18.184  1.00  0.00     0.053 C 
BRANCH   8   9
ATOM      9  C   UNL     1      50.063   8.110  16.856  1.00  0.00     0.041 C 
ATOM     10  O   UNL     1      50.820   7.115  16.701  1.00  0.00    -0.550 OA
ATOM     11  O   UNL     1      49.345   8.606  15.774  1.00  0.00    -0.550 OA
ENDBRANCH   8   9
ENDBRANCH   7   8
ENDBRANCH   6   7
ENDBRANCH   5   6
ENDBRANCH   4   5
ENDBRANCH   3   4
ENDBRANCH   2   3
ENDBRANCH   1   2
BRANCH   1  12
ATOM     12  C   UNL     1      49.975   6.138  26.050  1.00  0.00     0.000 C 
BRANCH  12  13
ATOM     13  C   UNL     1      49.340   4.887  25.419  1.00  0.00    -0.000 C 
BRANCH  13  14
ATOM     14  C   UNL     1      49.986   4.512  24.076  1.00  0.00    -0.000 C 
BRANCH  14  15
ATOM     15  C   UNL     1      49.019   3.756  23.146  1.00  0.00    -0.000 C 
BRANCH  15  16
ATOM     16  C   UNL     1      49.127   4.215  21.684  1.00  0.00    -0.000 C 
BRANCH  16  17
ATOM     17  C   UNL     1      49.346   3.046  20.712  1.00  0.00    -0.000 C 
BRANCH  17  18
ATOM     18  C   UNL     1      50.812   2.601  20.711  1.00  0.00    -0.000 C 
BRANCH  18  19
ATOM     19  C   UNL     1      51.511   3.009  19.409  1.00  0.00    -0.003 C 
ATOM     20  C   UNL     1      53.011   2.738  19.480  1.00  0.00     0.004 C 
ENDBRANCH  18  19
ENDBRANCH  17  18
ENDBRANCH  16  17
ENDBRANCH  15  16
ENDBRANCH  14  15
ENDBRANCH  13  14
ENDBRANCH  12  13
ENDBRANCH   1  12
TORSDOF 16
ENDMDL
MODEL 6
REMARK VINA RESULT:    -3.971      3.659      6.808
REMARK INTER + INTRA:         -10.017
REMARK INTER:                  -7.514
REMARK INTRA:                  -2.503
REMARK UNBOUND:                -2.332
REMARK SMILES CCCCCCCCCCCCCCCCCC(=O)[O-]
REMARK SMILES IDX 10 1 11 2 12 3 13 4 14 5 15 6 16 7 17 8 18 9 19 10 20 11
REMARK SMILES IDX 9 12 8 13 7 14 6 15 5 16 4 17 3 18 2 19 1 20
REMARK H PARENT
REMARK Flexibility Score: inf
ROOT
ATOM      1  C   UNL     1      45.601  -0.238  23.644  1.00  0.00     0.000 C 
ENDROOT
BRANCH   1   2
ATOM      2  C   UNL     1      46.260   1.079  24.082  1.00  0.00     0.000 C 
BRANCH   2   3
ATOM      3  C   UNL     1      47.716   1.149  23.607  1.00  0.00     0.000 C 
BRANCH   3   4
ATOM      4  C   UNL     1      48.208   2.602  23.544  1.00  0.00     0.000 C 
BRANCH   4   5
ATOM      5  C   UNL     1      49.703   2.695  23.173  1.00  0.00     0.000 C 
BRANCH   5   6
ATOM      6  C   UNL     1      49.957   3.303  21.783  1.00  0.00     0.000 C 
BRANCH   6   7
ATOM      7  C   UNL     1      50.433   2.268  20.754  1.00  0.00     0.006 C 
BRANCH   7   8
ATOM      8  C   UNL     1      51.909   1.921  20.966  1.00  0.00     0.053 C 
BRANCH   8   9
ATOM      9  C   UNL     1      52.653   1.979  19.669  1.00  0.00     0.041 C 
ATOM     10  O   UNL     1      53.344   0.995  19.292  1.00  0.00    -0.550 OA
ATOM     11  O   UNL     1      52.631   3.139  18.905  1.00  0.00    -0.550 OA
ENDBRANCH   8   9
ENDBRANCH   7   8
ENDBRANCH   6   7
ENDBRANCH   5   6
ENDBRANCH   4   5
ENDBRANCH   3   4
ENDBRANCH   2   3
ENDBRANCH   1   2
BRANCH   1  12
ATOM     12  C   UNL     1      44.150  -0.363  24.134  1.00  0.00     0.000 C 
BRANCH  12  13
ATOM     13  C   UNL     1      43.190   0.575  23.380  1.00  0.00    -0.000 C 
BRANCH  13  14
ATOM     14  C   UNL     1      43.267   0.394  21.855  1.00  0.00    -0.000 C 
BRANCH  14  15
ATOM     15  C   UNL     1      43.257   1.736  21.101  1.00  0.00    -0.000 C 
BRANCH  15  16
ATOM     16  C   UNL     1      43.747   2.905  21.969  1.00  0.00    -0.000 C 
BRANCH  16  17
ATOM     17  C   UNL     1      45.029   3.551  21.423  1.00  0.00    -0.000 C 
BRANCH  17  18
ATOM     18  C   UNL     1      45.429   2.926  20.082  1.00  0.00    -0.000 C 
BRANCH  18  19
ATOM     19  C   UNL     1      46.894   2.477  20.099  1.00  0.00    -0.003 C 
ATOM     20  C   UNL     1      47.008   0.961  19.963  1.00  0.00     0.004 C 
ENDBRANCH  18  19
ENDBRANCH  17  18
ENDBRANCH  16  17
ENDBRANCH  15  16
ENDBRANCH  14  15
ENDBRANCH  13  14
ENDBRANCH  12  13
ENDBRANCH   1  12
TORSDOF 16
ENDMDL
MODEL 7
REMARK VINA RESULT:    -3.969      3.593      7.283
REMARK INTER + INTRA:         -10.014
REMARK INTER:                  -7.676
REMARK INTRA:                  -2.338
REMARK UNBOUND:                -2.332
REMARK SMILES CCCCCCCCCCCCCCCCCC(=O)[O-]
REMARK SMILES IDX 10 1 11 2 12 3 13 4 14 5 15 6 16 7 17 8 18 9 19 10 20 11
REMARK SMILES IDX 9 12 8 13 7 14 6 15 5 16 4 17 3 18 2 19 1 20
REMARK H PARENT
REMARK Flexibility Score: inf
ROOT
ATOM      1  C   UNL     1      45.079   3.387  19.872  1.00  0.00     0.000 C 
ENDROOT
BRANCH   1   2
ATOM      2  C   UNL     1      46.296   2.821  20.618  1.00  0.00     0.000 C 
BRANCH   2   3
ATOM      3  C   UNL     1      46.622   1.401  20.140  1.00  0.00     0.000 C 
BRANCH   3   4
ATOM      4  C   UNL     1      48.085   1.040  20.436  1.00  0.00     0.000 C 
BRANCH   4   5
ATOM      5  C   UNL     1      48.948   2.289  20.710  1.00  0.00     0.000 C 
BRANCH   5   6
ATOM      6  C   UNL     1      49.797   2.184  21.988  1.00  0.00     0.000 C 
BRANCH   6   7
ATOM      7  C   UNL     1      51.241   2.664  21.790  1.00  0.00     0.006 C 
BRANCH   7   8
ATOM      8  C   UNL     1      51.945   1.853  20.698  1.00  0.00     0.053 C 
BRANCH   8   9
ATOM      9  C   UNL     1      52.645   2.761  19.737  1.00  0.00     0.041 C 
ATOM     10  O   UNL     1      52.013   3.268  18.773  1.00  0.00    -0.550 OA
ATOM     11  O   UNL     1      54.007   3.002  19.873  1.00  0.00    -0.550 OA
ENDBRANCH   8   9
ENDBRANCH   7   8
ENDBRANCH   6   7
ENDBRANCH   5   6
ENDBRANCH   4   5
ENDBRANCH   3   4
ENDBRANCH   2   3
ENDBRANCH   1   2
BRANCH   1  12
ATOM     12  C   UNL     1      43.753   3.082  20.587  1.00  0.00     0.000 C 
BRANCH  12  13
ATOM     13  C   UNL     1      43.821   3.362  22.099  1.00  0.00    -0.000 C 
BRANCH  13  14
ATOM     14  C   UNL     1      43.232   2.217  22.937  1.00  0.00    -0.000 C 
BRANCH  14  15
ATOM     15  C   UNL     1      43.350   0.851  22.236  1.00  0.00    -0.000 C 
BRANCH  15  16
ATOM     16  C   UNL     1      43.353  -0.323  23.227  1.00  0.00    -0.000 C 
BRANCH  16  17
ATOM     17  C   UNL     1      44.594  -0.331  24.131  1.00  0.00    -0.000 C 
BRANCH  17  18
ATOM     18  C   UNL     1      45.878  -0.421  23.298  1.00  0.00    -0.000 C 
BRANCH  18  19
ATOM     19  C   UNL     1      46.940   0.557  23.814  1.00  0.00    -0.003 C 
ATOM     20  C   UNL     1      46.326   1.590  24.755  1.00  0.00     0.004 C 
ENDBRANCH  18  19
ENDBRANCH  17  18
ENDBRANCH  16  17
ENDBRANCH  15  16
ENDBRANCH  14  15
ENDBRANCH  13  14
ENDBRANCH  12  13
ENDBRANCH   1  12
TORSDOF 16
ENDMDL
MODEL 8
REMARK VINA RESULT:    -3.964      2.179      6.243
REMARK INTER + INTRA:         -10.004
REMARK INTER:                  -7.572
REMARK INTRA:                  -2.431
REMARK UNBOUND:                -2.332
REMARK SMILES CCCCCCCCCCCCCCCCCC(=O)[O-]
REMARK SMILES IDX 10 1 11 2 12 3 13 4 14 5 15 6 16 7 17 8 18 9 19 10 20 11
REMARK SMILES IDX 9 12 8 13 7 14 6 15 5 16 4 17 3 18 2 19 1 20
REMARK H PARENT
REMARK Flexibility Score: inf
ROOT
ATOM      1  C   UNL     1      48.491   1.488  23.055  1.00  0.00     0.000 C 
ENDROOT
BRANCH   1   2
ATOM      2  C   UNL     1      49.620   0.449  22.985  1.00  0.00     0.000 C 
BRANCH   2   3
ATOM      3  C   UNL     1      50.990   1.132  22.897  1.00  0.00     0.000 C 
BRANCH   3   4
ATOM      4  C   UNL     1      51.738   0.709  21.624  1.00  0.00     0.000 C 
BRANCH   4   5
ATOM      5  C   UNL     1      51.970   1.895  20.664  1.00  0.00     0.000 C 
BRANCH   5   6
ATOM      6  C   UNL     1      50.673   2.591  20.219  1.00  0.00     0.000 C 
BRANCH   6   7
ATOM      7  C   UNL     1      50.665   4.095  20.527  1.00  0.00     0.006 C 
BRANCH   7   8
ATOM      8  C   UNL     1      49.467   4.470  21.404  1.00  0.00     0.053 C 
BRANCH   8   9
ATOM      9  C   UNL     1      49.250   5.950  21.392  1.00  0.00     0.041 C 
ATOM     10  O   UNL     1      48.320   6.459  22.073  1.00  0.00    -0.550 OA
ATOM     11  O   UNL     1      50.039   6.762  20.586  1.00  0.00    -0.550 OA
ENDBRANCH   8   9
ENDBRANCH   7   8
ENDBRANCH   6   7
ENDBRANCH   5   6
ENDBRANCH   4   5
ENDBRANCH   3   4
ENDBRANCH   2   3
ENDBRANCH   1   2
BRANCH   1  12
ATOM     12  C   UNL     1      47.232   1.045  22.292  1.00  0.00     0.000 C 
BRANCH  12  13
ATOM     13  C   UNL     1      47.501   0.812  20.795  1.00  0.00    -0.000 C 
BRANCH  13  14
ATOM     14  C   UNL     1      46.868   1.896  19.908  1.00  0.00    -0.000 C 
BRANCH  14  15
ATOM     15  C   UNL     1      46.104   2.955  20.723  1.00  0.00    -0.000 C 
BRANCH  15  16
ATOM     16  C   UNL     1      44.749   3.317  20.097  1.00  0.00    -0.000 C 
BRANCH  16  17
ATOM     17  C   UNL     1      43.590   2.492  20.676  1.00  0.00    -0.000 C 
BRANCH  17  18
ATOM     18  C   UNL     1      43.689   2.404  22.202  1.00  0.00    -0.000 C 
BRANCH  18  19
ATOM     19  C   UNL     1      43.288   1.011  22.701  1.00  0.00    -0.003 C 
ATOM     20  C   UNL     1      42.883   0.105  21.541  1.00  0.00     0.004 C 
ENDBRANCH  18  19
ENDBRANCH  17  18
ENDBRANCH  16  17
ENDBRANCH  15  16
ENDBRANCH  14  15
ENDBRANCH  13  14
ENDBRANCH  12  13
ENDBRANCH   1  12
TORSDOF 16
ENDMDL
MODEL 9
REMARK VINA RESULT:    -3.925      3.928      5.517
REMARK INTER + INTRA:          -9.928
REMARK INTER:                  -7.561
REMARK INTRA:                  -2.367
REMARK UNBOUND:                -2.332
REMARK SMILES CCCCCCCCCCCCCCCCCC(=O)[O-]
REMARK SMILES IDX 10 1 11 2 12 3 13 4 14 5 15 6 16 7 17 8 18 9 19 10 20 11
REMARK SMILES IDX 9 12 8 13 7 14 6 15 5 16 4 17 3 18 2 19 1 20
REMARK H PARENT
REMARK Flexibility Score: inf
ROOT
ATOM      1  C   UNL     1      46.999   2.188  19.873  1.00  0.00     0.000 C 
ENDROOT
BRANCH   1   2
ATOM      2  C   UNL     1      46.048   2.901  20.847  1.00  0.00     0.000 C 
BRANCH   2   3
ATOM      3  C   UNL     1      44.765   3.346  20.134  1.00  0.00     0.000 C 
BRANCH   3   4
ATOM      4  C   UNL     1      43.522   2.742  20.805  1.00  0.00     0.000 C 
BRANCH   4   5
ATOM      5  C   UNL     1      43.625   1.209  20.948  1.00  0.00     0.000 C 
BRANCH   5   6
ATOM      6  C   UNL     1      43.283   0.697  22.358  1.00  0.00     0.000 C 
BRANCH   6   7
ATOM      7  C   UNL     1      43.350   1.796  23.427  1.00  0.00     0.006 C 
BRANCH   7   8
ATOM      8  C   UNL     1      44.594   1.634  24.305  1.00  0.00     0.053 C 
BRANCH   8   9
ATOM      9  C   UNL     1      44.206   1.266  25.702  1.00  0.00     0.041 C 
ATOM     10  O   UNL     1      43.186   0.557  25.909  1.00  0.00    -0.550 OA
ATOM     11  O   UNL     1      44.938   1.754  26.779  1.00  0.00    -0.550 OA
ENDBRANCH   8   9
ENDBRANCH   7   8
ENDBRANCH   6   7
ENDBRANCH   5   6
ENDBRANCH   4   5
ENDBRANCH   3   4
ENDBRANCH   2   3
ENDBRANCH   1   2
BRANCH   1  12
ATOM     12  C   UNL     1      47.392   0.782  20.355  1.00  0.00     0.000 C 
BRANCH  12  13
ATOM     13  C   UNL     1      47.368   0.657  21.889  1.00  0.00    -0.000 C 
BRANCH  13  14
ATOM     14  C   UNL     1      48.714   0.188  22.463  1.00  0.00    -0.000 C 
BRANCH  14  15
ATOM     15  C   UNL     1      49.917   0.836  21.752  1.00  0.00    -0.000 C 
BRANCH  15  16
ATOM     16  C   UNL     1      50.263   2.220  22.322  1.00  0.00    -0.000 C 
BRANCH  16  17
ATOM     17  C   UNL     1      50.390   3.293  21.230  1.00  0.00    -0.000 C 
BRANCH  17  18
ATOM     18  C   UNL     1      50.717   2.660  19.874  1.00  0.00    -0.000 C 
BRANCH  18  19
ATOM     19  C   UNL     1      52.044   3.192  19.323  1.00  0.00    -0.003 C 
ATOM     20  C   UNL     1      53.226   2.685  20.145  1.00  0.00     0.004 C 
ENDBRANCH  18  19
ENDBRANCH  17  18
ENDBRANCH  16  17
ENDBRANCH  15  16
ENDBRANCH  14  15
ENDBRANCH  13  14
ENDBRANCH  12  13
ENDBRANCH   1  12
TORSDOF 16
ENDMDL
