MODEL 1
REMARK VINA RESULT:    -4.861      0.000      0.000
REMARK INTER + INTRA:          -7.062
REMARK INTER:                  -6.567
REMARK INTRA:                  -0.496
REMARK UNBOUND:                -0.496
REMARK SMILES C=C[C@](C)(CCC=C(C)C)OC(C)=O
REMARK SMILES IDX 3 1 4 2 5 3 6 4 7 5 9 6 8 7 10 8 2 9 1 10 11 11 12 12 14 13
REMARK SMILES IDX 13 14
REMARK H PARENT
REMARK Flexibility Score: inf
ROOT
ATOM      1  C   UNL     1       2.283 -16.410  31.806  1.00  0.00     0.127 C 
ATOM      2  C   UNL     1       2.930 -15.889  33.108  1.00  0.00     0.061 C 
ENDROOT
BRANCH   1   3
ATOM      3  C   UNL     1       1.317 -17.599  32.091  1.00  0.00     0.057 C 
BRANCH   3   4
ATOM      4  C   UNL     1       1.536 -18.822  31.179  1.00  0.00     0.032 C 
BRANCH   4   5
ATOM      5  C   UNL     1       1.766 -20.064  32.002  1.00  0.00    -0.028 C 
ATOM      6  C   UNL     1       2.622 -22.338  32.476  1.00  0.00     0.039 C 
ATOM      7  C   UNL     1       2.473 -21.137  31.579  1.00  0.00    -0.080 C 
ATOM      8  C   UNL     1       3.171 -21.160  30.241  1.00  0.00     0.039 C 
ENDBRANCH   4   5
ENDBRANCH   3   4
ENDBRANCH   1   3
BRANCH   1   9
ATOM      9  C   UNL     1       3.384 -16.847  30.854  1.00  0.00     0.013 C 
ATOM     10  C   UNL     1       4.604 -16.300  30.878  1.00  0.00     0.008 C 
ENDBRANCH   1   9
BRANCH   1  11
ATOM     11  O   UNL     1       1.571 -15.343  31.159  1.00  0.00    -0.455 OA
BRANCH  11  12
ATOM     12  C   UNL     1       1.166 -15.303  29.815  1.00  0.00     0.303 C 
ATOM     13  O   UNL     1       1.976 -15.017  28.893  1.00  0.00    -0.253 OA
ATOM     14  C   UNL     1      -0.263 -15.560  29.480  1.00  0.00     0.139 C 
ENDBRANCH  11  12
ENDBRANCH   1  11
TORSDOF 6
ENDMDL
MODEL 2
REMARK VINA RESULT:    -4.764     12.491     15.462
REMARK INTER + INTRA:          -6.931
REMARK INTER:                  -6.338
REMARK INTRA:                  -0.593
REMARK UNBOUND:                -0.496
REMARK SMILES C=C[C@](C)(CCC=C(C)C)OC(C)=O
REMARK SMILES IDX 3 1 4 2 5 3 6 4 7 5 9 6 8 7 10 8 2 9 1 10 11 11 12 12 14 13
REMARK SMILES IDX 13 14
REMARK H PARENT
REMARK Flexibility Score: inf
ROOT
ATOM      1  C   UNL     1      13.370  -9.689  31.975  1.00  0.00     0.127 C 
ATOM      2  C   UNL     1      12.753 -10.250  33.275  1.00  0.00     0.061 C 
ENDROOT
BRANCH   1   3
ATOM      3  C   UNL     1      14.396  -8.556  32.277  1.00  0.00     0.057 C 
BRANCH   3   4
ATOM      4  C   UNL     1      14.210  -7.292  31.416  1.00  0.00     0.032 C 
BRANCH   4   5
ATOM      5  C   UNL     1      13.905  -6.097  32.284  1.00  0.00    -0.028 C 
ATOM      6  C   UNL     1      12.833  -3.946  32.879  1.00  0.00     0.039 C 
ATOM      7  C   UNL     1      13.047  -5.109  31.944  1.00  0.00    -0.080 C 
ATOM      8  C   UNL     1      12.245  -5.147  30.666  1.00  0.00     0.039 C 
ENDBRANCH   4   5
ENDBRANCH   3   4
ENDBRANCH   1   3
BRANCH   1   9
ATOM      9  C   UNL     1      12.251  -9.161  31.092  1.00  0.00     0.013 C 
ATOM     10  C   UNL     1      11.007  -9.648  31.152  1.00  0.00     0.008 C 
ENDBRANCH   1   9
BRANCH   1  11
ATOM     11  O   UNL     1      14.011 -10.749  31.247  1.00  0.00    -0.455 OA
BRANCH  11  12
ATOM     12  C   UNL     1      14.233 -10.796  29.861  1.00  0.00     0.303 C 
ATOM     13  O   UNL     1      13.344 -11.202  29.066  1.00  0.00    -0.253 OA
ATOM     14  C   UNL     1      15.566 -10.399  29.327  1.00  0.00     0.139 C 
ENDBRANCH  11  12
ENDBRANCH   1  11
TORSDOF 6
ENDMDL
MODEL 3
REMARK VINA RESULT:    -4.437      1.512      2.570
REMARK INTER + INTRA:          -6.489
REMARK INTER:                  -5.989
REMARK INTRA:                  -0.500
REMARK UNBOUND:                -0.496
REMARK SMILES C=C[C@](C)(CCC=C(C)C)OC(C)=O
REMARK SMILES IDX 3 1 4 2 5 3 6 4 7 5 9 6 8 7 10 8 2 9 1 10 11 11 12 12 14 13
REMARK SMILES IDX 13 14
REMARK H PARENT
REMARK Flexibility Score: inf
ROOT
ATOM      1  C   UNL     1       1.305 -16.457  31.368  1.00  0.00     0.127 C 
ATOM      2  C   UNL     1       0.187 -15.732  30.587  1.00  0.00     0.061 C 
ENDROOT
BRANCH   1   3
ATOM      3  C   UNL     1       1.503 -17.913  30.850  1.00  0.00     0.057 C 
BRANCH   3   4
ATOM      4  C   UNL     1       1.483 -18.984  31.958  1.00  0.00     0.032 C 
BRANCH   4   5
ATOM      5  C   UNL     1       2.105 -20.268  31.469  1.00  0.00    -0.028 C 
ATOM      6  C   UNL     1       2.743 -22.657  31.576  1.00  0.00     0.039 C 
ATOM      7  C   UNL     1       2.067 -21.438  32.147  1.00  0.00    -0.080 C 
ATOM      8  C   UNL     1       1.323 -21.586  33.451  1.00  0.00     0.039 C 
ENDBRANCH   4   5
ENDBRANCH   3   4
ENDBRANCH   1   3
BRANCH   1   9
ATOM      9  C   UNL     1       0.941 -16.470  32.843  1.00  0.00     0.013 C 
ATOM     10  C   UNL     1       1.697 -15.869  33.768  1.00  0.00     0.008 C 
ENDBRANCH   1   9
BRANCH   1  11
ATOM     11  O   UNL     1       2.534 -15.723  31.247  1.00  0.00    -0.455 OA
BRANCH  11  12
ATOM     12  C   UNL     1       3.524 -15.905  30.269  1.00  0.00     0.303 C 
ATOM     13  O   UNL     1       4.592 -16.523  30.522  1.00  0.00    -0.253 OA
ATOM     14  C   UNL     1       3.323 -15.315  28.915  1.00  0.00     0.139 C 
ENDBRANCH  11  12
ENDBRANCH   1  11
TORSDOF 6
ENDMDL
MODEL 4
REMARK VINA RESULT:    -4.386     12.369     14.013
REMARK INTER + INTRA:          -6.421
REMARK INTER:                  -5.789
REMARK INTRA:                  -0.632
REMARK UNBOUND:                -0.496
REMARK SMILES C=C[C@](C)(CCC=C(C)C)OC(C)=O
REMARK SMILES IDX 3 1 4 2 5 3 6 4 7 5 9 6 8 7 10 8 2 9 1 10 11 11 12 12 14 13
REMARK SMILES IDX 13 14
REMARK H PARENT
REMARK Flexibility Score: inf
ROOT
ATOM      1  C   UNL     1       1.844 -15.565  17.339  1.00  0.00     0.127 C 
ATOM      2  C   UNL     1       2.625 -14.816  18.440  1.00  0.00     0.061 C 
ENDROOT
BRANCH   1   3
ATOM      3  C   UNL     1       1.366 -16.962  17.834  1.00  0.00     0.057 C 
BRANCH   3   4
ATOM      4  C   UNL     1       0.079 -16.924  18.681  1.00  0.00     0.032 C 
BRANCH   4   5
ATOM      5  C   UNL     1      -0.785 -18.125  18.390  1.00  0.00    -0.028 C 
ATOM      6  C   UNL     1      -2.200 -20.081  18.939  1.00  0.00     0.039 C 
ATOM      7  C   UNL     1      -1.374 -18.887  19.341  1.00  0.00    -0.080 C 
ATOM      8  C   UNL     1      -1.275 -18.556  20.809  1.00  0.00     0.039 C 
ENDBRANCH   4   5
ENDBRANCH   3   4
ENDBRANCH   1   3
BRANCH   1   9
ATOM      9  C   UNL     1       2.741 -15.719  16.122  1.00  0.00     0.013 C 
ATOM     10  C   UNL     1       3.102 -16.917  15.651  1.00  0.00     0.008 C 
ENDBRANCH   1   9
BRANCH   1  11
ATOM     11  O   UNL     1       0.714 -14.778  16.927  1.00  0.00    -0.455 OA
BRANCH  11  12
ATOM     12  C   UNL     1       0.170 -14.708  15.635  1.00  0.00     0.303 C 
ATOM     13  O   UNL     1       0.426 -13.743  14.865  1.00  0.00    -0.253 OA
ATOM     14  C   UNL     1      -0.763 -15.777  15.182  1.00  0.00     0.139 C 
ENDBRANCH  11  12
ENDBRANCH   1  11
TORSDOF 6
ENDMDL
MODEL 5
REMARK VINA RESULT:    -4.141     12.249     14.235
REMARK INTER + INTRA:          -6.089
REMARK INTER:                  -5.232
REMARK INTRA:                  -0.858
REMARK UNBOUND:                -0.496
REMARK SMILES C=C[C@](C)(CCC=C(C)C)OC(C)=O
REMARK SMILES IDX 3 1 4 2 5 3 6 4 7 5 9 6 8 7 10 8 2 9 1 10 11 11 12 12 14 13
REMARK SMILES IDX 13 14
REMARK H PARENT
REMARK Flexibility Score: inf
ROOT
ATOM      1  C   UNL     1       0.845 -16.207  16.030  1.00  0.00     0.127 C 
ATOM      2  C   UNL     1       0.427 -17.547  15.388  1.00  0.00     0.061 C 
ENDROOT
BRANCH   1   3
ATOM      3  C   UNL     1      -0.292 -15.627  16.923  1.00  0.00     0.057 C 
BRANCH   3   4
ATOM      4  C   UNL     1      -1.381 -16.651  17.300  1.00  0.00     0.032 C 
BRANCH   4   5
ATOM      5  C   UNL     1      -1.261 -17.045  18.751  1.00  0.00    -0.028 C 
ATOM      6  C   UNL     1      -1.232 -18.597  20.679  1.00  0.00     0.039 C 
ATOM      7  C   UNL     1      -1.342 -18.318  19.202  1.00  0.00    -0.080 C 
ATOM      8  C   UNL     1      -1.493 -19.492  18.268  1.00  0.00     0.039 C 
ENDBRANCH   4   5
ENDBRANCH   3   4
ENDBRANCH   1   3
BRANCH   1   9
ATOM      9  C   UNL     1       1.196 -15.224  14.925  1.00  0.00     0.013 C 
ATOM     10  C   UNL     1       0.487 -14.111  14.711  1.00  0.00     0.008 C 
ENDBRANCH   1   9
BRANCH   1  11
ATOM     11  O   UNL     1       2.035 -16.396  16.814  1.00  0.00    -0.455 OA
BRANCH  11  12
ATOM     12  C   UNL     1       2.279 -15.886  18.099  1.00  0.00     0.303 C 
ATOM     13  O   UNL     1       2.643 -14.693  18.274  1.00  0.00    -0.253 OA
ATOM     14  C   UNL     1       2.146 -16.791  19.275  1.00  0.00     0.139 C 
ENDBRANCH  11  12
ENDBRANCH   1  11
TORSDOF 6
ENDMDL
MODEL 6
REMARK VINA RESULT:    -4.106     12.098     13.740
REMARK INTER + INTRA:          -6.042
REMARK INTER:                  -5.239
REMARK INTRA:                  -0.802
REMARK UNBOUND:                -0.496
REMARK SMILES C=C[C@](C)(CCC=C(C)C)OC(C)=O
REMARK SMILES IDX 3 1 4 2 5 3 6 4 7 5 9 6 8 7 10 8 2 9 1 10 11 11 12 12 14 13
REMARK SMILES IDX 13 14
REMARK H PARENT
REMARK Flexibility Score: inf
ROOT
ATOM      1  C   UNL     1       0.296 -17.154  17.520  1.00  0.00     0.127 C 
ATOM      2  C   UNL     1      -0.267 -15.895  16.824  1.00  0.00     0.061 C 
ENDROOT
BRANCH   1   3
ATOM      3  C   UNL     1      -0.007 -18.440  16.694  1.00  0.00     0.057 C 
BRANCH   3   4
ATOM      4  C   UNL     1      -1.429 -18.999  16.897  1.00  0.00     0.032 C 
BRANCH   4   5
ATOM      5  C   UNL     1      -1.378 -20.458  17.274  1.00  0.00    -0.028 C 
ATOM      6  C   UNL     1      -1.766 -22.440  18.705  1.00  0.00     0.039 C 
ATOM      7  C   UNL     1      -1.893 -20.967  18.416  1.00  0.00    -0.080 C 
ATOM      8  C   UNL     1      -2.644 -20.112  19.408  1.00  0.00     0.039 C 
ENDBRANCH   4   5
ENDBRANCH   3   4
ENDBRANCH   1   3
BRANCH   1   9
ATOM      9  C   UNL     1      -0.321 -17.263  18.905  1.00  0.00     0.013 C 
ATOM     10  C   UNL     1       0.416 -17.506  19.994  1.00  0.00     0.008 C 
ENDBRANCH   1   9
BRANCH   1  11
ATOM     11  O   UNL     1       1.714 -17.012  17.704  1.00  0.00    -0.455 OA
BRANCH  11  12
ATOM     12  C   UNL     1       2.487 -15.881  17.397  1.00  0.00     0.303 C 
ATOM     13  O   UNL     1       3.033 -15.744  16.269  1.00  0.00    -0.253 OA
ATOM     14  C   UNL     1       2.702 -14.843  18.444  1.00  0.00     0.139 C 
ENDBRANCH  11  12
ENDBRANCH   1  11
TORSDOF 6
ENDMDL
MODEL 7
REMARK VINA RESULT:    -4.044     19.254     20.815
REMARK INTER + INTRA:          -5.958
REMARK INTER:                  -4.845
REMARK INTRA:                  -1.113
REMARK UNBOUND:                -0.496
REMARK SMILES C=C[C@](C)(CCC=C(C)C)OC(C)=O
REMARK SMILES IDX 3 1 4 2 5 3 6 4 7 5 9 6 8 7 10 8 2 9 1 10 11 11 12 12 14 13
REMARK SMILES IDX 13 14
REMARK H PARENT
REMARK Flexibility Score: inf
ROOT
ATOM      1  C   UNL     1      12.903 -10.440  16.067  1.00  0.00     0.127 C 
ATOM      2  C   UNL     1      12.002 -11.542  15.468  1.00  0.00     0.061 C 
ENDROOT
BRANCH   1   3
ATOM      3  C   UNL     1      13.217 -10.718  17.567  1.00  0.00     0.057 C 
BRANCH   3   4
ATOM      4  C   UNL     1      13.212  -9.460  18.456  1.00  0.00     0.032 C 
BRANCH   4   5
ATOM      5  C   UNL     1      14.561  -9.256  19.098  1.00  0.00    -0.028 C 
ATOM      6  C   UNL     1      16.854  -8.346  19.306  1.00  0.00     0.039 C 
ATOM      7  C   UNL     1      15.531  -8.460  18.593  1.00  0.00    -0.080 C 
ATOM      8  C   UNL     1      15.322  -7.630  17.351  1.00  0.00     0.039 C 
ENDBRANCH   4   5
ENDBRANCH   3   4
ENDBRANCH   1   3
BRANCH   1   9
ATOM      9  C   UNL     1      12.202  -9.100  15.918  1.00  0.00     0.013 C 
ATOM     10  C   UNL     1      12.525  -8.230  14.955  1.00  0.00     0.008 C 
ENDBRANCH   1   9
BRANCH   1  11
ATOM     11  O   UNL     1      14.127 -10.356  15.317  1.00  0.00    -0.455 OA
BRANCH  11  12
ATOM     12  C   UNL     1      15.201 -11.258  15.368  1.00  0.00     0.303 C 
ATOM     13  O   UNL     1      15.101 -12.427  14.908  1.00  0.00    -0.253 OA
ATOM     14  C   UNL     1      16.472 -10.836  16.021  1.00  0.00     0.139 C 
ENDBRANCH  11  12
ENDBRANCH   1  11
TORSDOF 6
ENDMDL
MODEL 8
REMARK VINA RESULT:    -3.991     18.670     21.053
REMARK INTER + INTRA:          -5.887
REMARK INTER:                  -4.923
REMARK INTRA:                  -0.964
REMARK UNBOUND:                -0.496
REMARK SMILES C=C[C@](C)(CCC=C(C)C)OC(C)=O
REMARK SMILES IDX 3 1 4 2 5 3 6 4 7 5 9 6 8 7 10 8 2 9 1 10 11 11 12 12 14 13
REMARK SMILES IDX 13 14
REMARK H PARENT
REMARK Flexibility Score: inf
ROOT
ATOM      1  C   UNL     1      14.506 -10.648  15.529  1.00  0.00     0.127 C 
ATOM      2  C   UNL     1      14.559  -9.167  15.093  1.00  0.00     0.061 C 
ENDROOT
BRANCH   1   3
ATOM      3  C   UNL     1      15.723 -11.016  16.429  1.00  0.00     0.057 C 
BRANCH   3   4
ATOM      4  C   UNL     1      16.672  -9.837  16.721  1.00  0.00     0.032 C 
BRANCH   4   5
ATOM      5  C   UNL     1      16.597  -9.441  18.174  1.00  0.00    -0.028 C 
ATOM      6  C   UNL     1      16.394  -7.883  20.087  1.00  0.00     0.039 C 
ATOM      7  C   UNL     1      16.432  -8.171  18.609  1.00  0.00    -0.080 C 
ATOM      8  C   UNL     1      16.231  -7.017  17.657  1.00  0.00     0.039 C 
ENDBRANCH   4   5
ENDBRANCH   3   4
ENDBRANCH   1   3
BRANCH   1   9
ATOM      9  C   UNL     1      14.489 -11.523  14.287  1.00  0.00     0.013 C 
ATOM     10  C   UNL     1      15.279 -12.594  14.160  1.00  0.00     0.008 C 
ENDBRANCH   1   9
BRANCH   1  11
ATOM     11  O   UNL     1      13.280 -10.900  16.235  1.00  0.00    -0.455 OA
BRANCH  11  12
ATOM     12  C   UNL     1      13.106 -10.916  17.628  1.00  0.00     0.303 C 
ATOM     13  O   UNL     1      13.042 -11.999  18.270  1.00  0.00    -0.253 OA
ATOM     14  C   UNL     1      12.948  -9.625  18.354  1.00  0.00     0.139 C 
ENDBRANCH  11  12
ENDBRANCH   1  11
TORSDOF 6
ENDMDL
MODEL 9
REMARK VINA RESULT:    -3.905     12.556     14.830
REMARK INTER + INTRA:          -5.770
REMARK INTER:                  -4.726
REMARK INTRA:                  -1.044
REMARK UNBOUND:                -0.496
REMARK SMILES C=C[C@](C)(CCC=C(C)C)OC(C)=O
REMARK SMILES IDX 3 1 4 2 5 3 6 4 7 5 9 6 8 7 10 8 2 9 1 10 11 11 12 12 14 13
REMARK SMILES IDX 13 14
REMARK H PARENT
REMARK Flexibility Score: inf
ROOT
ATOM      1  C   UNL     1      -0.458 -17.321  17.932  1.00  0.00     0.127 C 
ATOM      2  C   UNL     1      -1.727 -16.668  17.342  1.00  0.00     0.061 C 
ENDROOT
BRANCH   1   3
ATOM      3  C   UNL     1       0.441 -17.923  16.812  1.00  0.00     0.057 C 
BRANCH   3   4
ATOM      4  C   UNL     1       0.147 -17.373  15.403  1.00  0.00     0.032 C 
BRANCH   4   5
ATOM      5  C   UNL     1       1.338 -16.621  14.865  1.00  0.00    -0.028 C 
ATOM      6  C   UNL     1       2.629 -14.627  14.168  1.00  0.00     0.039 C 
ATOM      7  C   UNL     1       1.396 -15.275  14.741  1.00  0.00    -0.080 C 
ATOM      8  C   UNL     1       0.274 -14.379  15.205  1.00  0.00     0.039 C 
ENDBRANCH   4   5
ENDBRANCH   3   4
ENDBRANCH   1   3
BRANCH   1   9
ATOM      9  C   UNL     1      -0.877 -18.408  18.908  1.00  0.00     0.013 C 
ATOM     10  C   UNL     1      -1.258 -18.131  20.160  1.00  0.00     0.008 C 
ENDBRANCH   1   9
BRANCH   1  11
ATOM     11  O   UNL     1       0.283 -16.347  18.684  1.00  0.00    -0.455 OA
BRANCH  11  12
ATOM     12  C   UNL     1       1.673 -16.319  18.875  1.00  0.00     0.303 C 
ATOM     13  O   UNL     1       2.253 -17.160  19.612  1.00  0.00    -0.253 OA
ATOM     14  C   UNL     1       2.473 -15.242  18.225  1.00  0.00     0.139 C 
ENDBRANCH  11  12
ENDBRANCH   1  11
TORSDOF 6
ENDMDL
