MODEL 1
REMARK VINA RESULT:    -3.002      0.000      0.000
REMARK INTER + INTRA:          -6.199
REMARK INTER:                  -4.758
REMARK INTRA:                  -1.441
REMARK UNBOUND:                -1.441
REMARK SMILES CCCCCCCCCCCC(=O)[O-]
REMARK SMILES IDX 7 1 8 2 9 3 10 4 11 5 12 6 13 7 14 8 6 9 5 10 4 11 3 12 2 13
REMARK SMILES IDX 1 14
REMARK H PARENT
REMARK Flexibility Score: inf
ROOT
ATOM      1  C   UNL     1     -20.698  38.299  93.074  1.00  0.00     0.000 C 
ENDROOT
BRANCH   1   2
ATOM      2  C   UNL     1     -20.565  39.637  92.327  1.00  0.00     0.000 C 
BRANCH   2   3
ATOM      3  C   UNL     1     -20.333  40.829  93.271  1.00  0.00     0.000 C 
BRANCH   3   4
ATOM      4  C   UNL     1     -18.858  41.087  93.641  1.00  0.00     0.006 C 
BRANCH   4   5
ATOM      5  C   UNL     1     -18.618  41.398  95.127  1.00  0.00     0.053 C 
BRANCH   5   6
ATOM      6  C   UNL     1     -17.325  40.823  95.619  1.00  0.00     0.041 C 
ATOM      7  O   UNL     1     -16.231  41.237  95.153  1.00  0.00    -0.550 OA
ATOM      8  O   UNL     1     -17.327  39.855  96.615  1.00  0.00    -0.550 OA
ENDBRANCH   5   6
ENDBRANCH   4   5
ENDBRANCH   3   4
ENDBRANCH   2   3
ENDBRANCH   1   2
BRANCH   1   9
ATOM      9  C   UNL     1     -20.359  37.086  92.190  1.00  0.00     0.000 C 
BRANCH   9  10
ATOM     10  C   UNL     1     -19.594  37.422  90.894  1.00  0.00    -0.000 C 
BRANCH  10  11
ATOM     11  C   UNL     1     -18.066  37.238  90.971  1.00  0.00    -0.000 C 
BRANCH  11  12
ATOM     12  C   UNL     1     -17.260  38.539  91.157  1.00  0.00    -0.000 C 
BRANCH  12  13
ATOM     13  C   UNL     1     -16.386  38.583  92.422  1.00  0.00    -0.003 C 
ATOM     14  C   UNL     1     -16.968  37.769  93.577  1.00  0.00     0.004 C 
ENDBRANCH  12  13
ENDBRANCH  11  12
ENDBRANCH  10  11
ENDBRANCH   9  10
ENDBRANCH   1   9
TORSDOF 10
ENDMDL
MODEL 2
REMARK VINA RESULT:    -2.970     17.689     19.601
REMARK INTER + INTRA:          -6.148
REMARK INTER:                  -4.659
REMARK INTRA:                  -1.489
REMARK UNBOUND:                -1.441
REMARK SMILES CCCCCCCCCCCC(=O)[O-]
REMARK SMILES IDX 7 1 8 2 9 3 10 4 11 5 12 6 13 7 14 8 6 9 5 10 4 11 3 12 2 13
REMARK SMILES IDX 1 14
REMARK H PARENT
REMARK Flexibility Score: inf
ROOT
ATOM      1  C   UNL     1      -8.401  32.334 106.362  1.00  0.00     0.000 C 
ENDROOT
BRANCH   1   2
ATOM      2  C   UNL     1      -7.062  32.510 105.625  1.00  0.00     0.000 C 
BRANCH   2   3
ATOM      3  C   UNL     1      -7.103  31.986 104.179  1.00  0.00     0.000 C 
BRANCH   3   4
ATOM      4  C   UNL     1      -6.102  30.855 103.869  1.00  0.00     0.006 C 
BRANCH   4   5
ATOM      5  C   UNL     1      -4.631  31.212 104.133  1.00  0.00     0.053 C 
BRANCH   5   6
ATOM      6  C   UNL     1      -3.965  31.783 102.919  1.00  0.00     0.041 C 
ATOM      7  O   UNL     1      -4.045  33.016 102.675  1.00  0.00    -0.550 OA
ATOM      8  O   UNL     1      -3.229  30.960 102.076  1.00  0.00    -0.550 OA
ENDBRANCH   5   6
ENDBRANCH   4   5
ENDBRANCH   3   4
ENDBRANCH   2   3
ENDBRANCH   1   2
BRANCH   1   9
ATOM      9  C   UNL     1      -8.421  31.094 107.274  1.00  0.00     0.000 C 
BRANCH   9  10
ATOM     10  C   UNL     1      -8.568  29.749 106.534  1.00  0.00    -0.000 C 
BRANCH  10  11
ATOM     11  C   UNL     1      -7.437  28.734 106.792  1.00  0.00    -0.000 C 
BRANCH  11  12
ATOM     12  C   UNL     1      -6.401  29.165 107.848  1.00  0.00    -0.000 C 
BRANCH  12  13
ATOM     13  C   UNL     1      -5.019  29.539 107.284  1.00  0.00    -0.003 C 
ATOM     14  C   UNL     1      -4.517  30.893 107.785  1.00  0.00     0.004 C 
ENDBRANCH  12  13
ENDBRANCH  11  12
ENDBRANCH  10  11
ENDBRANCH   9  10
ENDBRANCH   1   9
TORSDOF 10
ENDMDL
MODEL 3
REMARK VINA RESULT:    -2.965      2.963      4.921
REMARK INTER + INTRA:          -6.140
REMARK INTER:                  -5.132
REMARK INTRA:                  -1.007
REMARK UNBOUND:                -1.441
REMARK SMILES CCCCCCCCCCCC(=O)[O-]
REMARK SMILES IDX 7 1 8 2 9 3 10 4 11 5 12 6 13 7 14 8 6 9 5 10 4 11 3 12 2 13
REMARK SMILES IDX 1 14
REMARK H PARENT
REMARK Flexibility Score: inf
ROOT
ATOM      1  C   UNL     1     -18.882  41.230  93.828  1.00  0.00     0.000 C 
ENDROOT
BRANCH   1   2
ATOM      2  C   UNL     1     -20.350  41.050  93.407  1.00  0.00     0.000 C 
BRANCH   2   3
ATOM      3  C   UNL     1     -20.543  39.920  92.380  1.00  0.00     0.000 C 
BRANCH   3   4
ATOM      4  C   UNL     1     -19.246  39.211  91.942  1.00  0.00     0.006 C 
BRANCH   4   5
ATOM      5  C   UNL     1     -19.262  38.683  90.499  1.00  0.00     0.053 C 
BRANCH   5   6
ATOM      6  C   UNL     1     -19.383  37.191  90.448  1.00  0.00     0.041 C 
ATOM      7  O   UNL     1     -19.689  36.545  91.485  1.00  0.00    -0.550 OA
ATOM      8  O   UNL     1     -19.190  36.518  89.248  1.00  0.00    -0.550 OA
ENDBRANCH   5   6
ENDBRANCH   4   5
ENDBRANCH   3   4
ENDBRANCH   2   3
ENDBRANCH   1   2
BRANCH   1   9
ATOM      9  C   UNL     1     -18.708  41.330  95.354  1.00  0.00     0.000 C 
BRANCH   9  10
ATOM     10  C   UNL     1     -17.336  40.863  95.881  1.00  0.00    -0.000 C 
BRANCH  10  11
ATOM     11  C   UNL     1     -16.152  41.104  94.924  1.00  0.00    -0.000 C 
BRANCH  11  12
ATOM     12  C   UNL     1     -15.337  39.846  94.564  1.00  0.00    -0.000 C 
BRANCH  12  13
ATOM     13  C   UNL     1     -15.848  39.074  93.335  1.00  0.00    -0.003 C 
ATOM     14  C   UNL     1     -16.452  37.717  93.693  1.00  0.00     0.004 C 
ENDBRANCH  12  13
ENDBRANCH  11  12
ENDBRANCH  10  11
ENDBRANCH   9  10
ENDBRANCH   1   9
TORSDOF 10
ENDMDL
MODEL 4
REMARK VINA RESULT:    -2.947     17.476     19.555
REMARK INTER + INTRA:          -6.111
REMARK INTER:                  -4.802
REMARK INTRA:                  -1.309
REMARK UNBOUND:                -1.441
REMARK SMILES CCCCCCCCCCCC(=O)[O-]
REMARK SMILES IDX 7 1 8 2 9 3 10 4 11 5 12 6 13 7 14 8 6 9 5 10 4 11 3 12 2 13
REMARK SMILES IDX 1 14
REMARK H PARENT
REMARK Flexibility Score: inf
ROOT
ATOM      1  C   UNL     1      -5.733  29.499 108.051  1.00  0.00     0.000 C 
ENDROOT
BRANCH   1   2
ATOM      2  C   UNL     1      -6.872  28.628 107.494  1.00  0.00     0.000 C 
BRANCH   2   3
ATOM      3  C   UNL     1      -7.819  29.405 106.563  1.00  0.00     0.000 C 
BRANCH   3   4
ATOM      4  C   UNL     1      -8.346  30.736 107.136  1.00  0.00     0.006 C 
BRANCH   4   5
ATOM      5  C   UNL     1      -9.346  31.471 106.229  1.00  0.00     0.053 C 
BRANCH   5   6
ATOM      6  C   UNL     1     -10.766  31.164 106.593  1.00  0.00     0.041 C 
ATOM      7  O   UNL     1     -11.700  31.458 105.801  1.00  0.00    -0.550 OA
ATOM      8  O   UNL     1     -11.054  30.523 107.791  1.00  0.00    -0.550 OA
ENDBRANCH   5   6
ENDBRANCH   4   5
ENDBRANCH   3   4
ENDBRANCH   2   3
ENDBRANCH   1   2
BRANCH   1   9
ATOM      9  C   UNL     1      -4.618  29.752 107.021  1.00  0.00     0.000 C 
BRANCH   9  10
ATOM     10  C   UNL     1      -4.186  31.226 106.883  1.00  0.00    -0.000 C 
BRANCH  10  11
ATOM     11  C   UNL     1      -4.560  31.895 105.546  1.00  0.00    -0.000 C 
BRANCH  11  12
ATOM     12  C   UNL     1      -5.009  30.925 104.435  1.00  0.00    -0.000 C 
BRANCH  12  13
ATOM     13  C   UNL     1      -6.424  31.181 103.886  1.00  0.00    -0.003 C 
ATOM     14  C   UNL     1      -6.760  32.668 103.775  1.00  0.00     0.004 C 
ENDBRANCH  12  13
ENDBRANCH  11  12
ENDBRANCH  10  11
ENDBRANCH   9  10
ENDBRANCH   1   9
TORSDOF 10
ENDMDL
MODEL 5
REMARK VINA RESULT:    -2.893     16.057     16.946
REMARK INTER + INTRA:          -6.026
REMARK INTER:                  -5.496
REMARK INTRA:                  -0.530
REMARK UNBOUND:                -1.441
REMARK SMILES CCCCCCCCCCCC(=O)[O-]
REMARK SMILES IDX 7 1 8 2 9 3 10 4 11 5 12 6 13 7 14 8 6 9 5 10 4 11 3 12 2 13
REMARK SMILES IDX 1 14
REMARK H PARENT
REMARK Flexibility Score: inf
ROOT
ATOM      1  C   UNL     1      -2.309  41.096  97.125  1.00  0.00     0.000 C 
ENDROOT
BRANCH   1   2
ATOM      2  C   UNL     1      -2.745  42.185  96.130  1.00  0.00     0.000 C 
BRANCH   2   3
ATOM      3  C   UNL     1      -3.862  43.088  96.683  1.00  0.00     0.000 C 
BRANCH   3   4
ATOM      4  C   UNL     1      -3.764  44.570  96.271  1.00  0.00     0.006 C 
BRANCH   4   5
ATOM      5  C   UNL     1      -2.653  44.879  95.254  1.00  0.00     0.053 C 
BRANCH   5   6
ATOM      6  C   UNL     1      -1.708  45.927  95.756  1.00  0.00     0.041 C 
ATOM      7  O   UNL     1      -1.644  46.184  96.987  1.00  0.00    -0.550 OA
ATOM      8  O   UNL     1      -0.875  46.595  94.868  1.00  0.00    -0.550 OA
ENDBRANCH   5   6
ENDBRANCH   4   5
ENDBRANCH   3   4
ENDBRANCH   2   3
ENDBRANCH   1   2
BRANCH   1   9
ATOM      9  C   UNL     1      -2.418  39.676  96.540  1.00  0.00     0.000 C 
BRANCH   9  10
ATOM     10  C   UNL     1      -1.248  39.262  95.624  1.00  0.00    -0.000 C 
BRANCH  10  11
ATOM     11  C   UNL     1      -1.663  38.628  94.282  1.00  0.00    -0.000 C 
BRANCH  11  12
ATOM     12  C   UNL     1      -2.060  39.630  93.181  1.00  0.00    -0.000 C 
BRANCH  12  13
ATOM     13  C   UNL     1      -2.254  39.012  91.785  1.00  0.00    -0.003 C 
ATOM     14  C   UNL     1      -1.201  39.473  90.778  1.00  0.00     0.004 C 
ENDBRANCH  12  13
ENDBRANCH  11  12
ENDBRANCH  10  11
ENDBRANCH   9  10
ENDBRANCH   1   9
TORSDOF 10
ENDMDL
MODEL 6
REMARK VINA RESULT:    -2.892      2.361      4.268
REMARK INTER + INTRA:          -6.024
REMARK INTER:                  -4.857
REMARK INTRA:                  -1.167
REMARK UNBOUND:                -1.441
REMARK SMILES CCCCCCCCCCCC(=O)[O-]
REMARK SMILES IDX 7 1 8 2 9 3 10 4 11 5 12 6 13 7 14 8 6 9 5 10 4 11 3 12 2 13
REMARK SMILES IDX 1 14
REMARK H PARENT
REMARK Flexibility Score: inf
ROOT
ATOM      1  C   UNL     1     -21.121  37.939  93.166  1.00  0.00     0.000 C 
ENDROOT
BRANCH   1   2
ATOM      2  C   UNL     1     -19.909  37.086  92.752  1.00  0.00     0.000 C 
BRANCH   2   3
ATOM      3  C   UNL     1     -19.895  36.757  91.249  1.00  0.00     0.000 C 
BRANCH   3   4
ATOM      4  C   UNL     1     -19.144  37.774  90.368  1.00  0.00     0.006 C 
BRANCH   4   5
ATOM      5  C   UNL     1     -18.116  38.635  91.119  1.00  0.00     0.053 C 
BRANCH   5   6
ATOM      6  C   UNL     1     -16.733  38.069  91.024  1.00  0.00     0.041 C 
ATOM      7  O   UNL     1     -15.868  38.628  90.299  1.00  0.00    -0.550 OA
ATOM      8  O   UNL     1     -16.389  36.943  91.762  1.00  0.00    -0.550 OA
ENDBRANCH   5   6
ENDBRANCH   4   5
ENDBRANCH   3   4
ENDBRANCH   2   3
ENDBRANCH   1   2
BRANCH   1   9
ATOM      9  C   UNL     1     -20.717  39.240  93.882  1.00  0.00     0.000 C 
BRANCH   9  10
ATOM     10  C   UNL     1     -20.597  40.474  92.965  1.00  0.00    -0.000 C 
BRANCH  10  11
ATOM     11  C   UNL     1     -19.555  41.519  93.410  1.00  0.00    -0.000 C 
BRANCH  11  12
ATOM     12  C   UNL     1     -18.778  41.162  94.692  1.00  0.00    -0.000 C 
BRANCH  12  13
ATOM     13  C   UNL     1     -17.249  41.284  94.576  1.00  0.00    -0.003 C 
ATOM     14  C   UNL     1     -16.568  39.956  94.246  1.00  0.00     0.004 C 
ENDBRANCH  12  13
ENDBRANCH  11  12
ENDBRANCH  10  11
ENDBRANCH   9  10
ENDBRANCH   1   9
TORSDOF 10
ENDMDL
MODEL 7
REMARK VINA RESULT:    -2.864      1.936      3.031
REMARK INTER + INTRA:          -5.979
REMARK INTER:                  -4.862
REMARK INTRA:                  -1.117
REMARK UNBOUND:                -1.441
REMARK SMILES CCCCCCCCCCCC(=O)[O-]
REMARK SMILES IDX 7 1 8 2 9 3 10 4 11 5 12 6 13 7 14 8 6 9 5 10 4 11 3 12 2 13
REMARK SMILES IDX 1 14
REMARK H PARENT
REMARK Flexibility Score: inf
ROOT
ATOM      1  C   UNL     1     -19.933  40.277  92.630  1.00  0.00     0.000 C 
ENDROOT
BRANCH   1   2
ATOM      2  C   UNL     1     -18.591  40.150  93.372  1.00  0.00     0.000 C 
BRANCH   2   3
ATOM      3  C   UNL     1     -18.218  41.421  94.155  1.00  0.00     0.000 C 
BRANCH   3   4
ATOM      4  C   UNL     1     -17.330  41.186  95.393  1.00  0.00     0.006 C 
BRANCH   4   5
ATOM      5  C   UNL     1     -17.901  40.183  96.408  1.00  0.00     0.053 C 
BRANCH   5   6
ATOM      6  C   UNL     1     -18.994  40.785  97.237  1.00  0.00     0.041 C 
ATOM      7  O   UNL     1     -18.880  41.959  97.678  1.00  0.00    -0.550 OA
ATOM      8  O   UNL     1     -20.151  40.061  97.495  1.00  0.00    -0.550 OA
ENDBRANCH   5   6
ENDBRANCH   4   5
ENDBRANCH   3   4
ENDBRANCH   2   3
ENDBRANCH   1   2
BRANCH   1   9
ATOM      9  C   UNL     1     -21.124  39.769  93.462  1.00  0.00     0.000 C 
BRANCH   9  10
ATOM     10  C   UNL     1     -20.995  38.315  93.958  1.00  0.00    -0.000 C 
BRANCH  10  11
ATOM     11  C   UNL     1     -21.078  37.240  92.857  1.00  0.00    -0.000 C 
BRANCH  11  12
ATOM     12  C   UNL     1     -19.869  36.287  92.783  1.00  0.00    -0.000 C 
BRANCH  12  13
ATOM     13  C   UNL     1     -18.863  36.605  91.662  1.00  0.00    -0.003 C 
ATOM     14  C   UNL     1     -19.515  37.260  90.445  1.00  0.00     0.004 C 
ENDBRANCH  12  13
ENDBRANCH  11  12
ENDBRANCH  10  11
ENDBRANCH   9  10
ENDBRANCH   1   9
TORSDOF 10
ENDMDL
MODEL 8
REMARK VINA RESULT:    -2.852      3.471      5.170
REMARK INTER + INTRA:          -5.960
REMARK INTER:                  -4.493
REMARK INTRA:                  -1.468
REMARK UNBOUND:                -1.441
REMARK SMILES CCCCCCCCCCCC(=O)[O-]
REMARK SMILES IDX 7 1 8 2 9 3 10 4 11 5 12 6 13 7 14 8 6 9 5 10 4 11 3 12 2 13
REMARK SMILES IDX 1 14
REMARK H PARENT
REMARK Flexibility Score: inf
ROOT
ATOM      1  C   UNL     1     -21.079  38.362  93.662  1.00  0.00     0.000 C 
ENDROOT
BRANCH   1   2
ATOM      2  C   UNL     1     -20.834  37.274  92.603  1.00  0.00     0.000 C 
BRANCH   2   3
ATOM      3  C   UNL     1     -19.483  36.560  92.781  1.00  0.00     0.000 C 
BRANCH   3   4
ATOM      4  C   UNL     1     -18.377  37.006  91.804  1.00  0.00     0.006 C 
BRANCH   4   5
ATOM      5  C   UNL     1     -18.887  37.470  90.430  1.00  0.00     0.053 C 
BRANCH   5   6
ATOM      6  C   UNL     1     -18.947  36.345  89.444  1.00  0.00     0.041 C 
ATOM      7  O   UNL     1     -20.055  35.974  88.974  1.00  0.00    -0.550 OA
ATOM      8  O   UNL     1     -17.778  35.728  89.019  1.00  0.00    -0.550 OA
ENDBRANCH   5   6
ENDBRANCH   4   5
ENDBRANCH   3   4
ENDBRANCH   2   3
ENDBRANCH   1   2
BRANCH   1   9
ATOM      9  C   UNL     1     -21.125  39.779  93.062  1.00  0.00     0.000 C 
BRANCH   9  10
ATOM     10  C   UNL     1     -19.756  40.345  92.634  1.00  0.00    -0.000 C 
BRANCH  10  11
ATOM     11  C   UNL     1     -19.206  41.471  93.530  1.00  0.00    -0.000 C 
BRANCH  11  12
ATOM     12  C   UNL     1     -18.165  41.025  94.575  1.00  0.00    -0.000 C 
BRANCH  12  13
ATOM     13  C   UNL     1     -17.455  39.698  94.254  1.00  0.00    -0.003 C 
ATOM     14  C   UNL     1     -17.666  38.633  95.330  1.00  0.00     0.004 C 
ENDBRANCH  12  13
ENDBRANCH  11  12
ENDBRANCH  10  11
ENDBRANCH   9  10
ENDBRANCH   1   9
TORSDOF 10
ENDMDL
MODEL 9
REMARK VINA RESULT:    -2.781      2.849      5.007
REMARK INTER + INTRA:          -5.848
REMARK INTER:                  -4.424
REMARK INTRA:                  -1.424
REMARK UNBOUND:                -1.441
REMARK SMILES CCCCCCCCCCCC(=O)[O-]
REMARK SMILES IDX 7 1 8 2 9 3 10 4 11 5 12 6 13 7 14 8 6 9 5 10 4 11 3 12 2 13
REMARK SMILES IDX 1 14
REMARK H PARENT
REMARK Flexibility Score: inf
ROOT
ATOM      1  C   UNL     1     -17.328  41.104  95.555  1.00  0.00     0.000 C 
ENDROOT
BRANCH   1   2
ATOM      2  C   UNL     1     -17.750  40.879  94.093  1.00  0.00     0.000 C 
BRANCH   2   3
ATOM      3  C   UNL     1     -19.119  41.498  93.764  1.00  0.00     0.000 C 
BRANCH   3   4
ATOM      4  C   UNL     1     -20.112  40.547  93.067  1.00  0.00     0.006 C 
BRANCH   4   5
ATOM      5  C   UNL     1     -19.704  39.065  93.092  1.00  0.00     0.053 C 
BRANCH   5   6
ATOM      6  C   UNL     1     -19.541  38.504  91.714  1.00  0.00     0.041 C 
ATOM      7  O   UNL     1     -20.003  37.366  91.435  1.00  0.00    -0.550 OA
ATOM      8  O   UNL     1     -18.908  39.251  90.728  1.00  0.00    -0.550 OA
ENDBRANCH   5   6
ENDBRANCH   4   5
ENDBRANCH   3   4
ENDBRANCH   2   3
ENDBRANCH   1   2
BRANCH   1   9
ATOM      9  C   UNL     1     -18.507  41.499  96.462  1.00  0.00     0.000 C 
BRANCH   9  10
ATOM     10  C   UNL     1     -18.901  40.440  97.511  1.00  0.00    -0.000 C 
BRANCH  10  11
ATOM     11  C   UNL     1     -18.273  39.048  97.301  1.00  0.00    -0.000 C 
BRANCH  11  12
ATOM     12  C   UNL     1     -19.141  38.053  96.507  1.00  0.00    -0.000 C 
BRANCH  12  13
ATOM     13  C   UNL     1     -18.371  36.872  95.890  1.00  0.00    -0.003 C 
ATOM     14  C   UNL     1     -17.141  37.313  95.097  1.00  0.00     0.004 C 
ENDBRANCH  12  13
ENDBRANCH  11  12
ENDBRANCH  10  11
ENDBRANCH   9  10
ENDBRANCH   1   9
TORSDOF 10
ENDMDL
