MODEL 1
REMARK VINA RESULT:    -3.338      0.000      0.000
REMARK INTER + INTRA:          -5.454
REMARK INTER:                  -4.509
REMARK INTRA:                  -0.944
REMARK UNBOUND:                -0.944
REMARK SMILES C[C@H](O)[C@H](O)[C@H](O)[C@@H](O)C=O
REMARK SMILES IDX 4 1 2 2 1 3 3 4 6 6 8 7 10 8 11 9 9 10 7 12 5 14
REMARK H PARENT 3 5 9 11 7 13 5 15
REMARK Flexibility Score: inf
ROOT
ATOM      1  C   UNL     1      56.975  18.718  50.400  1.00  0.00     0.174 C 
ENDROOT
BRANCH   1   2
ATOM      2  C   UNL     1      56.618  19.350  51.773  1.00  0.00     0.142 C 
ATOM      3  C   UNL     1      55.162  19.834  51.823  1.00  0.00     0.041 C 
BRANCH   2   4
ATOM      4  O   UNL     1      57.479  20.417  52.087  1.00  0.00    -0.391 OA
ATOM      5  H   UNL     1      58.396  20.153  51.808  1.00  0.00     0.211 HD
ENDBRANCH   2   4
ENDBRANCH   1   2
BRANCH   1   6
ATOM      6  C   UNL     1      58.152  17.716  50.518  1.00  0.00     0.181 C 
BRANCH   6   7
ATOM      7  C   UNL     1      59.410  18.224  49.776  1.00  0.00     0.209 C 
BRANCH   7   8
ATOM      8  C   UNL     1      60.434  18.758  50.743  1.00  0.00     0.258 C 
ATOM      9  O   UNL     1      60.242  19.803  51.344  1.00  0.00    -0.300 OA
ENDBRANCH   7   8
BRANCH   7  10
ATOM     10  O   UNL     1      59.055  19.224  48.856  1.00  0.00    -0.383 OA
ATOM     11  H   UNL     1      59.613  19.083  48.047  1.00  0.00     0.211 HD
ENDBRANCH   7  10
ENDBRANCH   6   7
BRANCH   6  12
ATOM     12  O   UNL     1      58.462  17.513  51.876  1.00  0.00    -0.387 OA
ATOM     13  H   UNL     1      57.642  17.175  52.321  1.00  0.00     0.211 HD
ENDBRANCH   6  12
ENDBRANCH   1   6
BRANCH   1  14
ATOM     14  O   UNL     1      55.848  18.040  49.899  1.00  0.00    -0.388 OA
ATOM     15  H   UNL     1      55.434  17.552  50.659  1.00  0.00     0.211 HD
ENDBRANCH   1  14
TORSDOF 8
ENDMDL
MODEL 2
REMARK VINA RESULT:    -3.134      2.316      5.077
REMARK INTER + INTRA:          -5.177
REMARK INTER:                  -4.682
REMARK INTRA:                  -0.496
REMARK UNBOUND:                -0.944
REMARK SMILES C[C@H](O)[C@H](O)[C@H](O)[C@@H](O)C=O
REMARK SMILES IDX 4 1 2 2 1 3 3 4 6 6 8 7 10 8 11 9 9 10 7 12 5 14
REMARK H PARENT 3 5 9 11 7 13 5 15
REMARK Flexibility Score: inf
ROOT
ATOM      1  C   UNL     1      56.305  19.509  51.671  1.00  0.00     0.174 C 
ENDROOT
BRANCH   1   2
ATOM      2  C   UNL     1      56.844  18.377  50.753  1.00  0.00     0.142 C 
ATOM      3  C   UNL     1      58.100  18.809  49.984  1.00  0.00     0.041 C 
BRANCH   2   4
ATOM      4  O   UNL     1      55.862  17.942  49.845  1.00  0.00    -0.391 OA
ATOM      5  H   UNL     1      55.997  16.968  49.702  1.00  0.00     0.211 HD
ENDBRANCH   2   4
ENDBRANCH   1   2
BRANCH   1   6
ATOM      6  C   UNL     1      54.828  19.852  51.351  1.00  0.00     0.181 C 
BRANCH   6   7
ATOM      7  C   UNL     1      54.248  20.868  52.363  1.00  0.00     0.209 C 
BRANCH   7   8
ATOM      8  C   UNL     1      53.160  20.245  53.198  1.00  0.00     0.258 C 
ATOM      9  O   UNL     1      53.352  19.194  53.790  1.00  0.00    -0.300 OA
ENDBRANCH   7   8
BRANCH   7  10
ATOM     10  O   UNL     1      53.746  21.991  51.685  1.00  0.00    -0.383 OA
ATOM     11  H   UNL     1      52.878  22.219  52.108  1.00  0.00     0.211 HD
ENDBRANCH   7  10
ENDBRANCH   6   7
BRANCH   6  12
ATOM     12  O   UNL     1      54.740  20.387  50.052  1.00  0.00    -0.387 OA
ATOM     13  H   UNL     1      54.324  19.696  49.475  1.00  0.00     0.211 HD
ENDBRANCH   6  12
ENDBRANCH   1   6
BRANCH   1  14
ATOM     14  O   UNL     1      56.396  19.094  53.013  1.00  0.00    -0.388 OA
ATOM     15  H   UNL     1      55.470  19.031  53.367  1.00  0.00     0.211 HD
ENDBRANCH   1  14
TORSDOF 8
ENDMDL
MODEL 3
REMARK VINA RESULT:    -3.081      1.393      2.761
REMARK INTER + INTRA:          -5.106
REMARK INTER:                  -4.351
REMARK INTRA:                  -0.755
REMARK UNBOUND:                -0.944
REMARK SMILES C[C@H](O)[C@H](O)[C@H](O)[C@@H](O)C=O
REMARK SMILES IDX 4 1 2 2 1 3 3 4 6 6 8 7 10 8 11 9 9 10 7 12 5 14
REMARK H PARENT 3 5 9 11 7 13 5 15
REMARK Flexibility Score: inf
ROOT
ATOM      1  C   UNL     1      56.094  19.332  52.044  1.00  0.00     0.174 C 
ENDROOT
BRANCH   1   2
ATOM      2  C   UNL     1      54.856  20.268  51.963  1.00  0.00     0.142 C 
ATOM      3  C   UNL     1      53.683  19.745  52.804  1.00  0.00     0.041 C 
BRANCH   2   4
ATOM      4  O   UNL     1      54.437  20.451  50.633  1.00  0.00    -0.391 OA
ATOM      5  H   UNL     1      53.445  20.503  50.636  1.00  0.00     0.211 HD
ENDBRANCH   2   4
ENDBRANCH   1   2
BRANCH   1   6
ATOM      6  C   UNL     1      56.697  19.056  50.643  1.00  0.00     0.181 C 
BRANCH   6   7
ATOM      7  C   UNL     1      58.191  18.666  50.733  1.00  0.00     0.209 C 
BRANCH   7   8
ATOM      8  C   UNL     1      58.745  18.315  49.377  1.00  0.00     0.258 C 
ATOM      9  O   UNL     1      58.561  17.208  48.894  1.00  0.00    -0.300 OA
ENDBRANCH   7   8
BRANCH   7  10
ATOM     10  O   UNL     1      58.354  17.582  51.611  1.00  0.00    -0.383 OA
ATOM     11  H   UNL     1      58.755  16.842  51.085  1.00  0.00     0.211 HD
ENDBRANCH   7  10
ENDBRANCH   6   7
BRANCH   6  12
ATOM     12  O   UNL     1      55.981  18.017  50.019  1.00  0.00    -0.387 OA
ATOM     13  H   UNL     1      55.069  18.358  49.829  1.00  0.00     0.211 HD
ENDBRANCH   6  12
ENDBRANCH   1   6
BRANCH   1  14
ATOM     14  O   UNL     1      57.075  19.938  52.850  1.00  0.00    -0.388 OA
ATOM     15  H   UNL     1      57.170  20.879  52.547  1.00  0.00     0.211 HD
ENDBRANCH   1  14
TORSDOF 8
ENDMDL
MODEL 4
REMARK VINA RESULT:    -3.075     19.657     20.820
REMARK INTER + INTRA:          -5.097
REMARK INTER:                  -4.337
REMARK INTRA:                  -0.761
REMARK UNBOUND:                -0.944
REMARK SMILES C[C@H](O)[C@H](O)[C@H](O)[C@@H](O)C=O
REMARK SMILES IDX 4 1 2 2 1 3 3 4 6 6 8 7 10 8 11 9 9 10 7 12 5 14
REMARK H PARENT 3 5 9 11 7 13 5 15
REMARK Flexibility Score: inf
ROOT
ATOM      1  C   UNL     1      71.826  31.940  59.963  1.00  0.00     0.174 C 
ENDROOT
BRANCH   1   2
ATOM      2  C   UNL     1      71.108  32.297  58.633  1.00  0.00     0.142 C 
ATOM      3  C   UNL     1      70.793  33.796  58.534  1.00  0.00     0.041 C 
BRANCH   2   4
ATOM      4  O   UNL     1      69.924  31.555  58.473  1.00  0.00    -0.391 OA
ATOM      5  H   UNL     1      70.075  30.905  57.737  1.00  0.00     0.211 HD
ENDBRANCH   2   4
ENDBRANCH   1   2
BRANCH   1   6
ATOM      6  C   UNL     1      72.936  30.879  59.750  1.00  0.00     0.181 C 
BRANCH   6   7
ATOM      7  C   UNL     1      73.066  29.938  60.970  1.00  0.00     0.209 C 
BRANCH   7   8
ATOM      8  C   UNL     1      72.382  28.620  60.717  1.00  0.00     0.258 C 
ATOM      9  O   UNL     1      71.164  28.544  60.689  1.00  0.00    -0.300 OA
ENDBRANCH   7   8
BRANCH   7  10
ATOM     10  O   UNL     1      72.520  30.549  62.111  1.00  0.00    -0.383 OA
ATOM     11  H   UNL     1      72.244  31.464  61.843  1.00  0.00     0.211 HD
ENDBRANCH   7  10
ENDBRANCH   6   7
BRANCH   6  12
ATOM     12  O   UNL     1      72.644  30.117  58.603  1.00  0.00    -0.387 OA
ATOM     13  H   UNL     1      71.740  30.383  58.292  1.00  0.00     0.211 HD
ENDBRANCH   6  12
ENDBRANCH   1   6
BRANCH   1  14
ATOM     14  O   UNL     1      72.406  33.105  60.499  1.00  0.00    -0.388 OA
ATOM     15  H   UNL     1      71.832  33.871  60.235  1.00  0.00     0.211 HD
ENDBRANCH   1  14
TORSDOF 8
ENDMDL
MODEL 5
REMARK VINA RESULT:    -2.994     16.688     17.729
REMARK INTER + INTRA:          -4.989
REMARK INTER:                  -4.314
REMARK INTRA:                  -0.676
REMARK UNBOUND:                -0.944
REMARK SMILES C[C@H](O)[C@H](O)[C@H](O)[C@@H](O)C=O
REMARK SMILES IDX 4 1 2 2 1 3 3 4 6 6 8 7 10 8 11 9 9 10 7 12 5 14
REMARK H PARENT 3 5 9 11 7 13 5 15
REMARK Flexibility Score: inf
ROOT
ATOM      1  C   UNL     1      64.291  34.217  48.206  1.00  0.00     0.174 C 
ENDROOT
BRANCH   1   2
ATOM      2  C   UNL     1      62.866  34.649  48.648  1.00  0.00     0.142 C 
ATOM      3  C   UNL     1      62.620  34.380  50.139  1.00  0.00     0.041 C 
BRANCH   2   4
ATOM      4  O   UNL     1      61.875  34.006  47.884  1.00  0.00    -0.391 OA
ATOM      5  H   UNL     1      61.232  33.591  48.518  1.00  0.00     0.211 HD
ENDBRANCH   2   4
ENDBRANCH   1   2
BRANCH   1   6
ATOM      6  C   UNL     1      64.912  35.226  47.206  1.00  0.00     0.181 C 
BRANCH   6   7
ATOM      7  C   UNL     1      66.321  34.779  46.748  1.00  0.00     0.209 C 
BRANCH   7   8
ATOM      8  C   UNL     1      66.657  35.345  45.393  1.00  0.00     0.258 C 
ATOM      9  O   UNL     1      66.754  36.551  45.226  1.00  0.00    -0.300 OA
ENDBRANCH   7   8
BRANCH   7  10
ATOM     10  O   UNL     1      66.394  33.377  46.712  1.00  0.00    -0.383 OA
ATOM     11  H   UNL     1      65.726  33.070  46.045  1.00  0.00     0.211 HD
ENDBRANCH   7  10
ENDBRANCH   6   7
BRANCH   6  12
ATOM     12  O   UNL     1      64.075  35.351  46.082  1.00  0.00    -0.387 OA
ATOM     13  H   UNL     1      63.187  35.653  46.406  1.00  0.00     0.211 HD
ENDBRANCH   6  12
ENDBRANCH   1   6
BRANCH   1  14
ATOM     14  O   UNL     1      65.119  34.132  49.341  1.00  0.00    -0.388 OA
ATOM     15  H   UNL     1      64.962  34.949  49.884  1.00  0.00     0.211 HD
ENDBRANCH   1  14
TORSDOF 8
ENDMDL
MODEL 6
REMARK VINA RESULT:    -2.982     20.128     21.167
REMARK INTER + INTRA:          -4.972
REMARK INTER:                  -4.233
REMARK INTRA:                  -0.739
REMARK UNBOUND:                -0.944
REMARK SMILES C[C@H](O)[C@H](O)[C@H](O)[C@@H](O)C=O
REMARK SMILES IDX 4 1 2 2 1 3 3 4 6 6 8 7 10 8 11 9 9 10 7 12 5 14
REMARK H PARENT 3 5 9 11 7 13 5 15
REMARK Flexibility Score: inf
ROOT
ATOM      1  C   UNL     1      71.429  33.064  58.374  1.00  0.00     0.174 C 
ENDROOT
BRANCH   1   2
ATOM      2  C   UNL     1      70.457  34.275  58.349  1.00  0.00     0.142 C 
ATOM      3  C   UNL     1      70.951  35.390  57.416  1.00  0.00     0.041 C 
BRANCH   2   4
ATOM      4  O   UNL     1      70.253  34.796  59.639  1.00  0.00    -0.391 OA
ATOM      5  H   UNL     1      70.857  35.578  59.745  1.00  0.00     0.211 HD
ENDBRANCH   2   4
ENDBRANCH   1   2
BRANCH   1   6
ATOM      6  C   UNL     1      71.452  32.376  59.763  1.00  0.00     0.181 C 
BRANCH   6   7
ATOM      7  C   UNL     1      71.734  30.859  59.643  1.00  0.00     0.209 C 
BRANCH   7   8
ATOM      8  C   UNL     1      71.695  30.189  60.991  1.00  0.00     0.258 C 
ATOM      9  O   UNL     1      72.653  30.249  61.747  1.00  0.00    -0.300 OA
ENDBRANCH   7   8
BRANCH   7  10
ATOM     10  O   UNL     1      72.985  30.648  59.040  1.00  0.00    -0.383 OA
ATOM     11  H   UNL     1      73.499  31.491  59.140  1.00  0.00     0.211 HD
ENDBRANCH   7  10
ENDBRANCH   6   7
BRANCH   6  12
ATOM     12  O   UNL     1      72.443  32.971  60.567  1.00  0.00    -0.387 OA
ATOM     13  H   UNL     1      73.136  33.337  59.959  1.00  0.00     0.211 HD
ENDBRANCH   6  12
ENDBRANCH   1   6
BRANCH   1  14
ATOM     14  O   UNL     1      71.019  32.125  57.408  1.00  0.00    -0.388 OA
ATOM     15  H   UNL     1      70.027  32.155  57.368  1.00  0.00     0.211 HD
ENDBRANCH   1  14
TORSDOF 8
ENDMDL
MODEL 7
REMARK VINA RESULT:    -2.966      2.814      5.120
REMARK INTER + INTRA:          -4.951
REMARK INTER:                  -3.934
REMARK INTRA:                  -1.017
REMARK UNBOUND:                -0.944
REMARK SMILES C[C@H](O)[C@H](O)[C@H](O)[C@@H](O)C=O
REMARK SMILES IDX 4 1 2 2 1 3 3 4 6 6 8 7 10 8 11 9 9 10 7 12 5 14
REMARK H PARENT 3 5 9 11 7 13 5 15
REMARK Flexibility Score: inf
ROOT
ATOM      1  C   UNL     1      54.719  19.876  51.033  1.00  0.00     0.174 C 
ENDROOT
BRANCH   1   2
ATOM      2  C   UNL     1      56.111  19.262  51.343  1.00  0.00     0.142 C 
ATOM      3  C   UNL     1      56.690  18.510  50.137  1.00  0.00     0.041 C 
BRANCH   2   4
ATOM      4  O   UNL     1      56.055  18.399  52.453  1.00  0.00    -0.391 OA
ATOM      5  H   UNL     1      56.785  18.664  53.074  1.00  0.00     0.211 HD
ENDBRANCH   2   4
ENDBRANCH   1   2
BRANCH   1   6
ATOM      6  C   UNL     1      54.321  20.952  52.075  1.00  0.00     0.181 C 
BRANCH   6   7
ATOM      7  C   UNL     1      53.303  20.402  53.102  1.00  0.00     0.209 C 
BRANCH   7   8
ATOM      8  C   UNL     1      53.897  20.351  54.485  1.00  0.00     0.258 C 
ATOM      9  O   UNL     1      54.680  19.466  54.796  1.00  0.00    -0.300 OA
ENDBRANCH   7   8
BRANCH   7  10
ATOM     10  O   UNL     1      52.875  19.121  52.717  1.00  0.00    -0.383 OA
ATOM     11  H   UNL     1      53.574  18.751  52.118  1.00  0.00     0.211 HD
ENDBRANCH   7  10
ENDBRANCH   6   7
BRANCH   6  12
ATOM     12  O   UNL     1      55.471  21.398  52.753  1.00  0.00    -0.387 OA
ATOM     13  H   UNL     1      55.248  22.270  53.173  1.00  0.00     0.211 HD
ENDBRANCH   6  12
ENDBRANCH   1   6
BRANCH   1  14
ATOM     14  O   UNL     1      54.752  20.468  49.757  1.00  0.00    -0.388 OA
ATOM     15  H   UNL     1      55.565  20.133  49.295  1.00  0.00     0.211 HD
ENDBRANCH   1  14
TORSDOF 8
ENDMDL
MODEL 8
REMARK VINA RESULT:    -2.895      1.783      2.890
REMARK INTER + INTRA:          -4.855
REMARK INTER:                  -4.117
REMARK INTRA:                  -0.738
REMARK UNBOUND:                -0.944
REMARK SMILES C[C@H](O)[C@H](O)[C@H](O)[C@@H](O)C=O
REMARK SMILES IDX 4 1 2 2 1 3 3 4 6 6 8 7 10 8 11 9 9 10 7 12 5 14
REMARK H PARENT 3 5 9 11 7 13 5 15
REMARK Flexibility Score: inf
ROOT
ATOM      1  C   UNL     1      55.299  19.051  52.625  1.00  0.00     0.174 C 
ENDROOT
BRANCH   1   2
ATOM      2  C   UNL     1      54.590  20.422  52.447  1.00  0.00     0.142 C 
ATOM      3  C   UNL     1      53.256  20.483  53.203  1.00  0.00     0.041 C 
BRANCH   2   4
ATOM      4  O   UNL     1      54.375  20.716  51.089  1.00  0.00    -0.391 OA
ATOM      5  H   UNL     1      54.412  19.858  50.587  1.00  0.00     0.211 HD
ENDBRANCH   2   4
ENDBRANCH   1   2
BRANCH   1   6
ATOM      6  C   UNL     1      56.785  19.113  52.190  1.00  0.00     0.181 C 
BRANCH   6   7
ATOM      7  C   UNL     1      57.030  18.318  50.885  1.00  0.00     0.209 C 
BRANCH   7   8
ATOM      8  C   UNL     1      58.150  18.924  50.081  1.00  0.00     0.258 C 
ATOM      9  O   UNL     1      59.192  19.265  50.618  1.00  0.00    -0.300 OA
ENDBRANCH   7   8
BRANCH   7  10
ATOM     10  O   UNL     1      55.855  18.280  50.116  1.00  0.00    -0.383 OA
ATOM     11  H   UNL     1      55.913  17.473  49.542  1.00  0.00     0.211 HD
ENDBRANCH   7  10
ENDBRANCH   6   7
BRANCH   6  12
ATOM     12  O   UNL     1      57.163  20.455  51.995  1.00  0.00    -0.387 OA
ATOM     13  H   UNL     1      58.077  20.562  52.366  1.00  0.00     0.211 HD
ENDBRANCH   6  12
ENDBRANCH   1   6
BRANCH   1  14
ATOM     14  O   UNL     1      55.236  18.674  53.979  1.00  0.00    -0.388 OA
ATOM     15  H   UNL     1      55.841  17.895  54.098  1.00  0.00     0.211 HD
ENDBRANCH   1  14
TORSDOF 8
ENDMDL
