MODEL 1
REMARK VINA RESULT:    -2.479      0.000      0.000
REMARK INTER + INTRA:          -3.119
REMARK INTER:                  -2.987
REMARK INTRA:                  -0.132
REMARK UNBOUND:                -0.132
REMARK SMILES CC[C@@H](C)[C@H]([NH3+])C(=O)[O-]
REMARK SMILES IDX 3 1 4 2 5 3 6 4 7 8 8 9 9 10 2 11 1 12
REMARK H PARENT 6 5 6 6 6 7
REMARK Flexibility Score: inf
ROOT
ATOM      1  C   UNL     1       4.977   2.053  -5.204  1.00  0.00     0.050 C 
ATOM      2  C   UNL     1       6.172   1.115  -4.953  1.00  0.00     0.014 C 
ENDROOT
BRANCH   1   3
ATOM      3  C   UNL     1       5.438   3.515  -5.507  1.00  0.00     0.230 C 
BRANCH   3   4
ATOM      4  N   UNL     1       6.748   3.805  -4.905  1.00  0.00    -0.350 N 
ATOM      5  H   UNL     1       7.446   3.069  -5.161  1.00  0.00     0.345 HD
ATOM      6  H   UNL     1       7.093   4.739  -5.222  1.00  0.00     0.345 HD
ATOM      7  H   UNL     1       6.663   3.845  -3.863  1.00  0.00     0.345 HD
ENDBRANCH   3   4
BRANCH   3   8
ATOM      8  C   UNL     1       4.426   4.518  -5.012  1.00  0.00     0.099 C 
ATOM      9  O   UNL     1       4.385   5.678  -5.503  1.00  0.00    -0.544 OA
ATOM     10  O   UNL     1       3.535   4.168  -4.006  1.00  0.00    -0.544 OA
ENDBRANCH   3   8
ENDBRANCH   1   3
BRANCH   1  11
ATOM     11  C   UNL     1       4.036   1.465  -6.291  1.00  0.00     0.006 C 
ATOM     12  C   UNL     1       2.622   1.142  -5.801  1.00  0.00     0.004 C 
ENDBRANCH   1  11
TORSDOF 4
ENDMDL
MODEL 2
REMARK VINA RESULT:    -2.448      6.504      7.570
REMARK INTER + INTRA:          -3.081
REMARK INTER:                  -2.953
REMARK INTRA:                  -0.128
REMARK UNBOUND:                -0.132
REMARK SMILES CC[C@@H](C)[C@H]([NH3+])C(=O)[O-]
REMARK SMILES IDX 3 1 4 2 5 3 6 4 7 8 8 9 9 10 2 11 1 12
REMARK H PARENT 6 5 6 6 6 7
REMARK Flexibility Score: inf
ROOT
ATOM      1  C   UNL     1      -0.566   4.374  -1.550  1.00  0.00     0.050 C 
ATOM      2  C   UNL     1      -0.748   5.871  -1.235  1.00  0.00     0.014 C 
ENDROOT
BRANCH   1   3
ATOM      3  C   UNL     1      -1.704   3.832  -2.472  1.00  0.00     0.230 C 
BRANCH   3   4
ATOM      4  N   UNL     1      -2.898   4.689  -2.419  1.00  0.00    -0.350 N 
ATOM      5  H   UNL     1      -3.474   4.577  -3.286  1.00  0.00     0.345 HD
ATOM      6  H   UNL     1      -3.477   4.451  -1.582  1.00  0.00     0.345 HD
ATOM      7  H   UNL     1      -2.616   5.692  -2.325  1.00  0.00     0.345 HD
ENDBRANCH   3   4
BRANCH   3   8
ATOM      8  C   UNL     1      -2.083   2.421  -2.096  1.00  0.00     0.099 C 
ATOM      9  O   UNL     1      -1.497   1.440  -2.627  1.00  0.00    -0.544 OA
ATOM     10  O   UNL     1      -3.085   2.197  -1.161  1.00  0.00    -0.544 OA
ENDBRANCH   3   8
ENDBRANCH   1   3
BRANCH   1  11
ATOM     11  C   UNL     1       0.860   4.099  -2.103  1.00  0.00     0.006 C 
ATOM     12  C   UNL     1       0.926   3.893  -3.618  1.00  0.00     0.004 C 
ENDBRANCH   1  11
TORSDOF 4
ENDMDL
MODEL 3
REMARK VINA RESULT:    -2.389     12.652     13.571
REMARK INTER + INTRA:          -3.010
REMARK INTER:                  -2.904
REMARK INTRA:                  -0.107
REMARK UNBOUND:                -0.132
REMARK SMILES CC[C@@H](C)[C@H]([NH3+])C(=O)[O-]
REMARK SMILES IDX 3 1 4 2 5 3 6 4 7 8 8 9 9 10 2 11 1 12
REMARK H PARENT 6 5 6 6 6 7
REMARK Flexibility Score: inf
ROOT
ATOM      1  C   UNL     1       3.326   7.246   7.252  1.00  0.00     0.050 C 
ATOM      2  C   UNL     1       2.880   8.667   6.859  1.00  0.00     0.014 C 
ENDROOT
BRANCH   1   3
ATOM      3  C   UNL     1       2.505   6.150   6.501  1.00  0.00     0.230 C 
BRANCH   3   4
ATOM      4  N   UNL     1       1.466   6.743   5.645  1.00  0.00    -0.350 N 
ATOM      5  H   UNL     1       1.896   7.257   4.841  1.00  0.00     0.345 HD
ATOM      6  H   UNL     1       0.828   6.000   5.283  1.00  0.00     0.345 HD
ATOM      7  H   UNL     1       0.881   7.410   6.201  1.00  0.00     0.345 HD
ENDBRANCH   3   4
BRANCH   3   8
ATOM      8  C   UNL     1       1.865   5.190   7.472  1.00  0.00     0.099 C 
ATOM      9  O   UNL     1       1.037   4.330   7.067  1.00  0.00    -0.544 OA
ATOM     10  O   UNL     1       2.183   5.252   8.823  1.00  0.00    -0.544 OA
ENDBRANCH   3   8
ENDBRANCH   1   3
BRANCH   1  11
ATOM     11  C   UNL     1       4.863   7.088   7.086  1.00  0.00     0.006 C 
ATOM     12  C   UNL     1       5.638   6.997   8.403  1.00  0.00     0.004 C 
ENDBRANCH   1  11
TORSDOF 4
ENDMDL
MODEL 4
REMARK VINA RESULT:    -2.362      1.631      2.299
REMARK INTER + INTRA:          -2.977
REMARK INTER:                  -2.923
REMARK INTRA:                  -0.053
REMARK UNBOUND:                -0.132
REMARK SMILES CC[C@@H](C)[C@H]([NH3+])C(=O)[O-]
REMARK SMILES IDX 3 1 4 2 5 3 6 4 7 8 8 9 9 10 2 11 1 12
REMARK H PARENT 6 5 6 6 6 7
REMARK Flexibility Score: inf
ROOT
ATOM      1  C   UNL     1       4.143   2.966  -4.897  1.00  0.00     0.050 C 
ATOM      2  C   UNL     1       3.374   1.911  -5.714  1.00  0.00     0.014 C 
ENDROOT
BRANCH   1   3
ATOM      3  C   UNL     1       5.247   3.671  -5.749  1.00  0.00     0.230 C 
BRANCH   3   4
ATOM      4  N   UNL     1       6.395   4.073  -4.923  1.00  0.00    -0.350 N 
ATOM      5  H   UNL     1       6.330   5.085  -4.664  1.00  0.00     0.345 HD
ATOM      6  H   UNL     1       6.436   3.493  -4.055  1.00  0.00     0.345 HD
ATOM      7  H   UNL     1       7.287   3.912  -5.446  1.00  0.00     0.345 HD
ENDBRANCH   3   4
BRANCH   3   8
ATOM      8  C   UNL     1       4.694   4.881  -6.461  1.00  0.00     0.099 C 
ATOM      9  O   UNL     1       4.949   6.041  -6.039  1.00  0.00    -0.544 OA
ATOM     10  O   UNL     1       3.894   4.721  -7.585  1.00  0.00    -0.544 OA
ENDBRANCH   3   8
ENDBRANCH   1   3
BRANCH   1  11
ATOM     11  C   UNL     1       3.160   3.959  -4.218  1.00  0.00     0.006 C 
ATOM     12  C   UNL     1       1.682   3.690  -4.511  1.00  0.00     0.004 C 
ENDBRANCH   1  11
TORSDOF 4
ENDMDL
MODEL 5
REMARK VINA RESULT:    -2.354      4.377      5.318
REMARK INTER + INTRA:          -2.967
REMARK INTER:                  -2.899
REMARK INTRA:                  -0.068
REMARK UNBOUND:                -0.132
REMARK SMILES CC[C@@H](C)[C@H]([NH3+])C(=O)[O-]
REMARK SMILES IDX 3 1 4 2 5 3 6 4 7 8 8 9 9 10 2 11 1 12
REMARK H PARENT 6 5 6 6 6 7
REMARK Flexibility Score: inf
ROOT
ATOM      1  C   UNL     1       1.284   4.026  -4.330  1.00  0.00     0.050 C 
ATOM      2  C   UNL     1       0.471   4.565  -5.522  1.00  0.00     0.014 C 
ENDROOT
BRANCH   1   3
ATOM      3  C   UNL     1       0.425   3.100  -3.411  1.00  0.00     0.230 C 
BRANCH   3   4
ATOM      4  N   UNL     1      -0.861   2.759  -4.037  1.00  0.00    -0.350 N 
ATOM      5  H   UNL     1      -0.781   1.877  -4.593  1.00  0.00     0.345 HD
ATOM      6  H   UNL     1      -1.600   2.646  -3.306  1.00  0.00     0.345 HD
ATOM      7  H   UNL     1      -1.169   3.534  -4.670  1.00  0.00     0.345 HD
ENDBRANCH   3   4
BRANCH   3   8
ATOM      8  C   UNL     1       0.174   3.745  -2.071  1.00  0.00     0.099 C 
ATOM      9  O   UNL     1       0.030   4.994  -1.981  1.00  0.00    -0.544 OA
ATOM     10  O   UNL     1       0.106   2.964  -0.925  1.00  0.00    -0.544 OA
ENDBRANCH   3   8
ENDBRANCH   1   3
BRANCH   1  11
ATOM     11  C   UNL     1       2.600   3.361  -4.819  1.00  0.00     0.006 C 
ATOM     12  C   UNL     1       3.867   4.172  -4.533  1.00  0.00     0.004 C 
ENDBRANCH   1  11
TORSDOF 4
ENDMDL
MODEL 6
REMARK VINA RESULT:    -2.351     13.053     13.834
REMARK INTER + INTRA:          -2.964
REMARK INTER:                  -2.842
REMARK INTRA:                  -0.123
REMARK UNBOUND:                -0.132
REMARK SMILES CC[C@@H](C)[C@H]([NH3+])C(=O)[O-]
REMARK SMILES IDX 3 1 4 2 5 3 6 4 7 8 8 9 9 10 2 11 1 12
REMARK H PARENT 6 5 6 6 6 7
REMARK Flexibility Score: inf
ROOT
ATOM      1  C   UNL     1       1.509   6.023   6.812  1.00  0.00     0.050 C 
ATOM      2  C   UNL     1       0.749   6.529   5.571  1.00  0.00     0.014 C 
ENDROOT
BRANCH   1   3
ATOM      3  C   UNL     1       1.177   4.530   7.128  1.00  0.00     0.230 C 
BRANCH   3   4
ATOM      4  N   UNL     1      -0.064   4.100   6.467  1.00  0.00    -0.350 N 
ATOM      5  H   UNL     1      -0.465   3.258   6.941  1.00  0.00     0.345 HD
ATOM      6  H   UNL     1      -0.767   4.874   6.477  1.00  0.00     0.345 HD
ATOM      7  H   UNL     1       0.125   3.868   5.464  1.00  0.00     0.345 HD
ENDBRANCH   3   4
BRANCH   3   8
ATOM      8  C   UNL     1       1.058   4.303   8.614  1.00  0.00     0.099 C 
ATOM      9  O   UNL     1       0.946   5.280   9.402  1.00  0.00    -0.544 OA
ATOM     10  O   UNL     1       1.074   3.011   9.124  1.00  0.00    -0.544 OA
ENDBRANCH   3   8
ENDBRANCH   1   3
BRANCH   1  11
ATOM     11  C   UNL     1       3.032   6.301   6.674  1.00  0.00     0.006 C 
ATOM     12  C   UNL     1       3.688   6.879   7.931  1.00  0.00     0.004 C 
ENDBRANCH   1  11
TORSDOF 4
ENDMDL
MODEL 7
REMARK VINA RESULT:    -2.346      2.457      3.053
REMARK INTER + INTRA:          -2.958
REMARK INTER:                  -2.885
REMARK INTRA:                  -0.072
REMARK UNBOUND:                -0.132
REMARK SMILES CC[C@@H](C)[C@H]([NH3+])C(=O)[O-]
REMARK SMILES IDX 3 1 4 2 5 3 6 4 7 8 8 9 9 10 2 11 1 12
REMARK H PARENT 6 5 6 6 6 7
REMARK Flexibility Score: inf
ROOT
ATOM      1  C   UNL     1       1.874   3.566  -5.103  1.00  0.00     0.050 C 
ATOM      2  C   UNL     1       1.442   3.813  -3.646  1.00  0.00     0.014 C 
ENDROOT
BRANCH   1   3
ATOM      3  C   UNL     1       3.356   3.993  -5.351  1.00  0.00     0.230 C 
BRANCH   3   4
ATOM      4  N   UNL     1       4.160   3.894  -4.123  1.00  0.00    -0.350 N 
ATOM      5  H   UNL     1       5.171   4.071  -4.326  1.00  0.00     0.345 HD
ATOM      6  H   UNL     1       3.821   4.581  -3.412  1.00  0.00     0.345 HD
ATOM      7  H   UNL     1       4.059   2.940  -3.704  1.00  0.00     0.345 HD
ENDBRANCH   3   4
BRANCH   3   8
ATOM      8  C   UNL     1       3.434   5.401  -5.887  1.00  0.00     0.099 C 
ATOM      9  O   UNL     1       2.395   5.986  -6.295  1.00  0.00    -0.544 OA
ATOM     10  O   UNL     1       4.656   6.059  -5.938  1.00  0.00    -0.544 OA
ENDBRANCH   3   8
ENDBRANCH   1   3
BRANCH   1  11
ATOM     11  C   UNL     1       1.576   2.100  -5.524  1.00  0.00     0.006 C 
ATOM     12  C   UNL     1       0.477   1.415  -4.707  1.00  0.00     0.004 C 
ENDBRANCH   1  11
TORSDOF 4
ENDMDL
MODEL 8
REMARK VINA RESULT:    -2.340      5.116      6.253
REMARK INTER + INTRA:          -2.951
REMARK INTER:                  -2.809
REMARK INTRA:                  -0.142
REMARK UNBOUND:                -0.132
REMARK SMILES CC[C@@H](C)[C@H]([NH3+])C(=O)[O-]
REMARK SMILES IDX 3 1 4 2 5 3 6 4 7 8 8 9 9 10 2 11 1 12
REMARK H PARENT 6 5 6 6 6 7
REMARK Flexibility Score: inf
ROOT
ATOM      1  C   UNL     1       0.617   3.688  -3.548  1.00  0.00     0.050 C 
ATOM      2  C   UNL     1       2.012   3.918  -4.159  1.00  0.00     0.014 C 
ENDROOT
BRANCH   1   3
ATOM      3  C   UNL     1       0.061   2.268  -3.886  1.00  0.00     0.230 C 
BRANCH   3   4
ATOM      4  N   UNL     1       0.134   1.986  -5.327  1.00  0.00    -0.350 N 
ATOM      5  H   UNL     1       1.087   2.203  -5.700  1.00  0.00     0.345 HD
ATOM      6  H   UNL     1      -0.093   0.983  -5.512  1.00  0.00     0.345 HD
ATOM      7  H   UNL     1      -0.572   2.562  -5.842  1.00  0.00     0.345 HD
ENDBRANCH   3   4
BRANCH   3   8
ATOM      8  C   UNL     1      -1.365   2.117  -3.418  1.00  0.00     0.099 C 
ATOM      9  O   UNL     1      -1.669   1.230  -2.576  1.00  0.00    -0.544 OA
ATOM     10  O   UNL     1      -2.353   2.955  -3.918  1.00  0.00    -0.544 OA
ENDBRANCH   3   8
ENDBRANCH   1   3
BRANCH   1  11
ATOM     11  C   UNL     1       0.625   4.002  -2.027  1.00  0.00     0.006 C 
ATOM     12  C   UNL     1      -0.297   5.151  -1.610  1.00  0.00     0.004 C 
ENDBRANCH   1  11
TORSDOF 4
ENDMDL
MODEL 9
REMARK VINA RESULT:    -2.335      6.500      7.695
REMARK INTER + INTRA:          -2.945
REMARK INTER:                  -2.877
REMARK INTRA:                  -0.068
REMARK UNBOUND:                -0.132
REMARK SMILES CC[C@@H](C)[C@H]([NH3+])C(=O)[O-]
REMARK SMILES IDX 3 1 4 2 5 3 6 4 7 8 8 9 9 10 2 11 1 12
REMARK H PARENT 6 5 6 6 6 7
REMARK Flexibility Score: inf
ROOT
ATOM      1  C   UNL     1      -1.519   5.520  -1.905  1.00  0.00     0.050 C 
ATOM      2  C   UNL     1      -2.400   6.297  -2.901  1.00  0.00     0.014 C 
ENDROOT
BRANCH   1   3
ATOM      3  C   UNL     1      -0.349   4.774  -2.623  1.00  0.00     0.230 C 
BRANCH   3   4
ATOM      4  N   UNL     1      -0.488   4.830  -4.086  1.00  0.00    -0.350 N 
ATOM      5  H   UNL     1      -0.541   3.867  -4.491  1.00  0.00     0.345 HD
ATOM      6  H   UNL     1      -1.346   5.367  -4.348  1.00  0.00     0.345 HD
ATOM      7  H   UNL     1       0.330   5.331  -4.506  1.00  0.00     0.345 HD
ENDBRANCH   3   4
BRANCH   3   8
ATOM      8  C   UNL     1      -0.272   3.334  -2.182  1.00  0.00     0.099 C 
ATOM      9  O   UNL     1       0.061   2.434  -3.000  1.00  0.00    -0.544 OA
ATOM     10  O   UNL     1      -0.572   2.991  -0.870  1.00  0.00    -0.544 OA
ENDBRANCH   3   8
ENDBRANCH   1   3
BRANCH   1  11
ATOM     11  C   UNL     1      -1.044   6.448  -0.753  1.00  0.00     0.006 C 
ATOM     12  C   UNL     1      -2.010   6.536   0.431  1.00  0.00     0.004 C 
ENDBRANCH   1  11
TORSDOF 4
ENDMDL
