MODEL 1
REMARK VINA RESULT:    -4.609      0.000      0.000
REMARK INTER + INTRA:         -15.692
REMARK INTER:                 -11.614
REMARK INTRA:                  -4.078
REMARK UNBOUND:                -4.078
REMARK SMILES CCCCCCCCCCCCCCCCCCCCCCCCCCCC(=O)[O-]
REMARK SMILES IDX 15 1 16 2 17 3 18 4 19 5 20 6 21 7 22 8 23 9 24 10 25 11
REMARK SMILES IDX 26 12 27 13 28 14 29 15 30 16 14 17 13 18 12 19 11 20 10 21
REMARK SMILES IDX 9 22 8 23 7 24 6 25 5 26 4 27 3 28 2 29 1 30
REMARK H PARENT
REMARK Flexibility Score: inf
ROOT
ATOM      1  C   UNL     1     -53.244  15.980 -27.372  1.00  0.00     0.000 C 
ENDROOT
BRANCH   1   2
ATOM      2  C   UNL     1     -53.786  17.381 -27.724  1.00  0.00     0.000 C 
BRANCH   2   3
ATOM      3  C   UNL     1     -53.028  18.115 -28.845  1.00  0.00     0.000 C 
BRANCH   3   4
ATOM      4  C   UNL     1     -53.746  18.037 -30.202  1.00  0.00     0.000 C 
BRANCH   4   5
ATOM      5  C   UNL     1     -53.175  16.939 -31.119  1.00  0.00     0.000 C 
BRANCH   5   6
ATOM      6  C   UNL     1     -51.696  16.578 -30.874  1.00  0.00     0.000 C 
BRANCH   6   7
ATOM      7  C   UNL     1     -51.143  15.450 -31.768  1.00  0.00     0.000 C 
BRANCH   7   8
ATOM      8  C   UNL     1     -49.799  14.856 -31.303  1.00  0.00     0.000 C 
BRANCH   8   9
ATOM      9  C   UNL     1     -49.821  13.342 -31.007  1.00  0.00     0.000 C 
BRANCH   9  10
ATOM     10  C   UNL     1     -48.902  12.885 -29.858  1.00  0.00     0.000 C 
BRANCH  10  11
ATOM     11  C   UNL     1     -49.522  11.763 -29.010  1.00  0.00     0.000 C 
BRANCH  11  12
ATOM     12  C   UNL     1     -48.720  10.449 -29.084  1.00  0.00     0.006 C 
BRANCH  12  13
ATOM     13  C   UNL     1     -48.539   9.897 -30.508  1.00  0.00     0.053 C 
BRANCH  13  14
ATOM     14  C   UNL     1     -47.211   9.226 -30.687  1.00  0.00     0.041 C 
ATOM     15  O   UNL     1     -46.939   8.637 -31.766  1.00  0.00    -0.550 OA
ATOM     16  O   UNL     1     -46.266   9.272 -29.669  1.00  0.00    -0.550 OA
ENDBRANCH  13  14
ENDBRANCH  12  13
ENDBRANCH  11  12
ENDBRANCH  10  11
ENDBRANCH   9  10
ENDBRANCH   8   9
ENDBRANCH   7   8
ENDBRANCH   6   7
ENDBRANCH   5   6
ENDBRANCH   4   5
ENDBRANCH   3   4
ENDBRANCH   2   3
ENDBRANCH   1   2
BRANCH   1  17
ATOM     17  C   UNL     1     -53.920  14.812 -28.115  1.00  0.00     0.000 C 
BRANCH  17  18
ATOM     18  C   UNL     1     -52.954  13.840 -28.823  1.00  0.00     0.000 C 
BRANCH  18  19
ATOM     19  C   UNL     1     -53.469  13.268 -30.157  1.00  0.00     0.000 C 
BRANCH  19  20
ATOM     20  C   UNL     1     -53.765  11.760 -30.085  1.00  0.00     0.000 C 
BRANCH  20  21
ATOM     21  C   UNL     1     -52.652  10.913 -30.727  1.00  0.00     0.000 C 
BRANCH  21  22
ATOM     22  C   UNL     1     -52.308   9.666 -29.895  1.00  0.00    -0.000 C 
BRANCH  22  23
ATOM     23  C   UNL     1     -52.918   8.376 -30.470  1.00  0.00    -0.000 C 
BRANCH  23  24
ATOM     24  C   UNL     1     -53.512   8.507 -31.885  1.00  0.00    -0.000 C 
BRANCH  24  25
ATOM     25  C   UNL     1     -53.700   7.149 -32.582  1.00  0.00    -0.000 C 
BRANCH  25  26
ATOM     26  C   UNL     1     -52.910   7.047 -33.896  1.00  0.00    -0.000 C 
BRANCH  26  27
ATOM     27  C   UNL     1     -51.572   6.304 -33.728  1.00  0.00    -0.000 C 
BRANCH  27  28
ATOM     28  C   UNL     1     -50.415   7.241 -33.335  1.00  0.00    -0.000 C 
BRANCH  28  29
ATOM     29  C   UNL     1     -49.401   6.634 -32.349  1.00  0.00    -0.003 C 
ATOM     30  C   UNL     1     -49.994   6.376 -30.964  1.00  0.00     0.004 C 
ENDBRANCH  28  29
ENDBRANCH  27  28
ENDBRANCH  26  27
ENDBRANCH  25  26
ENDBRANCH  24  25
ENDBRANCH  23  24
ENDBRANCH  22  23
ENDBRANCH  21  22
ENDBRANCH  20  21
ENDBRANCH  19  20
ENDBRANCH  18  19
ENDBRANCH  17  18
ENDBRANCH   1  17
TORSDOF 26
ENDMDL
MODEL 2
REMARK VINA RESULT:    -4.417      1.193      7.031
REMARK INTER + INTRA:         -15.209
REMARK INTER:                 -11.328
REMARK INTRA:                  -3.881
REMARK UNBOUND:                -4.078
REMARK SMILES CCCCCCCCCCCCCCCCCCCCCCCCCCCC(=O)[O-]
REMARK SMILES IDX 15 1 16 2 17 3 18 4 19 5 20 6 21 7 22 8 23 9 24 10 25 11
REMARK SMILES IDX 26 12 27 13 28 14 29 15 30 16 14 17 13 18 12 19 11 20 10 21
REMARK SMILES IDX 9 22 8 23 7 24 6 25 5 26 4 27 3 28 2 29 1 30
REMARK H PARENT
REMARK Flexibility Score: inf
ROOT
ATOM      1  C   UNL     1     -52.031  12.148 -31.642  1.00  0.00     0.000 C 
ENDROOT
BRANCH   1   2
ATOM      2  C   UNL     1     -51.996  10.606 -31.638  1.00  0.00     0.000 C 
BRANCH   2   3
ATOM      3  C   UNL     1     -51.858   9.956 -30.249  1.00  0.00     0.000 C 
BRANCH   3   4
ATOM      4  C   UNL     1     -52.008   8.427 -30.286  1.00  0.00     0.000 C 
BRANCH   4   5
ATOM      5  C   UNL     1     -53.450   7.973 -30.581  1.00  0.00     0.000 C 
BRANCH   5   6
ATOM      6  C   UNL     1     -53.586   6.562 -31.189  1.00  0.00     0.000 C 
BRANCH   6   7
ATOM      7  C   UNL     1     -53.481   6.501 -32.726  1.00  0.00     0.000 C 
BRANCH   7   8
ATOM      8  C   UNL     1     -52.127   5.997 -33.263  1.00  0.00     0.000 C 
BRANCH   8   9
ATOM      9  C   UNL     1     -51.096   7.101 -33.574  1.00  0.00     0.000 C 
BRANCH   9  10
ATOM     10  C   UNL     1     -49.656   6.801 -33.116  1.00  0.00     0.000 C 
BRANCH  10  11
ATOM     11  C   UNL     1     -48.759   8.049 -33.114  1.00  0.00     0.000 C 
BRANCH  11  12
ATOM     12  C   UNL     1     -48.677   8.722 -31.731  1.00  0.00     0.006 C 
BRANCH  12  13
ATOM     13  C   UNL     1     -47.248   8.883 -31.188  1.00  0.00     0.053 C 
BRANCH  13  14
ATOM     14  C   UNL     1     -46.896   7.811 -30.201  1.00  0.00     0.041 C 
ATOM     15  O   UNL     1     -46.093   8.053 -29.262  1.00  0.00    -0.550 OA
ATOM     16  O   UNL     1     -47.474   6.552 -30.307  1.00  0.00    -0.550 OA
ENDBRANCH  13  14
ENDBRANCH  12  13
ENDBRANCH  11  12
ENDBRANCH  10  11
ENDBRANCH   9  10
ENDBRANCH   8   9
ENDBRANCH   7   8
ENDBRANCH   6   7
ENDBRANCH   5   6
ENDBRANCH   4   5
ENDBRANCH   3   4
ENDBRANCH   2   3
ENDBRANCH   1   2
BRANCH   1  17
ATOM     17  C   UNL     1     -53.243  12.776 -30.928  1.00  0.00     0.000 C 
BRANCH  17  18
ATOM     18  C   UNL     1     -53.009  13.157 -29.452  1.00  0.00     0.000 C 
BRANCH  18  19
ATOM     19  C   UNL     1     -53.765  14.410 -28.975  1.00  0.00     0.000 C 
BRANCH  19  20
ATOM     20  C   UNL     1     -52.914  15.308 -28.059  1.00  0.00     0.000 C 
BRANCH  20  21
ATOM     21  C   UNL     1     -53.306  16.792 -28.167  1.00  0.00     0.000 C 
BRANCH  21  22
ATOM     22  C   UNL     1     -52.154  17.667 -28.692  1.00  0.00    -0.000 C 
BRANCH  22  23
ATOM     23  C   UNL     1     -52.373  18.139 -30.141  1.00  0.00    -0.000 C 
BRANCH  23  24
ATOM     24  C   UNL     1     -51.388  17.561 -31.173  1.00  0.00    -0.000 C 
BRANCH  24  25
ATOM     25  C   UNL     1     -51.630  16.069 -31.459  1.00  0.00    -0.000 C 
BRANCH  25  26
ATOM     26  C   UNL     1     -50.347  15.334 -31.878  1.00  0.00    -0.000 C 
BRANCH  26  27
ATOM     27  C   UNL     1     -49.492  14.899 -30.673  1.00  0.00    -0.000 C 
BRANCH  27  28
ATOM     28  C   UNL     1     -49.222  13.383 -30.650  1.00  0.00    -0.000 C 
BRANCH  28  29
ATOM     29  C   UNL     1     -49.435  12.712 -29.282  1.00  0.00    -0.003 C 
ATOM     30  C   UNL     1     -48.434  11.590 -29.004  1.00  0.00     0.004 C 
ENDBRANCH  28  29
ENDBRANCH  27  28
ENDBRANCH  26  27
ENDBRANCH  25  26
ENDBRANCH  24  25
ENDBRANCH  23  24
ENDBRANCH  22  23
ENDBRANCH  21  22
ENDBRANCH  20  21
ENDBRANCH  19  20
ENDBRANCH  18  19
ENDBRANCH  17  18
ENDBRANCH   1  17
TORSDOF 26
ENDMDL
MODEL 3
REMARK VINA RESULT:    -4.373      1.438      3.889
REMARK INTER + INTRA:         -15.096
REMARK INTER:                 -11.439
REMARK INTRA:                  -3.657
REMARK UNBOUND:                -4.078
REMARK SMILES CCCCCCCCCCCCCCCCCCCCCCCCCCCC(=O)[O-]
REMARK SMILES IDX 15 1 16 2 17 3 18 4 19 5 20 6 21 7 22 8 23 9 24 10 25 11
REMARK SMILES IDX 26 12 27 13 28 14 29 15 30 16 14 17 13 18 12 19 11 20 10 21
REMARK SMILES IDX 9 22 8 23 7 24 6 25 5 26 4 27 3 28 2 29 1 30
REMARK H PARENT
REMARK Flexibility Score: inf
ROOT
ATOM      1  C   UNL     1     -53.318  11.829 -30.260  1.00  0.00     0.000 C 
ENDROOT
BRANCH   1   2
ATOM      2  C   UNL     1     -53.109  12.074 -28.751  1.00  0.00     0.000 C 
BRANCH   2   3
ATOM      3  C   UNL     1     -53.813  13.320 -28.185  1.00  0.00     0.000 C 
BRANCH   3   4
ATOM      4  C   UNL     1     -53.463  14.606 -28.951  1.00  0.00     0.000 C 
BRANCH   4   5
ATOM      5  C   UNL     1     -52.641  15.600 -28.109  1.00  0.00     0.000 C 
BRANCH   5   6
ATOM      6  C   UNL     1     -52.901  17.090 -28.409  1.00  0.00     0.000 C 
BRANCH   6   7
ATOM      7  C   UNL     1     -51.820  17.783 -29.261  1.00  0.00     0.000 C 
BRANCH   7   8
ATOM      8  C   UNL     1     -52.136  17.865 -30.767  1.00  0.00     0.000 C 
BRANCH   8   9
ATOM      9  C   UNL     1     -51.793  16.598 -31.577  1.00  0.00     0.000 C 
BRANCH   9  10
ATOM     10  C   UNL     1     -50.477  15.903 -31.181  1.00  0.00     0.000 C 
BRANCH  10  11
ATOM     11  C   UNL     1     -50.562  14.371 -31.269  1.00  0.00     0.000 C 
BRANCH  11  12
ATOM     12  C   UNL     1     -49.366  13.669 -30.598  1.00  0.00     0.006 C 
BRANCH  12  13
ATOM     13  C   UNL     1     -49.752  12.702 -29.466  1.00  0.00     0.053 C 
BRANCH  13  14
ATOM     14  C   UNL     1     -48.905  11.466 -29.468  1.00  0.00     0.041 C 
ATOM     15  O   UNL     1     -48.218  11.168 -28.455  1.00  0.00    -0.550 OA
ATOM     16  O   UNL     1     -48.890  10.634 -30.580  1.00  0.00    -0.550 OA
ENDBRANCH  13  14
ENDBRANCH  12  13
ENDBRANCH  11  12
ENDBRANCH  10  11
ENDBRANCH   9  10
ENDBRANCH   8   9
ENDBRANCH   7   8
ENDBRANCH   6   7
ENDBRANCH   5   6
ENDBRANCH   4   5
ENDBRANCH   3   4
ENDBRANCH   2   3
ENDBRANCH   1   2
BRANCH   1  17
ATOM     17  C   UNL     1     -53.367  10.348 -30.681  1.00  0.00     0.000 C 
BRANCH  17  18
ATOM     18  C   UNL     1     -52.079   9.545 -30.405  1.00  0.00     0.000 C 
BRANCH  18  19
ATOM     19  C   UNL     1     -52.285   8.033 -30.203  1.00  0.00     0.000 C 
BRANCH  19  20
ATOM     20  C   UNL     1     -53.770   7.634 -30.147  1.00  0.00     0.000 C 
BRANCH  20  21
ATOM     21  C   UNL     1     -54.069   6.372 -30.974  1.00  0.00     0.000 C 
BRANCH  21  22
ATOM     22  C   UNL     1     -52.838   5.875 -31.753  1.00  0.00    -0.000 C 
BRANCH  22  23
ATOM     23  C   UNL     1     -52.946   6.126 -33.267  1.00  0.00    -0.000 C 
BRANCH  23  24
ATOM     24  C   UNL     1     -51.861   7.047 -33.857  1.00  0.00    -0.000 C 
BRANCH  24  25
ATOM     25  C   UNL     1     -50.475   6.811 -33.233  1.00  0.00    -0.000 C 
BRANCH  25  26
ATOM     26  C   UNL     1     -49.674   8.112 -33.069  1.00  0.00    -0.000 C 
BRANCH  26  27
ATOM     27  C   UNL     1     -48.152   7.877 -33.073  1.00  0.00    -0.000 C 
BRANCH  27  28
ATOM     28  C   UNL     1     -47.755   6.532 -32.440  1.00  0.00    -0.000 C 
BRANCH  28  29
ATOM     29  C   UNL     1     -47.336   6.614 -30.962  1.00  0.00    -0.003 C 
ATOM     30  C   UNL     1     -48.514   6.854 -30.018  1.00  0.00     0.004 C 
ENDBRANCH  28  29
ENDBRANCH  27  28
ENDBRANCH  26  27
ENDBRANCH  25  26
ENDBRANCH  24  25
ENDBRANCH  23  24
ENDBRANCH  22  23
ENDBRANCH  21  22
ENDBRANCH  20  21
ENDBRANCH  19  20
ENDBRANCH  18  19
ENDBRANCH  17  18
ENDBRANCH   1  17
TORSDOF 26
ENDMDL
MODEL 4
REMARK VINA RESULT:    -4.315      3.036      6.353
REMARK INTER + INTRA:         -14.952
REMARK INTER:                 -11.037
REMARK INTRA:                  -3.914
REMARK UNBOUND:                -4.078
REMARK SMILES CCCCCCCCCCCCCCCCCCCCCCCCCCCC(=O)[O-]
REMARK SMILES IDX 15 1 16 2 17 3 18 4 19 5 20 6 21 7 22 8 23 9 24 10 25 11
REMARK SMILES IDX 26 12 27 13 28 14 29 15 30 16 14 17 13 18 12 19 11 20 10 21
REMARK SMILES IDX 9 22 8 23 7 24 6 25 5 26 4 27 3 28 2 29 1 30
REMARK H PARENT
REMARK Flexibility Score: inf
ROOT
ATOM      1  C   UNL     1     -51.988  10.413 -31.658  1.00  0.00     0.000 C 
ENDROOT
BRANCH   1   2
ATOM      2  C   UNL     1     -52.942  10.372 -30.446  1.00  0.00     0.000 C 
BRANCH   2   3
ATOM      3  C   UNL     1     -53.247  11.737 -29.804  1.00  0.00     0.000 C 
BRANCH   3   4
ATOM      4  C   UNL     1     -52.355  12.040 -28.589  1.00  0.00     0.000 C 
BRANCH   4   5
ATOM      5  C   UNL     1     -51.087  11.166 -28.544  1.00  0.00     0.000 C 
BRANCH   5   6
ATOM      6  C   UNL     1     -49.827  11.799 -29.166  1.00  0.00     0.000 C 
BRANCH   6   7
ATOM      7  C   UNL     1     -49.897  13.326 -29.371  1.00  0.00     0.000 C 
BRANCH   7   8
ATOM      8  C   UNL     1     -49.442  13.815 -30.760  1.00  0.00     0.000 C 
BRANCH   8   9
ATOM      9  C   UNL     1     -50.380  14.839 -31.432  1.00  0.00     0.000 C 
BRANCH   9  10
ATOM     10  C   UNL     1     -51.879  14.491 -31.376  1.00  0.00     0.000 C 
BRANCH  10  11
ATOM     11  C   UNL     1     -52.655  15.357 -30.371  1.00  0.00     0.000 C 
BRANCH  11  12
ATOM     12  C   UNL     1     -53.467  16.476 -31.051  1.00  0.00     0.006 C 
BRANCH  12  13
ATOM     13  C   UNL     1     -53.347  17.849 -30.370  1.00  0.00     0.053 C 
BRANCH  13  14
ATOM     14  C   UNL     1     -52.017  18.033 -29.705  1.00  0.00     0.041 C 
ATOM     15  O   UNL     1     -51.925  17.992 -28.449  1.00  0.00    -0.550 OA
ATOM     16  O   UNL     1     -50.875  18.228 -30.472  1.00  0.00    -0.550 OA
ENDBRANCH  13  14
ENDBRANCH  12  13
ENDBRANCH  11  12
ENDBRANCH  10  11
ENDBRANCH   9  10
ENDBRANCH   8   9
ENDBRANCH   7   8
ENDBRANCH   6   7
ENDBRANCH   5   6
ENDBRANCH   4   5
ENDBRANCH   3   4
ENDBRANCH   2   3
ENDBRANCH   1   2
BRANCH   1  17
ATOM     17  C   UNL     1     -50.966   9.262 -31.725  1.00  0.00     0.000 C 
BRANCH  17  18
ATOM     18  C   UNL     1     -51.126   8.180 -30.638  1.00  0.00     0.000 C 
BRANCH  18  19
ATOM     19  C   UNL     1     -49.874   7.933 -29.776  1.00  0.00     0.000 C 
BRANCH  19  20
ATOM     20  C   UNL     1     -49.304   6.514 -29.945  1.00  0.00     0.000 C 
BRANCH  20  21
ATOM     21  C   UNL     1     -47.766   6.502 -29.984  1.00  0.00     0.000 C 
BRANCH  21  22
ATOM     22  C   UNL     1     -47.167   7.919 -29.960  1.00  0.00    -0.000 C 
BRANCH  22  23
ATOM     23  C   UNL     1     -47.042   8.540 -31.362  1.00  0.00    -0.000 C 
BRANCH  23  24
ATOM     24  C   UNL     1     -47.163   7.545 -32.531  1.00  0.00    -0.000 C 
BRANCH  24  25
ATOM     25  C   UNL     1     -48.454   7.734 -33.346  1.00  0.00    -0.000 C 
BRANCH  25  26
ATOM     26  C   UNL     1     -49.197   6.411 -33.588  1.00  0.00    -0.000 C 
BRANCH  26  27
ATOM     27  C   UNL     1     -50.655   6.623 -34.037  1.00  0.00    -0.000 C 
BRANCH  27  28
ATOM     28  C   UNL     1     -51.666   5.875 -33.149  1.00  0.00    -0.000 C 
BRANCH  28  29
ATOM     29  C   UNL     1     -53.113   6.389 -33.248  1.00  0.00    -0.003 C 
ATOM     30  C   UNL     1     -53.320   7.382 -34.391  1.00  0.00     0.004 C 
ENDBRANCH  28  29
ENDBRANCH  27  28
ENDBRANCH  26  27
ENDBRANCH  25  26
ENDBRANCH  24  25
ENDBRANCH  23  24
ENDBRANCH  22  23
ENDBRANCH  21  22
ENDBRANCH  20  21
ENDBRANCH  19  20
ENDBRANCH  18  19
ENDBRANCH  17  18
ENDBRANCH   1  17
TORSDOF 26
ENDMDL
MODEL 5
REMARK VINA RESULT:    -4.285      2.177      6.115
REMARK INTER + INTRA:         -14.877
REMARK INTER:                 -11.412
REMARK INTRA:                  -3.464
REMARK UNBOUND:                -4.078
REMARK SMILES CCCCCCCCCCCCCCCCCCCCCCCCCCCC(=O)[O-]
REMARK SMILES IDX 15 1 16 2 17 3 18 4 19 5 20 6 21 7 22 8 23 9 24 10 25 11
REMARK SMILES IDX 26 12 27 13 28 14 29 15 30 16 14 17 13 18 12 19 11 20 10 21
REMARK SMILES IDX 9 22 8 23 7 24 6 25 5 26 4 27 3 28 2 29 1 30
REMARK H PARENT
REMARK Flexibility Score: inf
ROOT
ATOM      1  C   UNL     1     -49.244  10.960 -30.236  1.00  0.00     0.000 C 
ENDROOT
BRANCH   1   2
ATOM      2  C   UNL     1     -50.580  11.452 -29.642  1.00  0.00     0.000 C 
BRANCH   2   3
ATOM      3  C   UNL     1     -51.746  11.552 -30.642  1.00  0.00     0.000 C 
BRANCH   3   4
ATOM      4  C   UNL     1     -53.115  11.685 -29.954  1.00  0.00     0.000 C 
BRANCH   4   5
ATOM      5  C   UNL     1     -53.598  13.144 -29.858  1.00  0.00     0.000 C 
BRANCH   5   6
ATOM      6  C   UNL     1     -53.501  13.780 -28.456  1.00  0.00     0.000 C 
BRANCH   6   7
ATOM      7  C   UNL     1     -54.028  15.225 -28.357  1.00  0.00     0.000 C 
BRANCH   7   8
ATOM      8  C   UNL     1     -53.196  16.157 -27.454  1.00  0.00     0.000 C 
BRANCH   8   9
ATOM      9  C   UNL     1     -53.347  17.662 -27.753  1.00  0.00     0.000 C 
BRANCH   9  10
ATOM     10  C   UNL     1     -53.762  18.006 -29.197  1.00  0.00     0.000 C 
BRANCH  10  11
ATOM     11  C   UNL     1     -52.560  18.280 -30.114  1.00  0.00     0.000 C 
BRANCH  11  12
ATOM     12  C   UNL     1     -52.215  17.081 -31.017  1.00  0.00     0.006 C 
BRANCH  12  13
ATOM     13  C   UNL     1     -50.740  16.651 -30.965  1.00  0.00     0.053 C 
BRANCH  13  14
ATOM     14  C   UNL     1     -50.547  15.239 -31.427  1.00  0.00     0.041 C 
ATOM     15  O   UNL     1     -49.516  14.598 -31.095  1.00  0.00    -0.550 OA
ATOM     16  O   UNL     1     -51.519  14.624 -32.208  1.00  0.00    -0.550 OA
ENDBRANCH  13  14
ENDBRANCH  12  13
ENDBRANCH  11  12
ENDBRANCH  10  11
ENDBRANCH   9  10
ENDBRANCH   8   9
ENDBRANCH   7   8
ENDBRANCH   6   7
ENDBRANCH   5   6
ENDBRANCH   4   5
ENDBRANCH   3   4
ENDBRANCH   2   3
ENDBRANCH   1   2
BRANCH   1  17
ATOM     17  C   UNL     1     -48.764   9.591 -29.720  1.00  0.00     0.000 C 
BRANCH  17  18
ATOM     18  C   UNL     1     -47.485   9.050 -30.390  1.00  0.00     0.000 C 
BRANCH  18  19
ATOM     19  C   UNL     1     -46.618   8.140 -29.501  1.00  0.00     0.000 C 
BRANCH  19  20
ATOM     20  C   UNL     1     -46.726   6.653 -29.884  1.00  0.00     0.000 C 
BRANCH  20  21
ATOM     21  C   UNL     1     -47.860   6.389 -30.890  1.00  0.00     0.000 C 
BRANCH  21  22
ATOM     22  C   UNL     1     -47.333   6.069 -32.299  1.00  0.00    -0.000 C 
BRANCH  22  23
ATOM     23  C   UNL     1     -48.030   6.888 -33.399  1.00  0.00    -0.000 C 
BRANCH  23  24
ATOM     24  C   UNL     1     -49.475   7.315 -33.081  1.00  0.00    -0.000 C 
BRANCH  24  25
ATOM     25  C   UNL     1     -50.525   6.446 -33.795  1.00  0.00    -0.000 C 
BRANCH  25  26
ATOM     26  C   UNL     1     -51.908   7.115 -33.842  1.00  0.00    -0.000 C 
BRANCH  26  27
ATOM     27  C   UNL     1     -51.987   8.376 -32.962  1.00  0.00    -0.000 C 
BRANCH  27  28
ATOM     28  C   UNL     1     -52.859   8.174 -31.709  1.00  0.00    -0.000 C 
BRANCH  28  29
ATOM     29  C   UNL     1     -52.073   7.949 -30.406  1.00  0.00    -0.003 C 
ATOM     30  C   UNL     1     -51.520   6.529 -30.279  1.00  0.00     0.004 C 
ENDBRANCH  28  29
ENDBRANCH  27  28
ENDBRANCH  26  27
ENDBRANCH  25  26
ENDBRANCH  24  25
ENDBRANCH  23  24
ENDBRANCH  22  23
ENDBRANCH  21  22
ENDBRANCH  20  21
ENDBRANCH  19  20
ENDBRANCH  18  19
ENDBRANCH  17  18
ENDBRANCH   1  17
TORSDOF 26
ENDMDL
MODEL 6
REMARK VINA RESULT:    -4.277      1.027      7.694
REMARK INTER + INTRA:         -14.857
REMARK INTER:                 -11.202
REMARK INTRA:                  -3.654
REMARK UNBOUND:                -4.078
REMARK SMILES CCCCCCCCCCCCCCCCCCCCCCCCCCCC(=O)[O-]
REMARK SMILES IDX 15 1 16 2 17 3 18 4 19 5 20 6 21 7 22 8 23 9 24 10 25 11
REMARK SMILES IDX 26 12 27 13 28 14 29 15 30 16 14 17 13 18 12 19 11 20 10 21
REMARK SMILES IDX 9 22 8 23 7 24 6 25 5 26 4 27 3 28 2 29 1 30
REMARK H PARENT
REMARK Flexibility Score: inf
ROOT
ATOM      1  C   UNL     1     -49.412  11.361 -29.184  1.00  0.00     0.000 C 
ENDROOT
BRANCH   1   2
ATOM      2  C   UNL     1     -50.302  10.422 -30.025  1.00  0.00     0.000 C 
BRANCH   2   3
ATOM      3  C   UNL     1     -51.771  10.331 -29.573  1.00  0.00     0.000 C 
BRANCH   3   4
ATOM      4  C   UNL     1     -52.659   9.575 -30.574  1.00  0.00     0.000 C 
BRANCH   4   5
ATOM      5  C   UNL     1     -52.970   8.133 -30.128  1.00  0.00     0.000 C 
BRANCH   5   6
ATOM      6  C   UNL     1     -53.458   7.189 -31.246  1.00  0.00     0.000 C 
BRANCH   6   7
ATOM      7  C   UNL     1     -53.979   7.894 -32.514  1.00  0.00     0.000 C 
BRANCH   7   8
ATOM      8  C   UNL     1     -53.051   7.789 -33.740  1.00  0.00     0.000 C 
BRANCH   8   9
ATOM      9  C   UNL     1     -52.116   6.562 -33.750  1.00  0.00     0.000 C 
BRANCH   9  10
ATOM     10  C   UNL     1     -50.613   6.881 -33.645  1.00  0.00     0.000 C 
BRANCH  10  11
ATOM     11  C   UNL     1     -50.031   6.561 -32.259  1.00  0.00     0.000 C 
BRANCH  11  12
ATOM     12  C   UNL     1     -48.747   7.356 -31.954  1.00  0.00     0.006 C 
BRANCH  12  13
ATOM     13  C   UNL     1     -48.360   7.388 -30.466  1.00  0.00     0.053 C 
BRANCH  13  14
ATOM     14  C   UNL     1     -47.151   8.238 -30.218  1.00  0.00     0.041 C 
ATOM     15  O   UNL     1     -46.950   9.272 -30.908  1.00  0.00    -0.550 OA
ATOM     16  O   UNL     1     -46.258   7.898 -29.209  1.00  0.00    -0.550 OA
ENDBRANCH  13  14
ENDBRANCH  12  13
ENDBRANCH  11  12
ENDBRANCH  10  11
ENDBRANCH   9  10
ENDBRANCH   8   9
ENDBRANCH   7   8
ENDBRANCH   6   7
ENDBRANCH   5   6
ENDBRANCH   4   5
ENDBRANCH   3   4
ENDBRANCH   2   3
ENDBRANCH   1   2
BRANCH   1  17
ATOM     17  C   UNL     1     -49.772  12.856 -29.273  1.00  0.00     0.000 C 
BRANCH  17  18
ATOM     18  C   UNL     1     -49.772  13.446 -30.698  1.00  0.00     0.000 C 
BRANCH  18  19
ATOM     19  C   UNL     1     -51.147  13.479 -31.389  1.00  0.00     0.000 C 
BRANCH  19  20
ATOM     20  C   UNL     1     -51.883  14.816 -31.191  1.00  0.00     0.000 C 
BRANCH  20  21
ATOM     21  C   UNL     1     -53.357  14.620 -30.798  1.00  0.00     0.000 C 
BRANCH  21  22
ATOM     22  C   UNL     1     -53.572  13.367 -29.931  1.00  0.00    -0.000 C 
BRANCH  22  23
ATOM     23  C   UNL     1     -53.387  13.641 -28.428  1.00  0.00    -0.000 C 
BRANCH  23  24
ATOM     24  C   UNL     1     -54.067  14.921 -27.907  1.00  0.00    -0.000 C 
BRANCH  24  25
ATOM     25  C   UNL     1     -53.094  16.106 -27.785  1.00  0.00    -0.000 C 
BRANCH  25  26
ATOM     26  C   UNL     1     -53.794  17.399 -27.338  1.00  0.00    -0.000 C 
BRANCH  26  27
ATOM     27  C   UNL     1     -53.668  18.531 -28.374  1.00  0.00    -0.000 C 
BRANCH  27  28
ATOM     28  C   UNL     1     -54.116  18.102 -29.783  1.00  0.00    -0.000 C 
BRANCH  28  29
ATOM     29  C   UNL     1     -53.074  18.339 -30.890  1.00  0.00    -0.003 C 
ATOM     30  C   UNL     1     -51.634  18.261 -30.384  1.00  0.00     0.004 C 
ENDBRANCH  28  29
ENDBRANCH  27  28
ENDBRANCH  26  27
ENDBRANCH  25  26
ENDBRANCH  24  25
ENDBRANCH  23  24
ENDBRANCH  22  23
ENDBRANCH  21  22
ENDBRANCH  20  21
ENDBRANCH  19  20
ENDBRANCH  18  19
ENDBRANCH  17  18
ENDBRANCH   1  17
TORSDOF 26
ENDMDL
MODEL 7
REMARK VINA RESULT:    -4.231      1.458      2.922
REMARK INTER + INTRA:         -14.739
REMARK INTER:                 -11.477
REMARK INTRA:                  -3.262
REMARK UNBOUND:                -4.078
REMARK SMILES CCCCCCCCCCCCCCCCCCCCCCCCCCCC(=O)[O-]
REMARK SMILES IDX 15 1 16 2 17 3 18 4 19 5 20 6 21 7 22 8 23 9 24 10 25 11
REMARK SMILES IDX 26 12 27 13 28 14 29 15 30 16 14 17 13 18 12 19 11 20 10 21
REMARK SMILES IDX 9 22 8 23 7 24 6 25 5 26 4 27 3 28 2 29 1 30
REMARK H PARENT
REMARK Flexibility Score: inf
ROOT
ATOM      1  C   UNL     1     -53.379  14.834 -28.598  1.00  0.00     0.000 C 
ENDROOT
BRANCH   1   2
ATOM      2  C   UNL     1     -54.030  15.904 -27.698  1.00  0.00     0.000 C 
BRANCH   2   3
ATOM      3  C   UNL     1     -53.226  17.207 -27.541  1.00  0.00     0.000 C 
BRANCH   3   4
ATOM      4  C   UNL     1     -53.833  18.382 -28.325  1.00  0.00     0.000 C 
BRANCH   4   5
ATOM      5  C   UNL     1     -54.095  18.044 -29.804  1.00  0.00     0.000 C 
BRANCH   5   6
ATOM      6  C   UNL     1     -53.278  18.864 -30.823  1.00  0.00     0.000 C 
BRANCH   6   7
ATOM      7  C   UNL     1     -51.752  18.655 -30.756  1.00  0.00     0.000 C 
BRANCH   7   8
ATOM      8  C   UNL     1     -51.304  17.183 -30.666  1.00  0.00     0.000 C 
BRANCH   8   9
ATOM      9  C   UNL     1     -51.753  16.290 -31.841  1.00  0.00     0.000 C 
BRANCH   9  10
ATOM     10  C   UNL     1     -51.098  14.897 -31.894  1.00  0.00     0.000 C 
BRANCH  10  11
ATOM     11  C   UNL     1     -49.843  14.794 -31.013  1.00  0.00     0.000 C 
BRANCH  11  12
ATOM     12  C   UNL     1     -49.451  13.337 -30.703  1.00  0.00     0.006 C 
BRANCH  12  13
ATOM     13  C   UNL     1     -49.554  12.956 -29.217  1.00  0.00     0.053 C 
BRANCH  13  14
ATOM     14  C   UNL     1     -48.940  11.618 -28.936  1.00  0.00     0.041 C 
ATOM     15  O   UNL     1     -49.623  10.708 -28.397  1.00  0.00    -0.550 OA
ATOM     16  O   UNL     1     -47.619  11.371 -29.288  1.00  0.00    -0.550 OA
ENDBRANCH  13  14
ENDBRANCH  12  13
ENDBRANCH  11  12
ENDBRANCH  10  11
ENDBRANCH   9  10
ENDBRANCH   8   9
ENDBRANCH   7   8
ENDBRANCH   6   7
ENDBRANCH   5   6
ENDBRANCH   4   5
ENDBRANCH   3   4
ENDBRANCH   2   3
ENDBRANCH   1   2
BRANCH   1  17
ATOM     17  C   UNL     1     -53.806  13.383 -28.303  1.00  0.00     0.000 C 
BRANCH  17  18
ATOM     18  C   UNL     1     -52.883  12.296 -28.891  1.00  0.00     0.000 C 
BRANCH  18  19
ATOM     19  C   UNL     1     -53.410  11.613 -30.165  1.00  0.00     0.000 C 
BRANCH  19  20
ATOM     20  C   UNL     1     -52.530  10.435 -30.619  1.00  0.00     0.000 C 
BRANCH  20  21
ATOM     21  C   UNL     1     -51.528  10.841 -31.715  1.00  0.00     0.000 C 
BRANCH  21  22
ATOM     22  C   UNL     1     -51.397   9.775 -32.815  1.00  0.00    -0.000 C 
BRANCH  22  23
ATOM     23  C   UNL     1     -52.360   8.591 -32.619  1.00  0.00    -0.000 C 
BRANCH  23  24
ATOM     24  C   UNL     1     -51.829   7.228 -33.103  1.00  0.00    -0.000 C 
BRANCH  24  25
ATOM     25  C   UNL     1     -50.530   6.808 -32.394  1.00  0.00    -0.000 C 
BRANCH  25  26
ATOM     26  C   UNL     1     -49.339   6.707 -33.360  1.00  0.00    -0.000 C 
BRANCH  26  27
ATOM     27  C   UNL     1     -48.148   7.581 -32.926  1.00  0.00    -0.000 C 
BRANCH  27  28
ATOM     28  C   UNL     1     -47.508   7.106 -31.609  1.00  0.00    -0.000 C 
BRANCH  28  29
ATOM     29  C   UNL     1     -47.530   8.141 -30.471  1.00  0.00    -0.003 C 
ATOM     30  C   UNL     1     -46.328   8.026 -29.533  1.00  0.00     0.004 C 
ENDBRANCH  28  29
ENDBRANCH  27  28
ENDBRANCH  26  27
ENDBRANCH  25  26
ENDBRANCH  24  25
ENDBRANCH  23  24
ENDBRANCH  22  23
ENDBRANCH  21  22
ENDBRANCH  20  21
ENDBRANCH  19  20
ENDBRANCH  18  19
ENDBRANCH  17  18
ENDBRANCH   1  17
TORSDOF 26
ENDMDL
MODEL 8
REMARK VINA RESULT:    -4.159      2.497      8.929
REMARK INTER + INTRA:         -14.558
REMARK INTER:                 -11.228
REMARK INTRA:                  -3.329
REMARK UNBOUND:                -4.078
REMARK SMILES CCCCCCCCCCCCCCCCCCCCCCCCCCCC(=O)[O-]
REMARK SMILES IDX 15 1 16 2 17 3 18 4 19 5 20 6 21 7 22 8 23 9 24 10 25 11
REMARK SMILES IDX 26 12 27 13 28 14 29 15 30 16 14 17 13 18 12 19 11 20 10 21
REMARK SMILES IDX 9 22 8 23 7 24 6 25 5 26 4 27 3 28 2 29 1 30
REMARK H PARENT
REMARK Flexibility Score: inf
ROOT
ATOM      1  C   UNL     1     -47.837   8.526 -30.316  1.00  0.00     0.000 C 
ENDROOT
BRANCH   1   2
ATOM      2  C   UNL     1     -47.194   7.906 -31.573  1.00  0.00     0.000 C 
BRANCH   2   3
ATOM      3  C   UNL     1     -48.021   8.034 -32.865  1.00  0.00     0.000 C 
BRANCH   3   4
ATOM      4  C   UNL     1     -48.479   6.676 -33.420  1.00  0.00     0.000 C 
BRANCH   4   5
ATOM      5  C   UNL     1     -49.994   6.620 -33.694  1.00  0.00     0.000 C 
BRANCH   5   6
ATOM      6  C   UNL     1     -50.886   6.507 -32.441  1.00  0.00     0.000 C 
BRANCH   6   7
ATOM      7  C   UNL     1     -52.233   7.252 -32.531  1.00  0.00     0.000 C 
BRANCH   7   8
ATOM      8  C   UNL     1     -52.135   8.713 -33.010  1.00  0.00     0.000 C 
BRANCH   8   9
ATOM      9  C   UNL     1     -51.289   9.640 -32.112  1.00  0.00     0.000 C 
BRANCH   9  10
ATOM     10  C   UNL     1     -51.336   9.316 -30.607  1.00  0.00     0.000 C 
BRANCH  10  11
ATOM     11  C   UNL     1     -52.733   9.516 -29.998  1.00  0.00     0.000 C 
BRANCH  11  12
ATOM     12  C   UNL     1     -53.286  10.935 -30.231  1.00  0.00     0.006 C 
BRANCH  12  13
ATOM     13  C   UNL     1     -53.105  11.890 -29.040  1.00  0.00     0.053 C 
BRANCH  13  14
ATOM     14  C   UNL     1     -53.384  13.314 -29.412  1.00  0.00     0.041 C 
ATOM     15  O   UNL     1     -52.982  14.253 -28.676  1.00  0.00    -0.550 OA
ATOM     16  O   UNL     1     -54.070  13.605 -30.585  1.00  0.00    -0.550 OA
ENDBRANCH  13  14
ENDBRANCH  12  13
ENDBRANCH  11  12
ENDBRANCH  10  11
ENDBRANCH   9  10
ENDBRANCH   8   9
ENDBRANCH   7   8
ENDBRANCH   6   7
ENDBRANCH   5   6
ENDBRANCH   4   5
ENDBRANCH   3   4
ENDBRANCH   2   3
ENDBRANCH   1   2
BRANCH   1  17
ATOM     17  C   UNL     1     -47.669  10.052 -30.181  1.00  0.00     0.000 C 
BRANCH  17  18
ATOM     18  C   UNL     1     -48.220  10.658 -28.874  1.00  0.00     0.000 C 
BRANCH  18  19
ATOM     19  C   UNL     1     -49.571  11.384 -29.012  1.00  0.00     0.000 C 
BRANCH  19  20
ATOM     20  C   UNL     1     -49.414  12.893 -29.269  1.00  0.00     0.000 C 
BRANCH  20  21
ATOM     21  C   UNL     1     -49.431  13.236 -30.769  1.00  0.00     0.000 C 
BRANCH  21  22
ATOM     22  C   UNL     1     -49.766  14.715 -31.029  1.00  0.00    -0.000 C 
BRANCH  22  23
ATOM     23  C   UNL     1     -51.097  14.904 -31.780  1.00  0.00    -0.000 C 
BRANCH  23  24
ATOM     24  C   UNL     1     -51.881  16.177 -31.410  1.00  0.00    -0.000 C 
BRANCH  24  25
ATOM     25  C   UNL     1     -51.009  17.233 -30.709  1.00  0.00    -0.000 C 
BRANCH  25  26
ATOM     26  C   UNL     1     -51.625  18.640 -30.770  1.00  0.00    -0.000 C 
BRANCH  26  27
ATOM     27  C   UNL     1     -53.159  18.610 -30.903  1.00  0.00    -0.000 C 
BRANCH  27  28
ATOM     28  C   UNL     1     -53.878  18.824 -29.559  1.00  0.00    -0.000 C 
BRANCH  28  29
ATOM     29  C   UNL     1     -54.115  17.541 -28.743  1.00  0.00    -0.003 C 
ATOM     30  C   UNL     1     -53.354  17.525 -27.418  1.00  0.00     0.004 C 
ENDBRANCH  28  29
ENDBRANCH  27  28
ENDBRANCH  26  27
ENDBRANCH  25  26
ENDBRANCH  24  25
ENDBRANCH  23  24
ENDBRANCH  22  23
ENDBRANCH  21  22
ENDBRANCH  20  21
ENDBRANCH  19  20
ENDBRANCH  18  19
ENDBRANCH  17  18
ENDBRANCH   1  17
TORSDOF 26
ENDMDL
MODEL 9
REMARK VINA RESULT:    -4.117      1.379      4.737
REMARK INTER + INTRA:         -14.451
REMARK INTER:                 -11.212
REMARK INTRA:                  -3.239
REMARK UNBOUND:                -4.078
REMARK SMILES CCCCCCCCCCCCCCCCCCCCCCCCCCCC(=O)[O-]
REMARK SMILES IDX 15 1 16 2 17 3 18 4 19 5 20 6 21 7 22 8 23 9 24 10 25 11
REMARK SMILES IDX 26 12 27 13 28 14 29 15 30 16 14 17 13 18 12 19 11 20 10 21
REMARK SMILES IDX 9 22 8 23 7 24 6 25 5 26 4 27 3 28 2 29 1 30
REMARK H PARENT
REMARK Flexibility Score: inf
ROOT
ATOM      1  C   UNL     1     -51.178  15.940 -31.869  1.00  0.00     0.000 C 
ENDROOT
BRANCH   1   2
ATOM      2  C   UNL     1     -50.091  14.919 -31.475  1.00  0.00     0.000 C 
BRANCH   2   3
ATOM      3  C   UNL     1     -50.535  13.844 -30.467  1.00  0.00     0.000 C 
BRANCH   3   4
ATOM      4  C   UNL     1     -49.370  13.293 -29.629  1.00  0.00     0.000 C 
BRANCH   4   5
ATOM      5  C   UNL     1     -49.707  11.957 -28.940  1.00  0.00     0.000 C 
BRANCH   5   6
ATOM      6  C   UNL     1     -49.439  10.694 -29.784  1.00  0.00     0.000 C 
BRANCH   6   7
ATOM      7  C   UNL     1     -49.783  10.824 -31.281  1.00  0.00     0.000 C 
BRANCH   7   8
ATOM      8  C   UNL     1     -50.006   9.486 -32.013  1.00  0.00     0.000 C 
BRANCH   8   9
ATOM      9  C   UNL     1     -48.912   9.109 -33.033  1.00  0.00     0.000 C 
BRANCH   9  10
ATOM     10  C   UNL     1     -48.594   7.605 -33.128  1.00  0.00     0.000 C 
BRANCH  10  11
ATOM     11  C   UNL     1     -49.464   6.751 -32.191  1.00  0.00     0.000 C 
BRANCH  11  12
ATOM     12  C   UNL     1     -48.629   5.882 -31.231  1.00  0.00     0.006 C 
BRANCH  12  13
ATOM     13  C   UNL     1     -47.125   6.200 -31.234  1.00  0.00     0.053 C 
BRANCH  13  14
ATOM     14  C   UNL     1     -46.749   7.154 -30.141  1.00  0.00     0.041 C 
ATOM     15  O   UNL     1     -46.891   8.394 -30.305  1.00  0.00    -0.550 OA
ATOM     16  O   UNL     1     -46.261   6.670 -28.933  1.00  0.00    -0.550 OA
ENDBRANCH  13  14
ENDBRANCH  12  13
ENDBRANCH  11  12
ENDBRANCH  10  11
ENDBRANCH   9  10
ENDBRANCH   8   9
ENDBRANCH   7   8
ENDBRANCH   6   7
ENDBRANCH   5   6
ENDBRANCH   4   5
ENDBRANCH   3   4
ENDBRANCH   2   3
ENDBRANCH   1   2
BRANCH   1  17
ATOM     17  C   UNL     1     -51.085  17.302 -31.155  1.00  0.00     0.000 C 
BRANCH  17  18
ATOM     18  C   UNL     1     -52.337  17.707 -30.352  1.00  0.00     0.000 C 
BRANCH  18  19
ATOM     19  C   UNL     1     -52.499  16.996 -28.996  1.00  0.00     0.000 C 
BRANCH  19  20
ATOM     20  C   UNL     1     -53.508  15.835 -29.047  1.00  0.00     0.000 C 
BRANCH  20  21
ATOM     21  C   UNL     1     -53.246  14.784 -27.955  1.00  0.00     0.000 C 
BRANCH  21  22
ATOM     22  C   UNL     1     -54.125  13.532 -28.122  1.00  0.00    -0.000 C 
BRANCH  22  23
ATOM     23  C   UNL     1     -53.329  12.300 -28.591  1.00  0.00    -0.000 C 
BRANCH  23  24
ATOM     24  C   UNL     1     -53.448  11.979 -30.093  1.00  0.00    -0.000 C 
BRANCH  24  25
ATOM     25  C   UNL     1     -54.043  10.585 -30.360  1.00  0.00    -0.000 C 
BRANCH  25  26
ATOM     26  C   UNL     1     -52.965   9.495 -30.464  1.00  0.00    -0.000 C 
BRANCH  26  27
ATOM     27  C   UNL     1     -53.558   8.074 -30.487  1.00  0.00    -0.000 C 
BRANCH  27  28
ATOM     28  C   UNL     1     -54.096   7.675 -31.873  1.00  0.00    -0.000 C 
BRANCH  28  29
ATOM     29  C   UNL     1     -53.074   6.971 -32.783  1.00  0.00    -0.003 C 
ATOM     30  C   UNL     1     -53.165   7.416 -34.242  1.00  0.00     0.004 C 
ENDBRANCH  28  29
ENDBRANCH  27  28
ENDBRANCH  26  27
ENDBRANCH  25  26
ENDBRANCH  24  25
ENDBRANCH  23  24
ENDBRANCH  22  23
ENDBRANCH  21  22
ENDBRANCH  20  21
ENDBRANCH  19  20
ENDBRANCH  18  19
ENDBRANCH  17  18
ENDBRANCH   1  17
TORSDOF 26
ENDMDL
