MODEL 1
REMARK VINA RESULT:    -3.263      0.000      0.000
REMARK INTER + INTRA:          -3.550
REMARK INTER:                  -3.550
REMARK INTRA:                   0.000
REMARK UNBOUND:                 0.000
REMARK SMILES [NH3+]CC(=O)[O-]
REMARK SMILES IDX 2 1 1 2 3 6 4 7 5 8
REMARK H PARENT 1 3 1 4 1 5
REMARK Flexibility Score: inf
ROOT
ATOM      1  C   UNL     1     148.387 168.037 152.843  1.00  0.00     0.312 C 
ENDROOT
BRANCH   1   2
ATOM      2  N   UNL     1     148.749 168.125 154.256  1.00  0.00    -0.353 N 
ATOM      3  H   UNL     1     149.177 169.057 154.459  1.00  0.00     0.344 HD
ATOM      4  H   UNL     1     149.424 167.364 154.502  1.00  0.00     0.344 HD
ATOM      5  H   UNL     1     147.887 168.013 154.837  1.00  0.00     0.344 HD
ENDBRANCH   1   2
BRANCH   1   6
ATOM      6  C   UNL     1     148.353 166.609 152.394  1.00  0.00     0.096 C 
ATOM      7  O   UNL     1     149.013 166.248 151.385  1.00  0.00    -0.544 OA
ATOM      8  O   UNL     1     147.632 165.669 153.119  1.00  0.00    -0.544 OA
ENDBRANCH   1   6
TORSDOF 2
ENDMDL
MODEL 2
REMARK VINA RESULT:    -3.180     20.141     20.274
REMARK INTER + INTRA:          -3.459
REMARK INTER:                  -3.459
REMARK INTRA:                   0.000
REMARK UNBOUND:                 0.000
REMARK SMILES [NH3+]CC(=O)[O-]
REMARK SMILES IDX 2 1 1 2 3 6 4 7 5 8
REMARK H PARENT 1 3 1 4 1 5
REMARK Flexibility Score: inf
ROOT
ATOM      1  C   UNL     1     165.882 167.995 162.142  1.00  0.00     0.312 C 
ENDROOT
BRANCH   1   2
ATOM      2  N   UNL     1     166.125 168.125 160.707  1.00  0.00    -0.353 N 
ATOM      3  H   UNL     1     165.216 168.185 160.194  1.00  0.00     0.344 HD
ATOM      4  H   UNL     1     166.674 167.305 160.359  1.00  0.00     0.344 HD
ATOM      5  H   UNL     1     166.672 168.998 160.530  1.00  0.00     0.344 HD
ENDBRANCH   1   2
BRANCH   1   6
ATOM      6  C   UNL     1     166.299 166.641 162.628  1.00  0.00     0.096 C 
ATOM      7  O   UNL     1     165.891 166.215 163.740  1.00  0.00    -0.544 OA
ATOM      8  O   UNL     1     167.096 165.831 161.830  1.00  0.00    -0.544 OA
ENDBRANCH   1   6
TORSDOF 2
ENDMDL
MODEL 3
REMARK VINA RESULT:    -3.157     20.863     21.278
REMARK INTER + INTRA:          -3.434
REMARK INTER:                  -3.434
REMARK INTRA:                   0.000
REMARK UNBOUND:                 0.000
REMARK SMILES [NH3+]CC(=O)[O-]
REMARK SMILES IDX 2 1 1 2 3 6 4 7 5 8
REMARK H PARENT 1 3 1 4 1 5
REMARK Flexibility Score: inf
ROOT
ATOM      1  C   UNL     1     149.360 152.525 167.755  1.00  0.00     0.312 C 
ENDROOT
BRANCH   1   2
ATOM      2  N   UNL     1     148.355 152.005 166.830  1.00  0.00    -0.353 N 
ATOM      3  H   UNL     1     148.793 151.804 165.902  1.00  0.00     0.344 HD
ATOM      4  H   UNL     1     147.580 152.699 166.714  1.00  0.00     0.344 HD
ATOM      5  H   UNL     1     147.960 151.118 167.218  1.00  0.00     0.344 HD
ENDBRANCH   1   2
BRANCH   1   6
ATOM      6  C   UNL     1     150.621 151.722 167.672  1.00  0.00     0.096 C 
ATOM      7  O   UNL     1     151.700 152.274 167.331  1.00  0.00    -0.544 OA
ATOM      8  O   UNL     1     150.614 150.378 168.019  1.00  0.00    -0.544 OA
ENDBRANCH   1   6
TORSDOF 2
ENDMDL
MODEL 4
REMARK VINA RESULT:    -3.140      1.938      2.190
REMARK INTER + INTRA:          -3.415
REMARK INTER:                  -3.415
REMARK INTRA:                   0.000
REMARK UNBOUND:                 0.000
REMARK SMILES [NH3+]CC(=O)[O-]
REMARK SMILES IDX 2 1 1 2 3 6 4 7 5 8
REMARK H PARENT 1 3 1 4 1 5
REMARK Flexibility Score: inf
ROOT
ATOM      1  C   UNL     1     148.529 167.860 152.257  1.00  0.00     0.312 C 
ENDROOT
BRANCH   1   2
ATOM      2  N   UNL     1     147.298 167.626 151.503  1.00  0.00    -0.353 N 
ATOM      3  H   UNL     1     147.387 166.752 150.935  1.00  0.00     0.344 HD
ATOM      4  H   UNL     1     147.102 168.439 150.874  1.00  0.00     0.344 HD
ATOM      5  H   UNL     1     146.503 167.516 152.172  1.00  0.00     0.344 HD
ENDBRANCH   1   2
BRANCH   1   6
ATOM      6  C   UNL     1     148.708 166.814 153.313  1.00  0.00     0.096 C 
ATOM      7  O   UNL     1     147.910 165.843 153.384  1.00  0.00    -0.544 OA
ATOM      8  O   UNL     1     149.787 166.886 154.186  1.00  0.00    -0.544 OA
ENDBRANCH   1   6
TORSDOF 2
ENDMDL
MODEL 5
REMARK VINA RESULT:    -3.135      1.873      1.955
REMARK INTER + INTRA:          -3.410
REMARK INTER:                  -3.410
REMARK INTRA:                   0.000
REMARK UNBOUND:                 0.000
REMARK SMILES [NH3+]CC(=O)[O-]
REMARK SMILES IDX 2 1 1 2 3 6 4 7 5 8
REMARK H PARENT 1 3 1 4 1 5
REMARK Flexibility Score: inf
ROOT
ATOM      1  C   UNL     1     148.425 168.058 152.427  1.00  0.00     0.312 C 
ENDROOT
BRANCH   1   2
ATOM      2  N   UNL     1     147.276 167.793 151.562  1.00  0.00    -0.353 N 
ATOM      3  H   UNL     1     146.672 168.644 151.500  1.00  0.00     0.344 HD
ATOM      4  H   UNL     1     146.721 166.990 151.938  1.00  0.00     0.344 HD
ATOM      5  H   UNL     1     147.618 167.549 150.605  1.00  0.00     0.344 HD
ENDBRANCH   1   2
BRANCH   1   6
ATOM      6  C   UNL     1     148.699 166.884 153.315  1.00  0.00     0.096 C 
ATOM      7  O   UNL     1     149.681 166.903 154.102  1.00  0.00    -0.544 OA
ATOM      8  O   UNL     1     147.840 165.793 153.310  1.00  0.00    -0.544 OA
ENDBRANCH   1   6
TORSDOF 2
ENDMDL
MODEL 6
REMARK VINA RESULT:    -3.087     22.312     22.383
REMARK INTER + INTRA:          -3.358
REMARK INTER:                  -3.358
REMARK INTRA:                   0.000
REMARK UNBOUND:                 0.000
REMARK SMILES [NH3+]CC(=O)[O-]
REMARK SMILES IDX 2 1 1 2 3 6 4 7 5 8
REMARK H PARENT 1 3 1 4 1 5
REMARK Flexibility Score: inf
ROOT
ATOM      1  C   UNL     1     165.612 162.675 167.686  1.00  0.00     0.312 C 
ENDROOT
BRANCH   1   2
ATOM      2  N   UNL     1     166.495 163.210 166.652  1.00  0.00    -0.353 N 
ATOM      3  H   UNL     1     165.934 163.706 165.922  1.00  0.00     0.344 HD
ATOM      4  H   UNL     1     167.044 162.435 166.212  1.00  0.00     0.344 HD
ATOM      5  H   UNL     1     167.160 163.890 167.088  1.00  0.00     0.344 HD
ENDBRANCH   1   2
BRANCH   1   6
ATOM      6  C   UNL     1     164.325 163.440 167.729  1.00  0.00     0.096 C 
ATOM      7  O   UNL     1     164.323 164.656 168.054  1.00  0.00    -0.544 OA
ATOM      8  O   UNL     1     163.137 162.823 167.361  1.00  0.00    -0.544 OA
ENDBRANCH   1   6
TORSDOF 2
ENDMDL
MODEL 7
REMARK VINA RESULT:    -3.051      2.556      2.714
REMARK INTER + INTRA:          -3.318
REMARK INTER:                  -3.318
REMARK INTRA:                   0.000
REMARK UNBOUND:                 0.000
REMARK SMILES [NH3+]CC(=O)[O-]
REMARK SMILES IDX 2 1 1 2 3 6 4 7 5 8
REMARK H PARENT 1 3 1 4 1 5
REMARK Flexibility Score: inf
ROOT
ATOM      1  C   UNL     1     148.474 166.379 150.889  1.00  0.00     0.312 C 
ENDROOT
BRANCH   1   2
ATOM      2  N   UNL     1     147.386 165.944 150.016  1.00  0.00    -0.353 N 
ATOM      3  H   UNL     1     147.154 164.943 150.204  1.00  0.00     0.344 HD
ATOM      4  H   UNL     1     147.660 166.063 149.013  1.00  0.00     0.344 HD
ATOM      5  H   UNL     1     146.540 166.530 150.206  1.00  0.00     0.344 HD
ENDBRANCH   1   2
BRANCH   1   6
ATOM      6  C   UNL     1     147.979 166.590 152.286  1.00  0.00     0.096 C 
ATOM      7  O   UNL     1     147.843 167.757 152.740  1.00  0.00    -0.544 OA
ATOM      8  O   UNL     1     147.620 165.500 153.069  1.00  0.00    -0.544 OA
ENDBRANCH   1   6
TORSDOF 2
ENDMDL
MODEL 8
REMARK VINA RESULT:    -3.049     20.303     20.727
REMARK INTER + INTRA:          -3.316
REMARK INTER:                  -3.316
REMARK INTRA:                   0.000
REMARK UNBOUND:                 0.000
REMARK SMILES [NH3+]CC(=O)[O-]
REMARK SMILES IDX 2 1 1 2 3 6 4 7 5 8
REMARK H PARENT 1 3 1 4 1 5
REMARK Flexibility Score: inf
ROOT
ATOM      1  C   UNL     1     147.630 149.465 165.104  1.00  0.00     0.312 C 
ENDROOT
BRANCH   1   2
ATOM      2  N   UNL     1     147.923 150.807 165.604  1.00  0.00    -0.353 N 
ATOM      3  H   UNL     1     148.435 151.356 164.876  1.00  0.00     0.344 HD
ATOM      4  H   UNL     1     148.499 150.748 166.475  1.00  0.00     0.344 HD
ATOM      5  H   UNL     1     147.024 151.293 165.825  1.00  0.00     0.344 HD
ENDBRANCH   1   2
BRANCH   1   6
ATOM      6  C   UNL     1     148.042 149.332 163.671  1.00  0.00     0.096 C 
ATOM      7  O   UNL     1     147.406 149.942 162.772  1.00  0.00    -0.544 OA
ATOM      8  O   UNL     1     149.158 148.577 163.335  1.00  0.00    -0.544 OA
ENDBRANCH   1   6
TORSDOF 2
ENDMDL
MODEL 9
REMARK VINA RESULT:    -2.928     19.976     20.112
REMARK INTER + INTRA:          -3.184
REMARK INTER:                  -3.184
REMARK INTRA:                   0.000
REMARK UNBOUND:                 0.000
REMARK SMILES [NH3+]CC(=O)[O-]
REMARK SMILES IDX 2 1 1 2 3 6 4 7 5 8
REMARK H PARENT 1 3 1 4 1 5
REMARK Flexibility Score: inf
ROOT
ATOM      1  C   UNL     1     166.476 168.017 162.830  1.00  0.00     0.312 C 
ENDROOT
BRANCH   1   2
ATOM      2  N   UNL     1     165.580 167.814 163.967  1.00  0.00    -0.353 N 
ATOM      3  H   UNL     1     164.808 168.519 163.946  1.00  0.00     0.344 HD
ATOM      4  H   UNL     1     166.112 167.897 164.864  1.00  0.00     0.344 HD
ATOM      5  H   UNL     1     165.165 166.856 163.909  1.00  0.00     0.344 HD
ENDBRANCH   1   2
BRANCH   1   6
ATOM      6  C   UNL     1     166.242 166.975 161.781  1.00  0.00     0.096 C 
ATOM      7  O   UNL     1     165.337 167.135 160.921  1.00  0.00    -0.544 OA
ATOM      8  O   UNL     1     167.058 165.853 161.722  1.00  0.00    -0.544 OA
ENDBRANCH   1   6
TORSDOF 2
ENDMDL
