MODEL 1
REMARK VINA RESULT:    -2.998      0.000      0.000
REMARK INTER + INTRA:          -3.363
REMARK INTER:                  -3.348
REMARK INTRA:                  -0.015
REMARK UNBOUND:                -0.015
REMARK SMILES CCCC(=O)[O-]
REMARK SMILES IDX 3 1 4 2 5 3 6 4 2 5 1 6
REMARK H PARENT
REMARK Flexibility Score: inf
ROOT
ATOM      1  C   UNL     1      -5.566 -35.214  -8.330  1.00  0.00     0.052 C 
ENDROOT
BRANCH   1   2
ATOM      2  C   UNL     1      -6.278 -34.418  -9.380  1.00  0.00     0.041 C 
ATOM      3  O   UNL     1      -6.896 -33.366  -9.067  1.00  0.00    -0.550 OA
ATOM      4  O   UNL     1      -6.228 -34.817 -10.710  1.00  0.00    -0.550 OA
ENDBRANCH   1   2
BRANCH   1   5
ATOM      5  C   UNL     1      -4.370 -35.979  -8.908  1.00  0.00     0.003 C 
ATOM      6  C   UNL     1      -3.069 -35.674  -8.165  1.00  0.00     0.004 C 
ENDBRANCH   1   5
TORSDOF 2
ENDMDL
MODEL 2
REMARK VINA RESULT:    -2.979      1.267      1.632
REMARK INTER + INTRA:          -3.342
REMARK INTER:                  -3.329
REMARK INTRA:                  -0.013
REMARK UNBOUND:                -0.015
REMARK SMILES CCCC(=O)[O-]
REMARK SMILES IDX 3 1 4 2 5 3 6 4 2 5 1 6
REMARK H PARENT
REMARK Flexibility Score: inf
ROOT
ATOM      1  C   UNL     1      -5.178 -36.468  -9.394  1.00  0.00     0.052 C 
ENDROOT
BRANCH   1   2
ATOM      2  C   UNL     1      -6.336 -35.911 -10.163  1.00  0.00     0.041 C 
ATOM      3  O   UNL     1      -6.290 -34.737 -10.616  1.00  0.00    -0.550 OA
ATOM      4  O   UNL     1      -7.452 -36.701 -10.411  1.00  0.00    -0.550 OA
ENDBRANCH   1   2
BRANCH   1   5
ATOM      5  C   UNL     1      -4.493 -35.395  -8.538  1.00  0.00     0.003 C 
ATOM      6  C   UNL     1      -3.052 -35.763  -8.186  1.00  0.00     0.004 C 
ENDBRANCH   1   5
TORSDOF 2
ENDMDL
MODEL 3
REMARK VINA RESULT:    -2.974      1.228      1.758
REMARK INTER + INTRA:          -3.337
REMARK INTER:                  -3.324
REMARK INTRA:                  -0.012
REMARK UNBOUND:                -0.015
REMARK SMILES CCCC(=O)[O-]
REMARK SMILES IDX 3 1 4 2 5 3 6 4 2 5 1 6
REMARK H PARENT
REMARK Flexibility Score: inf
ROOT
ATOM      1  C   UNL     1      -5.224 -36.445  -9.372  1.00  0.00     0.052 C 
ENDROOT
BRANCH   1   2
ATOM      2  C   UNL     1      -6.372 -35.869 -10.145  1.00  0.00     0.041 C 
ATOM      3  O   UNL     1      -7.367 -36.587 -10.428  1.00  0.00    -0.550 OA
ATOM      4  O   UNL     1      -6.359 -34.531 -10.520  1.00  0.00    -0.550 OA
ENDBRANCH   1   2
BRANCH   1   5
ATOM      5  C   UNL     1      -4.522 -35.382  -8.519  1.00  0.00     0.003 C 
ATOM      6  C   UNL     1      -3.071 -35.749  -8.210  1.00  0.00     0.004 C 
ENDBRANCH   1   5
TORSDOF 2
ENDMDL
MODEL 4
REMARK VINA RESULT:    -2.938      2.203      3.209
REMARK INTER + INTRA:          -3.296
REMARK INTER:                  -3.255
REMARK INTRA:                  -0.041
REMARK UNBOUND:                -0.015
REMARK SMILES CCCC(=O)[O-]
REMARK SMILES IDX 3 1 4 2 5 3 6 4 2 5 1 6
REMARK H PARENT
REMARK Flexibility Score: inf
ROOT
ATOM      1  C   UNL     1      -5.629 -34.972  -8.259  1.00  0.00     0.052 C 
ENDROOT
BRANCH   1   2
ATOM      2  C   UNL     1      -4.554 -35.866  -8.797  1.00  0.00     0.041 C 
ATOM      3  O   UNL     1      -3.343 -35.546  -8.671  1.00  0.00    -0.550 OA
ATOM      4  O   UNL     1      -4.888 -37.070  -9.405  1.00  0.00    -0.550 OA
ENDBRANCH   1   2
BRANCH   1   5
ATOM      5  C   UNL     1      -6.114 -33.967  -9.311  1.00  0.00     0.003 C 
ATOM      6  C   UNL     1      -7.275 -34.510 -10.143  1.00  0.00     0.004 C 
ENDBRANCH   1   5
TORSDOF 2
ENDMDL
MODEL 5
REMARK VINA RESULT:    -2.906      2.518      2.850
REMARK INTER + INTRA:          -3.261
REMARK INTER:                  -3.202
REMARK INTRA:                  -0.058
REMARK UNBOUND:                -0.015
REMARK SMILES CCCC(=O)[O-]
REMARK SMILES IDX 3 1 4 2 5 3 6 4 2 5 1 6
REMARK H PARENT
REMARK Flexibility Score: inf
ROOT
ATOM      1  C   UNL     1      -5.460 -36.046  -9.766  1.00  0.00     0.052 C 
ENDROOT
BRANCH   1   2
ATOM      2  C   UNL     1      -5.741 -37.493  -9.499  1.00  0.00     0.041 C 
ATOM      3  O   UNL     1      -6.706 -37.825  -8.761  1.00  0.00    -0.550 OA
ATOM      4  O   UNL     1      -4.960 -38.476 -10.095  1.00  0.00    -0.550 OA
ENDBRANCH   1   2
BRANCH   1   5
ATOM      5  C   UNL     1      -4.800 -35.363  -8.562  1.00  0.00     0.003 C 
ATOM      6  C   UNL     1      -3.345 -35.791  -8.375  1.00  0.00     0.004 C 
ENDBRANCH   1   5
TORSDOF 2
ENDMDL
MODEL 6
REMARK VINA RESULT:    -2.832      2.387      3.398
REMARK INTER + INTRA:          -3.177
REMARK INTER:                  -3.140
REMARK INTRA:                  -0.037
REMARK UNBOUND:                -0.015
REMARK SMILES CCCC(=O)[O-]
REMARK SMILES IDX 3 1 4 2 5 3 6 4 2 5 1 6
REMARK H PARENT
REMARK Flexibility Score: inf
ROOT
ATOM      1  C   UNL     1      -4.637 -36.275  -9.244  1.00  0.00     0.052 C 
ENDROOT
BRANCH   1   2
ATOM      2  C   UNL     1      -5.468 -37.509  -9.421  1.00  0.00     0.041 C 
ATOM      3  O   UNL     1      -5.029 -38.475 -10.099  1.00  0.00    -0.550 OA
ATOM      4  O   UNL     1      -6.711 -37.606  -8.808  1.00  0.00    -0.550 OA
ENDBRANCH   1   2
BRANCH   1   5
ATOM      5  C   UNL     1      -5.351 -35.226  -8.382  1.00  0.00     0.003 C 
ATOM      6  C   UNL     1      -6.018 -34.137  -9.221  1.00  0.00     0.004 C 
ENDBRANCH   1   5
TORSDOF 2
ENDMDL
MODEL 7
REMARK VINA RESULT:    -2.744      1.819      2.474
REMARK INTER + INTRA:          -3.079
REMARK INTER:                  -3.048
REMARK INTRA:                  -0.032
REMARK UNBOUND:                -0.015
REMARK SMILES CCCC(=O)[O-]
REMARK SMILES IDX 3 1 4 2 5 3 6 4 2 5 1 6
REMARK H PARENT
REMARK Flexibility Score: inf
ROOT
ATOM      1  C   UNL     1      -5.070 -36.332  -9.532  1.00  0.00     0.052 C 
ENDROOT
BRANCH   1   2
ATOM      2  C   UNL     1      -6.039 -35.224  -9.808  1.00  0.00     0.041 C 
ATOM      3  O   UNL     1      -7.056 -35.434 -10.520  1.00  0.00    -0.550 OA
ATOM      4  O   UNL     1      -5.838 -33.968  -9.248  1.00  0.00    -0.550 OA
ENDBRANCH   1   2
BRANCH   1   5
ATOM      5  C   UNL     1      -5.778 -37.684  -9.380  1.00  0.00     0.003 C 
ATOM      6  C   UNL     1      -5.161 -38.768 -10.264  1.00  0.00     0.004 C 
ENDBRANCH   1   5
TORSDOF 2
ENDMDL
MODEL 8
REMARK VINA RESULT:    -2.605      2.972      3.628
REMARK INTER + INTRA:          -2.924
REMARK INTER:                  -2.912
REMARK INTRA:                  -0.012
REMARK UNBOUND:                -0.015
REMARK SMILES CCCC(=O)[O-]
REMARK SMILES IDX 3 1 4 2 5 3 6 4 2 5 1 6
REMARK H PARENT
REMARK Flexibility Score: inf
ROOT
ATOM      1  C   UNL     1      -5.865 -37.970  -9.415  1.00  0.00     0.052 C 
ENDROOT
BRANCH   1   2
ATOM      2  C   UNL     1      -5.264 -36.602  -9.520  1.00  0.00     0.041 C 
ATOM      3  O   UNL     1      -4.182 -36.338  -8.931  1.00  0.00    -0.550 OA
ATOM      4  O   UNL     1      -5.878 -35.628 -10.298  1.00  0.00    -0.550 OA
ENDBRANCH   1   2
BRANCH   1   5
ATOM      5  C   UNL     1      -5.177 -38.968 -10.354  1.00  0.00     0.003 C 
ATOM      6  C   UNL     1      -6.175 -39.726 -11.230  1.00  0.00     0.004 C 
ENDBRANCH   1   5
TORSDOF 2
ENDMDL
MODEL 9
REMARK VINA RESULT:    -2.490      9.728     10.423
REMARK INTER + INTRA:          -2.795
REMARK INTER:                  -2.759
REMARK INTRA:                  -0.036
REMARK UNBOUND:                -0.015
REMARK SMILES CCCC(=O)[O-]
REMARK SMILES IDX 3 1 4 2 5 3 6 4 2 5 1 6
REMARK H PARENT
REMARK Flexibility Score: inf
ROOT
ATOM      1  C   UNL     1      -7.513 -36.942 -18.264  1.00  0.00     0.052 C 
ENDROOT
BRANCH   1   2
ATOM      2  C   UNL     1      -8.774 -36.305 -18.763  1.00  0.00     0.041 C 
ATOM      3  O   UNL     1      -9.300 -36.699 -19.837  1.00  0.00    -0.550 OA
ATOM      4  O   UNL     1      -9.388 -35.301 -18.023  1.00  0.00    -0.550 OA
ENDBRANCH   1   2
BRANCH   1   5
ATOM      5  C   UNL     1      -7.546 -38.467 -18.415  1.00  0.00     0.003 C 
ATOM      6  C   UNL     1      -6.390 -38.993 -19.266  1.00  0.00     0.004 C 
ENDBRANCH   1   5
TORSDOF 2
ENDMDL
