MODEL 1
REMARK VINA RESULT:    -3.758      0.000      0.000
REMARK INTER + INTRA:         -10.110
REMARK INTER:                  -7.054
REMARK INTRA:                  -3.056
REMARK UNBOUND:                -3.056
REMARK SMILES CCCCCCCCC=CCCCCCCCC(=O)[O-]
REMARK SMILES IDX 10 1 9 2 11 3 12 4 13 5 14 6 15 7 16 8 17 9 18 10 19 11
REMARK SMILES IDX 20 12 8 13 7 14 6 15 5 16 4 17 3 18 2 19 1 20
REMARK H PARENT
REMARK Flexibility Score: inf
ROOT
ATOM      1  C   UNL     1     -42.402 -50.371  38.508  1.00  0.00    -0.031 C 
ATOM      2  C   UNL     1     -42.622 -51.223  37.489  1.00  0.00    -0.031 C 
ENDROOT
BRANCH   1   3
ATOM      3  C   UNL     1     -41.704 -49.036  38.389  1.00  0.00     0.027 C 
BRANCH   3   4
ATOM      4  C   UNL     1     -42.704 -47.875  38.462  1.00  0.00     0.004 C 
BRANCH   4   5
ATOM      5  C   UNL     1     -44.147 -48.369  38.668  1.00  0.00     0.000 C 
BRANCH   5   6
ATOM      6  C   UNL     1     -45.113 -47.828  37.602  1.00  0.00     0.000 C 
BRANCH   6   7
ATOM      7  C   UNL     1     -45.930 -48.940  36.927  1.00  0.00     0.000 C 
BRANCH   7   8
ATOM      8  C   UNL     1     -46.435 -49.954  37.960  1.00  0.00     0.006 C 
BRANCH   8   9
ATOM      9  C   UNL     1     -46.340 -51.384  37.418  1.00  0.00     0.053 C 
BRANCH   9  10
ATOM     10  C   UNL     1     -47.219 -52.302  38.208  1.00  0.00     0.041 C 
ATOM     11  O   UNL     1     -47.172 -52.297  39.467  1.00  0.00    -0.550 OA
ATOM     12  O   UNL     1     -48.061 -53.194  37.554  1.00  0.00    -0.550 OA
ENDBRANCH   9  10
ENDBRANCH   8   9
ENDBRANCH   7   8
ENDBRANCH   6   7
ENDBRANCH   5   6
ENDBRANCH   4   5
ENDBRANCH   3   4
ENDBRANCH   1   3
BRANCH   2  13
ATOM     13  C   UNL     1     -42.157 -51.008  36.072  1.00  0.00     0.027 C 
BRANCH  13  14
ATOM     14  C   UNL     1     -43.345 -50.749  35.135  1.00  0.00     0.004 C 
BRANCH  14  15
ATOM     15  C   UNL     1     -43.102 -49.572  34.172  1.00  0.00     0.000 C 
BRANCH  15  16
ATOM     16  C   UNL     1     -42.748 -48.237  34.853  1.00  0.00     0.000 C 
BRANCH  16  17
ATOM     17  C   UNL     1     -41.448 -47.616  34.312  1.00  0.00    -0.000 C 
BRANCH  17  18
ATOM     18  C   UNL     1     -40.225 -47.974  35.171  1.00  0.00    -0.000 C 
BRANCH  18  19
ATOM     19  C   UNL     1     -39.060 -48.530  34.337  1.00  0.00    -0.003 C 
ATOM     20  C   UNL     1     -39.262 -50.011  34.031  1.00  0.00     0.004 C 
ENDBRANCH  18  19
ENDBRANCH  17  18
ENDBRANCH  16  17
ENDBRANCH  15  16
ENDBRANCH  14  15
ENDBRANCH  13  14
ENDBRANCH   2  13
TORSDOF 15
ENDMDL
MODEL 2
REMARK VINA RESULT:    -3.696      2.811      6.052
REMARK INTER + INTRA:          -9.994
REMARK INTER:                  -7.193
REMARK INTRA:                  -2.801
REMARK UNBOUND:                -3.056
REMARK SMILES CCCCCCCCC=CCCCCCCCC(=O)[O-]
REMARK SMILES IDX 10 1 9 2 11 3 12 4 13 5 14 6 15 7 16 8 17 9 18 10 19 11
REMARK SMILES IDX 20 12 8 13 7 14 6 15 5 16 4 17 3 18 2 19 1 20
REMARK H PARENT
REMARK Flexibility Score: inf
ROOT
ATOM      1  C   UNL     1     -43.154 -49.284  34.763  1.00  0.00    -0.031 C 
ATOM      2  C   UNL     1     -43.988 -49.479  35.802  1.00  0.00    -0.031 C 
ENDROOT
BRANCH   1   3
ATOM      3  C   UNL     1     -42.464 -47.980  34.435  1.00  0.00     0.027 C 
BRANCH   3   4
ATOM      4  C   UNL     1     -40.941 -48.151  34.381  1.00  0.00     0.004 C 
BRANCH   4   5
ATOM      5  C   UNL     1     -40.263 -47.700  35.687  1.00  0.00     0.000 C 
BRANCH   5   6
ATOM      6  C   UNL     1     -39.937 -48.877  36.620  1.00  0.00     0.000 C 
BRANCH   6   7
ATOM      7  C   UNL     1     -40.865 -48.936  37.843  1.00  0.00     0.000 C 
BRANCH   7   8
ATOM      8  C   UNL     1     -41.184 -47.527  38.357  1.00  0.00     0.006 C 
BRANCH   8   9
ATOM      9  C   UNL     1     -41.846 -47.583  39.738  1.00  0.00     0.053 C 
BRANCH   9  10
ATOM     10  C   UNL     1     -42.740 -46.399  39.938  1.00  0.00     0.041 C 
ATOM     11  O   UNL     1     -43.987 -46.520  39.814  1.00  0.00    -0.550 OA
ATOM     12  O   UNL     1     -42.193 -45.154  40.221  1.00  0.00    -0.550 OA
ENDBRANCH   9  10
ENDBRANCH   8   9
ENDBRANCH   7   8
ENDBRANCH   6   7
ENDBRANCH   5   6
ENDBRANCH   4   5
ENDBRANCH   3   4
ENDBRANCH   1   3
BRANCH   2  13
ATOM     13  C   UNL     1     -44.413 -48.411  36.775  1.00  0.00     0.027 C 
BRANCH  13  14
ATOM     14  C   UNL     1     -45.842 -48.661  37.280  1.00  0.00     0.004 C 
BRANCH  14  15
ATOM     15  C   UNL     1     -46.436 -49.985  36.764  1.00  0.00     0.000 C 
BRANCH  15  16
ATOM     16  C   UNL     1     -46.712 -51.041  37.849  1.00  0.00     0.000 C 
BRANCH  16  17
ATOM     17  C   UNL     1     -46.651 -50.464  39.275  1.00  0.00    -0.000 C 
BRANCH  17  18
ATOM     18  C   UNL     1     -45.614 -51.179  40.155  1.00  0.00    -0.000 C 
BRANCH  18  19
ATOM     19  C   UNL     1     -44.248 -50.476  40.149  1.00  0.00    -0.003 C 
ATOM     20  C   UNL     1     -43.273 -51.177  39.209  1.00  0.00     0.004 C 
ENDBRANCH  18  19
ENDBRANCH  17  18
ENDBRANCH  16  17
ENDBRANCH  15  16
ENDBRANCH  14  15
ENDBRANCH  13  14
ENDBRANCH   2  13
TORSDOF 15
ENDMDL
MODEL 3
REMARK VINA RESULT:    -3.658      1.921      3.934
REMARK INTER + INTRA:          -9.923
REMARK INTER:                  -7.907
REMARK INTRA:                  -2.016
REMARK UNBOUND:                -3.056
REMARK SMILES CCCCCCCCC=CCCCCCCCC(=O)[O-]
REMARK SMILES IDX 10 1 9 2 11 3 12 4 13 5 14 6 15 7 16 8 17 9 18 10 19 11
REMARK SMILES IDX 20 12 8 13 7 14 6 15 5 16 4 17 3 18 2 19 1 20
REMARK H PARENT
REMARK Flexibility Score: inf
ROOT
ATOM      1  C   UNL     1     -45.289 -50.430  39.796  1.00  0.00    -0.031 C 
ATOM      2  C   UNL     1     -44.129 -49.746  39.790  1.00  0.00    -0.031 C 
ENDROOT
BRANCH   1   3
ATOM      3  C   UNL     1     -46.543 -50.019  39.058  1.00  0.00     0.027 C 
BRANCH   3   4
ATOM      4  C   UNL     1     -46.601 -50.651  37.662  1.00  0.00     0.004 C 
BRANCH   4   5
ATOM      5  C   UNL     1     -46.220 -52.142  37.687  1.00  0.00     0.000 C 
BRANCH   5   6
ATOM      6  C   UNL     1     -47.437 -53.065  37.509  1.00  0.00     0.000 C 
BRANCH   6   7
ATOM      7  C   UNL     1     -47.531 -54.136  38.607  1.00  0.00     0.000 C 
BRANCH   7   8
ATOM      8  C   UNL     1     -47.186 -53.546  39.979  1.00  0.00     0.006 C 
BRANCH   8   9
ATOM      9  C   UNL     1     -48.428 -53.476  40.874  1.00  0.00     0.053 C 
BRANCH   9  10
ATOM     10  C   UNL     1     -48.304 -52.353  41.856  1.00  0.00     0.041 C 
ATOM     11  O   UNL     1     -48.667 -51.190  41.536  1.00  0.00    -0.550 OA
ATOM     12  O   UNL     1     -47.748 -52.581  43.108  1.00  0.00    -0.550 OA
ENDBRANCH   9  10
ENDBRANCH   8   9
ENDBRANCH   7   8
ENDBRANCH   6   7
ENDBRANCH   5   6
ENDBRANCH   4   5
ENDBRANCH   3   4
ENDBRANCH   1   3
BRANCH   2  13
ATOM     13  C   UNL     1     -43.909 -48.430  39.091  1.00  0.00     0.027 C 
BRANCH  13  14
ATOM     14  C   UNL     1     -43.137 -48.624  37.778  1.00  0.00     0.004 C 
BRANCH  14  15
ATOM     15  C   UNL     1     -43.983 -48.301  36.533  1.00  0.00     0.000 C 
BRANCH  15  16
ATOM     16  C   UNL     1     -44.050 -49.425  35.483  1.00  0.00     0.000 C 
BRANCH  16  17
ATOM     17  C   UNL     1     -42.939 -49.320  34.423  1.00  0.00    -0.000 C 
BRANCH  17  18
ATOM     18  C   UNL     1     -42.361 -47.900  34.316  1.00  0.00    -0.000 C 
BRANCH  18  19
ATOM     19  C   UNL     1     -40.825 -47.885  34.325  1.00  0.00    -0.003 C 
ATOM     20  C   UNL     1     -40.286 -47.746  35.746  1.00  0.00     0.004 C 
ENDBRANCH  18  19
ENDBRANCH  17  18
ENDBRANCH  16  17
ENDBRANCH  15  16
ENDBRANCH  14  15
ENDBRANCH  13  14
ENDBRANCH   2  13
TORSDOF 15
ENDMDL
MODEL 4
REMARK VINA RESULT:    -3.609      4.100      5.926
REMARK INTER + INTRA:          -9.830
REMARK INTER:                  -7.445
REMARK INTRA:                  -2.385
REMARK UNBOUND:                -3.056
REMARK SMILES CCCCCCCCC=CCCCCCCCC(=O)[O-]
REMARK SMILES IDX 10 1 9 2 11 3 12 4 13 5 14 6 15 7 16 8 17 9 18 10 19 11
REMARK SMILES IDX 20 12 8 13 7 14 6 15 5 16 4 17 3 18 2 19 1 20
REMARK H PARENT
REMARK Flexibility Score: inf
ROOT
ATOM      1  C   UNL     1     -44.426 -51.628  39.582  1.00  0.00    -0.031 C 
ATOM      2  C   UNL     1     -45.097 -52.134  38.530  1.00  0.00    -0.031 C 
ENDROOT
BRANCH   1   3
ATOM      3  C   UNL     1     -45.011 -50.699  40.621  1.00  0.00     0.027 C 
BRANCH   3   4
ATOM      4  C   UNL     1     -44.419 -49.289  40.505  1.00  0.00     0.004 C 
BRANCH   4   5
ATOM      5  C   UNL     1     -43.054 -49.292  39.794  1.00  0.00     0.000 C 
BRANCH   5   6
ATOM      6  C   UNL     1     -42.430 -47.890  39.709  1.00  0.00     0.000 C 
BRANCH   6   7
ATOM      7  C   UNL     1     -43.484 -46.772  39.740  1.00  0.00     0.000 C 
BRANCH   7   8
ATOM      8  C   UNL     1     -42.880 -45.464  40.264  1.00  0.00     0.006 C 
BRANCH   8   9
ATOM      9  C   UNL     1     -41.364 -45.592  40.443  1.00  0.00     0.053 C 
BRANCH   9  10
ATOM     10  C   UNL     1     -40.809 -44.366  41.098  1.00  0.00     0.041 C 
ATOM     11  O   UNL     1     -41.223 -44.012  42.234  1.00  0.00    -0.550 OA
ATOM     12  O   UNL     1     -39.865 -43.590  40.436  1.00  0.00    -0.550 OA
ENDBRANCH   9  10
ENDBRANCH   8   9
ENDBRANCH   7   8
ENDBRANCH   6   7
ENDBRANCH   5   6
ENDBRANCH   4   5
ENDBRANCH   3   4
ENDBRANCH   1   3
BRANCH   2  13
ATOM     13  C   UNL     1     -46.528 -51.810  38.187  1.00  0.00     0.027 C 
BRANCH  13  14
ATOM     14  C   UNL     1     -46.610 -50.943  36.922  1.00  0.00     0.004 C 
BRANCH  14  15
ATOM     15  C   UNL     1     -46.831 -49.452  37.232  1.00  0.00     0.000 C 
BRANCH  15  16
ATOM     16  C   UNL     1     -45.573 -48.571  37.122  1.00  0.00     0.000 C 
BRANCH  16  17
ATOM     17  C   UNL     1     -44.475 -49.202  36.248  1.00  0.00    -0.000 C 
BRANCH  17  18
ATOM     18  C   UNL     1     -43.228 -48.311  36.137  1.00  0.00    -0.000 C 
BRANCH  18  19
ATOM     19  C   UNL     1     -42.676 -48.244  34.705  1.00  0.00    -0.003 C 
ATOM     20  C   UNL     1     -43.136 -49.444  33.882  1.00  0.00     0.004 C 
ENDBRANCH  18  19
ENDBRANCH  17  18
ENDBRANCH  16  17
ENDBRANCH  15  16
ENDBRANCH  14  15
ENDBRANCH  13  14
ENDBRANCH   2  13
TORSDOF 15
ENDMDL
MODEL 5
REMARK VINA RESULT:    -3.566      2.713      4.918
REMARK INTER + INTRA:          -9.750
REMARK INTER:                  -7.458
REMARK INTRA:                  -2.292
REMARK UNBOUND:                -3.056
REMARK SMILES CCCCCCCCC=CCCCCCCCC(=O)[O-]
REMARK SMILES IDX 10 1 9 2 11 3 12 4 13 5 14 6 15 7 16 8 17 9 18 10 19 11
REMARK SMILES IDX 20 12 8 13 7 14 6 15 5 16 4 17 3 18 2 19 1 20
REMARK H PARENT
REMARK Flexibility Score: inf
ROOT
ATOM      1  C   UNL     1     -40.306 -48.634  37.134  1.00  0.00    -0.031 C 
ATOM      2  C   UNL     1     -40.925 -48.408  38.308  1.00  0.00    -0.031 C 
ENDROOT
BRANCH   1   3
ATOM      3  C   UNL     1     -40.217 -47.645  35.994  1.00  0.00     0.027 C 
BRANCH   3   4
ATOM      4  C   UNL     1     -40.750 -48.249  34.689  1.00  0.00     0.004 C 
BRANCH   4   5
ATOM      5  C   UNL     1     -42.207 -47.836  34.413  1.00  0.00     0.000 C 
BRANCH   5   6
ATOM      6  C   UNL     1     -43.210 -48.950  34.749  1.00  0.00     0.000 C 
BRANCH   6   7
ATOM      7  C   UNL     1     -43.989 -48.672  36.044  1.00  0.00     0.000 C 
BRANCH   7   8
ATOM      8  C   UNL     1     -44.126 -49.946  36.886  1.00  0.00     0.006 C 
BRANCH   8   9
ATOM      9  C   UNL     1     -45.217 -49.787  37.949  1.00  0.00     0.053 C 
BRANCH   9  10
ATOM     10  C   UNL     1     -46.573 -49.957  37.339  1.00  0.00     0.041 C 
ATOM     11  O   UNL     1     -47.259 -48.947  37.031  1.00  0.00    -0.550 OA
ATOM     12  O   UNL     1     -47.096 -51.230  37.148  1.00  0.00    -0.550 OA
ENDBRANCH   9  10
ENDBRANCH   8   9
ENDBRANCH   7   8
ENDBRANCH   6   7
ENDBRANCH   5   6
ENDBRANCH   4   5
ENDBRANCH   3   4
ENDBRANCH   1   3
BRANCH   2  13
ATOM     13  C   UNL     1     -41.678 -47.150  38.655  1.00  0.00     0.027 C 
BRANCH  13  14
ATOM     14  C   UNL     1     -42.987 -47.475  39.388  1.00  0.00     0.004 C 
BRANCH  14  15
ATOM     15  C   UNL     1     -43.392 -46.388  40.400  1.00  0.00     0.000 C 
BRANCH  15  16
ATOM     16  C   UNL     1     -42.684 -45.033  40.218  1.00  0.00     0.000 C 
BRANCH  16  17
ATOM     17  C   UNL     1     -41.798 -44.655  41.418  1.00  0.00    -0.000 C 
BRANCH  17  18
ATOM     18  C   UNL     1     -40.306 -44.595  41.051  1.00  0.00    -0.000 C 
BRANCH  18  19
ATOM     19  C   UNL     1     -39.580 -45.923  41.314  1.00  0.00    -0.003 C 
ATOM     20  C   UNL     1     -38.414 -46.112  40.348  1.00  0.00     0.004 C 
ENDBRANCH  18  19
ENDBRANCH  17  18
ENDBRANCH  16  17
ENDBRANCH  15  16
ENDBRANCH  14  15
ENDBRANCH  13  14
ENDBRANCH   2  13
TORSDOF 15
ENDMDL
MODEL 6
REMARK VINA RESULT:    -3.560      3.519      6.917
REMARK INTER + INTRA:          -9.738
REMARK INTER:                  -7.537
REMARK INTRA:                  -2.201
REMARK UNBOUND:                -3.056
REMARK SMILES CCCCCCCCC=CCCCCCCCC(=O)[O-]
REMARK SMILES IDX 10 1 9 2 11 3 12 4 13 5 14 6 15 7 16 8 17 9 18 10 19 11
REMARK SMILES IDX 20 12 8 13 7 14 6 15 5 16 4 17 3 18 2 19 1 20
REMARK H PARENT
REMARK Flexibility Score: inf
ROOT
ATOM      1  C   UNL     1     -43.848 -49.486  40.585  1.00  0.00    -0.031 C 
ATOM      2  C   UNL     1     -44.744 -50.491  40.564  1.00  0.00    -0.031 C 
ENDROOT
BRANCH   1   3
ATOM      3  C   UNL     1     -43.192 -48.881  39.365  1.00  0.00     0.027 C 
BRANCH   3   4
ATOM      4  C   UNL     1     -44.058 -47.769  38.760  1.00  0.00     0.004 C 
BRANCH   4   5
ATOM      5  C   UNL     1     -44.290 -47.973  37.253  1.00  0.00     0.000 C 
BRANCH   5   6
ATOM      6  C   UNL     1     -43.287 -48.956  36.628  1.00  0.00     0.000 C 
BRANCH   6   7
ATOM      7  C   UNL     1     -43.465 -49.095  35.108  1.00  0.00     0.000 C 
BRANCH   7   8
ATOM      8  C   UNL     1     -42.504 -48.167  34.357  1.00  0.00     0.006 C 
BRANCH   8   9
ATOM      9  C   UNL     1     -41.143 -48.102  35.057  1.00  0.00     0.053 C 
BRANCH   9  10
ATOM     10  C   UNL     1     -40.115 -48.858  34.274  1.00  0.00     0.041 C 
ATOM     11  O   UNL     1     -39.040 -48.296  33.933  1.00  0.00    -0.550 OA
ATOM     12  O   UNL     1     -40.361 -50.169  33.885  1.00  0.00    -0.550 OA
ENDBRANCH   9  10
ENDBRANCH   8   9
ENDBRANCH   7   8
ENDBRANCH   6   7
ENDBRANCH   5   6
ENDBRANCH   4   5
ENDBRANCH   3   4
ENDBRANCH   1   3
BRANCH   2  13
ATOM     13  C   UNL     1     -45.196 -51.214  39.322  1.00  0.00     0.027 C 
BRANCH  13  14
ATOM     14  C   UNL     1     -46.484 -50.595  38.761  1.00  0.00     0.004 C 
BRANCH  14  15
ATOM     15  C   UNL     1     -46.724 -50.952  37.282  1.00  0.00     0.000 C 
BRANCH  15  16
ATOM     16  C   UNL     1     -46.846 -52.458  36.987  1.00  0.00     0.000 C 
BRANCH  16  17
ATOM     17  C   UNL     1     -47.867 -53.165  37.897  1.00  0.00    -0.000 C 
BRANCH  17  18
ATOM     18  C   UNL     1     -47.263 -54.372  38.631  1.00  0.00    -0.000 C 
BRANCH  18  19
ATOM     19  C   UNL     1     -47.328 -54.227  40.159  1.00  0.00    -0.003 C 
ATOM     20  C   UNL     1     -48.405 -53.227  40.571  1.00  0.00     0.004 C 
ENDBRANCH  18  19
ENDBRANCH  17  18
ENDBRANCH  16  17
ENDBRANCH  15  16
ENDBRANCH  14  15
ENDBRANCH  13  14
ENDBRANCH   2  13
TORSDOF 15
ENDMDL
MODEL 7
REMARK VINA RESULT:    -3.534      1.435      2.874
REMARK INTER + INTRA:          -9.689
REMARK INTER:                  -6.906
REMARK INTRA:                  -2.783
REMARK UNBOUND:                -3.056
REMARK SMILES CCCCCCCCC=CCCCCCCCC(=O)[O-]
REMARK SMILES IDX 10 1 9 2 11 3 12 4 13 5 14 6 15 7 16 8 17 9 18 10 19 11
REMARK SMILES IDX 20 12 8 13 7 14 6 15 5 16 4 17 3 18 2 19 1 20
REMARK H PARENT
REMARK Flexibility Score: inf
ROOT
ATOM      1  C   UNL     1     -42.697 -49.517  38.114  1.00  0.00    -0.031 C 
ATOM      2  C   UNL     1     -41.515 -49.236  37.535  1.00  0.00    -0.031 C 
ENDROOT
BRANCH   1   3
ATOM      3  C   UNL     1     -43.831 -48.533  38.295  1.00  0.00     0.027 C 
BRANCH   3   4
ATOM      4  C   UNL     1     -44.641 -48.371  37.004  1.00  0.00     0.004 C 
BRANCH   4   5
ATOM      5  C   UNL     1     -45.349 -49.676  36.598  1.00  0.00     0.000 C 
BRANCH   5   6
ATOM      6  C   UNL     1     -46.630 -49.930  37.409  1.00  0.00     0.000 C 
BRANCH   6   7
ATOM      7  C   UNL     1     -46.820 -51.413  37.762  1.00  0.00     0.000 C 
BRANCH   7   8
ATOM      8  C   UNL     1     -45.712 -51.899  38.704  1.00  0.00     0.006 C 
BRANCH   8   9
ATOM      9  C   UNL     1     -45.790 -51.187  40.058  1.00  0.00     0.053 C 
BRANCH   9  10
ATOM     10  C   UNL     1     -46.992 -51.645  40.822  1.00  0.00     0.041 C 
ATOM     11  O   UNL     1     -47.111 -52.857  41.147  1.00  0.00    -0.550 OA
ATOM     12  O   UNL     1     -48.001 -50.744  41.140  1.00  0.00    -0.550 OA
ENDBRANCH   9  10
ENDBRANCH   8   9
ENDBRANCH   7   8
ENDBRANCH   6   7
ENDBRANCH   5   6
ENDBRANCH   4   5
ENDBRANCH   3   4
ENDBRANCH   1   3
BRANCH   2  13
ATOM     13  C   UNL     1     -41.108 -47.878  37.024  1.00  0.00     0.027 C 
BRANCH  13  14
ATOM     14  C   UNL     1     -39.970 -47.992  36.000  1.00  0.00     0.004 C 
BRANCH  14  15
ATOM     15  C   UNL     1     -40.479 -48.175  34.558  1.00  0.00     0.000 C 
BRANCH  15  16
ATOM     16  C   UNL     1     -41.897 -47.637  34.296  1.00  0.00     0.000 C 
BRANCH  16  17
ATOM     17  C   UNL     1     -42.900 -48.746  33.930  1.00  0.00    -0.000 C 
BRANCH  17  18
ATOM     18  C   UNL     1     -42.209 -50.081  33.610  1.00  0.00    -0.000 C 
BRANCH  18  19
ATOM     19  C   UNL     1     -42.571 -51.188  34.612  1.00  0.00    -0.003 C 
ATOM     20  C   UNL     1     -41.332 -51.969  35.039  1.00  0.00     0.004 C 
ENDBRANCH  18  19
ENDBRANCH  17  18
ENDBRANCH  16  17
ENDBRANCH  15  16
ENDBRANCH  14  15
ENDBRANCH  13  14
ENDBRANCH   2  13
TORSDOF 15
ENDMDL
MODEL 8
REMARK VINA RESULT:    -3.460      1.361      2.930
REMARK INTER + INTRA:          -9.551
REMARK INTER:                  -6.855
REMARK INTRA:                  -2.696
REMARK UNBOUND:                -3.056
REMARK SMILES CCCCCCCCC=CCCCCCCCC(=O)[O-]
REMARK SMILES IDX 10 1 9 2 11 3 12 4 13 5 14 6 15 7 16 8 17 9 18 10 19 11
REMARK SMILES IDX 20 12 8 13 7 14 6 15 5 16 4 17 3 18 2 19 1 20
REMARK H PARENT
REMARK Flexibility Score: inf
ROOT
ATOM      1  C   UNL     1     -42.021 -49.113  37.698  1.00  0.00    -0.031 C 
ATOM      2  C   UNL     1     -40.943 -48.862  36.932  1.00  0.00    -0.031 C 
ENDROOT
BRANCH   1   3
ATOM      3  C   UNL     1     -43.273 -48.267  37.742  1.00  0.00     0.027 C 
BRANCH   3   4
ATOM      4  C   UNL     1     -44.395 -48.888  36.900  1.00  0.00     0.004 C 
BRANCH   4   5
ATOM      5  C   UNL     1     -45.770 -48.285  37.236  1.00  0.00     0.000 C 
BRANCH   5   6
ATOM      6  C   UNL     1     -46.880 -49.346  37.302  1.00  0.00     0.000 C 
BRANCH   6   7
ATOM      7  C   UNL     1     -46.392 -50.674  37.902  1.00  0.00     0.000 C 
BRANCH   7   8
ATOM      8  C   UNL     1     -46.856 -51.863  37.053  1.00  0.00     0.006 C 
BRANCH   8   9
ATOM      9  C   UNL     1     -47.627 -52.877  37.903  1.00  0.00     0.053 C 
BRANCH   9  10
ATOM     10  C   UNL     1     -46.683 -53.827  38.570  1.00  0.00     0.041 C 
ATOM     11  O   UNL     1     -46.658 -53.917  39.826  1.00  0.00    -0.550 OA
ATOM     12  O   UNL     1     -45.802 -54.584  37.807  1.00  0.00    -0.550 OA
ENDBRANCH   9  10
ENDBRANCH   8   9
ENDBRANCH   7   8
ENDBRANCH   6   7
ENDBRANCH   5   6
ENDBRANCH   4   5
ENDBRANCH   3   4
ENDBRANCH   1   3
BRANCH   2  13
ATOM     13  C   UNL     1     -40.788 -47.663  36.033  1.00  0.00     0.027 C 
BRANCH  13  14
ATOM     14  C   UNL     1     -40.896 -48.064  34.554  1.00  0.00     0.004 C 
BRANCH  14  15
ATOM     15  C   UNL     1     -42.352 -48.142  34.060  1.00  0.00     0.000 C 
BRANCH  15  16
ATOM     16  C   UNL     1     -42.841 -49.556  33.697  1.00  0.00     0.000 C 
BRANCH  16  17
ATOM     17  C   UNL     1     -41.696 -50.581  33.609  1.00  0.00    -0.000 C 
BRANCH  17  18
ATOM     18  C   UNL     1     -41.816 -51.689  34.667  1.00  0.00    -0.000 C 
BRANCH  18  19
ATOM     19  C   UNL     1     -43.204 -51.732  35.324  1.00  0.00    -0.003 C 
ATOM     20  C   UNL     1     -43.157 -52.466  36.661  1.00  0.00     0.004 C 
ENDBRANCH  18  19
ENDBRANCH  17  18
ENDBRANCH  16  17
ENDBRANCH  15  16
ENDBRANCH  14  15
ENDBRANCH  13  14
ENDBRANCH   2  13
TORSDOF 15
ENDMDL
MODEL 9
REMARK VINA RESULT:    -3.460      1.267      3.809
REMARK INTER + INTRA:          -9.549
REMARK INTER:                  -6.359
REMARK INTRA:                  -3.191
REMARK UNBOUND:                -3.056
REMARK SMILES CCCCCCCCC=CCCCCCCCC(=O)[O-]
REMARK SMILES IDX 10 1 9 2 11 3 12 4 13 5 14 6 15 7 16 8 17 9 18 10 19 11
REMARK SMILES IDX 20 12 8 13 7 14 6 15 5 16 4 17 3 18 2 19 1 20
REMARK H PARENT
REMARK Flexibility Score: inf
ROOT
ATOM      1  C   UNL     1     -40.114 -49.218  36.788  1.00  0.00    -0.031 C 
ATOM      2  C   UNL     1     -40.361 -48.079  36.114  1.00  0.00    -0.031 C 
ENDROOT
BRANCH   1   3
ATOM      3  C   UNL     1     -39.908 -50.575  36.156  1.00  0.00     0.027 C 
BRANCH   3   4
ATOM      4  C   UNL     1     -41.107 -51.497  36.410  1.00  0.00     0.004 C 
BRANCH   4   5
ATOM      5  C   UNL     1     -41.837 -51.147  37.719  1.00  0.00     0.000 C 
BRANCH   5   6
ATOM      6  C   UNL     1     -42.974 -52.130  38.041  1.00  0.00     0.000 C 
BRANCH   6   7
ATOM      7  C   UNL     1     -43.738 -52.581  36.787  1.00  0.00     0.000 C 
BRANCH   7   8
ATOM      8  C   UNL     1     -45.095 -53.189  37.160  1.00  0.00     0.006 C 
BRANCH   8   9
ATOM      9  C   UNL     1     -46.211 -52.145  37.061  1.00  0.00     0.053 C 
BRANCH   9  10
ATOM     10  C   UNL     1     -47.038 -52.142  38.308  1.00  0.00     0.041 C 
ATOM     11  O   UNL     1     -47.977 -52.969  38.447  1.00  0.00    -0.550 OA
ATOM     12  O   UNL     1     -46.799 -51.198  39.299  1.00  0.00    -0.550 OA
ENDBRANCH   9  10
ENDBRANCH   8   9
ENDBRANCH   7   8
ENDBRANCH   6   7
ENDBRANCH   5   6
ENDBRANCH   4   5
ENDBRANCH   3   4
ENDBRANCH   1   3
BRANCH   2  13
ATOM     13  C   UNL     1     -40.528 -47.983  34.620  1.00  0.00     0.027 C 
BRANCH  13  14
ATOM     14  C   UNL     1     -41.996 -47.742  34.242  1.00  0.00     0.004 C 
BRANCH  14  15
ATOM     15  C   UNL     1     -42.768 -49.048  33.976  1.00  0.00     0.000 C 
BRANCH  15  16
ATOM     16  C   UNL     1     -43.776 -49.442  35.071  1.00  0.00     0.000 C 
BRANCH  16  17
ATOM     17  C   UNL     1     -43.874 -48.398  36.198  1.00  0.00    -0.000 C 
BRANCH  17  18
ATOM     18  C   UNL     1     -44.889 -48.796  37.281  1.00  0.00    -0.000 C 
BRANCH  18  19
ATOM     19  C   UNL     1     -44.326 -48.645  38.703  1.00  0.00    -0.003 C 
ATOM     20  C   UNL     1     -43.065 -47.786  38.706  1.00  0.00     0.004 C 
ENDBRANCH  18  19
ENDBRANCH  17  18
ENDBRANCH  16  17
ENDBRANCH  15  16
ENDBRANCH  14  15
ENDBRANCH  13  14
ENDBRANCH   2  13
TORSDOF 15
ENDMDL
