MODEL 1
REMARK VINA RESULT:    -3.101      0.000      0.000
REMARK INTER + INTRA:          -4.231
REMARK INTER:                  -4.007
REMARK INTRA:                  -0.223
REMARK UNBOUND:                -0.223
REMARK SMILES CCCCCCC(=O)[O-]
REMARK SMILES IDX 5 1 6 2 7 3 8 4 9 5 4 6 3 7 2 8 1 9
REMARK H PARENT
REMARK Flexibility Score: inf
ROOT
ATOM      1  C   UNL     1      33.582   6.865 -30.272  1.00  0.00     0.006 C 
ENDROOT
BRANCH   1   2
ATOM      2  C   UNL     1      32.437   7.846 -30.558  1.00  0.00     0.053 C 
BRANCH   2   3
ATOM      3  C   UNL     1      32.813   9.256 -30.222  1.00  0.00     0.041 C 
ATOM      4  O   UNL     1      32.790   9.649 -29.025  1.00  0.00    -0.550 OA
ATOM      5  O   UNL     1      33.155  10.146 -31.232  1.00  0.00    -0.550 OA
ENDBRANCH   2   3
ENDBRANCH   1   2
BRANCH   1   6
ATOM      6  C   UNL     1      34.794   7.107 -31.185  1.00  0.00     0.000 C 
BRANCH   6   7
ATOM      7  C   UNL     1      35.441   5.779 -31.599  1.00  0.00    -0.000 C 
BRANCH   7   8
ATOM      8  C   UNL     1      35.084   5.422 -33.046  1.00  0.00    -0.003 C 
ATOM      9  C   UNL     1      33.945   4.408 -33.099  1.00  0.00     0.004 C 
ENDBRANCH   7   8
ENDBRANCH   6   7
ENDBRANCH   1   6
TORSDOF 5
ENDMDL
MODEL 2
REMARK VINA RESULT:    -3.004      1.935      3.318
REMARK INTER + INTRA:          -4.105
REMARK INTER:                  -3.886
REMARK INTRA:                  -0.219
REMARK UNBOUND:                -0.223
REMARK SMILES CCCCCCC(=O)[O-]
REMARK SMILES IDX 5 1 6 2 7 3 8 4 9 5 4 6 3 7 2 8 1 9
REMARK H PARENT
REMARK Flexibility Score: inf
ROOT
ATOM      1  C   UNL     1      35.005   5.473 -33.010  1.00  0.00     0.006 C 
ENDROOT
BRANCH   1   2
ATOM      2  C   UNL     1      35.650   6.102 -31.767  1.00  0.00     0.053 C 
BRANCH   2   3
ATOM      3  C   UNL     1      34.643   6.819 -30.920  1.00  0.00     0.041 C 
ATOM      4  O   UNL     1      34.256   6.314 -29.833  1.00  0.00    -0.550 OA
ATOM      5  O   UNL     1      34.107   8.027 -31.348  1.00  0.00    -0.550 OA
ENDBRANCH   2   3
ENDBRANCH   1   2
BRANCH   1   6
ATOM      6  C   UNL     1      34.244   4.182 -32.679  1.00  0.00     0.000 C 
BRANCH   6   7
ATOM      7  C   UNL     1      32.745   4.339 -32.967  1.00  0.00    -0.000 C 
BRANCH   7   8
ATOM      8  C   UNL     1      32.163   3.055 -33.569  1.00  0.00    -0.003 C 
ATOM      9  C   UNL     1      33.171   1.911 -33.506  1.00  0.00     0.004 C 
ENDBRANCH   7   8
ENDBRANCH   6   7
ENDBRANCH   1   6
TORSDOF 5
ENDMDL
MODEL 3
REMARK VINA RESULT:    -3.001     15.639     16.751
REMARK INTER + INTRA:          -4.101
REMARK INTER:                  -3.949
REMARK INTRA:                  -0.153
REMARK UNBOUND:                -0.223
REMARK SMILES CCCCCCC(=O)[O-]
REMARK SMILES IDX 5 1 6 2 7 3 8 4 9 5 4 6 3 7 2 8 1 9
REMARK H PARENT
REMARK Flexibility Score: inf
ROOT
ATOM      1  C   UNL     1      23.990  -6.000 -30.499  1.00  0.00     0.006 C 
ENDROOT
BRANCH   1   2
ATOM      2  C   UNL     1      24.268  -4.654 -31.182  1.00  0.00     0.053 C 
BRANCH   2   3
ATOM      3  C   UNL     1      24.243  -4.771 -32.675  1.00  0.00     0.041 C 
ATOM      4  O   UNL     1      25.197  -5.327 -33.282  1.00  0.00    -0.550 OA
ATOM      5  O   UNL     1      23.186  -4.235 -33.399  1.00  0.00    -0.550 OA
ENDBRANCH   2   3
ENDBRANCH   1   2
BRANCH   1   6
ATOM      6  C   UNL     1      24.965  -6.278 -29.346  1.00  0.00     0.000 C 
BRANCH   6   7
ATOM      7  C   UNL     1      24.925  -7.756 -28.938  1.00  0.00    -0.000 C 
BRANCH   7   8
ATOM      8  C   UNL     1      24.644  -7.906 -27.439  1.00  0.00    -0.003 C 
ATOM      9  C   UNL     1      24.031  -6.634 -26.863  1.00  0.00     0.004 C 
ENDBRANCH   7   8
ENDBRANCH   6   7
ENDBRANCH   1   6
TORSDOF 5
ENDMDL
MODEL 4
REMARK VINA RESULT:    -2.975      3.281      4.720
REMARK INTER + INTRA:          -4.068
REMARK INTER:                  -3.713
REMARK INTRA:                  -0.355
REMARK UNBOUND:                -0.223
REMARK SMILES CCCCCCC(=O)[O-]
REMARK SMILES IDX 5 1 6 2 7 3 8 4 9 5 4 6 3 7 2 8 1 9
REMARK H PARENT
REMARK Flexibility Score: inf
ROOT
ATOM      1  C   UNL     1      35.007   5.210 -31.459  1.00  0.00     0.006 C 
ENDROOT
BRANCH   1   2
ATOM      2  C   UNL     1      34.737   4.926 -32.943  1.00  0.00     0.053 C 
BRANCH   2   3
ATOM      3  C   UNL     1      33.494   4.112 -33.138  1.00  0.00     0.041 C 
ATOM      4  O   UNL     1      32.361   4.652 -33.030  1.00  0.00    -0.550 OA
ATOM      5  O   UNL     1      33.586   2.752 -33.403  1.00  0.00    -0.550 OA
ENDBRANCH   2   3
ENDBRANCH   1   2
BRANCH   1   6
ATOM      6  C   UNL     1      35.466   6.656 -31.219  1.00  0.00     0.000 C 
BRANCH   6   7
ATOM      7  C   UNL     1      34.265   7.604 -31.118  1.00  0.00    -0.000 C 
BRANCH   7   8
ATOM      8  C   UNL     1      33.187   7.028 -30.193  1.00  0.00    -0.003 C 
ATOM      9  C   UNL     1      31.788   7.318 -30.728  1.00  0.00     0.004 C 
ENDBRANCH   7   8
ENDBRANCH   6   7
ENDBRANCH   1   6
TORSDOF 5
ENDMDL
MODEL 5
REMARK VINA RESULT:    -2.947      1.505      2.246
REMARK INTER + INTRA:          -4.032
REMARK INTER:                  -3.685
REMARK INTRA:                  -0.346
REMARK UNBOUND:                -0.223
REMARK SMILES CCCCCCC(=O)[O-]
REMARK SMILES IDX 5 1 6 2 7 3 8 4 9 5 4 6 3 7 2 8 1 9
REMARK H PARENT
REMARK Flexibility Score: inf
ROOT
ATOM      1  C   UNL     1      34.736   5.355 -30.845  1.00  0.00     0.006 C 
ENDROOT
BRANCH   1   2
ATOM      2  C   UNL     1      34.329   6.593 -30.035  1.00  0.00     0.053 C 
BRANCH   2   3
ATOM      3  C   UNL     1      33.349   7.448 -30.777  1.00  0.00     0.041 C 
ATOM      4  O   UNL     1      33.684   8.595 -31.176  1.00  0.00    -0.550 OA
ATOM      5  O   UNL     1      32.055   6.994 -30.997  1.00  0.00    -0.550 OA
ENDBRANCH   2   3
ENDBRANCH   1   2
BRANCH   1   6
ATOM      6  C   UNL     1      35.376   5.727 -32.191  1.00  0.00     0.000 C 
BRANCH   6   7
ATOM      7  C   UNL     1      34.635   5.057 -33.355  1.00  0.00    -0.000 C 
BRANCH   7   8
ATOM      8  C   UNL     1      33.400   4.297 -32.855  1.00  0.00    -0.003 C 
ATOM      9  C   UNL     1      33.421   2.845 -33.321  1.00  0.00     0.004 C 
ENDBRANCH   7   8
ENDBRANCH   6   7
ENDBRANCH   1   6
TORSDOF 5
ENDMDL
MODEL 6
REMARK VINA RESULT:    -2.871      4.026      5.390
REMARK INTER + INTRA:          -3.934
REMARK INTER:                  -3.661
REMARK INTRA:                  -0.273
REMARK UNBOUND:                -0.223
REMARK SMILES CCCCCCC(=O)[O-]
REMARK SMILES IDX 5 1 6 2 7 3 8 4 9 5 4 6 3 7 2 8 1 9
REMARK H PARENT
REMARK Flexibility Score: inf
ROOT
ATOM      1  C   UNL     1      34.490   4.777 -32.927  1.00  0.00     0.006 C 
ENDROOT
BRANCH   1   2
ATOM      2  C   UNL     1      33.114   4.107 -33.034  1.00  0.00     0.053 C 
BRANCH   2   3
ATOM      3  C   UNL     1      33.195   2.627 -32.815  1.00  0.00     0.041 C 
ATOM      4  O   UNL     1      33.592   1.872 -33.742  1.00  0.00    -0.550 OA
ATOM      5  O   UNL     1      32.799   2.080 -31.602  1.00  0.00    -0.550 OA
ENDBRANCH   2   3
ENDBRANCH   1   2
BRANCH   1   6
ATOM      6  C   UNL     1      34.878   5.078 -31.472  1.00  0.00     0.000 C 
BRANCH   6   7
ATOM      7  C   UNL     1      35.472   6.487 -31.343  1.00  0.00    -0.000 C 
BRANCH   7   8
ATOM      8  C   UNL     1      34.366   7.542 -31.239  1.00  0.00    -0.003 C 
ATOM      9  C   UNL     1      33.304   7.130 -30.225  1.00  0.00     0.004 C 
ENDBRANCH   7   8
ENDBRANCH   6   7
ENDBRANCH   1   6
TORSDOF 5
ENDMDL
MODEL 7
REMARK VINA RESULT:    -2.843      3.359      4.502
REMARK INTER + INTRA:          -3.898
REMARK INTER:                  -3.479
REMARK INTRA:                  -0.419
REMARK UNBOUND:                -0.223
REMARK SMILES CCCCCCC(=O)[O-]
REMARK SMILES IDX 5 1 6 2 7 3 8 4 9 5 4 6 3 7 2 8 1 9
REMARK H PARENT
REMARK Flexibility Score: inf
ROOT
ATOM      1  C   UNL     1      35.455   5.732 -32.085  1.00  0.00     0.006 C 
ENDROOT
BRANCH   1   2
ATOM      2  C   UNL     1      34.696   5.372 -33.370  1.00  0.00     0.053 C 
BRANCH   2   3
ATOM      3  C   UNL     1      33.593   4.392 -33.110  1.00  0.00     0.041 C 
ATOM      4  O   UNL     1      33.814   3.154 -33.196  1.00  0.00    -0.550 OA
ATOM      5  O   UNL     1      32.316   4.844 -32.809  1.00  0.00    -0.550 OA
ENDBRANCH   2   3
ENDBRANCH   1   2
BRANCH   1   6
ATOM      6  C   UNL     1      34.721   6.797 -31.257  1.00  0.00     0.000 C 
BRANCH   6   7
ATOM      7  C   UNL     1      34.235   6.216 -29.923  1.00  0.00    -0.000 C 
BRANCH   7   8
ATOM      8  C   UNL     1      34.906   4.868 -29.634  1.00  0.00    -0.003 C 
ATOM      9  C   UNL     1      33.868   3.774 -29.401  1.00  0.00     0.004 C 
ENDBRANCH   7   8
ENDBRANCH   6   7
ENDBRANCH   1   6
TORSDOF 5
ENDMDL
MODEL 8
REMARK VINA RESULT:    -2.825      3.122      4.673
REMARK INTER + INTRA:          -3.874
REMARK INTER:                  -3.547
REMARK INTRA:                  -0.328
REMARK UNBOUND:                -0.223
REMARK SMILES CCCCCCC(=O)[O-]
REMARK SMILES IDX 5 1 6 2 7 3 8 4 9 5 4 6 3 7 2 8 1 9
REMARK H PARENT
REMARK Flexibility Score: inf
ROOT
ATOM      1  C   UNL     1      35.258   6.885 -31.106  1.00  0.00     0.006 C 
ENDROOT
BRANCH   1   2
ATOM      2  C   UNL     1      34.935   5.411 -31.388  1.00  0.00     0.053 C 
BRANCH   2   3
ATOM      3  C   UNL     1      34.879   5.124 -32.857  1.00  0.00     0.041 C 
ATOM      4  O   UNL     1      35.758   5.594 -33.628  1.00  0.00    -0.550 OA
ATOM      5  O   UNL     1      33.839   4.366 -33.380  1.00  0.00    -0.550 OA
ENDBRANCH   2   3
ENDBRANCH   1   2
BRANCH   1   6
ATOM      6  C   UNL     1      34.012   7.779 -31.193  1.00  0.00     0.000 C 
BRANCH   6   7
ATOM      7  C   UNL     1      32.811   7.114 -30.508  1.00  0.00    -0.000 C 
BRANCH   7   8
ATOM      8  C   UNL     1      32.709   7.543 -29.040  1.00  0.00    -0.003 C 
ATOM      9  C   UNL     1      32.919   6.357 -28.103  1.00  0.00     0.004 C 
ENDBRANCH   7   8
ENDBRANCH   6   7
ENDBRANCH   1   6
TORSDOF 5
ENDMDL
MODEL 9
REMARK VINA RESULT:    -2.729      2.057      2.449
REMARK INTER + INTRA:          -3.750
REMARK INTER:                  -3.379
REMARK INTRA:                  -0.371
REMARK UNBOUND:                -0.223
REMARK SMILES CCCCCCC(=O)[O-]
REMARK SMILES IDX 5 1 6 2 7 3 8 4 9 5 4 6 3 7 2 8 1 9
REMARK H PARENT
REMARK Flexibility Score: inf
ROOT
ATOM      1  C   UNL     1      34.104   7.699 -31.188  1.00  0.00     0.006 C 
ENDROOT
BRANCH   1   2
ATOM      2  C   UNL     1      32.814   7.866 -30.372  1.00  0.00     0.053 C 
BRANCH   2   3
ATOM      3  C   UNL     1      31.951   6.643 -30.439  1.00  0.00     0.041 C 
ATOM      4  O   UNL     1      31.411   6.308 -31.527  1.00  0.00    -0.550 OA
ATOM      5  O   UNL     1      31.714   5.895 -29.293  1.00  0.00    -0.550 OA
ENDBRANCH   2   3
ENDBRANCH   1   2
BRANCH   1   6
ATOM      6  C   UNL     1      34.849   6.403 -30.837  1.00  0.00     0.000 C 
BRANCH   6   7
ATOM      7  C   UNL     1      35.704   5.926 -32.018  1.00  0.00    -0.000 C 
BRANCH   7   8
ATOM      8  C   UNL     1      34.823   5.410 -33.161  1.00  0.00    -0.003 C 
ATOM      9  C   UNL     1      34.027   4.181 -32.734  1.00  0.00     0.004 C 
ENDBRANCH   7   8
ENDBRANCH   6   7
ENDBRANCH   1   6
TORSDOF 5
ENDMDL
