MODEL 1
REMARK VINA RESULT:    81.916      0.000      0.000
REMARK INTER + INTRA:          93.724
REMARK INTER:                  93.889
REMARK INTRA:                  -0.165
REMARK UNBOUND:                -0.165
REMARK SMILES C=C(C)[C@@H]1CC[C@@]2(C(=O)[O-])CC[C@]3(C)[C@H](CC[C@@H]4[C@]5(C)CC[C@@H](O)C(C)(C)[C@H]5CC[C@@]43C)[C@@H]12
REMARK SMILES IDX 7 1 6 2 33 3 11 4 5 5 15 6 4 7 12 8 16 9 13 10 17 11 31 12
REMARK SMILES IDX 14 13 18 14 30 15 32 16 19 17 29 18 21 19 20 20 28 21 22 22
REMARK SMILES IDX 25 23 23 24 26 25 27 26 8 27 9 28 10 29 2 30 3 31 1 32 24 33
REMARK H PARENT 24 34
REMARK Flexibility Score: inf
ROOT
ATOM      1  C   UNL     1      20.354   1.223  28.527  1.00  0.00     0.014 C 
ATOM      2  C   UNL     1      19.628   0.503  29.673  1.00  0.00     0.014 C 
ATOM      3  C   UNL     1      19.564   2.562  28.371  1.00  0.00     0.012 C 
ATOM      4  C   UNL     1      20.388   0.330  27.249  1.00  0.00     0.014 C 
ATOM      5  C   UNL     1      19.193   1.592  30.640  1.00  0.00     0.009 C 
ATOM      6  C   UNL     1      18.369   2.511  27.348  1.00  0.00     0.000 C 
ATOM      7  C   UNL     1      19.008   2.876  29.808  1.00  0.00     0.018 C 
ATOM      8  C   UNL     1      19.095   0.329  26.434  1.00  0.00     0.008 C 
ATOM      9  C   UNL     1      17.846   3.924  27.065  1.00  0.00     0.005 C 
ATOM     10  C   UNL     1      18.650   1.764  26.005  1.00  0.00    -0.024 C 
ATOM     11  C   UNL     1      16.523   3.839  26.328  1.00  0.00     0.005 C 
ATOM     12  C   UNL     1      17.330   1.722  25.048  1.00  0.00    -0.024 C 
ATOM     13  C   UNL     1      19.831   2.466  25.242  1.00  0.00     0.012 C 
ATOM     14  C   UNL     1      16.657   3.175  24.909  1.00  0.00     0.002 C 
ATOM     15  C   UNL     1      16.245   0.737  25.609  1.00  0.00     0.008 C 
ATOM     16  C   UNL     1      17.788   1.181  23.647  1.00  0.00     0.012 C 
ATOM     17  C   UNL     1      15.265   3.209  24.105  1.00  0.00    -0.026 C 
ATOM     18  C   UNL     1      14.884   0.766  24.881  1.00  0.00     0.005 C 
ATOM     19  C   UNL     1      14.652   4.673  24.076  1.00  0.00     0.010 C 
ATOM     20  C   UNL     1      15.480   2.851  22.598  1.00  0.00     0.012 C 
ATOM     21  C   UNL     1      14.277   2.190  24.796  1.00  0.00     0.003 C 
ATOM     22  C   UNL     1      13.222   4.762  24.620  1.00  0.00     0.033 C 
ATOM     23  C   UNL     1      12.763   2.240  24.312  1.00  0.00    -0.006 C 
ATOM     24  C   UNL     1      12.324   3.711  23.945  1.00  0.00     0.120 C 
ATOM     25  C   UNL     1      12.488   1.276  23.127  1.00  0.00     0.014 C 
ATOM     26  C   UNL     1      11.850   1.765  25.479  1.00  0.00     0.014 C 
ENDROOT
BRANCH   1  27
ATOM     27  C   UNL     1      21.798   1.509  28.966  1.00  0.00     0.048 C 
ATOM     28  O   UNL     1      22.076   1.694  30.180  1.00  0.00    -0.550 OA
ATOM     29  O   UNL     1      22.840   1.553  28.044  1.00  0.00    -0.550 OA
ENDBRANCH   1  27
BRANCH   7  30
ATOM     30  C   UNL     1      19.577   4.115  30.513  1.00  0.00    -0.077 C 
ATOM     31  C   UNL     1      20.592   5.028  29.862  1.00  0.00     0.039 C 
ATOM     32  C   UNL     1      19.064   4.472  31.704  1.00  0.00     0.008 C 
ENDBRANCH   7  30
BRANCH  24  33
ATOM     33  O   UNL     1      12.323   3.916  22.552  1.00  0.00    -0.393 OA
ATOM     34  H   UNL     1      11.641   3.304  22.165  1.00  0.00     0.210 HD
ENDBRANCH  24  33
TORSDOF 3
ENDMDL
