MODEL 1
REMARK VINA RESULT:     2.185      0.000      0.000
REMARK INTER + INTRA:           3.192
REMARK INTER:                   2.376
REMARK INTRA:                   0.815
REMARK UNBOUND:                 0.815
REMARK SMILES C=C(C)[C@@H]1CC[C@]2(C)CC[C@@]3(C)[C@H](CC[C@@H]4[C@@]5(C)CC[C@@H](O)C(C)(C)[C@H]5CC[C@]43C)[C@@H]12
REMARK SMILES IDX 4 1 5 2 6 3 7 4 31 5 13 6 14 7 15 8 16 9 17 10 19 11 20 12
REMARK SMILES IDX 21 13 23 14 26 15 27 16 28 17 29 18 11 19 10 20 9 21 12 22
REMARK SMILES IDX 30 23 24 24 25 25 18 26 8 27 2 28 3 29 1 30 22 31
REMARK H PARENT 22 32
REMARK Flexibility Score: inf
ROOT
ATOM      1  C   UNL     1      46.382  13.251  64.276  1.00  0.00     0.018 C 
ATOM      2  C   UNL     1      46.877  11.854  63.787  1.00  0.00     0.009 C 
ATOM      3  C   UNL     1      48.364  11.760  64.189  1.00  0.00     0.008 C 
ATOM      4  C   UNL     1      48.795  13.200  64.367  1.00  0.00    -0.029 C 
ATOM      5  C   UNL     1      47.546  13.740  65.148  1.00  0.00     0.006 C 
ATOM      6  C   UNL     1      47.734  15.241  65.560  1.00  0.00    -0.000 C 
ATOM      7  C   UNL     1      46.431  15.820  66.212  1.00  0.00     0.005 C 
ATOM      8  C   UNL     1      46.275  15.655  67.743  1.00  0.00     0.005 C 
ATOM      9  C   UNL     1      47.562  15.217  68.450  1.00  0.00     0.002 C 
ATOM     10  C   UNL     1      47.570  14.978  70.061  1.00  0.00    -0.026 C 
ATOM     11  C   UNL     1      48.260  13.583  70.386  1.00  0.00     0.010 C 
ATOM     12  C   UNL     1      49.444  13.615  71.401  1.00  0.00     0.033 C 
ATOM     13  C   UNL     1      49.036  14.349  72.729  1.00  0.00     0.120 C 
ATOM     14  C   UNL     1      48.546  15.811  72.443  1.00  0.00    -0.006 C 
ATOM     15  C   UNL     1      48.284  16.166  70.846  1.00  0.00     0.003 C 
ATOM     16  C   UNL     1      49.535  16.723  70.091  1.00  0.00     0.005 C 
ATOM     17  C   UNL     1      49.952  15.951  68.825  1.00  0.00     0.008 C 
ATOM     18  C   UNL     1      48.776  16.041  67.834  1.00  0.00    -0.024 C 
ATOM     19  C   UNL     1      49.107  15.404  66.406  1.00  0.00    -0.024 C 
ATOM     20  C   UNL     1      49.872  13.998  66.565  1.00  0.00     0.008 C 
ATOM     21  C   UNL     1      50.104  13.329  65.192  1.00  0.00     0.007 C 
ATOM     22  C   UNL     1      50.125  16.315  65.636  1.00  0.00     0.012 C 
ATOM     23  C   UNL     1      48.465  17.579  67.642  1.00  0.00     0.012 C 
ATOM     24  C   UNL     1      47.190  15.995  73.258  1.00  0.00     0.014 C 
ATOM     25  C   UNL     1      49.484  16.905  73.075  1.00  0.00     0.014 C 
ATOM     26  C   UNL     1      46.045  14.853  70.536  1.00  0.00     0.012 C 
ATOM     27  C   UNL     1      49.003  13.867  62.947  1.00  0.00     0.011 C 
ENDROOT
BRANCH   1  28
ATOM     28  C   UNL     1      45.030  13.114  64.957  1.00  0.00    -0.077 C 
ATOM     29  C   UNL     1      44.285  11.811  64.992  1.00  0.00     0.039 C 
ATOM     30  C   UNL     1      44.411  14.219  65.405  1.00  0.00     0.008 C 
ENDBRANCH   1  28
BRANCH  13  31
ATOM     31  O   UNL     1      50.125  14.254  73.671  1.00  0.00    -0.393 OA
ATOM     32  H   UNL     1      50.659  13.430  73.372  1.00  0.00     0.210 HD
ENDBRANCH  13  31
TORSDOF 2
ENDMDL
