MODEL 1
REMARK VINA RESULT:    -4.477      0.000      0.000
REMARK INTER + INTRA:          -6.639
REMARK INTER:                  -6.309
REMARK INTRA:                  -0.330
REMARK UNBOUND:                -0.330
REMARK SMILES CCCCCCCCC(=O)[O-]
REMARK SMILES IDX 6 1 7 2 8 3 9 4 10 5 11 6 5 7 4 8 3 9 2 10 1 11
REMARK H PARENT
REMARK Flexibility Score: inf
ROOT
ATOM      1  C   UNL     1       4.495  44.890  11.021  1.00  0.00     0.000 C 
ENDROOT
BRANCH   1   2
ATOM      2  C   UNL     1       3.964  44.205  12.286  1.00  0.00     0.006 C 
BRANCH   2   3
ATOM      3  C   UNL     1       2.548  43.667  12.066  1.00  0.00     0.053 C 
BRANCH   3   4
ATOM      4  C   UNL     1       2.588  42.384  11.298  1.00  0.00     0.041 C 
ATOM      5  O   UNL     1       2.311  42.373  10.070  1.00  0.00    -0.550 OA
ATOM      6  O   UNL     1       2.980  41.209  11.926  1.00  0.00    -0.550 OA
ENDBRANCH   3   4
ENDBRANCH   2   3
ENDBRANCH   1   2
BRANCH   1   7
ATOM      7  C   UNL     1       3.600  46.066  10.614  1.00  0.00     0.000 C 
BRANCH   7   8
ATOM      8  C   UNL     1       4.440  47.289  10.225  1.00  0.00    -0.000 C 
BRANCH   8   9
ATOM      9  C   UNL     1       5.468  46.929   9.146  1.00  0.00    -0.000 C 
BRANCH   9  10
ATOM     10  C   UNL     1       6.755  47.743   9.319  1.00  0.00    -0.003 C 
ATOM     11  C   UNL     1       6.529  49.211   8.971  1.00  0.00     0.004 C 
ENDBRANCH   9  10
ENDBRANCH   8   9
ENDBRANCH   7   8
ENDBRANCH   1   7
TORSDOF 7
ENDMDL
MODEL 2
REMARK VINA RESULT:    -4.425      1.756      2.739
REMARK INTER + INTRA:          -6.566
REMARK INTER:                  -5.832
REMARK INTRA:                  -0.733
REMARK UNBOUND:                -0.330
REMARK SMILES CCCCCCCCC(=O)[O-]
REMARK SMILES IDX 6 1 7 2 8 3 9 4 10 5 11 6 5 7 4 8 3 9 2 10 1 11
REMARK H PARENT
REMARK Flexibility Score: inf
ROOT
ATOM      1  C   UNL     1       2.999  47.716   9.802  1.00  0.00     0.000 C 
ENDROOT
BRANCH   1   2
ATOM      2  C   UNL     1       3.536  46.309   9.513  1.00  0.00     0.006 C 
BRANCH   2   3
ATOM      3  C   UNL     1       4.403  45.804  10.670  1.00  0.00     0.053 C 
BRANCH   3   4
ATOM      4  C   UNL     1       3.674  44.759  11.454  1.00  0.00     0.041 C 
ATOM      5  O   UNL     1       2.571  44.313  11.041  1.00  0.00    -0.550 OA
ATOM      6  O   UNL     1       4.237  44.240  12.613  1.00  0.00    -0.550 OA
ENDBRANCH   3   4
ENDBRANCH   2   3
ENDBRANCH   1   2
BRANCH   1   7
ATOM      7  C   UNL     1       3.882  48.443  10.824  1.00  0.00     0.000 C 
BRANCH   7   8
ATOM      8  C   UNL     1       4.412  49.764  10.253  1.00  0.00    -0.000 C 
BRANCH   8   9
ATOM      9  C   UNL     1       5.943  49.750  10.165  1.00  0.00    -0.000 C 
BRANCH   9  10
ATOM     10  C   UNL     1       6.416  48.945   8.951  1.00  0.00    -0.003 C 
ATOM     11  C   UNL     1       7.241  47.735   9.379  1.00  0.00     0.004 C 
ENDBRANCH   9  10
ENDBRANCH   8   9
ENDBRANCH   7   8
ENDBRANCH   1   7
TORSDOF 7
ENDMDL
MODEL 3
REMARK VINA RESULT:    -4.393      3.447      5.833
REMARK INTER + INTRA:          -6.521
REMARK INTER:                  -5.993
REMARK INTRA:                  -0.528
REMARK UNBOUND:                -0.330
REMARK SMILES CCCCCCCCC(=O)[O-]
REMARK SMILES IDX 6 1 7 2 8 3 9 4 10 5 11 6 5 7 4 8 3 9 2 10 1 11
REMARK H PARENT
REMARK Flexibility Score: inf
ROOT
ATOM      1  C   UNL     1       4.026  45.995  10.827  1.00  0.00     0.000 C 
ENDROOT
BRANCH   1   2
ATOM      2  C   UNL     1       4.787  46.001   9.495  1.00  0.00     0.006 C 
BRANCH   2   3
ATOM      3  C   UNL     1       4.755  47.389   8.850  1.00  0.00     0.053 C 
BRANCH   3   4
ATOM      4  C   UNL     1       6.088  48.056   8.977  1.00  0.00     0.041 C 
ATOM      5  O   UNL     1       7.087  47.403   9.376  1.00  0.00    -0.550 OA
ATOM      6  O   UNL     1       6.237  49.386   8.605  1.00  0.00    -0.550 OA
ENDBRANCH   3   4
ENDBRANCH   2   3
ENDBRANCH   1   2
BRANCH   1   7
ATOM      7  C   UNL     1       4.154  44.637  11.528  1.00  0.00     0.000 C 
BRANCH   7   8
ATOM      8  C   UNL     1       2.775  44.013  11.776  1.00  0.00    -0.000 C 
BRANCH   8   9
ATOM      9  C   UNL     1       2.638  42.673  11.043  1.00  0.00    -0.000 C 
BRANCH   9  10
ATOM     10  C   UNL     1       2.620  42.877   9.525  1.00  0.00    -0.003 C 
ATOM     11  C   UNL     1       1.451  43.762   9.102  1.00  0.00     0.004 C 
ENDBRANCH   9  10
ENDBRANCH   8   9
ENDBRANCH   7   8
ENDBRANCH   1   7
TORSDOF 7
ENDMDL
MODEL 4
REMARK VINA RESULT:    -4.387      3.426      6.153
REMARK INTER + INTRA:          -6.512
REMARK INTER:                  -6.139
REMARK INTRA:                  -0.374
REMARK UNBOUND:                -0.330
REMARK SMILES CCCCCCCCC(=O)[O-]
REMARK SMILES IDX 6 1 7 2 8 3 9 4 10 5 11 6 5 7 4 8 3 9 2 10 1 11
REMARK H PARENT
REMARK Flexibility Score: inf
ROOT
ATOM      1  C   UNL     1       4.137  46.169  10.757  1.00  0.00     0.000 C 
ENDROOT
BRANCH   1   2
ATOM      2  C   UNL     1       4.828  46.172   9.388  1.00  0.00     0.006 C 
BRANCH   2   3
ATOM      3  C   UNL     1       4.910  47.590   8.816  1.00  0.00     0.053 C 
BRANCH   3   4
ATOM      4  C   UNL     1       6.289  48.145   8.986  1.00  0.00     0.041 C 
ATOM      5  O   UNL     1       7.215  47.414   9.427  1.00  0.00    -0.550 OA
ATOM      6  O   UNL     1       6.562  49.454   8.611  1.00  0.00    -0.550 OA
ENDBRANCH   3   4
ENDBRANCH   2   3
ENDBRANCH   1   2
BRANCH   1   7
ATOM      7  C   UNL     1       4.115  44.759  11.360  1.00  0.00     0.000 C 
BRANCH   7   8
ATOM      8  C   UNL     1       4.070  43.691  10.260  1.00  0.00    -0.000 C 
BRANCH   8   9
ATOM      9  C   UNL     1       2.663  43.095  10.130  1.00  0.00    -0.000 C 
BRANCH   9  10
ATOM     10  C   UNL     1       2.155  42.586  11.483  1.00  0.00    -0.003 C 
ATOM     11  C   UNL     1       2.868  41.301  11.892  1.00  0.00     0.004 C 
ENDBRANCH   9  10
ENDBRANCH   8   9
ENDBRANCH   7   8
ENDBRANCH   1   7
TORSDOF 7
ENDMDL
MODEL 5
REMARK VINA RESULT:    -4.375      1.245      1.567
REMARK INTER + INTRA:          -6.495
REMARK INTER:                  -6.044
REMARK INTRA:                  -0.451
REMARK UNBOUND:                -0.330
REMARK SMILES CCCCCCCCC(=O)[O-]
REMARK SMILES IDX 6 1 7 2 8 3 9 4 10 5 11 6 5 7 4 8 3 9 2 10 1 11
REMARK H PARENT
REMARK Flexibility Score: inf
ROOT
ATOM      1  C   UNL     1       4.168  45.130   9.392  1.00  0.00     0.000 C 
ENDROOT
BRANCH   1   2
ATOM      2  C   UNL     1       4.119  43.628   9.698  1.00  0.00     0.006 C 
BRANCH   2   3
ATOM      3  C   UNL     1       2.677  43.113   9.693  1.00  0.00     0.053 C 
BRANCH   3   4
ATOM      4  C   UNL     1       2.254  42.726  11.074  1.00  0.00     0.041 C 
ATOM      5  O   UNL     1       1.502  43.484  11.742  1.00  0.00    -0.550 OA
ATOM      6  O   UNL     1       2.647  41.504  11.605  1.00  0.00    -0.550 OA
ENDBRANCH   3   4
ENDBRANCH   2   3
ENDBRANCH   1   2
BRANCH   1   7
ATOM      7  C   UNL     1       4.185  45.955  10.684  1.00  0.00     0.000 C 
BRANCH   7   8
ATOM      8  C   UNL     1       4.251  47.457  10.378  1.00  0.00    -0.000 C 
BRANCH   8   9
ATOM      9  C   UNL     1       4.921  47.713   9.023  1.00  0.00    -0.000 C 
BRANCH   9  10
ATOM     10  C   UNL     1       6.225  48.499   9.195  1.00  0.00    -0.003 C 
ATOM     11  C   UNL     1       7.411  47.560   9.396  1.00  0.00     0.004 C 
ENDBRANCH   9  10
ENDBRANCH   8   9
ENDBRANCH   7   8
ENDBRANCH   1   7
TORSDOF 7
ENDMDL
MODEL 6
REMARK VINA RESULT:    -4.316      2.059      3.078
REMARK INTER + INTRA:          -6.412
REMARK INTER:                  -6.165
REMARK INTRA:                  -0.247
REMARK UNBOUND:                -0.330
REMARK SMILES CCCCCCCCC(=O)[O-]
REMARK SMILES IDX 6 1 7 2 8 3 9 4 10 5 11 6 5 7 4 8 3 9 2 10 1 11
REMARK H PARENT
REMARK Flexibility Score: inf
ROOT
ATOM      1  C   UNL     1       2.980  42.570  10.896  1.00  0.00     0.000 C 
ENDROOT
BRANCH   1   2
ATOM      2  C   UNL     1       3.620  41.731  12.009  1.00  0.00     0.006 C 
BRANCH   2   3
ATOM      3  C   UNL     1       2.702  40.577  12.423  1.00  0.00     0.053 C 
BRANCH   3   4
ATOM      4  C   UNL     1       3.508  39.366  12.775  1.00  0.00     0.041 C 
ATOM      5  O   UNL     1       4.589  39.489  13.408  1.00  0.00    -0.550 OA
ATOM      6  O   UNL     1       3.041  38.100  12.447  1.00  0.00    -0.550 OA
ENDBRANCH   3   4
ENDBRANCH   2   3
ENDBRANCH   1   2
BRANCH   1   7
ATOM      7  C   UNL     1       3.989  43.562  10.306  1.00  0.00     0.000 C 
BRANCH   7   8
ATOM      8  C   UNL     1       4.163  44.781  11.222  1.00  0.00    -0.000 C 
BRANCH   8   9
ATOM      9  C   UNL     1       3.634  46.054  10.551  1.00  0.00    -0.000 C 
BRANCH   9  10
ATOM     10  C   UNL     1       4.323  46.290   9.202  1.00  0.00    -0.003 C 
ATOM     11  C   UNL     1       5.653  47.014   9.382  1.00  0.00     0.004 C 
ENDBRANCH   9  10
ENDBRANCH   8   9
ENDBRANCH   7   8
ENDBRANCH   1   7
TORSDOF 7
ENDMDL
MODEL 7
REMARK VINA RESULT:    -4.311      2.775      6.164
REMARK INTER + INTRA:          -6.405
REMARK INTER:                  -6.047
REMARK INTRA:                  -0.358
REMARK UNBOUND:                -0.330
REMARK SMILES CCCCCCCCC(=O)[O-]
REMARK SMILES IDX 6 1 7 2 8 3 9 4 10 5 11 6 5 7 4 8 3 9 2 10 1 11
REMARK H PARENT
REMARK Flexibility Score: inf
ROOT
ATOM      1  C   UNL     1       1.861  43.617  11.636  1.00  0.00     0.000 C 
ENDROOT
BRANCH   1   2
ATOM      2  C   UNL     1       3.165  43.630  10.829  1.00  0.00     0.006 C 
BRANCH   2   3
ATOM      3  C   UNL     1       4.082  44.767  11.286  1.00  0.00     0.053 C 
BRANCH   3   4
ATOM      4  C   UNL     1       4.164  45.829  10.235  1.00  0.00     0.041 C 
ATOM      5  O   UNL     1       5.170  46.584  10.175  1.00  0.00    -0.550 OA
ATOM      6  O   UNL     1       3.152  45.953   9.292  1.00  0.00    -0.550 OA
ENDBRANCH   3   4
ENDBRANCH   2   3
ENDBRANCH   1   2
BRANCH   1   7
ATOM      7  C   UNL     1       1.667  42.272  12.348  1.00  0.00     0.000 C 
BRANCH   7   8
ATOM      8  C   UNL     1       2.792  41.293  11.989  1.00  0.00    -0.000 C 
BRANCH   8   9
ATOM      9  C   UNL     1       2.597  39.947  12.699  1.00  0.00    -0.000 C 
BRANCH   9  10
ATOM     10  C   UNL     1       3.917  39.175  12.784  1.00  0.00    -0.003 C 
ATOM     11  C   UNL     1       5.041  40.061  13.314  1.00  0.00     0.004 C 
ENDBRANCH   9  10
ENDBRANCH   8   9
ENDBRANCH   7   8
ENDBRANCH   1   7
TORSDOF 7
ENDMDL
MODEL 8
REMARK VINA RESULT:    -4.304      2.058      3.754
REMARK INTER + INTRA:          -6.395
REMARK INTER:                  -5.704
REMARK INTRA:                  -0.692
REMARK UNBOUND:                -0.330
REMARK SMILES CCCCCCCCC(=O)[O-]
REMARK SMILES IDX 6 1 7 2 8 3 9 4 10 5 11 6 5 7 4 8 3 9 2 10 1 11
REMARK H PARENT
REMARK Flexibility Score: inf
ROOT
ATOM      1  C   UNL     1       6.346  47.392   9.422  1.00  0.00     0.000 C 
ENDROOT
BRANCH   1   2
ATOM      2  C   UNL     1       4.957  46.778   9.201  1.00  0.00     0.006 C 
BRANCH   2   3
ATOM      3  C   UNL     1       4.271  46.478  10.536  1.00  0.00     0.053 C 
BRANCH   3   4
ATOM      4  C   UNL     1       4.298  45.010  10.821  1.00  0.00     0.041 C 
ATOM      5  O   UNL     1       4.263  44.595  12.010  1.00  0.00    -0.550 OA
ATOM      6  O   UNL     1       4.312  44.098   9.774  1.00  0.00    -0.550 OA
ENDBRANCH   3   4
ENDBRANCH   2   3
ENDBRANCH   1   2
BRANCH   1   7
ATOM      7  C   UNL     1       6.388  48.846   8.936  1.00  0.00     0.000 C 
BRANCH   7   8
ATOM      8  C   UNL     1       6.082  49.818  10.083  1.00  0.00    -0.000 C 
BRANCH   8   9
ATOM      9  C   UNL     1       5.133  50.931   9.622  1.00  0.00    -0.000 C 
BRANCH   9  10
ATOM     10  C   UNL     1       3.759  50.363   9.254  1.00  0.00    -0.003 C 
ATOM     11  C   UNL     1       2.979  49.954  10.500  1.00  0.00     0.004 C 
ENDBRANCH   9  10
ENDBRANCH   8   9
ENDBRANCH   7   8
ENDBRANCH   1   7
TORSDOF 7
ENDMDL
MODEL 9
REMARK VINA RESULT:    -4.268      3.704      6.268
REMARK INTER + INTRA:          -6.344
REMARK INTER:                  -5.983
REMARK INTRA:                  -0.361
REMARK UNBOUND:                -0.330
REMARK SMILES CCCCCCCCC(=O)[O-]
REMARK SMILES IDX 6 1 7 2 8 3 9 4 10 5 11 6 5 7 4 8 3 9 2 10 1 11
REMARK H PARENT
REMARK Flexibility Score: inf
ROOT
ATOM      1  C   UNL     1       4.369  45.952   9.102  1.00  0.00     0.000 C 
ENDROOT
BRANCH   1   2
ATOM      2  C   UNL     1       5.123  47.013   9.914  1.00  0.00     0.006 C 
BRANCH   2   3
ATOM      3  C   UNL     1       6.194  47.698   9.062  1.00  0.00     0.053 C 
BRANCH   3   4
ATOM      4  C   UNL     1       5.796  49.107   8.754  1.00  0.00     0.041 C 
ATOM      5  O   UNL     1       6.468  50.069   9.211  1.00  0.00    -0.550 OA
ATOM      6  O   UNL     1       4.713  49.358   7.920  1.00  0.00    -0.550 OA
ENDBRANCH   3   4
ENDBRANCH   2   3
ENDBRANCH   1   2
BRANCH   1   7
ATOM      7  C   UNL     1       4.129  44.688   9.936  1.00  0.00     0.000 C 
BRANCH   7   8
ATOM      8  C   UNL     1       4.128  45.009  11.436  1.00  0.00    -0.000 C 
BRANCH   8   9
ATOM      9  C   UNL     1       3.743  43.777  12.262  1.00  0.00    -0.000 C 
BRANCH   9  10
ATOM     10  C   UNL     1       2.792  42.865  11.479  1.00  0.00    -0.003 C 
ATOM     11  C   UNL     1       1.343  43.085  11.903  1.00  0.00     0.004 C 
ENDBRANCH   9  10
ENDBRANCH   8   9
ENDBRANCH   7   8
ENDBRANCH   1   7
TORSDOF 7
ENDMDL
