MODEL 1
REMARK VINA RESULT:     0.438      0.000      0.000
REMARK INTER + INTRA:           0.350
REMARK INTER:                   0.618
REMARK INTRA:                  -0.268
REMARK UNBOUND:                -0.268
REMARK SMILES CCCCCCCCC(=O)[O-]
REMARK SMILES IDX 6 1 7 2 8 3 9 4 10 5 11 6 5 7 4 8 3 9 2 10 1 11
REMARK H PARENT
REMARK Flexibility Score: inf
ROOT
ATOM      1  C   UNL     1     103.375 103.253 105.083  1.00  0.00     0.000 C 
ENDROOT
BRANCH   1   2
ATOM      2  C   UNL     1     103.791 102.870 106.514  1.00  0.00     0.006 C 
BRANCH   2   3
ATOM      3  C   UNL     1     103.577 104.006 107.521  1.00  0.00     0.053 C 
BRANCH   3   4
ATOM      4  C   UNL     1     104.549 105.115 107.271  1.00  0.00     0.041 C 
ATOM      5  O   UNL     1     105.782 104.872 107.188  1.00  0.00    -0.550 OA
ATOM      6  O   UNL     1     104.099 106.427 107.178  1.00  0.00    -0.550 OA
ENDBRANCH   3   4
ENDBRANCH   2   3
ENDBRANCH   1   2
BRANCH   1   7
ATOM      7  C   UNL     1     103.399 102.095 104.064  1.00  0.00     0.000 C 
BRANCH   7   8
ATOM      8  C   UNL     1     103.701 102.508 102.612  1.00  0.00    -0.000 C 
BRANCH   8   9
ATOM      9  C   UNL     1     103.369 103.981 102.330  1.00  0.00    -0.000 C 
BRANCH   9  10
ATOM     10  C   UNL     1     104.645 104.830 102.276  1.00  0.00    -0.003 C 
ATOM     11  C   UNL     1     104.354 106.284 102.633  1.00  0.00     0.004 C 
ENDBRANCH   9  10
ENDBRANCH   8   9
ENDBRANCH   7   8
ENDBRANCH   1   7
TORSDOF 7
ENDMDL
MODEL 2
REMARK VINA RESULT:     0.454      1.784      3.110
REMARK INTER + INTRA:           0.372
REMARK INTER:                   0.643
REMARK INTRA:                  -0.271
REMARK UNBOUND:                -0.268
REMARK SMILES CCCCCCCCC(=O)[O-]
REMARK SMILES IDX 6 1 7 2 8 3 9 4 10 5 11 6 5 7 4 8 3 9 2 10 1 11
REMARK H PARENT
REMARK Flexibility Score: inf
ROOT
ATOM      1  C   UNL     1     104.642 105.076 105.052  1.00  0.00     0.000 C 
ENDROOT
BRANCH   1   2
ATOM      2  C   UNL     1     104.195 105.452 106.476  1.00  0.00     0.006 C 
BRANCH   2   3
ATOM      3  C   UNL     1     104.406 104.317 107.486  1.00  0.00     0.053 C 
BRANCH   3   4
ATOM      4  C   UNL     1     103.444 103.202 107.227  1.00  0.00     0.041 C 
ATOM      5  O   UNL     1     102.207 103.430 107.178  1.00  0.00    -0.550 OA
ATOM      6  O   UNL     1     103.910 101.901 107.086  1.00  0.00    -0.550 OA
ENDBRANCH   3   4
ENDBRANCH   2   3
ENDBRANCH   1   2
BRANCH   1   7
ATOM      7  C   UNL     1     104.636 106.239 104.038  1.00  0.00     0.000 C 
BRANCH   7   8
ATOM      8  C   UNL     1     104.254 105.848 102.599  1.00  0.00    -0.000 C 
BRANCH   8   9
ATOM      9  C   UNL     1     104.597 104.388 102.266  1.00  0.00    -0.000 C 
BRANCH   9  10
ATOM     10  C   UNL     1     103.336 103.517 102.253  1.00  0.00    -0.003 C 
ATOM     11  C   UNL     1     103.664 102.067 102.597  1.00  0.00     0.004 C 
ENDBRANCH   9  10
ENDBRANCH   8   9
ENDBRANCH   7   8
ENDBRANCH   1   7
TORSDOF 7
ENDMDL
MODEL 3
REMARK VINA RESULT:     0.505      4.013      5.704
REMARK INTER + INTRA:           0.444
REMARK INTER:                   0.724
REMARK INTRA:                  -0.280
REMARK UNBOUND:                -0.268
REMARK SMILES CCCCCCCCC(=O)[O-]
REMARK SMILES IDX 6 1 7 2 8 3 9 4 10 5 11 6 5 7 4 8 3 9 2 10 1 11
REMARK H PARENT
REMARK Flexibility Score: inf
ROOT
ATOM      1  C   UNL     1     104.637 105.090 100.293  1.00  0.00     0.000 C 
ENDROOT
BRANCH   1   2
ATOM      2  C   UNL     1     104.185 105.460 101.716  1.00  0.00     0.006 C 
BRANCH   2   3
ATOM      3  C   UNL     1     104.431 104.336 102.731  1.00  0.00     0.053 C 
BRANCH   3   4
ATOM      4  C   UNL     1     103.477 103.207 102.499  1.00  0.00     0.041 C 
ATOM      5  O   UNL     1     102.240 103.426 102.428  1.00  0.00    -0.550 OA
ATOM      6  O   UNL     1     103.952 101.904 102.409  1.00  0.00    -0.550 OA
ENDBRANCH   3   4
ENDBRANCH   2   3
ENDBRANCH   1   2
BRANCH   1   7
ATOM      7  C   UNL     1     104.536 106.231  99.258  1.00  0.00     0.000 C 
BRANCH   7   8
ATOM      8  C   UNL     1     104.272 105.779  97.812  1.00  0.00    -0.000 C 
BRANCH   8   9
ATOM      9  C   UNL     1     104.626 104.303  97.573  1.00  0.00    -0.000 C 
BRANCH   9  10
ATOM     10  C   UNL     1     103.360 103.441  97.497  1.00  0.00    -0.003 C 
ATOM     11  C   UNL     1     103.663 101.986  97.842  1.00  0.00     0.004 C 
ENDBRANCH   9  10
ENDBRANCH   8   9
ENDBRANCH   7   8
ENDBRANCH   1   7
TORSDOF 7
ENDMDL
MODEL 4
REMARK VINA RESULT:     0.508      2.031      4.309
REMARK INTER + INTRA:           0.448
REMARK INTER:                   0.598
REMARK INTRA:                  -0.150
REMARK UNBOUND:                -0.268
REMARK SMILES CCCCCCCCC(=O)[O-]
REMARK SMILES IDX 6 1 7 2 8 3 9 4 10 5 11 6 5 7 4 8 3 9 2 10 1 11
REMARK H PARENT
REMARK Flexibility Score: inf
ROOT
ATOM      1  C   UNL     1     103.328 102.418 103.880  1.00  0.00     0.000 C 
ENDROOT
BRANCH   1   2
ATOM      2  C   UNL     1     103.806 102.881 102.493  1.00  0.00     0.006 C 
BRANCH   2   3
ATOM      3  C   UNL     1     103.372 104.314 102.160  1.00  0.00     0.053 C 
BRANCH   3   4
ATOM      4  C   UNL     1     104.490 105.271 102.422  1.00  0.00     0.041 C 
ATOM      5  O   UNL     1     105.673 104.853 102.523  1.00  0.00    -0.550 OA
ATOM      6  O   UNL     1     104.221 106.623 102.602  1.00  0.00    -0.550 OA
ENDBRANCH   3   4
ENDBRANCH   2   3
ENDBRANCH   1   2
BRANCH   1   7
ATOM      7  C   UNL     1     103.648 103.386 105.039  1.00  0.00     0.000 C 
BRANCH   7   8
ATOM      8  C   UNL     1     103.400 102.822 106.449  1.00  0.00    -0.000 C 
BRANCH   8   9
ATOM      9  C   UNL     1     103.718 103.833 107.561  1.00  0.00    -0.000 C 
BRANCH   9  10
ATOM     10  C   UNL     1     104.735 104.875 107.079  1.00  0.00    -0.003 C 
ATOM     11  C   UNL     1     104.260 106.292 107.388  1.00  0.00     0.004 C 
ENDBRANCH   9  10
ENDBRANCH   8   9
ENDBRANCH   7   8
ENDBRANCH   1   7
TORSDOF 7
ENDMDL
MODEL 5
REMARK VINA RESULT:     0.512      2.731      5.207
REMARK INTER + INTRA:           0.454
REMARK INTER:                   0.781
REMARK INTRA:                  -0.327
REMARK UNBOUND:                -0.268
REMARK SMILES CCCCCCCCC(=O)[O-]
REMARK SMILES IDX 6 1 7 2 8 3 9 4 10 5 11 6 5 7 4 8 3 9 2 10 1 11
REMARK H PARENT
REMARK Flexibility Score: inf
ROOT
ATOM      1  C   UNL     1     104.547 106.140 103.523  1.00  0.00     0.000 C 
ENDROOT
BRANCH   1   2
ATOM      2  C   UNL     1     104.125 105.368 102.261  1.00  0.00     0.006 C 
BRANCH   2   3
ATOM      3  C   UNL     1     104.622 103.917 102.257  1.00  0.00     0.053 C 
BRANCH   3   4
ATOM      4  C   UNL     1     103.478 102.974 102.457  1.00  0.00     0.041 C 
ATOM      5  O   UNL     1     102.299 103.410 102.516  1.00  0.00    -0.550 OA
ATOM      6  O   UNL     1     103.719 101.616 102.629  1.00  0.00    -0.550 OA
ENDBRANCH   3   4
ENDBRANCH   2   3
ENDBRANCH   1   2
BRANCH   1   7
ATOM      7  C   UNL     1     104.910 105.260 104.737  1.00  0.00     0.000 C 
BRANCH   7   8
ATOM      8  C   UNL     1     104.538 105.851 106.108  1.00  0.00    -0.000 C 
BRANCH   8   9
ATOM      9  C   UNL     1     104.352 104.778 107.191  1.00  0.00    -0.000 C 
BRANCH   9  10
ATOM     10  C   UNL     1     103.376 103.692 106.724  1.00  0.00    -0.003 C 
ATOM     11  C   UNL     1     103.622 102.377 107.458  1.00  0.00     0.004 C 
ENDBRANCH   9  10
ENDBRANCH   8   9
ENDBRANCH   7   8
ENDBRANCH   1   7
TORSDOF 7
ENDMDL
MODEL 6
REMARK VINA RESULT:     0.562      4.909      6.779
REMARK INTER + INTRA:           0.524
REMARK INTER:                   0.756
REMARK INTRA:                  -0.232
REMARK UNBOUND:                -0.268
REMARK SMILES CCCCCCCCC(=O)[O-]
REMARK SMILES IDX 6 1 7 2 8 3 9 4 10 5 11 6 5 7 4 8 3 9 2 10 1 11
REMARK H PARENT
REMARK Flexibility Score: inf
ROOT
ATOM      1  C   UNL     1     103.321 102.354  99.006  1.00  0.00     0.000 C 
ENDROOT
BRANCH   1   2
ATOM      2  C   UNL     1     103.960 102.892  97.714  1.00  0.00     0.006 C 
BRANCH   2   3
ATOM      3  C   UNL     1     103.482 104.304  97.355  1.00  0.00     0.053 C 
BRANCH   3   4
ATOM      4  C   UNL     1     104.553 105.307  97.646  1.00  0.00     0.041 C 
ATOM      5  O   UNL     1     105.758 104.948  97.706  1.00  0.00    -0.550 OA
ATOM      6  O   UNL     1     104.216 106.631  97.899  1.00  0.00    -0.550 OA
ENDBRANCH   3   4
ENDBRANCH   2   3
ENDBRANCH   1   2
BRANCH   1   7
ATOM      7  C   UNL     1     103.313 103.343 100.191  1.00  0.00     0.000 C 
BRANCH   7   8
ATOM      8  C   UNL     1     103.548 102.708 101.573  1.00  0.00    -0.000 C 
BRANCH   8   9
ATOM      9  C   UNL     1     103.764 103.751 102.680  1.00  0.00    -0.000 C 
BRANCH   9  10
ATOM     10  C   UNL     1     104.744 104.838 102.225  1.00  0.00    -0.003 C 
ATOM     11  C   UNL     1     104.240 106.228 102.605  1.00  0.00     0.004 C 
ENDBRANCH   9  10
ENDBRANCH   8   9
ENDBRANCH   7   8
ENDBRANCH   1   7
TORSDOF 7
ENDMDL
MODEL 7
REMARK VINA RESULT:     0.595      3.033      5.955
REMARK INTER + INTRA:           0.571
REMARK INTER:                   0.812
REMARK INTRA:                  -0.241
REMARK UNBOUND:                -0.268
REMARK SMILES CCCCCCCCC(=O)[O-]
REMARK SMILES IDX 6 1 7 2 8 3 9 4 10 5 11 6 5 7 4 8 3 9 2 10 1 11
REMARK H PARENT
REMARK Flexibility Score: inf
ROOT
ATOM      1  C   UNL     1     103.316 102.290 108.392  1.00  0.00     0.000 C 
ENDROOT
BRANCH   1   2
ATOM      2  C   UNL     1     103.934 102.900 107.121  1.00  0.00     0.006 C 
BRANCH   2   3
ATOM      3  C   UNL     1     103.459 104.335 106.857  1.00  0.00     0.053 C 
BRANCH   3   4
ATOM      4  C   UNL     1     104.547 105.311 107.175  1.00  0.00     0.041 C 
ATOM      5  O   UNL     1     105.741 104.924 107.264  1.00  0.00    -0.550 OA
ATOM      6  O   UNL     1     104.235 106.643 107.422  1.00  0.00    -0.550 OA
ENDBRANCH   3   4
ENDBRANCH   2   3
ENDBRANCH   1   2
BRANCH   1   7
ATOM      7  C   UNL     1     103.244 103.242 109.605  1.00  0.00     0.000 C 
BRANCH   7   8
ATOM      8  C   UNL     1     103.378 102.560 110.978  1.00  0.00    -0.000 C 
BRANCH   8   9
ATOM      9  C   UNL     1     103.635 103.558 112.117  1.00  0.00    -0.000 C 
BRANCH   9  10
ATOM     10  C   UNL     1     104.693 104.591 111.713  1.00  0.00    -0.003 C 
ATOM     11  C   UNL     1     104.262 106.002 112.103  1.00  0.00     0.004 C 
ENDBRANCH   9  10
ENDBRANCH   8   9
ENDBRANCH   7   8
ENDBRANCH   1   7
TORSDOF 7
ENDMDL
MODEL 8
REMARK VINA RESULT:     0.609      3.439      6.687
REMARK INTER + INTRA:           0.590
REMARK INTER:                   0.788
REMARK INTRA:                  -0.198
REMARK UNBOUND:                -0.268
REMARK SMILES CCCCCCCCC(=O)[O-]
REMARK SMILES IDX 6 1 7 2 8 3 9 4 10 5 11 6 5 7 4 8 3 9 2 10 1 11
REMARK H PARENT
REMARK Flexibility Score: inf
ROOT
ATOM      1  C   UNL     1     104.673 105.967 108.430  1.00  0.00     0.000 C 
ENDROOT
BRANCH   1   2
ATOM      2  C   UNL     1     104.056 105.388 107.145  1.00  0.00     0.006 C 
BRANCH   2   3
ATOM      3  C   UNL     1     104.518 103.954 106.855  1.00  0.00     0.053 C 
BRANCH   3   4
ATOM      4  C   UNL     1     103.431 102.980 107.184  1.00  0.00     0.041 C 
ATOM      5  O   UNL     1     102.239 103.371 107.291  1.00  0.00    -0.550 OA
ATOM      6  O   UNL     1     103.741 101.646 107.421  1.00  0.00    -0.550 OA
ENDBRANCH   3   4
ENDBRANCH   2   3
ENDBRANCH   1   2
BRANCH   1   7
ATOM      7  C   UNL     1     104.735 104.990 109.622  1.00  0.00     0.000 C 
BRANCH   7   8
ATOM      8  C   UNL     1     104.396 105.607 110.990  1.00  0.00    -0.000 C 
BRANCH   8   9
ATOM      9  C   UNL     1     104.326 104.563 112.116  1.00  0.00    -0.000 C 
BRANCH   9  10
ATOM     10  C   UNL     1     103.193 103.561 111.864  1.00  0.00    -0.003 C 
ATOM     11  C   UNL     1     103.684 102.125 112.021  1.00  0.00     0.004 C 
ENDBRANCH   9  10
ENDBRANCH   8   9
ENDBRANCH   7   8
ENDBRANCH   1   7
TORSDOF 7
ENDMDL
MODEL 9
REMARK VINA RESULT:     0.621      3.523      4.590
REMARK INTER + INTRA:           0.608
REMARK INTER:                   0.977
REMARK INTRA:                  -0.369
REMARK UNBOUND:                -0.268
REMARK SMILES CCCCCCCCC(=O)[O-]
REMARK SMILES IDX 6 1 7 2 8 3 9 4 10 5 11 6 5 7 4 8 3 9 2 10 1 11
REMARK H PARENT
REMARK Flexibility Score: inf
ROOT
ATOM      1  C   UNL     1     103.620 102.250 101.033  1.00  0.00     0.000 C 
ENDROOT
BRANCH   1   2
ATOM      2  C   UNL     1     103.686 102.959 102.397  1.00  0.00     0.006 C 
BRANCH   2   3
ATOM      3  C   UNL     1     103.267 104.432 102.325  1.00  0.00     0.053 C 
BRANCH   3   4
ATOM      4  C   UNL     1     104.458 105.322 102.484  1.00  0.00     0.041 C 
ATOM      5  O   UNL     1     105.616 104.831 102.527  1.00  0.00    -0.550 OA
ATOM      6  O   UNL     1     104.286 106.693 102.635  1.00  0.00    -0.550 OA
ENDBRANCH   3   4
ENDBRANCH   2   3
ENDBRANCH   1   2
BRANCH   1   7
ATOM      7  C   UNL     1     103.183 103.144  99.853  1.00  0.00     0.000 C 
BRANCH   7   8
ATOM      8  C   UNL     1     103.520 102.593  98.457  1.00  0.00    -0.000 C 
BRANCH   8   9
ATOM      9  C   UNL     1     103.660 103.697  97.397  1.00  0.00    -0.000 C 
BRANCH   9  10
ATOM     10  C   UNL     1     104.780 104.676  97.770  1.00  0.00    -0.003 C 
ATOM     11  C   UNL     1     104.272 106.115  97.783  1.00  0.00     0.004 C 
ENDBRANCH   9  10
ENDBRANCH   8   9
ENDBRANCH   7   8
ENDBRANCH   1   7
TORSDOF 7
ENDMDL
