MODEL 1
REMARK VINA RESULT:    -4.784      0.000      0.000
REMARK INTER + INTRA:          -5.908
REMARK INTER:                  -5.763
REMARK INTRA:                  -0.146
REMARK UNBOUND:                -0.146
REMARK SMILES NC(=O)C[C@H]([NH3+])C(=O)[O-]
REMARK SMILES IDX 4 1 5 2 6 3 7 7 8 8 9 9 2 10 3 11 1 12
REMARK H PARENT 6 4 6 5 6 6 1 13 1 14
REMARK Flexibility Score: inf
ROOT
ATOM      1  C   UNL     1       0.799  -3.769   2.850  1.00  0.00     0.171 C 
ENDROOT
BRANCH   1   2
ATOM      2  C   UNL     1       2.124  -3.923   2.077  1.00  0.00     0.237 C 
BRANCH   2   3
ATOM      3  N   UNL     1       3.069  -4.747   2.839  1.00  0.00    -0.350 N 
ATOM      4  H   UNL     1       2.567  -5.313   3.562  1.00  0.00     0.345 HD
ATOM      5  H   UNL     1       3.578  -5.393   2.193  1.00  0.00     0.345 HD
ATOM      6  H   UNL     1       3.774  -4.134   3.311  1.00  0.00     0.345 HD
ENDBRANCH   2   3
BRANCH   2   7
ATOM      7  C   UNL     1       2.734  -2.577   1.781  1.00  0.00     0.100 C 
ATOM      8  O   UNL     1       3.296  -1.923   2.697  1.00  0.00    -0.544 OA
ATOM      9  O   UNL     1       2.689  -2.054   0.494  1.00  0.00    -0.544 OA
ENDBRANCH   2   7
ENDBRANCH   1   2
BRANCH   1  10
ATOM     10  C   UNL     1      -0.309  -3.288   1.958  1.00  0.00     0.223 C 
ATOM     11  O   UNL     1      -0.371  -3.688   0.763  1.00  0.00    -0.275 OA
ATOM     12  N   UNL     1      -1.314  -2.411   2.464  1.00  0.00    -0.369 N 
ATOM     13  H   UNL     1      -2.091  -2.088   1.846  1.00  0.00     0.159 HD
ATOM     14  H   UNL     1      -1.286  -2.084   3.455  1.00  0.00     0.159 HD
ENDBRANCH   1  10
TORSDOF 4
ENDMDL
MODEL 2
REMARK VINA RESULT:    -4.669      1.245      1.269
REMARK INTER + INTRA:          -5.770
REMARK INTER:                  -5.334
REMARK INTRA:                  -0.436
REMARK UNBOUND:                -0.146
REMARK SMILES NC(=O)C[C@H]([NH3+])C(=O)[O-]
REMARK SMILES IDX 4 1 5 2 6 3 7 7 8 8 9 9 2 10 3 11 1 12
REMARK H PARENT 6 4 6 5 6 6 1 13 1 14
REMARK Flexibility Score: inf
ROOT
ATOM      1  C   UNL     1       1.116  -4.448   1.817  1.00  0.00     0.171 C 
ENDROOT
BRANCH   1   2
ATOM      2  C   UNL     1       2.507  -4.024   2.329  1.00  0.00     0.237 C 
BRANCH   2   3
ATOM      3  N   UNL     1       2.605  -4.231   3.778  1.00  0.00    -0.350 N 
ATOM      4  H   UNL     1       3.096  -3.428   4.235  1.00  0.00     0.345 HD
ATOM      5  H   UNL     1       1.646  -4.323   4.189  1.00  0.00     0.345 HD
ATOM      6  H   UNL     1       3.131  -5.114   3.976  1.00  0.00     0.345 HD
ENDBRANCH   2   3
BRANCH   2   7
ATOM      7  C   UNL     1       2.787  -2.582   1.993  1.00  0.00     0.100 C 
ATOM      8  O   UNL     1       3.516  -1.886   2.747  1.00  0.00    -0.544 OA
ATOM      9  O   UNL     1       2.249  -2.012   0.844  1.00  0.00    -0.544 OA
ENDBRANCH   2   7
ENDBRANCH   1   2
BRANCH   1  10
ATOM     10  C   UNL     1       0.016  -3.863   2.656  1.00  0.00     0.223 C 
ATOM     11  O   UNL     1      -0.322  -4.428   3.731  1.00  0.00    -0.275 OA
ATOM     12  N   UNL     1      -0.626  -2.651   2.260  1.00  0.00    -0.369 N 
ATOM     13  H   UNL     1      -1.382  -2.238   2.850  1.00  0.00     0.159 HD
ATOM     14  H   UNL     1      -0.346  -2.163   1.381  1.00  0.00     0.159 HD
ENDBRANCH   1  10
TORSDOF 4
ENDMDL
MODEL 3
REMARK VINA RESULT:    -4.637      2.141      2.934
REMARK INTER + INTRA:          -5.731
REMARK INTER:                  -5.448
REMARK INTRA:                  -0.284
REMARK UNBOUND:                -0.146
REMARK SMILES NC(=O)C[C@H]([NH3+])C(=O)[O-]
REMARK SMILES IDX 4 1 5 2 6 3 7 7 8 8 9 9 2 10 3 11 1 12
REMARK H PARENT 6 4 6 5 6 6 1 13 1 14
REMARK Flexibility Score: inf
ROOT
ATOM      1  C   UNL     1      -0.438  -4.541   3.365  1.00  0.00     0.171 C 
ENDROOT
BRANCH   1   2
ATOM      2  C   UNL     1      -0.139  -3.076   2.985  1.00  0.00     0.237 C 
BRANCH   2   3
ATOM      3  N   UNL     1      -1.332  -2.443   2.410  1.00  0.00    -0.350 N 
ATOM      4  H   UNL     1      -1.461  -2.733   1.413  1.00  0.00     0.345 HD
ATOM      5  H   UNL     1      -2.179  -2.719   2.958  1.00  0.00     0.345 HD
ATOM      6  H   UNL     1      -1.238  -1.402   2.456  1.00  0.00     0.345 HD
ENDBRANCH   2   3
BRANCH   2   7
ATOM      7  C   UNL     1       1.008  -2.996   2.012  1.00  0.00     0.100 C 
ATOM      8  O   UNL     1       2.041  -2.339   2.304  1.00  0.00    -0.544 OA
ATOM      9  O   UNL     1       0.939  -3.654   0.789  1.00  0.00    -0.544 OA
ENDBRANCH   2   7
ENDBRANCH   1   2
BRANCH   1  10
ATOM     10  C   UNL     1      -1.862  -4.719   3.807  1.00  0.00     0.223 C 
ATOM     11  O   UNL     1      -2.726  -5.131   2.987  1.00  0.00    -0.275 OA
ATOM     12  N   UNL     1      -2.236  -4.457   5.159  1.00  0.00    -0.369 N 
ATOM     13  H   UNL     1      -3.224  -4.594   5.468  1.00  0.00     0.159 HD
ATOM     14  H   UNL     1      -1.529  -4.130   5.853  1.00  0.00     0.159 HD
ENDBRANCH   1  10
TORSDOF 4
ENDMDL
MODEL 4
REMARK VINA RESULT:    -4.618      1.903      3.180
REMARK INTER + INTRA:          -5.709
REMARK INTER:                  -5.523
REMARK INTRA:                  -0.186
REMARK UNBOUND:                -0.146
REMARK SMILES NC(=O)C[C@H]([NH3+])C(=O)[O-]
REMARK SMILES IDX 4 1 5 2 6 3 7 7 8 8 9 9 2 10 3 11 1 12
REMARK H PARENT 6 4 6 5 6 6 1 13 1 14
REMARK Flexibility Score: inf
ROOT
ATOM      1  C   UNL     1      -0.099  -4.774   2.922  1.00  0.00     0.171 C 
ENDROOT
BRANCH   1   2
ATOM      2  C   UNL     1       0.162  -3.254   2.890  1.00  0.00     0.237 C 
BRANCH   2   3
ATOM      3  N   UNL     1      -1.061  -2.533   2.521  1.00  0.00    -0.350 N 
ATOM      4  H   UNL     1      -1.062  -2.303   1.500  1.00  0.00     0.345 HD
ATOM      5  H   UNL     1      -1.899  -3.120   2.740  1.00  0.00     0.345 HD
ATOM      6  H   UNL     1      -1.131  -1.647   3.074  1.00  0.00     0.345 HD
ENDBRANCH   2   3
BRANCH   2   7
ATOM      7  C   UNL     1       1.271  -2.919   1.927  1.00  0.00     0.100 C 
ATOM      8  O   UNL     1       1.202  -3.293   0.727  1.00  0.00    -0.544 OA
ATOM      9  O   UNL     1       2.373  -2.186   2.354  1.00  0.00    -0.544 OA
ENDBRANCH   2   7
ENDBRANCH   1   2
BRANCH   1  10
ATOM     10  C   UNL     1       1.094  -5.529   3.436  1.00  0.00     0.223 C 
ATOM     11  O   UNL     1       1.631  -6.417   2.719  1.00  0.00    -0.275 OA
ATOM     12  N   UNL     1       1.645  -5.224   4.716  1.00  0.00    -0.369 N 
ATOM     13  H   UNL     1       2.481  -5.740   5.067  1.00  0.00     0.159 HD
ATOM     14  H   UNL     1       1.221  -4.481   5.315  1.00  0.00     0.159 HD
ENDBRANCH   1  10
TORSDOF 4
ENDMDL
MODEL 5
REMARK VINA RESULT:    -4.605     10.888     11.412
REMARK INTER + INTRA:          -5.693
REMARK INTER:                  -5.266
REMARK INTRA:                  -0.428
REMARK UNBOUND:                -0.146
REMARK SMILES NC(=O)C[C@H]([NH3+])C(=O)[O-]
REMARK SMILES IDX 4 1 5 2 6 3 7 7 8 8 9 9 2 10 3 11 1 12
REMARK H PARENT 6 4 6 5 6 6 1 13 1 14
REMARK Flexibility Score: inf
ROOT
ATOM      1  C   UNL     1      -2.422   8.247   0.498  1.00  0.00     0.171 C 
ENDROOT
BRANCH   1   2
ATOM      2  C   UNL     1      -2.619   7.407  -0.780  1.00  0.00     0.237 C 
BRANCH   2   3
ATOM      3  N   UNL     1      -3.201   6.101  -0.450  1.00  0.00    -0.350 N 
ATOM      4  H   UNL     1      -4.212   6.067  -0.718  1.00  0.00     0.345 HD
ATOM      5  H   UNL     1      -2.687   5.345  -0.958  1.00  0.00     0.345 HD
ATOM      6  H   UNL     1      -3.112   5.923   0.578  1.00  0.00     0.345 HD
ENDBRANCH   2   3
BRANCH   2   7
ATOM      7  C   UNL     1      -1.313   7.221  -1.509  1.00  0.00     0.100 C 
ATOM      8  O   UNL     1      -1.073   6.143  -2.112  1.00  0.00    -0.544 OA
ATOM      9  O   UNL     1      -0.369   8.241  -1.527  1.00  0.00    -0.544 OA
ENDBRANCH   2   7
ENDBRANCH   1   2
BRANCH   1  10
ATOM     10  C   UNL     1      -1.632   7.501   1.534  1.00  0.00     0.223 C 
ATOM     11  O   UNL     1      -2.181   6.583   2.201  1.00  0.00    -0.275 OA
ATOM     12  N   UNL     1      -0.252   7.800   1.743  1.00  0.00    -0.369 N 
ATOM     13  H   UNL     1       0.300   7.271   2.455  1.00  0.00     0.159 HD
ATOM     14  H   UNL     1       0.221   8.546   1.188  1.00  0.00     0.159 HD
ENDBRANCH   1  10
TORSDOF 4
ENDMDL
MODEL 6
REMARK VINA RESULT:    -4.508      3.247      4.656
REMARK INTER + INTRA:          -5.576
REMARK INTER:                  -5.184
REMARK INTRA:                  -0.392
REMARK UNBOUND:                -0.146
REMARK SMILES NC(=O)C[C@H]([NH3+])C(=O)[O-]
REMARK SMILES IDX 4 1 5 2 6 3 7 7 8 8 9 9 2 10 3 11 1 12
REMARK H PARENT 6 4 6 5 6 6 1 13 1 14
REMARK Flexibility Score: inf
ROOT
ATOM      1  C   UNL     1       5.585  -2.537   1.658  1.00  0.00     0.171 C 
ENDROOT
BRANCH   1   2
ATOM      2  C   UNL     1       4.371  -2.971   0.813  1.00  0.00     0.237 C 
BRANCH   2   3
ATOM      3  N   UNL     1       4.409  -2.327  -0.505  1.00  0.00    -0.350 N 
ATOM      4  H   UNL     1       4.494  -1.289  -0.408  1.00  0.00     0.345 HD
ATOM      5  H   UNL     1       5.224  -2.688  -1.053  1.00  0.00     0.345 HD
ATOM      6  H   UNL     1       3.534  -2.552  -1.035  1.00  0.00     0.345 HD
ENDBRANCH   2   3
BRANCH   2   7
ATOM      7  C   UNL     1       3.080  -2.637   1.514  1.00  0.00     0.100 C 
ATOM      8  O   UNL     1       2.165  -2.029   0.900  1.00  0.00    -0.544 OA
ATOM      9  O   UNL     1       2.887  -3.005   2.841  1.00  0.00    -0.544 OA
ENDBRANCH   2   7
ENDBRANCH   1   2
BRANCH   1  10
ATOM     10  C   UNL     1       5.455  -1.115   2.124  1.00  0.00     0.223 C 
ATOM     11  O   UNL     1       5.502  -0.174   1.287  1.00  0.00    -0.275 OA
ATOM     12  N   UNL     1       5.243  -0.825   3.505  1.00  0.00    -0.369 N 
ATOM     13  H   UNL     1       5.140   0.164   3.826  1.00  0.00     0.159 HD
ATOM     14  H   UNL     1       5.186  -1.594   4.209  1.00  0.00     0.159 HD
ENDBRANCH   1  10
TORSDOF 4
ENDMDL
MODEL 7
REMARK VINA RESULT:    -4.358     11.158     11.686
REMARK INTER + INTRA:          -5.395
REMARK INTER:                  -5.057
REMARK INTRA:                  -0.338
REMARK UNBOUND:                -0.146
REMARK SMILES NC(=O)C[C@H]([NH3+])C(=O)[O-]
REMARK SMILES IDX 4 1 5 2 6 3 7 7 8 8 9 9 2 10 3 11 1 12
REMARK H PARENT 6 4 6 5 6 6 1 13 1 14
REMARK Flexibility Score: inf
ROOT
ATOM      1  C   UNL     1      -0.534   5.933  -6.169  1.00  0.00     0.171 C 
ENDROOT
BRANCH   1   2
ATOM      2  C   UNL     1      -0.250   6.426  -4.736  1.00  0.00     0.237 C 
BRANCH   2   3
ATOM      3  N   UNL     1       0.829   5.640  -4.128  1.00  0.00    -0.350 N 
ATOM      4  H   UNL     1       1.658   5.593  -4.765  1.00  0.00     0.345 HD
ATOM      5  H   UNL     1       1.119   6.075  -3.222  1.00  0.00     0.345 HD
ATOM      6  H   UNL     1       0.492   4.668  -3.930  1.00  0.00     0.345 HD
ENDBRANCH   2   3
BRANCH   2   7
ATOM      7  C   UNL     1      -1.490   6.347  -3.884  1.00  0.00     0.100 C 
ATOM      8  O   UNL     1      -1.497   5.643  -2.840  1.00  0.00    -0.544 OA
ATOM      9  O   UNL     1      -2.632   7.057  -4.239  1.00  0.00    -0.544 OA
ENDBRANCH   2   7
ENDBRANCH   1   2
BRANCH   1  10
ATOM     10  C   UNL     1      -0.133   4.497  -6.349  1.00  0.00     0.223 C 
ATOM     11  O   UNL     1       1.023   4.216  -6.766  1.00  0.00    -0.275 OA
ATOM     12  N   UNL     1      -1.041   3.447  -6.017  1.00  0.00    -0.369 N 
ATOM     13  H   UNL     1      -0.756   2.449  -6.131  1.00  0.00     0.159 HD
ATOM     14  H   UNL     1      -1.996   3.663  -5.656  1.00  0.00     0.159 HD
ENDBRANCH   1  10
TORSDOF 4
ENDMDL
MODEL 8
REMARK VINA RESULT:    -4.341      2.731      3.802
REMARK INTER + INTRA:          -5.375
REMARK INTER:                  -5.042
REMARK INTRA:                  -0.333
REMARK UNBOUND:                -0.146
REMARK SMILES NC(=O)C[C@H]([NH3+])C(=O)[O-]
REMARK SMILES IDX 4 1 5 2 6 3 7 7 8 8 9 9 2 10 3 11 1 12
REMARK H PARENT 6 4 6 5 6 6 1 13 1 14
REMARK Flexibility Score: inf
ROOT
ATOM      1  C   UNL     1       3.573  -3.484  -0.266  1.00  0.00     0.171 C 
ENDROOT
BRANCH   1   2
ATOM      2  C   UNL     1       2.950  -3.937   1.071  1.00  0.00     0.237 C 
BRANCH   2   3
ATOM      3  N   UNL     1       2.159  -5.158   0.879  1.00  0.00    -0.350 N 
ATOM      4  H   UNL     1       2.186  -5.464  -0.121  1.00  0.00     0.345 HD
ATOM      5  H   UNL     1       2.539  -5.925   1.481  1.00  0.00     0.345 HD
ATOM      6  H   UNL     1       1.166  -4.985   1.160  1.00  0.00     0.345 HD
ENDBRANCH   2   3
BRANCH   2   7
ATOM      7  C   UNL     1       2.088  -2.850   1.658  1.00  0.00     0.100 C 
ATOM      8  O   UNL     1       1.842  -1.809   0.993  1.00  0.00    -0.544 OA
ATOM      9  O   UNL     1       1.550  -2.991   2.932  1.00  0.00    -0.544 OA
ENDBRANCH   2   7
ENDBRANCH   1   2
BRANCH   1  10
ATOM     10  C   UNL     1       3.084  -4.318  -1.415  1.00  0.00     0.223 C 
ATOM     11  O   UNL     1       1.893  -4.199  -1.814  1.00  0.00    -0.275 OA
ATOM     12  N   UNL     1       3.968  -5.217  -2.082  1.00  0.00    -0.369 N 
ATOM     13  H   UNL     1       3.630  -5.787  -2.890  1.00  0.00     0.159 HD
ATOM     14  H   UNL     1       4.960  -5.315  -1.774  1.00  0.00     0.159 HD
ENDBRANCH   1  10
TORSDOF 4
ENDMDL
MODEL 9
REMARK VINA RESULT:    -4.332     11.073     11.548
REMARK INTER + INTRA:          -5.364
REMARK INTER:                  -4.926
REMARK INTRA:                  -0.438
REMARK UNBOUND:                -0.146
REMARK SMILES NC(=O)C[C@H]([NH3+])C(=O)[O-]
REMARK SMILES IDX 4 1 5 2 6 3 7 7 8 8 9 9 2 10 3 11 1 12
REMARK H PARENT 6 4 6 5 6 6 1 13 1 14
REMARK Flexibility Score: inf
ROOT
ATOM      1  C   UNL     1      -2.104   8.529   0.477  1.00  0.00     0.171 C 
ENDROOT
BRANCH   1   2
ATOM      2  C   UNL     1      -1.466   8.447   1.878  1.00  0.00     0.237 C 
BRANCH   2   3
ATOM      3  N   UNL     1      -0.130   7.847   1.798  1.00  0.00    -0.350 N 
ATOM      4  H   UNL     1       0.068   7.267   2.646  1.00  0.00     0.345 HD
ATOM      5  H   UNL     1      -0.063   7.243   0.947  1.00  0.00     0.345 HD
ATOM      6  H   UNL     1       0.593   8.601   1.721  1.00  0.00     0.345 HD
ENDBRANCH   2   3
BRANCH   2   7
ATOM      7  C   UNL     1      -2.334   7.652   2.819  1.00  0.00     0.100 C 
ATOM      8  O   UNL     1      -1.836   7.128   3.849  1.00  0.00    -0.544 OA
ATOM      9  O   UNL     1      -3.692   7.498   2.560  1.00  0.00    -0.544 OA
ENDBRANCH   2   7
ENDBRANCH   1   2
BRANCH   1  10
ATOM     10  C   UNL     1      -1.941   7.242  -0.281  1.00  0.00     0.223 C 
ATOM     11  O   UNL     1      -0.843   6.980  -0.842  1.00  0.00    -0.275 OA
ATOM     12  N   UNL     1      -3.011   6.299  -0.339  1.00  0.00    -0.369 N 
ATOM     13  H   UNL     1      -2.892   5.399  -0.856  1.00  0.00     0.159 HD
ATOM     14  H   UNL     1      -3.920   6.495   0.133  1.00  0.00     0.159 HD
ENDBRANCH   1  10
TORSDOF 4
ENDMDL
