MODEL 1
REMARK VINA RESULT:     0.848      0.000      0.000
REMARK INTER + INTRA:           2.797
REMARK INTER:                   1.641
REMARK INTRA:                   1.156
REMARK UNBOUND:                 1.156
REMARK SMILES CCCCCCCCCCCCCCCCCC(=O)[O-]
REMARK SMILES IDX 10 1 11 2 12 3 13 4 14 5 15 6 16 7 17 8 18 9 19 10 20 11
REMARK SMILES IDX 9 12 8 13 7 14 6 15 5 16 4 17 3 18 2 19 1 20
REMARK H PARENT
REMARK Flexibility Score: inf
ROOT
ATOM      1  C   UNL     1      -0.138  37.710  19.214  1.00  0.00     0.000 C 
ENDROOT
BRANCH   1   2
ATOM      2  C   UNL     1      -1.374  37.276  20.024  1.00  0.00     0.000 C 
BRANCH   2   3
ATOM      3  C   UNL     1      -2.598  38.202  19.898  1.00  0.00     0.000 C 
BRANCH   3   4
ATOM      4  C   UNL     1      -3.806  37.514  19.239  1.00  0.00     0.000 C 
BRANCH   4   5
ATOM      5  C   UNL     1      -5.125  37.761  19.993  1.00  0.00     0.000 C 
BRANCH   5   6
ATOM      6  C   UNL     1      -4.973  38.180  21.467  1.00  0.00     0.000 C 
BRANCH   6   7
ATOM      7  C   UNL     1      -5.018  36.988  22.439  1.00  0.00     0.006 C 
BRANCH   7   8
ATOM      8  C   UNL     1      -5.066  35.643  21.702  1.00  0.00     0.053 C 
BRANCH   8   9
ATOM      9  C   UNL     1      -4.333  34.571  22.448  1.00  0.00     0.041 C 
ATOM     10  O   UNL     1      -4.941  33.857  23.288  1.00  0.00    -0.550 OA
ATOM     11  O   UNL     1      -2.986  34.344  22.199  1.00  0.00    -0.550 OA
ENDBRANCH   8   9
ENDBRANCH   7   8
ENDBRANCH   6   7
ENDBRANCH   5   6
ENDBRANCH   4   5
ENDBRANCH   3   4
ENDBRANCH   2   3
ENDBRANCH   1   2
BRANCH   1  12
ATOM     12  C   UNL     1      -0.424  37.856  17.713  1.00  0.00     0.000 C 
BRANCH  12  13
ATOM     13  C   UNL     1      -1.817  37.310  17.365  1.00  0.00    -0.000 C 
BRANCH  13  14
ATOM     14  C   UNL     1      -2.222  37.600  15.911  1.00  0.00    -0.000 C 
BRANCH  14  15
ATOM     15  C   UNL     1      -1.894  36.436  14.964  1.00  0.00    -0.000 C 
BRANCH  15  16
ATOM     16  C   UNL     1      -3.035  36.201  13.966  1.00  0.00    -0.000 C 
BRANCH  16  17
ATOM     17  C   UNL     1      -4.367  36.733  14.517  1.00  0.00    -0.000 C 
BRANCH  17  18
ATOM     18  C   UNL     1      -4.783  38.065  13.875  1.00  0.00    -0.000 C 
BRANCH  18  19
ATOM     19  C   UNL     1      -4.355  39.282  14.709  1.00  0.00    -0.003 C 
ATOM     20  C   UNL     1      -4.946  40.570  14.145  1.00  0.00     0.004 C 
ENDBRANCH  18  19
ENDBRANCH  17  18
ENDBRANCH  16  17
ENDBRANCH  15  16
ENDBRANCH  14  15
ENDBRANCH  13  14
ENDBRANCH  12  13
ENDBRANCH   1  12
TORSDOF 16
ENDMDL
MODEL 2
REMARK VINA RESULT:     1.327      2.852      5.081
REMARK INTER + INTRA:           3.724
REMARK INTER:                   4.079
REMARK INTRA:                  -0.355
REMARK UNBOUND:                 1.156
REMARK SMILES CCCCCCCCCCCCCCCCCC(=O)[O-]
REMARK SMILES IDX 10 1 11 2 12 3 13 4 14 5 15 6 16 7 17 8 18 9 19 10 20 11
REMARK SMILES IDX 9 12 8 13 7 14 6 15 5 16 4 17 3 18 2 19 1 20
REMARK H PARENT
REMARK Flexibility Score: inf
ROOT
ATOM      1  C   UNL     1      -4.330  34.694  22.377  1.00  0.00     0.000 C 
ENDROOT
BRANCH   1   2
ATOM      2  C   UNL     1      -5.091  34.752  23.715  1.00  0.00     0.000 C 
BRANCH   2   3
ATOM      3  C   UNL     1      -5.123  36.134  24.392  1.00  0.00     0.000 C 
BRANCH   3   4
ATOM      4  C   UNL     1      -5.001  36.055  25.923  1.00  0.00     0.000 C 
BRANCH   4   5
ATOM      5  C   UNL     1      -4.158  37.197  26.519  1.00  0.00     0.000 C 
BRANCH   5   6
ATOM      6  C   UNL     1      -3.860  38.366  25.561  1.00  0.00     0.000 C 
BRANCH   6   7
ATOM      7  C   UNL     1      -5.124  38.932  24.892  1.00  0.00     0.006 C 
BRANCH   7   8
ATOM      8  C   UNL     1      -4.877  40.309  24.261  1.00  0.00     0.053 C 
BRANCH   8   9
ATOM      9  C   UNL     1      -4.645  40.213  22.785  1.00  0.00     0.041 C 
ATOM     10  O   UNL     1      -5.081  41.110  22.017  1.00  0.00    -0.550 OA
ATOM     11  O   UNL     1      -3.928  39.147  22.259  1.00  0.00    -0.550 OA
ENDBRANCH   8   9
ENDBRANCH   7   8
ENDBRANCH   6   7
ENDBRANCH   5   6
ENDBRANCH   4   5
ENDBRANCH   3   4
ENDBRANCH   2   3
ENDBRANCH   1   2
BRANCH   1  12
ATOM     12  C   UNL     1      -4.603  35.908  21.478  1.00  0.00     0.000 C 
BRANCH  12  13
ATOM     13  C   UNL     1      -4.964  35.464  20.052  1.00  0.00    -0.000 C 
BRANCH  13  14
ATOM     14  C   UNL     1      -4.581  36.506  18.990  1.00  0.00    -0.000 C 
BRANCH  14  15
ATOM     15  C   UNL     1      -3.368  37.353  19.405  1.00  0.00    -0.000 C 
BRANCH  15  16
ATOM     16  C   UNL     1      -2.469  37.653  18.199  1.00  0.00    -0.000 C 
BRANCH  16  17
ATOM     17  C   UNL     1      -2.733  36.663  17.055  1.00  0.00    -0.000 C 
BRANCH  17  18
ATOM     18  C   UNL     1      -2.081  37.096  15.733  1.00  0.00    -0.000 C 
BRANCH  18  19
ATOM     19  C   UNL     1      -3.098  37.664  14.731  1.00  0.00    -0.003 C 
ATOM     20  C   UNL     1      -4.152  36.622  14.370  1.00  0.00     0.004 C 
ENDBRANCH  18  19
ENDBRANCH  17  18
ENDBRANCH  16  17
ENDBRANCH  15  16
ENDBRANCH  14  15
ENDBRANCH  13  14
ENDBRANCH  12  13
ENDBRANCH   1  12
TORSDOF 16
ENDMDL
MODEL 3
REMARK VINA RESULT:     1.571      3.977      5.718
REMARK INTER + INTRA:           4.196
REMARK INTER:                   5.120
REMARK INTRA:                  -0.925
REMARK UNBOUND:                 1.156
REMARK SMILES CCCCCCCCCCCCCCCCCC(=O)[O-]
REMARK SMILES IDX 10 1 11 2 12 3 13 4 14 5 15 6 16 7 17 8 18 9 19 10 20 11
REMARK SMILES IDX 9 12 8 13 7 14 6 15 5 16 4 17 3 18 2 19 1 20
REMARK H PARENT
REMARK Flexibility Score: inf
ROOT
ATOM      1  C   UNL     1      -4.189  34.677  22.992  1.00  0.00     0.000 C 
ENDROOT
BRANCH   1   2
ATOM      2  C   UNL     1      -5.085  35.032  24.193  1.00  0.00     0.000 C 
BRANCH   2   3
ATOM      3  C   UNL     1      -5.125  36.526  24.562  1.00  0.00     0.000 C 
BRANCH   3   4
ATOM      4  C   UNL     1      -4.915  36.779  26.065  1.00  0.00     0.000 C 
BRANCH   4   5
ATOM      5  C   UNL     1      -3.934  37.930  26.350  1.00  0.00     0.000 C 
BRANCH   5   6
ATOM      6  C   UNL     1      -2.549  37.501  26.873  1.00  0.00     0.000 C 
BRANCH   6   7
ATOM      7  C   UNL     1      -2.561  36.116  27.541  1.00  0.00     0.006 C 
BRANCH   7   8
ATOM      8  C   UNL     1      -1.163  35.684  28.003  1.00  0.00     0.053 C 
BRANCH   8   9
ATOM      9  C   UNL     1      -1.226  34.635  29.069  1.00  0.00     0.041 C 
ATOM     10  O   UNL     1      -0.165  34.176  29.568  1.00  0.00    -0.550 OA
ATOM     11  O   UNL     1      -2.455  34.181  29.529  1.00  0.00    -0.550 OA
ENDBRANCH   8   9
ENDBRANCH   7   8
ENDBRANCH   6   7
ENDBRANCH   5   6
ENDBRANCH   4   5
ENDBRANCH   3   4
ENDBRANCH   2   3
ENDBRANCH   1   2
BRANCH   1  12
ATOM     12  C   UNL     1      -4.354  35.644  21.812  1.00  0.00     0.000 C 
BRANCH  12  13
ATOM     13  C   UNL     1      -4.984  34.932  20.605  1.00  0.00    -0.000 C 
BRANCH  13  14
ATOM     14  C   UNL     1      -4.876  35.752  19.309  1.00  0.00    -0.000 C 
BRANCH  14  15
ATOM     15  C   UNL     1      -3.975  36.986  19.465  1.00  0.00    -0.000 C 
BRANCH  15  16
ATOM     16  C   UNL     1      -3.219  37.282  18.163  1.00  0.00    -0.000 C 
BRANCH  16  17
ATOM     17  C   UNL     1      -3.533  36.227  17.092  1.00  0.00    -0.000 C 
BRANCH  17  18
ATOM     18  C   UNL     1      -2.593  36.315  15.880  1.00  0.00    -0.000 C 
BRANCH  18  19
ATOM     19  C   UNL     1      -3.326  36.721  14.592  1.00  0.00    -0.003 C 
ATOM     20  C   UNL     1      -3.773  38.178  14.651  1.00  0.00     0.004 C 
ENDBRANCH  18  19
ENDBRANCH  17  18
ENDBRANCH  16  17
ENDBRANCH  15  16
ENDBRANCH  14  15
ENDBRANCH  13  14
ENDBRANCH  12  13
ENDBRANCH   1  12
TORSDOF 16
ENDMDL
MODEL 4
REMARK VINA RESULT:     1.619      3.520      8.025
REMARK INTER + INTRA:           4.290
REMARK INTER:                   5.236
REMARK INTRA:                  -0.946
REMARK UNBOUND:                 1.156
REMARK SMILES CCCCCCCCCCCCCCCCCC(=O)[O-]
REMARK SMILES IDX 10 1 11 2 12 3 13 4 14 5 15 6 16 7 17 8 18 9 19 10 20 11
REMARK SMILES IDX 9 12 8 13 7 14 6 15 5 16 4 17 3 18 2 19 1 20
REMARK H PARENT
REMARK Flexibility Score: inf
ROOT
ATOM      1  C   UNL     1      -3.967  34.934  22.120  1.00  0.00     0.000 C 
ENDROOT
BRANCH   1   2
ATOM      2  C   UNL     1      -4.488  35.590  20.828  1.00  0.00     0.000 C 
BRANCH   2   3
ATOM      3  C   UNL     1      -3.574  36.675  20.228  1.00  0.00     0.000 C 
BRANCH   3   4
ATOM      4  C   UNL     1      -4.294  37.566  19.201  1.00  0.00     0.000 C 
BRANCH   4   5
ATOM      5  C   UNL     1      -4.505  36.870  17.845  1.00  0.00     0.000 C 
BRANCH   5   6
ATOM      6  C   UNL     1      -3.885  35.465  17.721  1.00  0.00     0.000 C 
BRANCH   6   7
ATOM      7  C   UNL     1      -2.751  35.399  16.684  1.00  0.00     0.006 C 
BRANCH   7   8
ATOM      8  C   UNL     1      -2.378  36.786  16.143  1.00  0.00     0.053 C 
BRANCH   8   9
ATOM      9  C   UNL     1      -2.959  37.032  14.785  1.00  0.00     0.041 C 
ATOM     10  O   UNL     1      -2.843  36.163  13.881  1.00  0.00    -0.550 OA
ATOM     11  O   UNL     1      -3.649  38.208  14.524  1.00  0.00    -0.550 OA
ENDBRANCH   8   9
ENDBRANCH   7   8
ENDBRANCH   6   7
ENDBRANCH   5   6
ENDBRANCH   4   5
ENDBRANCH   3   4
ENDBRANCH   2   3
ENDBRANCH   1   2
BRANCH   1  12
ATOM     12  C   UNL     1      -5.092  34.409  23.023  1.00  0.00     0.000 C 
BRANCH  12  13
ATOM     13  C   UNL     1      -4.908  34.899  24.467  1.00  0.00    -0.000 C 
BRANCH  13  14
ATOM     14  C   UNL     1      -5.123  36.413  24.612  1.00  0.00    -0.000 C 
BRANCH  14  15
ATOM     15  C   UNL     1      -4.923  36.903  26.055  1.00  0.00    -0.000 C 
BRANCH  15  16
ATOM     16  C   UNL     1      -5.050  38.429  26.140  1.00  0.00    -0.000 C 
BRANCH  16  17
ATOM     17  C   UNL     1      -4.224  39.112  25.039  1.00  0.00    -0.000 C 
BRANCH  17  18
ATOM     18  C   UNL     1      -4.661  40.563  24.785  1.00  0.00    -0.000 C 
BRANCH  18  19
ATOM     19  C   UNL     1      -5.123  40.795  23.338  1.00  0.00    -0.003 C 
ATOM     20  C   UNL     1      -4.946  39.536  22.496  1.00  0.00     0.004 C 
ENDBRANCH  18  19
ENDBRANCH  17  18
ENDBRANCH  16  17
ENDBRANCH  15  16
ENDBRANCH  14  15
ENDBRANCH  13  14
ENDBRANCH  12  13
ENDBRANCH   1  12
TORSDOF 16
ENDMDL
MODEL 5
REMARK VINA RESULT:     1.870      4.230      9.305
REMARK INTER + INTRA:           4.776
REMARK INTER:                   4.966
REMARK INTRA:                  -0.190
REMARK UNBOUND:                 1.156
REMARK SMILES CCCCCCCCCCCCCCCCCC(=O)[O-]
REMARK SMILES IDX 10 1 11 2 12 3 13 4 14 5 15 6 16 7 17 8 18 9 19 10 20 11
REMARK SMILES IDX 9 12 8 13 7 14 6 15 5 16 4 17 3 18 2 19 1 20
REMARK H PARENT
REMARK Flexibility Score: inf
ROOT
ATOM      1  C   UNL     1      -3.700  35.263  22.271  1.00  0.00     0.000 C 
ENDROOT
BRANCH   1   2
ATOM      2  C   UNL     1      -3.662  35.260  20.732  1.00  0.00     0.000 C 
BRANCH   2   3
ATOM      3  C   UNL     1      -4.999  35.593  20.043  1.00  0.00     0.000 C 
BRANCH   3   4
ATOM      4  C   UNL     1      -4.816  36.305  18.692  1.00  0.00     0.000 C 
BRANCH   4   5
ATOM      5  C   UNL     1      -3.698  37.362  18.715  1.00  0.00     0.000 C 
BRANCH   5   6
ATOM      6  C   UNL     1      -2.756  37.354  17.496  1.00  0.00     0.000 C 
BRANCH   6   7
ATOM      7  C   UNL     1      -2.749  36.008  16.752  1.00  0.00     0.006 C 
BRANCH   7   8
ATOM      8  C   UNL     1      -2.784  36.189  15.228  1.00  0.00     0.053 C 
BRANCH   8   9
ATOM      9  C   UNL     1      -3.647  37.344  14.822  1.00  0.00     0.041 C 
ATOM     10  O   UNL     1      -3.433  38.490  15.295  1.00  0.00    -0.550 OA
ATOM     11  O   UNL     1      -4.672  37.159  13.904  1.00  0.00    -0.550 OA
ENDBRANCH   8   9
ENDBRANCH   7   8
ENDBRANCH   6   7
ENDBRANCH   5   6
ENDBRANCH   4   5
ENDBRANCH   3   4
ENDBRANCH   2   3
ENDBRANCH   1   2
BRANCH   1  12
ATOM     12  C   UNL     1      -4.993  34.665  22.843  1.00  0.00     0.000 C 
BRANCH  12  13
ATOM     13  C   UNL     1      -5.125  34.977  24.342  1.00  0.00    -0.000 C 
BRANCH  13  14
ATOM     14  C   UNL     1      -5.100  36.485  24.639  1.00  0.00    -0.000 C 
BRANCH  14  15
ATOM     15  C   UNL     1      -4.902  36.789  26.131  1.00  0.00    -0.000 C 
BRANCH  15  16
ATOM     16  C   UNL     1      -3.892  37.925  26.332  1.00  0.00    -0.000 C 
BRANCH  16  17
ATOM     17  C   UNL     1      -2.508  37.372  26.705  1.00  0.00    -0.000 C 
BRANCH  17  18
ATOM     18  C   UNL     1      -2.530  36.548  28.001  1.00  0.00    -0.000 C 
BRANCH  18  19
ATOM     19  C   UNL     1      -1.342  35.578  28.103  1.00  0.00    -0.003 C 
ATOM     20  C   UNL     1      -1.591  34.518  29.172  1.00  0.00     0.004 C 
ENDBRANCH  18  19
ENDBRANCH  17  18
ENDBRANCH  16  17
ENDBRANCH  15  16
ENDBRANCH  14  15
ENDBRANCH  13  14
ENDBRANCH  12  13
ENDBRANCH   1  12
TORSDOF 16
ENDMDL
MODEL 6
REMARK VINA RESULT:     2.331      2.788      6.938
REMARK INTER + INTRA:           5.668
REMARK INTER:                   4.230
REMARK INTRA:                   1.438
REMARK UNBOUND:                 1.156
REMARK SMILES CCCCCCCCCCCCCCCCCC(=O)[O-]
REMARK SMILES IDX 10 1 11 2 12 3 13 4 14 5 15 6 16 7 17 8 18 9 19 10 20 11
REMARK SMILES IDX 9 12 8 13 7 14 6 15 5 16 4 17 3 18 2 19 1 20
REMARK H PARENT
REMARK Flexibility Score: inf
ROOT
ATOM      1  C   UNL     1      -1.729  38.232  20.469  1.00  0.00     0.000 C 
ENDROOT
BRANCH   1   2
ATOM      2  C   UNL     1      -0.895  37.420  19.461  1.00  0.00     0.000 C 
BRANCH   2   3
ATOM      3  C   UNL     1      -1.238  37.662  17.980  1.00  0.00     0.000 C 
BRANCH   3   4
ATOM      4  C   UNL     1      -2.419  36.805  17.490  1.00  0.00     0.000 C 
BRANCH   4   5
ATOM      5  C   UNL     1      -3.560  37.642  16.885  1.00  0.00     0.000 C 
BRANCH   5   6
ATOM      6  C   UNL     1      -3.157  38.553  15.710  1.00  0.00     0.000 C 
BRANCH   6   7
ATOM      7  C   UNL     1      -4.045  38.361  14.469  1.00  0.00     0.006 C 
BRANCH   7   8
ATOM      8  C   UNL     1      -4.032  36.911  13.967  1.00  0.00     0.053 C 
BRANCH   8   9
ATOM      9  C   UNL     1      -2.809  36.175  14.417  1.00  0.00     0.041 C 
ATOM     10  O   UNL     1      -2.903  35.255  15.271  1.00  0.00    -0.550 OA
ATOM     11  O   UNL     1      -1.568  36.488  13.877  1.00  0.00    -0.550 OA
ENDBRANCH   8   9
ENDBRANCH   7   8
ENDBRANCH   6   7
ENDBRANCH   5   6
ENDBRANCH   4   5
ENDBRANCH   3   4
ENDBRANCH   2   3
ENDBRANCH   1   2
BRANCH   1  12
ATOM     12  C   UNL     1      -3.138  38.561  19.956  1.00  0.00     0.000 C 
BRANCH  12  13
ATOM     13  C   UNL     1      -4.210  37.926  20.855  1.00  0.00    -0.000 C 
BRANCH  13  14
ATOM     14  C   UNL     1      -5.094  36.918  20.104  1.00  0.00    -0.000 C 
BRANCH  14  15
ATOM     15  C   UNL     1      -4.448  35.528  20.002  1.00  0.00    -0.000 C 
BRANCH  15  16
ATOM     16  C   UNL     1      -4.335  34.872  21.384  1.00  0.00    -0.000 C 
BRANCH  16  17
ATOM     17  C   UNL     1      -5.067  35.702  22.449  1.00  0.00    -0.000 C 
BRANCH  17  18
ATOM     18  C   UNL     1      -5.022  35.053  23.841  1.00  0.00    -0.000 C 
BRANCH  18  19
ATOM     19  C   UNL     1      -5.122  36.083  24.977  1.00  0.00    -0.003 C 
ATOM     20  C   UNL     1      -5.015  37.506  24.437  1.00  0.00     0.004 C 
ENDBRANCH  18  19
ENDBRANCH  17  18
ENDBRANCH  16  17
ENDBRANCH  15  16
ENDBRANCH  14  15
ENDBRANCH  13  14
ENDBRANCH  12  13
ENDBRANCH   1  12
TORSDOF 16
ENDMDL
