MODEL 1
REMARK VINA RESULT:    -3.781      0.000      0.000
REMARK INTER + INTRA:          -4.392
REMARK INTER:                  -4.334
REMARK INTRA:                  -0.058
REMARK UNBOUND:                -0.058
REMARK SMILES CC(C)[C@@H]([NH3+])C(=O)[O-]
REMARK SMILES IDX 4 1 5 2 6 6 7 7 8 8 2 9 1 10 3 11
REMARK H PARENT 5 3 5 4 5 5
REMARK Flexibility Score: inf
ROOT
ATOM      1  C   UNL     1      15.774  -4.473  18.413  1.00  0.00     0.230 C 
ENDROOT
BRANCH   1   2
ATOM      2  N   UNL     1      15.087  -3.171  18.432  1.00  0.00    -0.350 N 
ATOM      3  H   UNL     1      15.765  -2.403  18.633  1.00  0.00     0.345 HD
ATOM      4  H   UNL     1      14.371  -3.168  19.195  1.00  0.00     0.345 HD
ATOM      5  H   UNL     1      14.604  -2.981  17.525  1.00  0.00     0.345 HD
ENDBRANCH   1   2
BRANCH   1   6
ATOM      6  C   UNL     1      15.145  -5.401  17.401  1.00  0.00     0.099 C 
ATOM      7  O   UNL     1      13.982  -5.853  17.573  1.00  0.00    -0.544 OA
ATOM      8  O   UNL     1      15.838  -5.724  16.241  1.00  0.00    -0.544 OA
ENDBRANCH   1   6
BRANCH   1   9
ATOM      9  C   UNL     1      17.309  -4.351  18.176  1.00  0.00     0.047 C 
ATOM     10  C   UNL     1      18.113  -4.727  19.431  1.00  0.00     0.014 C 
ATOM     11  C   UNL     1      17.746  -2.970  17.662  1.00  0.00     0.014 C 
ENDBRANCH   1   9
TORSDOF 3
ENDMDL
MODEL 2
REMARK VINA RESULT:    -3.762      7.316      7.852
REMARK INTER + INTRA:          -4.370
REMARK INTER:                  -4.325
REMARK INTRA:                  -0.045
REMARK UNBOUND:                -0.058
REMARK SMILES CC(C)[C@@H]([NH3+])C(=O)[O-]
REMARK SMILES IDX 4 1 5 2 6 6 7 7 8 8 2 9 1 10 3 11
REMARK H PARENT 5 3 5 4 5 5
REMARK Flexibility Score: inf
ROOT
ATOM      1  C   UNL     1      19.095  -9.225  13.006  1.00  0.00     0.230 C 
ENDROOT
BRANCH   1   2
ATOM      2  N   UNL     1      17.916  -9.566  12.195  1.00  0.00    -0.350 N 
ATOM      3  H   UNL     1      17.300  -8.732  12.076  1.00  0.00     0.345 HD
ATOM      4  H   UNL     1      17.359 -10.304  12.686  1.00  0.00     0.345 HD
ATOM      5  H   UNL     1      18.191  -9.932  11.254  1.00  0.00     0.345 HD
ENDBRANCH   1   2
BRANCH   1   6
ATOM      6  C   UNL     1      18.692  -8.511  14.273  1.00  0.00     0.099 C 
ATOM      7  O   UNL     1      19.557  -8.144  15.112  1.00  0.00    -0.544 OA
ATOM      8  O   UNL     1      17.354  -8.210  14.497  1.00  0.00    -0.544 OA
ENDBRANCH   1   6
BRANCH   1   9
ATOM      9  C   UNL     1      19.994 -10.457  13.325  1.00  0.00     0.047 C 
ATOM     10  C   UNL     1      21.459 -10.214  12.928  1.00  0.00     0.014 C 
ATOM     11  C   UNL     1      19.489 -11.769  12.703  1.00  0.00     0.014 C 
ENDBRANCH   1   9
TORSDOF 3
ENDMDL
MODEL 3
REMARK VINA RESULT:    -3.675      6.744      7.669
REMARK INTER + INTRA:          -4.270
REMARK INTER:                  -4.222
REMARK INTRA:                  -0.048
REMARK UNBOUND:                -0.058
REMARK SMILES CC(C)[C@@H]([NH3+])C(=O)[O-]
REMARK SMILES IDX 4 1 5 2 6 6 7 7 8 8 2 9 1 10 3 11
REMARK H PARENT 5 3 5 4 5 5
REMARK Flexibility Score: inf
ROOT
ATOM      1  C   UNL     1      20.837  -3.224  22.886  1.00  0.00     0.230 C 
ENDROOT
BRANCH   1   2
ATOM      2  N   UNL     1      21.977  -4.144  23.028  1.00  0.00    -0.350 N 
ATOM      3  H   UNL     1      22.641  -3.792  23.753  1.00  0.00     0.345 HD
ATOM      4  H   UNL     1      22.496  -4.196  22.121  1.00  0.00     0.345 HD
ATOM      5  H   UNL     1      21.661  -5.107  23.284  1.00  0.00     0.345 HD
ENDBRANCH   1   2
BRANCH   1   6
ATOM      6  C   UNL     1      21.192  -1.842  23.378  1.00  0.00     0.099 C 
ATOM      7  O   UNL     1      22.298  -1.315  23.085  1.00  0.00    -0.544 OA
ATOM      8  O   UNL     1      20.269  -1.119  24.125  1.00  0.00    -0.544 OA
ENDBRANCH   1   6
BRANCH   1   9
ATOM      9  C   UNL     1      20.275  -3.168  21.433  1.00  0.00     0.047 C 
ATOM     10  C   UNL     1      19.018  -4.037  21.273  1.00  0.00     0.014 C 
ATOM     11  C   UNL     1      21.310  -3.532  20.356  1.00  0.00     0.014 C 
ENDBRANCH   1   9
TORSDOF 3
ENDMDL
MODEL 4
REMARK VINA RESULT:    -3.666      8.169      9.051
REMARK INTER + INTRA:          -4.260
REMARK INTER:                  -4.198
REMARK INTRA:                  -0.063
REMARK UNBOUND:                -0.058
REMARK SMILES CC(C)[C@@H]([NH3+])C(=O)[O-]
REMARK SMILES IDX 4 1 5 2 6 6 7 7 8 8 2 9 1 10 3 11
REMARK H PARENT 5 3 5 4 5 5
REMARK Flexibility Score: inf
ROOT
ATOM      1  C   UNL     1      23.074  -1.653  21.911  1.00  0.00     0.230 C 
ENDROOT
BRANCH   1   2
ATOM      2  N   UNL     1      24.270  -2.509  21.959  1.00  0.00    -0.350 N 
ATOM      3  H   UNL     1      24.184  -3.296  21.279  1.00  0.00     0.345 HD
ATOM      4  H   UNL     1      24.361  -2.924  22.915  1.00  0.00     0.345 HD
ATOM      5  H   UNL     1      25.139  -1.963  21.752  1.00  0.00     0.345 HD
ENDBRANCH   1   2
BRANCH   1   6
ATOM      6  C   UNL     1      21.899  -2.331  22.575  1.00  0.00     0.099 C 
ATOM      7  O   UNL     1      21.440  -3.415  22.128  1.00  0.00    -0.544 OA
ATOM      8  O   UNL     1      21.345  -1.778  23.723  1.00  0.00    -0.544 OA
ENDBRANCH   1   6
BRANCH   1   9
ATOM      9  C   UNL     1      23.310  -0.236  22.514  1.00  0.00     0.047 C 
ATOM     10  C   UNL     1      23.060   0.873  21.480  1.00  0.00     0.014 C 
ATOM     11  C   UNL     1      24.698  -0.061  23.153  1.00  0.00     0.014 C 
ENDBRANCH   1   9
TORSDOF 3
ENDMDL
MODEL 5
REMARK VINA RESULT:    -3.654      7.272      7.961
REMARK INTER + INTRA:          -4.246
REMARK INTER:                  -4.269
REMARK INTRA:                   0.023
REMARK UNBOUND:                -0.058
REMARK SMILES CC(C)[C@@H]([NH3+])C(=O)[O-]
REMARK SMILES IDX 4 1 5 2 6 6 7 7 8 8 2 9 1 10 3 11
REMARK H PARENT 5 3 5 4 5 5
REMARK Flexibility Score: inf
ROOT
ATOM      1  C   UNL     1      22.921  -1.607  21.630  1.00  0.00     0.230 C 
ENDROOT
BRANCH   1   2
ATOM      2  N   UNL     1      24.038  -2.522  21.918  1.00  0.00    -0.350 N 
ATOM      3  H   UNL     1      23.900  -2.986  22.843  1.00  0.00     0.345 HD
ATOM      4  H   UNL     1      24.929  -1.976  21.967  1.00  0.00     0.345 HD
ATOM      5  H   UNL     1      24.137  -3.250  21.174  1.00  0.00     0.345 HD
ENDBRANCH   1   2
BRANCH   1   6
ATOM      6  C   UNL     1      21.906  -2.262  20.725  1.00  0.00     0.099 C 
ATOM      7  O   UNL     1      21.108  -1.569  20.040  1.00  0.00    -0.544 OA
ATOM      8  O   UNL     1      21.881  -3.647  20.607  1.00  0.00    -0.544 OA
ENDBRANCH   1   6
BRANCH   1   9
ATOM      9  C   UNL     1      22.240  -1.050  22.915  1.00  0.00     0.047 C 
ATOM     10  C   UNL     1      21.133  -1.984  23.427  1.00  0.00     0.014 C 
ATOM     11  C   UNL     1      21.694   0.379  22.754  1.00  0.00     0.014 C 
ENDBRANCH   1   9
TORSDOF 3
ENDMDL
MODEL 6
REMARK VINA RESULT:    -3.647      2.254      3.395
REMARK INTER + INTRA:          -4.238
REMARK INTER:                  -4.177
REMARK INTRA:                  -0.061
REMARK UNBOUND:                -0.058
REMARK SMILES CC(C)[C@@H]([NH3+])C(=O)[O-]
REMARK SMILES IDX 4 1 5 2 6 6 7 7 8 8 2 9 1 10 3 11
REMARK H PARENT 5 3 5 4 5 5
REMARK Flexibility Score: inf
ROOT
ATOM      1  C   UNL     1      15.921  -3.727  17.406  1.00  0.00     0.230 C 
ENDROOT
BRANCH   1   2
ATOM      2  N   UNL     1      15.004  -3.060  18.344  1.00  0.00    -0.350 N 
ATOM      3  H   UNL     1      14.171  -2.686  17.837  1.00  0.00     0.345 HD
ATOM      4  H   UNL     1      15.493  -2.249  18.789  1.00  0.00     0.345 HD
ATOM      5  H   UNL     1      14.689  -3.710  19.099  1.00  0.00     0.345 HD
ENDBRANCH   1   2
BRANCH   1   6
ATOM      6  C   UNL     1      17.360  -3.437  17.758  1.00  0.00     0.099 C 
ATOM      7  O   UNL     1      17.922  -2.380  17.365  1.00  0.00    -0.544 OA
ATOM      8  O   UNL     1      18.062  -4.322  18.567  1.00  0.00    -0.544 OA
ENDBRANCH   1   6
BRANCH   1   9
ATOM      9  C   UNL     1      15.674  -5.261  17.297  1.00  0.00     0.047 C 
ATOM     10  C   UNL     1      16.050  -5.804  15.910  1.00  0.00     0.014 C 
ATOM     11  C   UNL     1      14.241  -5.684  17.660  1.00  0.00     0.014 C 
ENDBRANCH   1   9
TORSDOF 3
ENDMDL
MODEL 7
REMARK VINA RESULT:    -3.590      6.337      7.378
REMARK INTER + INTRA:          -4.172
REMARK INTER:                  -4.125
REMARK INTRA:                  -0.047
REMARK UNBOUND:                -0.058
REMARK SMILES CC(C)[C@@H]([NH3+])C(=O)[O-]
REMARK SMILES IDX 4 1 5 2 6 6 7 7 8 8 2 9 1 10 3 11
REMARK H PARENT 5 3 5 4 5 5
REMARK Flexibility Score: inf
ROOT
ATOM      1  C   UNL     1      22.111  -3.131  21.976  1.00  0.00     0.230 C 
ENDROOT
BRANCH   1   2
ATOM      2  N   UNL     1      21.999  -4.147  23.035  1.00  0.00    -0.350 N 
ATOM      3  H   UNL     1      21.973  -5.105  22.621  1.00  0.00     0.345 HD
ATOM      4  H   UNL     1      21.104  -4.005  23.559  1.00  0.00     0.345 HD
ATOM      5  H   UNL     1      22.792  -4.082  23.713  1.00  0.00     0.345 HD
ENDBRANCH   1   2
BRANCH   1   6
ATOM      6  C   UNL     1      21.233  -3.479  20.798  1.00  0.00     0.099 C 
ATOM      7  O   UNL     1      21.735  -3.775  19.682  1.00  0.00    -0.544 OA
ATOM      8  O   UNL     1      19.853  -3.521  20.958  1.00  0.00    -0.544 OA
ENDBRANCH   1   6
BRANCH   1   9
ATOM      9  C   UNL     1      21.816  -1.687  22.481  1.00  0.00     0.047 C 
ATOM     10  C   UNL     1      23.094  -0.836  22.557  1.00  0.00     0.014 C 
ATOM     11  C   UNL     1      21.072  -1.643  23.826  1.00  0.00     0.014 C 
ENDBRANCH   1   9
TORSDOF 3
ENDMDL
MODEL 8
REMARK VINA RESULT:    -3.565      3.072      3.840
REMARK INTER + INTRA:          -4.144
REMARK INTER:                  -4.087
REMARK INTRA:                  -0.056
REMARK UNBOUND:                -0.058
REMARK SMILES CC(C)[C@@H]([NH3+])C(=O)[O-]
REMARK SMILES IDX 4 1 5 2 6 6 7 7 8 8 2 9 1 10 3 11
REMARK H PARENT 5 3 5 4 5 5
REMARK Flexibility Score: inf
ROOT
ATOM      1  C   UNL     1      17.438  -4.194  17.795  1.00  0.00     0.230 C 
ENDROOT
BRANCH   1   2
ATOM      2  N   UNL     1      18.059  -5.265  17.000  1.00  0.00    -0.350 N 
ATOM      3  H   UNL     1      17.540  -5.404  16.105  1.00  0.00     0.345 HD
ATOM      4  H   UNL     1      18.015  -6.164  17.534  1.00  0.00     0.345 HD
ATOM      5  H   UNL     1      19.062  -5.054  16.791  1.00  0.00     0.345 HD
ENDBRANCH   1   2
BRANCH   1   6
ATOM      6  C   UNL     1      18.311  -2.963  17.819  1.00  0.00     0.099 C 
ATOM      7  O   UNL     1      18.795  -2.534  18.901  1.00  0.00    -0.544 OA
ATOM      8  O   UNL     1      18.628  -2.320  16.629  1.00  0.00    -0.544 OA
ENDBRANCH   1   6
BRANCH   1   9
ATOM      9  C   UNL     1      15.995  -3.841  17.324  1.00  0.00     0.047 C 
ATOM     10  C   UNL     1      15.425  -2.634  18.085  1.00  0.00     0.014 C 
ATOM     11  C   UNL     1      15.015  -5.024  17.397  1.00  0.00     0.014 C 
ENDBRANCH   1   9
TORSDOF 3
ENDMDL
MODEL 9
REMARK VINA RESULT:    -3.503      4.794      5.516
REMARK INTER + INTRA:          -4.073
REMARK INTER:                  -4.023
REMARK INTRA:                  -0.050
REMARK UNBOUND:                -0.058
REMARK SMILES CC(C)[C@@H]([NH3+])C(=O)[O-]
REMARK SMILES IDX 4 1 5 2 6 6 7 7 8 8 2 9 1 10 3 11
REMARK H PARENT 5 3 5 4 5 5
REMARK Flexibility Score: inf
ROOT
ATOM      1  C   UNL     1      20.679  -3.229  19.938  1.00  0.00     0.230 C 
ENDROOT
BRANCH   1   2
ATOM      2  N   UNL     1      22.130  -3.004  20.035  1.00  0.00    -0.350 N 
ATOM      3  H   UNL     1      22.338  -2.259  20.736  1.00  0.00     0.345 HD
ATOM      4  H   UNL     1      22.493  -2.677  19.109  1.00  0.00     0.345 HD
ATOM      5  H   UNL     1      22.637  -3.880  20.297  1.00  0.00     0.345 HD
ENDBRANCH   1   2
BRANCH   1   6
ATOM      6  C   UNL     1      20.380  -4.515  19.204  1.00  0.00     0.099 C 
ATOM      7  O   UNL     1      19.206  -4.968  19.147  1.00  0.00    -0.544 OA
ATOM      8  O   UNL     1      21.402  -5.182  18.540  1.00  0.00    -0.544 OA
ENDBRANCH   1   6
BRANCH   1   9
ATOM      9  C   UNL     1      19.962  -3.201  21.321  1.00  0.00     0.047 C 
ATOM     10  C   UNL     1      19.062  -1.964  21.472  1.00  0.00     0.014 C 
ATOM     11  C   UNL     1      20.924  -3.304  22.517  1.00  0.00     0.014 C 
ENDBRANCH   1   9
TORSDOF 3
ENDMDL
