MODEL 1
REMARK VINA RESULT:    -4.262      0.000      0.000
REMARK INTER + INTRA:          -4.262
REMARK INTER:                  -4.262
REMARK INTRA:                   0.000
REMARK UNBOUND:                 0.000
REMARK SMILES CC1=CC[C@@H]2[C@@H](C1)C2(C)C
REMARK SMILES IDX 1 1 2 2 3 3 4 4 5 5 6 6 7 7 8 8 9 9 10 10
REMARK H PARENT
REMARK Flexibility Score: inf
ROOT
ATOM      1  C   UNL     1       2.270  18.770  17.435  1.00  0.00     0.039 C 
ATOM      2  C   UNL     1       1.746  17.443  16.964  1.00  0.00    -0.077 C 
ATOM      3  C   UNL     1       1.061  17.372  15.784  1.00  0.00    -0.028 C 
ATOM      4  C   UNL     1       0.483  16.058  15.263  1.00  0.00     0.031 C 
ATOM      5  C   UNL     1       0.292  15.120  16.461  1.00  0.00     0.003 C 
ATOM      6  C   UNL     1       1.777  14.960  16.962  1.00  0.00     0.003 C 
ATOM      7  C   UNL     1       1.931  16.203  17.846  1.00  0.00     0.034 C 
ATOM      8  C   UNL     1       0.837  13.777  16.894  1.00  0.00    -0.029 C 
ATOM      9  C   UNL     1       0.357  13.236  18.243  1.00  0.00     0.012 C 
ATOM     10  C   UNL     1       1.074  12.766  15.770  1.00  0.00     0.012 C 
ENDROOT
TORSDOF 0
ENDMDL
MODEL 2
REMARK VINA RESULT:    -4.238     13.396     14.521
REMARK INTER + INTRA:          -4.238
REMARK INTER:                  -4.238
REMARK INTRA:                   0.000
REMARK UNBOUND:                 0.000
REMARK SMILES CC1=CC[C@@H]2[C@@H](C1)C2(C)C
REMARK SMILES IDX 1 1 2 2 3 3 4 4 5 5 6 6 7 7 8 8 9 9 10 10
REMARK H PARENT
REMARK Flexibility Score: inf
ROOT
ATOM      1  C   UNL     1      -1.060  23.563  30.772  1.00  0.00     0.039 C 
ATOM      2  C   UNL     1      -0.880  22.116  30.413  1.00  0.00    -0.077 C 
ATOM      3  C   UNL     1      -1.123  21.705  29.132  1.00  0.00    -0.028 C 
ATOM      4  C   UNL     1      -0.982  20.244  28.712  1.00  0.00     0.031 C 
ATOM      5  C   UNL     1      -1.125  19.376  29.967  1.00  0.00     0.003 C 
ATOM      6  C   UNL     1       0.102  19.872  30.821  1.00  0.00     0.003 C 
ATOM      7  C   UNL     1      -0.488  21.111  31.503  1.00  0.00     0.034 C 
ATOM      8  C   UNL     1      -0.251  18.404  30.728  1.00  0.00    -0.029 C 
ATOM      9  C   UNL     1      -0.844  17.784  31.996  1.00  0.00     0.012 C 
ATOM     10  C   UNL     1       0.660  17.523  29.871  1.00  0.00     0.012 C 
ENDROOT
TORSDOF 0
ENDMDL
MODEL 3
REMARK VINA RESULT:    -4.114      0.946      4.008
REMARK INTER + INTRA:          -4.114
REMARK INTER:                  -4.114
REMARK INTRA:                   0.000
REMARK UNBOUND:                 0.000
REMARK SMILES CC1=CC[C@@H]2[C@@H](C1)C2(C)C
REMARK SMILES IDX 1 1 2 2 3 3 4 4 5 5 6 6 7 7 8 8 9 9 10 10
REMARK H PARENT
REMARK Flexibility Score: inf
ROOT
ATOM      1  C   UNL     1      -0.367  12.088  18.617  1.00  0.00     0.039 C 
ATOM      2  C   UNL     1       0.220  13.132  17.711  1.00  0.00    -0.077 C 
ATOM      3  C   UNL     1       0.845  12.748  16.558  1.00  0.00    -0.028 C 
ATOM      4  C   UNL     1       1.483  13.760  15.609  1.00  0.00     0.031 C 
ATOM      5  C   UNL     1       1.799  15.026  16.414  1.00  0.00     0.003 C 
ATOM      6  C   UNL     1       0.357  15.465  16.870  1.00  0.00     0.003 C 
ATOM      7  C   UNL     1       0.166  14.607  18.127  1.00  0.00     0.034 C 
ATOM      8  C   UNL     1       1.370  16.476  16.382  1.00  0.00    -0.029 C 
ATOM      9  C   UNL     1       1.956  17.397  17.455  1.00  0.00     0.012 C 
ATOM     10  C   UNL     1       1.143  17.068  14.989  1.00  0.00     0.012 C 
ENDROOT
TORSDOF 0
ENDMDL
MODEL 4
REMARK VINA RESULT:    -4.082      2.553      3.594
REMARK INTER + INTRA:          -4.082
REMARK INTER:                  -4.082
REMARK INTRA:                   0.000
REMARK UNBOUND:                 0.000
REMARK SMILES CC1=CC[C@@H]2[C@@H](C1)C2(C)C
REMARK SMILES IDX 1 1 2 2 3 3 4 4 5 5 6 6 7 7 8 8 9 9 10 10
REMARK H PARENT
REMARK Flexibility Score: inf
ROOT
ATOM      1  C   UNL     1       3.634  13.939  13.764  1.00  0.00     0.039 C 
ATOM      2  C   UNL     1       2.483  13.535  14.640  1.00  0.00    -0.077 C 
ATOM      3  C   UNL     1       1.646  12.535  14.232  1.00  0.00    -0.028 C 
ATOM      4  C   UNL     1       0.444  12.096  15.065  1.00  0.00     0.031 C 
ATOM      5  C   UNL     1       0.057  13.261  15.983  1.00  0.00     0.003 C 
ATOM      6  C   UNL     1       1.361  13.410  16.852  1.00  0.00     0.003 C 
ATOM      7  C   UNL     1       2.226  14.295  15.947  1.00  0.00     0.034 C 
ATOM      8  C   UNL     1      -0.014  13.499  17.475  1.00  0.00    -0.029 C 
ATOM      9  C   UNL     1      -0.443  14.894  17.935  1.00  0.00     0.012 C 
ATOM     10  C   UNL     1      -0.475  12.304  18.314  1.00  0.00     0.012 C 
ENDROOT
TORSDOF 0
ENDMDL
MODEL 5
REMARK VINA RESULT:    -4.007      2.184      4.145
REMARK INTER + INTRA:          -4.007
REMARK INTER:                  -4.007
REMARK INTRA:                   0.000
REMARK UNBOUND:                 0.000
REMARK SMILES CC1=CC[C@@H]2[C@@H](C1)C2(C)C
REMARK SMILES IDX 1 1 2 2 3 3 4 4 5 5 6 6 7 7 8 8 9 9 10 10
REMARK H PARENT
REMARK Flexibility Score: inf
ROOT
ATOM      1  C   UNL     1      -0.502  12.184  18.892  1.00  0.00     0.039 C 
ATOM      2  C   UNL     1       0.384  12.855  17.882  1.00  0.00    -0.077 C 
ATOM      3  C   UNL     1       1.280  13.800  18.296  1.00  0.00    -0.028 C 
ATOM      4  C   UNL     1       2.191  14.535  17.315  1.00  0.00     0.031 C 
ATOM      5  C   UNL     1       1.537  14.475  15.930  1.00  0.00     0.003 C 
ATOM      6  C   UNL     1       1.513  12.922  15.671  1.00  0.00     0.003 C 
ATOM      7  C   UNL     1       0.224  12.516  16.395  1.00  0.00     0.034 C 
ATOM      8  C   UNL     1       1.892  13.897  14.579  1.00  0.00    -0.029 C 
ATOM      9  C   UNL     1       0.863  14.067  13.458  1.00  0.00     0.012 C 
ATOM     10  C   UNL     1       3.372  13.970  14.197  1.00  0.00     0.012 C 
ENDROOT
TORSDOF 0
ENDMDL
MODEL 6
REMARK VINA RESULT:    -4.005      1.829      4.484
REMARK INTER + INTRA:          -4.005
REMARK INTER:                  -4.005
REMARK INTRA:                   0.000
REMARK UNBOUND:                 0.000
REMARK SMILES CC1=CC[C@@H]2[C@@H](C1)C2(C)C
REMARK SMILES IDX 1 1 2 2 3 3 4 4 5 5 6 6 7 7 8 8 9 9 10 10
REMARK H PARENT
REMARK Flexibility Score: inf
ROOT
ATOM      1  C   UNL     1       0.984  10.812  13.493  1.00  0.00     0.039 C 
ATOM      2  C   UNL     1       1.365  12.099  14.168  1.00  0.00    -0.077 C 
ATOM      3  C   UNL     1       2.239  12.948  13.550  1.00  0.00    -0.028 C 
ATOM      4  C   UNL     1       2.685  14.259  14.195  1.00  0.00     0.031 C 
ATOM      5  C   UNL     1       2.492  14.128  15.710  1.00  0.00     0.003 C 
ATOM      6  C   UNL     1       0.934  13.919  15.801  1.00  0.00     0.003 C 
ATOM      7  C   UNL     1       0.818  12.408  15.567  1.00  0.00     0.034 C 
ATOM      8  C   UNL     1       1.665  14.822  16.769  1.00  0.00    -0.029 C 
ATOM      9  C   UNL     1       1.788  14.294  18.201  1.00  0.00     0.012 C 
ATOM     10  C   UNL     1       1.484  16.330  16.584  1.00  0.00     0.012 C 
ENDROOT
TORSDOF 0
ENDMDL
MODEL 7
REMARK VINA RESULT:    -3.920      1.059      4.327
REMARK INTER + INTRA:          -3.920
REMARK INTER:                  -3.920
REMARK INTRA:                   0.000
REMARK UNBOUND:                 0.000
REMARK SMILES CC1=CC[C@@H]2[C@@H](C1)C2(C)C
REMARK SMILES IDX 1 1 2 2 3 3 4 4 5 5 6 6 7 7 8 8 9 9 10 10
REMARK H PARENT
REMARK Flexibility Score: inf
ROOT
ATOM      1  C   UNL     1       1.122  11.646  14.359  1.00  0.00     0.039 C 
ATOM      2  C   UNL     1       1.050  12.843  15.263  1.00  0.00    -0.077 C 
ATOM      3  C   UNL     1       0.415  12.738  16.469  1.00  0.00    -0.028 C 
ATOM      4  C   UNL     1       0.286  13.925  17.421  1.00  0.00     0.031 C 
ATOM      5  C   UNL     1       0.418  15.209  16.593  1.00  0.00     0.003 C 
ATOM      6  C   UNL     1       1.879  15.056  16.026  1.00  0.00     0.003 C 
ATOM      7  C   UNL     1       1.632  14.181  14.792  1.00  0.00     0.034 C 
ATOM      8  C   UNL     1       1.370  16.383  16.544  1.00  0.00    -0.029 C 
ATOM      9  C   UNL     1       1.102  17.449  15.479  1.00  0.00     0.012 C 
ATOM     10  C   UNL     1       1.910  16.853  17.896  1.00  0.00     0.012 C 
ENDROOT
TORSDOF 0
ENDMDL
MODEL 8
REMARK VINA RESULT:    -3.910      0.978      2.500
REMARK INTER + INTRA:          -3.910
REMARK INTER:                  -3.910
REMARK INTRA:                   0.000
REMARK UNBOUND:                 0.000
REMARK SMILES CC1=CC[C@@H]2[C@@H](C1)C2(C)C
REMARK SMILES IDX 1 1 2 2 3 3 4 4 5 5 6 6 7 7 8 8 9 9 10 10
REMARK H PARENT
REMARK Flexibility Score: inf
ROOT
ATOM      1  C   UNL     1      -0.028  18.187  13.919  1.00  0.00     0.039 C 
ATOM      2  C   UNL     1       0.427  17.162  14.918  1.00  0.00    -0.077 C 
ATOM      3  C   UNL     1       1.114  17.564  16.029  1.00  0.00    -0.028 C 
ATOM      4  C   UNL     1       1.624  16.568  17.068  1.00  0.00     0.031 C 
ATOM      5  C   UNL     1       1.757  15.202  16.386  1.00  0.00     0.003 C 
ATOM      6  C   UNL     1       0.263  14.921  15.974  1.00  0.00     0.003 C 
ATOM      7  C   UNL     1       0.170  15.675  14.643  1.00  0.00     0.034 C 
ATOM      8  C   UNL     1       1.138  13.832  16.554  1.00  0.00    -0.029 C 
ATOM      9  C   UNL     1       1.581  12.745  15.571  1.00  0.00     0.012 C 
ATOM     10  C   UNL     1       0.854  13.408  17.997  1.00  0.00     0.012 C 
ENDROOT
TORSDOF 0
ENDMDL
MODEL 9
REMARK VINA RESULT:    -3.877      1.766      3.503
REMARK INTER + INTRA:          -3.877
REMARK INTER:                  -3.877
REMARK INTRA:                   0.000
REMARK UNBOUND:                 0.000
REMARK SMILES CC1=CC[C@@H]2[C@@H](C1)C2(C)C
REMARK SMILES IDX 1 1 2 2 3 3 4 4 5 5 6 6 7 7 8 8 9 9 10 10
REMARK H PARENT
REMARK Flexibility Score: inf
ROOT
ATOM      1  C   UNL     1       2.764  13.128  13.444  1.00  0.00     0.039 C 
ATOM      2  C   UNL     1       2.078  13.588  14.699  1.00  0.00    -0.077 C 
ATOM      3  C   UNL     1       2.253  14.873  15.130  1.00  0.00    -0.028 C 
ATOM      4  C   UNL     1       1.603  15.392  16.410  1.00  0.00     0.031 C 
ATOM      5  C   UNL     1       1.300  14.186  17.307  1.00  0.00     0.003 C 
ATOM      6  C   UNL     1       0.287  13.384  16.407  1.00  0.00     0.003 C 
ATOM      7  C   UNL     1       1.244  12.590  15.511  1.00  0.00     0.034 C 
ATOM      8  C   UNL     1       0.062  13.545  17.894  1.00  0.00    -0.029 C 
ATOM      9  C   UNL     1       0.267  12.282  18.735  1.00  0.00     0.012 C 
ATOM     10  C   UNL     1      -1.040  14.513  18.329  1.00  0.00     0.012 C 
ENDROOT
TORSDOF 0
ENDMDL
