MODEL 1
REMARK VINA RESULT:    -5.876      0.000      0.000
REMARK INTER + INTRA:          -7.757
REMARK INTER:                  -7.593
REMARK INTRA:                  -0.164
REMARK UNBOUND:                -0.164
REMARK SMILES CCO[C@@H]1O[C@H](CO)[C@@H](O)[C@@H](O)[C@H]1O
REMARK SMILES IDX 4 1 13 2 11 3 9 4 6 5 5 6 3 7 2 8 1 9 14 10 12 12 7 14 8 15
REMARK SMILES IDX 10 17
REMARK H PARENT 14 11 12 13 8 16 10 18
REMARK Flexibility Score: inf
ROOT
ATOM      1  C   UNL     1      -4.667   7.189  22.350  1.00  0.00     0.281 C 
ATOM      2  C   UNL     1      -4.492   7.787  23.757  1.00  0.00     0.202 C 
ATOM      3  C   UNL     1      -4.298   9.310  23.665  1.00  0.00     0.179 C 
ATOM      4  C   UNL     1      -5.439   9.944  22.861  1.00  0.00     0.177 C 
ATOM      5  C   UNL     1      -5.632   9.219  21.506  1.00  0.00     0.178 C 
ATOM      6  O   UNL     1      -5.732   7.802  21.630  1.00  0.00    -0.341 OA
ENDROOT
BRANCH   1   7
ATOM      7  O   UNL     1      -3.457   7.279  21.613  1.00  0.00    -0.350 OA
BRANCH   7   8
ATOM      8  C   UNL     1      -2.334   7.045  22.437  1.00  0.00     0.160 C 
ATOM      9  C   UNL     1      -1.343   6.168  21.688  1.00  0.00     0.035 C 
ENDBRANCH   7   8
ENDBRANCH   1   7
BRANCH   2  10
ATOM     10  O   UNL     1      -5.620   7.473  24.536  1.00  0.00    -0.385 OA
ATOM     11  H   UNL     1      -5.594   6.494  24.704  1.00  0.00     0.211 HD
ENDBRANCH   2  10
BRANCH   3  12
ATOM     12  O   UNL     1      -4.247   9.882  24.947  1.00  0.00    -0.387 OA
ATOM     13  H   UNL     1      -3.699  10.707  24.871  1.00  0.00     0.211 HD
ENDBRANCH   3  12
BRANCH   5  14
ATOM     14  C   UNL     1      -4.620   9.668  20.431  1.00  0.00     0.191 C 
BRANCH  14  15
ATOM     15  O   UNL     1      -4.674   8.816  19.318  1.00  0.00    -0.394 OA
ATOM     16  H   UNL     1      -4.740   9.396  18.516  1.00  0.00     0.210 HD
ENDBRANCH  14  15
ENDBRANCH   5  14
BRANCH   4  17
ATOM     17  O   UNL     1      -6.630   9.886  23.606  1.00  0.00    -0.387 OA
ATOM     18  H   UNL     1      -7.332  10.335  23.066  1.00  0.00     0.211 HD
ENDBRANCH   4  17
TORSDOF 7
ENDMDL
MODEL 2
REMARK VINA RESULT:    -5.500      1.616      3.205
REMARK INTER + INTRA:          -7.272
REMARK INTER:                  -6.822
REMARK INTRA:                  -0.450
REMARK UNBOUND:                -0.164
REMARK SMILES CCO[C@@H]1O[C@H](CO)[C@@H](O)[C@@H](O)[C@H]1O
REMARK SMILES IDX 4 1 13 2 11 3 9 4 6 5 5 6 3 7 2 8 1 9 14 10 12 12 7 14 8 15
REMARK SMILES IDX 10 17
REMARK H PARENT 14 11 12 13 8 16 10 18
REMARK Flexibility Score: inf
ROOT
ATOM      1  C   UNL     1      -5.393   8.215  23.769  1.00  0.00     0.281 C 
ATOM      2  C   UNL     1      -6.055   9.468  23.167  1.00  0.00     0.202 C 
ATOM      3  C   UNL     1      -5.184  10.035  22.034  1.00  0.00     0.179 C 
ATOM      4  C   UNL     1      -4.876   8.943  21.003  1.00  0.00     0.177 C 
ATOM      5  C   UNL     1      -4.321   7.671  21.691  1.00  0.00     0.178 C 
ATOM      6  O   UNL     1      -5.118   7.223  22.785  1.00  0.00    -0.341 OA
ENDROOT
BRANCH   1   7
ATOM      7  O   UNL     1      -4.206   8.561  24.466  1.00  0.00    -0.350 OA
BRANCH   7   8
ATOM      8  C   UNL     1      -4.069   7.811  25.654  1.00  0.00     0.160 C 
ATOM      9  C   UNL     1      -2.672   8.017  26.214  1.00  0.00     0.035 C 
ENDBRANCH   7   8
ENDBRANCH   1   7
BRANCH   2  10
ATOM     10  O   UNL     1      -7.336   9.132  22.693  1.00  0.00    -0.385 OA
ATOM     11  H   UNL     1      -7.563   9.786  21.982  1.00  0.00     0.211 HD
ENDBRANCH   2  10
BRANCH   3  12
ATOM     12  O   UNL     1      -5.828  11.112  21.404  1.00  0.00    -0.387 OA
ATOM     13  H   UNL     1      -6.624  10.741  20.942  1.00  0.00     0.211 HD
ENDBRANCH   3  12
BRANCH   5  14
ATOM     14  C   UNL     1      -2.820   7.776  22.034  1.00  0.00     0.191 C 
BRANCH  14  15
ATOM     15  O   UNL     1      -2.399   6.649  22.754  1.00  0.00    -0.394 OA
ATOM     16  H   UNL     1      -2.585   6.834  23.711  1.00  0.00     0.210 HD
ENDBRANCH  14  15
ENDBRANCH   5  14
BRANCH   4  17
ATOM     17  O   UNL     1      -6.044   8.625  20.288  1.00  0.00    -0.387 OA
ATOM     18  H   UNL     1      -5.759   8.174  19.452  1.00  0.00     0.211 HD
ENDBRANCH   4  17
TORSDOF 7
ENDMDL
MODEL 3
REMARK VINA RESULT:    -5.499      1.845      4.625
REMARK INTER + INTRA:          -7.270
REMARK INTER:                  -6.905
REMARK INTRA:                  -0.365
REMARK UNBOUND:                -0.164
REMARK SMILES CCO[C@@H]1O[C@H](CO)[C@@H](O)[C@@H](O)[C@H]1O
REMARK SMILES IDX 4 1 13 2 11 3 9 4 6 5 5 6 3 7 2 8 1 9 14 10 12 12 7 14 8 15
REMARK SMILES IDX 10 17
REMARK H PARENT 14 11 12 13 8 16 10 18
REMARK Flexibility Score: inf
ROOT
ATOM      1  C   UNL     1      -4.696   8.002  23.547  1.00  0.00     0.281 C 
ATOM      2  C   UNL     1      -3.732   7.786  22.367  1.00  0.00     0.202 C 
ATOM      3  C   UNL     1      -2.326   8.291  22.733  1.00  0.00     0.179 C 
ATOM      4  C   UNL     1      -1.854   7.650  24.042  1.00  0.00     0.177 C 
ATOM      5  C   UNL     1      -2.922   7.806  25.153  1.00  0.00     0.178 C 
ATOM      6  O   UNL     1      -4.227   7.397  24.747  1.00  0.00    -0.341 OA
ENDROOT
BRANCH   1   7
ATOM      7  O   UNL     1      -4.934   9.387  23.752  1.00  0.00    -0.350 OA
BRANCH   7   8
ATOM      8  C   UNL     1      -5.534   9.979  22.620  1.00  0.00     0.160 C 
ATOM      9  C   UNL     1      -7.042   9.994  22.807  1.00  0.00     0.035 C 
ENDBRANCH   7   8
ENDBRANCH   1   7
BRANCH   2  10
ATOM     10  O   UNL     1      -3.702   6.418  22.039  1.00  0.00    -0.385 OA
ATOM     11  H   UNL     1      -4.412   6.266  21.362  1.00  0.00     0.211 HD
ENDBRANCH   2  10
BRANCH   3  12
ATOM     12  O   UNL     1      -1.411   8.001  21.707  1.00  0.00    -0.387 OA
ATOM     13  H   UNL     1      -1.009   7.119  21.923  1.00  0.00     0.211 HD
ENDBRANCH   3  12
BRANCH   5  14
ATOM     14  C   UNL     1      -2.900   9.197  25.821  1.00  0.00     0.191 C 
BRANCH  14  15
ATOM     15  O   UNL     1      -4.095   9.429  26.517  1.00  0.00    -0.394 OA
ATOM     16  H   UNL     1      -4.726   9.844  25.875  1.00  0.00     0.210 HD
ENDBRANCH  14  15
ENDBRANCH   5  14
BRANCH   4  17
ATOM     17  O   UNL     1      -1.585   6.286  23.831  1.00  0.00    -0.387 OA
ATOM     18  H   UNL     1      -0.604   6.201  23.705  1.00  0.00     0.211 HD
ENDBRANCH   4  17
TORSDOF 7
ENDMDL
MODEL 4
REMARK VINA RESULT:    -5.388      9.844     11.087
REMARK INTER + INTRA:          -7.127
REMARK INTER:                  -6.749
REMARK INTRA:                  -0.379
REMARK UNBOUND:                -0.164
REMARK SMILES CCO[C@@H]1O[C@H](CO)[C@@H](O)[C@@H](O)[C@H]1O
REMARK SMILES IDX 4 1 13 2 11 3 9 4 6 5 5 6 3 7 2 8 1 9 14 10 12 12 7 14 8 15
REMARK SMILES IDX 10 17
REMARK H PARENT 14 11 12 13 8 16 10 18
REMARK Flexibility Score: inf
ROOT
ATOM      1  C   UNL     1       0.669  18.493  23.147  1.00  0.00     0.281 C 
ATOM      2  C   UNL     1      -0.773  18.847  23.554  1.00  0.00     0.202 C 
ATOM      3  C   UNL     1      -1.393  17.695  24.361  1.00  0.00     0.179 C 
ATOM      4  C   UNL     1      -0.489  17.328  25.544  1.00  0.00     0.177 C 
ATOM      5  C   UNL     1       0.969  17.097  25.077  1.00  0.00     0.178 C 
ATOM      6  O   UNL     1       1.480  18.155  24.267  1.00  0.00    -0.341 OA
ENDROOT
BRANCH   1   7
ATOM      7  O   UNL     1       0.677  17.440  22.195  1.00  0.00    -0.350 OA
BRANCH   7   8
ATOM      8  C   UNL     1      -0.004  17.808  21.014  1.00  0.00     0.160 C 
ATOM      9  C   UNL     1       0.963  18.525  20.086  1.00  0.00     0.035 C 
ENDBRANCH   7   8
ENDBRANCH   1   7
BRANCH   2  10
ATOM     10  O   UNL     1      -0.763  20.036  24.305  1.00  0.00    -0.385 OA
ATOM     11  H   UNL     1      -0.277  20.715  23.767  1.00  0.00     0.211 HD
ENDBRANCH   2  10
BRANCH   3  12
ATOM     12  O   UNL     1      -2.668  18.048  24.832  1.00  0.00    -0.387 OA
ATOM     13  H   UNL     1      -3.122  18.535  24.094  1.00  0.00     0.211 HD
ENDBRANCH   3  12
BRANCH   5  14
ATOM     14  C   UNL     1       1.194  15.698  24.466  1.00  0.00     0.191 C 
BRANCH  14  15
ATOM     15  O   UNL     1       2.503  15.579  23.975  1.00  0.00    -0.394 OA
ATOM     16  H   UNL     1       2.820  16.498  23.779  1.00  0.00     0.210 HD
ENDBRANCH  14  15
ENDBRANCH   5  14
BRANCH   4  17
ATOM     17  O   UNL     1      -0.525  18.355  26.503  1.00  0.00    -0.387 OA
ATOM     18  H   UNL     1       0.249  18.215  27.108  1.00  0.00     0.211 HD
ENDBRANCH   4  17
TORSDOF 7
ENDMDL
MODEL 5
REMARK VINA RESULT:    -5.266      9.004     10.542
REMARK INTER + INTRA:          -6.970
REMARK INTER:                  -6.750
REMARK INTRA:                  -0.220
REMARK UNBOUND:                -0.164
REMARK SMILES CCO[C@@H]1O[C@H](CO)[C@@H](O)[C@@H](O)[C@H]1O
REMARK SMILES IDX 4 1 13 2 11 3 9 4 6 5 5 6 3 7 2 8 1 9 14 10 12 12 7 14 8 15
REMARK SMILES IDX 10 17
REMARK H PARENT 14 11 12 13 8 16 10 18
REMARK Flexibility Score: inf
ROOT
ATOM      1  C   UNL     1      -0.906  16.481  25.200  1.00  0.00     0.281 C 
ATOM      2  C   UNL     1      -0.865  18.020  25.200  1.00  0.00     0.202 C 
ATOM      3  C   UNL     1       0.593  18.511  25.169  1.00  0.00     0.179 C 
ATOM      4  C   UNL     1       1.344  17.872  23.996  1.00  0.00     0.177 C 
ATOM      5  C   UNL     1       1.165  16.334  23.994  1.00  0.00     0.178 C 
ATOM      6  O   UNL     1      -0.197  15.921  24.100  1.00  0.00    -0.341 OA
ENDROOT
BRANCH   1   7
ATOM      7  O   UNL     1      -0.405  15.967  26.425  1.00  0.00    -0.350 OA
BRANCH   7   8
ATOM      8  C   UNL     1      -1.168  14.865  26.871  1.00  0.00     0.160 C 
ATOM      9  C   UNL     1      -0.248  13.671  27.067  1.00  0.00     0.035 C 
ENDBRANCH   7   8
ENDBRANCH   1   7
BRANCH   2  10
ATOM     10  O   UNL     1      -1.578  18.501  24.088  1.00  0.00    -0.385 OA
ATOM     11  H   UNL     1      -2.541  18.483  24.329  1.00  0.00     0.211 HD
ENDBRANCH   2  10
BRANCH   3  12
ATOM     12  O   UNL     1       0.643  19.910  25.059  1.00  0.00    -0.387 OA
ATOM     13  H   UNL     1       1.555  20.187  25.338  1.00  0.00     0.211 HD
ENDBRANCH   3  12
BRANCH   5  14
ATOM     14  C   UNL     1       2.099  15.614  24.989  1.00  0.00     0.191 C 
BRANCH  14  15
ATOM     15  O   UNL     1       3.303  15.257  24.365  1.00  0.00    -0.394 OA
ATOM     16  H   UNL     1       3.964  15.960  24.593  1.00  0.00     0.210 HD
ENDBRANCH  14  15
ENDBRANCH   5  14
BRANCH   4  17
ATOM     17  O   UNL     1       0.873  18.407  22.785  1.00  0.00    -0.387 OA
ATOM     18  H   UNL     1       1.254  19.320  22.703  1.00  0.00     0.211 HD
ENDBRANCH   4  17
TORSDOF 7
ENDMDL
MODEL 6
REMARK VINA RESULT:    -5.228      9.526     10.933
REMARK INTER + INTRA:          -6.920
REMARK INTER:                  -6.533
REMARK INTRA:                  -0.387
REMARK UNBOUND:                -0.164
REMARK SMILES CCO[C@@H]1O[C@H](CO)[C@@H](O)[C@@H](O)[C@H]1O
REMARK SMILES IDX 4 1 13 2 11 3 9 4 6 5 5 6 3 7 2 8 1 9 14 10 12 12 7 14 8 15
REMARK SMILES IDX 10 17
REMARK H PARENT 14 11 12 13 8 16 10 18
REMARK Flexibility Score: inf
ROOT
ATOM      1  C   UNL     1       0.555  17.937  23.277  1.00  0.00     0.281 C 
ATOM      2  C   UNL     1       0.563  19.147  24.229  1.00  0.00     0.202 C 
ATOM      3  C   UNL     1      -0.854  19.407  24.767  1.00  0.00     0.179 C 
ATOM      4  C   UNL     1      -1.428  18.132  25.393  1.00  0.00     0.177 C 
ATOM      5  C   UNL     1      -1.300  16.931  24.424  1.00  0.00     0.178 C 
ATOM      6  O   UNL     1       0.013  16.771  23.889  1.00  0.00    -0.341 OA
ENDROOT
BRANCH   1   7
ATOM      7  O   UNL     1      -0.152  18.242  22.085  1.00  0.00    -0.350 OA
BRANCH   7   8
ATOM      8  C   UNL     1       0.716  18.302  20.972  1.00  0.00     0.160 C 
ATOM      9  C   UNL     1      -0.109  18.269  19.696  1.00  0.00     0.035 C 
ENDBRANCH   7   8
ENDBRANCH   1   7
BRANCH   2  10
ATOM     10  O   UNL     1       1.460  18.899  25.283  1.00  0.00    -0.385 OA
ATOM     11  H   UNL     1       1.326  19.619  25.954  1.00  0.00     0.211 HD
ENDBRANCH   2  10
BRANCH   3  12
ATOM     12  O   UNL     1      -0.842  20.439  25.720  1.00  0.00    -0.387 OA
ATOM     13  H   UNL     1       0.099  20.749  25.795  1.00  0.00     0.211 HD
ENDBRANCH   3  12
BRANCH   5  14
ATOM     14  C   UNL     1      -2.404  16.903  23.346  1.00  0.00     0.191 C 
BRANCH  14  15
ATOM     15  O   UNL     1      -2.147  15.898  22.402  1.00  0.00    -0.394 OA
ATOM     16  H   UNL     1      -1.600  16.311  21.686  1.00  0.00     0.210 HD
ENDBRANCH  14  15
ENDBRANCH   5  14
BRANCH   4  17
ATOM     17  O   UNL     1      -0.751  17.849  26.593  1.00  0.00    -0.387 OA
ATOM     18  H   UNL     1      -0.038  18.532  26.692  1.00  0.00     0.211 HD
ENDBRANCH   4  17
TORSDOF 7
ENDMDL
MODEL 7
REMARK VINA RESULT:    -5.195      9.610     10.946
REMARK INTER + INTRA:          -6.878
REMARK INTER:                  -6.473
REMARK INTRA:                  -0.404
REMARK UNBOUND:                -0.164
REMARK SMILES CCO[C@@H]1O[C@H](CO)[C@@H](O)[C@@H](O)[C@H]1O
REMARK SMILES IDX 4 1 13 2 11 3 9 4 6 5 5 6 3 7 2 8 1 9 14 10 12 12 7 14 8 15
REMARK SMILES IDX 10 17
REMARK H PARENT 14 11 12 13 8 16 10 18
REMARK Flexibility Score: inf
ROOT
ATOM      1  C   UNL     1      -0.062  16.967  22.955  1.00  0.00     0.281 C 
ATOM      2  C   UNL     1       1.121  16.390  23.754  1.00  0.00     0.202 C 
ATOM      3  C   UNL     1       1.665  17.447  24.731  1.00  0.00     0.179 C 
ATOM      4  C   UNL     1       0.533  17.992  25.608  1.00  0.00     0.177 C 
ATOM      5  C   UNL     1      -0.669  18.448  24.744  1.00  0.00     0.178 C 
ATOM      6  O   UNL     1      -1.093  17.467  23.799  1.00  0.00    -0.341 OA
ENDROOT
BRANCH   1   7
ATOM      7  O   UNL     1       0.382  17.979  22.064  1.00  0.00    -0.350 OA
BRANCH   7   8
ATOM      8  C   UNL     1      -0.220  17.847  20.793  1.00  0.00     0.160 C 
ATOM      9  C   UNL     1       0.632  18.567  19.762  1.00  0.00     0.035 C 
ENDBRANCH   7   8
ENDBRANCH   1   7
BRANCH   2  10
ATOM     10  O   UNL     1       0.695  15.242  24.446  1.00  0.00    -0.385 OA
ATOM     11  H   UNL     1       1.507  14.815  24.827  1.00  0.00     0.211 HD
ENDBRANCH   2  10
BRANCH   3  12
ATOM     12  O   UNL     1       2.672  16.900  25.543  1.00  0.00    -0.387 OA
ATOM     13  H   UNL     1       2.396  17.054  26.484  1.00  0.00     0.211 HD
ENDBRANCH   3  12
BRANCH   5  14
ATOM     14  C   UNL     1      -0.471  19.847  24.123  1.00  0.00     0.191 C 
BRANCH  14  15
ATOM     15  O   UNL     1      -1.458  20.103  23.160  1.00  0.00    -0.394 OA
ATOM     16  H   UNL     1      -1.284  21.013  22.806  1.00  0.00     0.210 HD
ENDBRANCH  14  15
ENDBRANCH   5  14
BRANCH   4  17
ATOM     17  O   UNL     1       0.118  17.001  26.515  1.00  0.00    -0.387 OA
ATOM     18  H   UNL     1       0.549  16.153  26.235  1.00  0.00     0.211 HD
ENDBRANCH   4  17
TORSDOF 7
ENDMDL
MODEL 8
REMARK VINA RESULT:    -5.035      8.455     10.349
REMARK INTER + INTRA:          -6.671
REMARK INTER:                  -6.287
REMARK INTRA:                  -0.384
REMARK UNBOUND:                -0.164
REMARK SMILES CCO[C@@H]1O[C@H](CO)[C@@H](O)[C@@H](O)[C@H]1O
REMARK SMILES IDX 4 1 13 2 11 3 9 4 6 5 5 6 3 7 2 8 1 9 14 10 12 12 7 14 8 15
REMARK SMILES IDX 10 17
REMARK H PARENT 14 11 12 13 8 16 10 18
REMARK Flexibility Score: inf
ROOT
ATOM      1  C   UNL     1      -0.670  16.343  23.601  1.00  0.00     0.281 C 
ATOM      2  C   UNL     1       0.069  17.693  23.648  1.00  0.00     0.202 C 
ATOM      3  C   UNL     1       0.386  18.074  25.104  1.00  0.00     0.179 C 
ATOM      4  C   UNL     1       1.137  16.933  25.800  1.00  0.00     0.177 C 
ATOM      5  C   UNL     1       0.395  15.586  25.616  1.00  0.00     0.178 C 
ATOM      6  O   UNL     1       0.052  15.308  24.259  1.00  0.00    -0.341 OA
ENDROOT
BRANCH   1   7
ATOM      7  O   UNL     1      -1.972  16.466  24.155  1.00  0.00    -0.350 OA
BRANCH   7   8
ATOM      8  C   UNL     1      -2.838  17.166  23.286  1.00  0.00     0.160 C 
ATOM      9  C   UNL     1      -4.148  16.406  23.172  1.00  0.00     0.035 C 
ENDBRANCH   7   8
ENDBRANCH   1   7
BRANCH   2  10
ATOM     10  O   UNL     1       1.248  17.601  22.887  1.00  0.00    -0.385 OA
ATOM     11  H   UNL     1       1.461  18.517  22.569  1.00  0.00     0.211 HD
ENDBRANCH   2  10
BRANCH   3  12
ATOM     12  O   UNL     1       1.155  19.247  25.155  1.00  0.00    -0.387 OA
ATOM     13  H   UNL     1       2.106  18.965  25.197  1.00  0.00     0.211 HD
ENDBRANCH   3  12
BRANCH   5  14
ATOM     14  C   UNL     1      -0.788  15.409  26.591  1.00  0.00     0.191 C 
BRANCH  14  15
ATOM     15  O   UNL     1      -1.561  14.295  26.231  1.00  0.00    -0.394 OA
ATOM     16  H   UNL     1      -1.491  13.645  26.976  1.00  0.00     0.210 HD
ENDBRANCH  14  15
ENDBRANCH   5  14
BRANCH   4  17
ATOM     17  O   UNL     1       2.438  16.835  25.276  1.00  0.00    -0.387 OA
ATOM     18  H   UNL     1       2.682  15.873  25.284  1.00  0.00     0.211 HD
ENDBRANCH   4  17
TORSDOF 7
ENDMDL
MODEL 9
REMARK VINA RESULT:    -5.024      8.896     10.448
REMARK INTER + INTRA:          -6.657
REMARK INTER:                  -6.212
REMARK INTRA:                  -0.444
REMARK UNBOUND:                -0.164
REMARK SMILES CCO[C@@H]1O[C@H](CO)[C@@H](O)[C@@H](O)[C@H]1O
REMARK SMILES IDX 4 1 13 2 11 3 9 4 6 5 5 6 3 7 2 8 1 9 14 10 12 12 7 14 8 15
REMARK SMILES IDX 10 17
REMARK H PARENT 14 11 12 13 8 16 10 18
REMARK Flexibility Score: inf
ROOT
ATOM      1  C   UNL     1      -0.880  16.241  24.313  1.00  0.00     0.281 C 
ATOM      2  C   UNL     1       0.474  15.538  24.521  1.00  0.00     0.202 C 
ATOM      3  C   UNL     1       1.627  16.516  24.240  1.00  0.00     0.179 C 
ATOM      4  C   UNL     1       1.458  17.792  25.073  1.00  0.00     0.177 C 
ATOM      5  C   UNL     1       0.036  18.381  24.902  1.00  0.00     0.178 C 
ATOM      6  O   UNL     1      -1.003  17.423  25.097  1.00  0.00    -0.341 OA
ENDROOT
BRANCH   1   7
ATOM      7  O   UNL     1      -1.084  16.537  22.939  1.00  0.00    -0.350 OA
BRANCH   7   8
ATOM      8  C   UNL     1      -2.445  16.416  22.583  1.00  0.00     0.160 C 
ATOM      9  C   UNL     1      -2.668  17.085  21.237  1.00  0.00     0.035 C 
ENDBRANCH   7   8
ENDBRANCH   1   7
BRANCH   2  10
ATOM     10  O   UNL     1       0.543  15.050  25.838  1.00  0.00    -0.385 OA
ATOM     11  H   UNL     1       0.832  14.101  25.781  1.00  0.00     0.211 HD
ENDBRANCH   2  10
BRANCH   3  12
ATOM     12  O   UNL     1       2.865  15.921  24.532  1.00  0.00    -0.387 OA
ATOM     13  H   UNL     1       2.874  15.741  25.508  1.00  0.00     0.211 HD
ENDBRANCH   3  12
BRANCH   5  14
ATOM     14  C   UNL     1      -0.127  19.201  23.606  1.00  0.00     0.191 C 
BRANCH  14  15
ATOM     15  O   UNL     1      -1.460  19.609  23.444  1.00  0.00    -0.394 OA
ATOM     16  H   UNL     1      -1.566  19.873  22.495  1.00  0.00     0.210 HD
ENDBRANCH  14  15
ENDBRANCH   5  14
BRANCH   4  17
ATOM     17  O   UNL     1       1.695  17.506  26.428  1.00  0.00    -0.387 OA
ATOM     18  H   UNL     1       1.398  18.297  26.948  1.00  0.00     0.211 HD
ENDBRANCH   4  17
TORSDOF 7
ENDMDL
