MODEL 1
REMARK VINA RESULT:    -7.007      0.000      0.000
REMARK INTER + INTRA:         -12.690
REMARK INTER:                 -11.717
REMARK INTRA:                  -0.973
REMARK UNBOUND:                -0.973
REMARK SMILES COc1cc(-c2oc3cc(O)cc(O)c3c(=O)c2O[C@@H]2O[C@@H](CO[C@@H]3O[C@H](C)[C@H](O)[C@@H](O)[C@H]3O)[C@@H](O)[C@@H](O)[C@H]2O)ccc1O
REMARK SMILES IDX 22 1 35 2 37 3 39 4 20 5 21 6 23 7 24 8 25 9 28 10 27 11
REMARK SMILES IDX 29 12 26 13 31 14 33 15 30 16 32 18 34 20 36 22 38 24 19 26
REMARK SMILES IDX 18 27 6 28 16 29 7 30 15 31 17 32 8 33 13 34 9 35 12 36
REMARK SMILES IDX 10 37 5 38 4 39 41 40 3 41 42 42 43 43 2 44 1 45 44 46 14 48
REMARK SMILES IDX 11 50 40 52
REMARK H PARENT 30 17 32 19 34 21 36 23 38 25 44 47 14 49 11 51 40 53
REMARK Flexibility Score: inf
ROOT
ATOM      1  C   UNL     1      -1.310   5.145  16.164  1.00  0.00     0.180 C 
ATOM      2  C   UNL     1      -1.747   3.654  16.088  1.00  0.00     0.177 C 
ATOM      3  C   UNL     1      -3.275   3.486  15.852  1.00  0.00     0.180 C 
ATOM      4  C   UNL     1      -4.044   4.808  15.823  1.00  0.00     0.214 C 
ATOM      5  C   UNL     1      -3.276   5.904  15.004  1.00  0.00     0.339 C 
ATOM      6  O   UNL     1      -1.852   5.867  15.073  1.00  0.00    -0.332 OA
ENDROOT
BRANCH   1   7
ATOM      7  C   UNL     1      -1.559   5.860  17.529  1.00  0.00     0.198 C 
BRANCH   7   8
ATOM      8  O   UNL     1      -0.492   5.623  18.445  1.00  0.00    -0.347 OA
BRANCH   8   9
ATOM      9  C   UNL     1      -0.021   6.818  19.054  1.00  0.00     0.281 C 
ATOM     10  C   UNL     1       2.299   9.354  17.781  1.00  0.00     0.041 C 
ATOM     11  C   UNL     1       1.125   8.821  18.608  1.00  0.00     0.150 C 
ATOM     12  C   UNL     1       1.336   8.965  20.155  1.00  0.00     0.174 C 
ATOM     13  O   UNL     1       0.911   7.477  18.203  1.00  0.00    -0.344 OA
ATOM     14  C   UNL     1       1.685   7.604  20.794  1.00  0.00     0.179 C 
ATOM     15  C   UNL     1       0.593   6.562  20.470  1.00  0.00     0.202 C 
BRANCH  12  16
ATOM     16  O   UNL     1       2.270   9.969  20.491  1.00  0.00    -0.388 OA
ATOM     17  H   UNL     1       3.191   9.611  20.309  1.00  0.00     0.211 HD
ENDBRANCH  12  16
BRANCH  14  18
ATOM     18  O   UNL     1       1.839   7.730  22.187  1.00  0.00    -0.387 OA
ATOM     19  H   UNL     1       0.967   7.484  22.598  1.00  0.00     0.211 HD
ENDBRANCH  14  18
BRANCH  15  20
ATOM     20  O   UNL     1      -0.441   6.578  21.437  1.00  0.00    -0.385 OA
ATOM     21  H   UNL     1       0.002   6.749  22.318  1.00  0.00     0.211 HD
ENDBRANCH  15  20
ENDBRANCH   8   9
ENDBRANCH   7   8
ENDBRANCH   1   7
BRANCH   2  22
ATOM     22  O   UNL     1      -1.200   2.891  17.143  1.00  0.00    -0.387 OA
ATOM     23  H   UNL     1      -0.764   3.519  17.774  1.00  0.00     0.211 HD
ENDBRANCH   2  22
BRANCH   3  24
ATOM     24  O   UNL     1      -3.850   2.643  16.835  1.00  0.00    -0.387 OA
ATOM     25  H   UNL     1      -3.112   2.248  17.364  1.00  0.00     0.211 HD
ENDBRANCH   3  24
BRANCH   5  26
ATOM     26  O   UNL     1      -3.675   5.901  13.630  1.00  0.00    -0.454 OA
BRANCH  26  27
ATOM     27  C   UNL     1      -4.727   6.667  13.112  1.00  0.00     0.214 A 
ATOM     28  C   UNL     1      -4.526   7.869  12.395  1.00  0.00     0.180 A 
ATOM     29  C   UNL     1      -6.041   6.220  13.309  1.00  0.00     0.239 A 
ATOM     30  O   UNL     1      -5.567   8.399  11.742  1.00  0.00    -0.452 OA
ATOM     31  C   UNL     1      -7.105   6.808  12.602  1.00  0.00     0.111 A 
ATOM     32  O   UNL     1      -6.256   5.297  14.137  1.00  0.00    -0.285 OA
ATOM     33  C   UNL     1      -6.806   7.909  11.781  1.00  0.00     0.146 A 
ATOM     34  C   UNL     1      -8.440   6.332  12.671  1.00  0.00     0.134 A 
ATOM     35  C   UNL     1      -7.813   8.508  11.015  1.00  0.00     0.094 A 
ATOM     36  C   UNL     1      -9.436   6.955  11.905  1.00  0.00     0.093 A 
ATOM     37  C   UNL     1      -9.120   8.026  11.062  1.00  0.00     0.123 A 
BRANCH  28  38
ATOM     38  C   UNL     1      -3.249   8.654  12.371  1.00  0.00     0.025 A 
ATOM     39  C   UNL     1      -2.558   8.830  13.589  1.00  0.00     0.062 A 
ATOM     40  C   UNL     1      -2.608   9.065  11.183  1.00  0.00     0.016 A 
ATOM     41  C   UNL     1      -1.249   9.355  13.625  1.00  0.00     0.161 A 
ATOM     42  C   UNL     1      -1.336   9.645  11.222  1.00  0.00     0.051 A 
ATOM     43  C   UNL     1      -0.646   9.772  12.426  1.00  0.00     0.157 A 
BRANCH  41  44
ATOM     44  O   UNL     1      -0.514   9.449  14.825  1.00  0.00    -0.493 OA
ATOM     45  C   UNL     1      -0.299  10.669  15.521  1.00  0.00     0.278 C 
ENDBRANCH  41  44
BRANCH  43  46
ATOM     46  O   UNL     1       0.645  10.297  12.415  1.00  0.00    -0.504 OA
ATOM     47  H   UNL     1       1.046  10.768  13.222  1.00  0.00     0.293 HD
ENDBRANCH  43  46
ENDBRANCH  28  38
BRANCH  34  48
ATOM     48  O   UNL     1      -8.768   5.253  13.484  1.00  0.00    -0.507 OA
ATOM     49  H   UNL     1      -9.103   5.376  14.432  1.00  0.00     0.293 HD
ENDBRANCH  34  48
BRANCH  37  50
ATOM     50  O   UNL     1     -10.124   8.601  10.285  1.00  0.00    -0.508 OA
ATOM     51  H   UNL     1     -10.118   9.574  10.010  1.00  0.00     0.293 HD
ENDBRANCH  37  50
ENDBRANCH  26  27
ENDBRANCH   5  26
BRANCH   4  52
ATOM     52  O   UNL     1      -4.322   5.217  17.143  1.00  0.00    -0.384 OA
ATOM     53  H   UNL     1      -5.050   5.899  17.122  1.00  0.00     0.211 HD
ENDBRANCH   4  52
TORSDOF 16
ENDMDL
MODEL 2
REMARK VINA RESULT:    -6.951      1.179      2.264
REMARK INTER + INTRA:         -12.597
REMARK INTER:                 -11.869
REMARK INTRA:                  -0.728
REMARK UNBOUND:                -0.973
REMARK SMILES COc1cc(-c2oc3cc(O)cc(O)c3c(=O)c2O[C@@H]2O[C@@H](CO[C@@H]3O[C@H](C)[C@H](O)[C@@H](O)[C@H]3O)[C@@H](O)[C@@H](O)[C@H]2O)ccc1O
REMARK SMILES IDX 22 1 35 2 37 3 39 4 20 5 21 6 23 7 24 8 25 9 28 10 27 11
REMARK SMILES IDX 29 12 26 13 31 14 33 15 30 16 32 18 34 20 36 22 38 24 19 26
REMARK SMILES IDX 18 27 6 28 16 29 7 30 15 31 17 32 8 33 13 34 9 35 12 36
REMARK SMILES IDX 10 37 5 38 4 39 41 40 3 41 42 42 43 43 2 44 1 45 44 46 14 48
REMARK SMILES IDX 11 50 40 52
REMARK H PARENT 30 17 32 19 34 21 36 23 38 25 44 47 14 49 11 51 40 53
REMARK Flexibility Score: inf
ROOT
ATOM      1  C   UNL     1      -2.320   3.906  16.068  1.00  0.00     0.180 C 
ATOM      2  C   UNL     1      -3.557   3.133  16.610  1.00  0.00     0.177 C 
ATOM      3  C   UNL     1      -4.866   3.970  16.546  1.00  0.00     0.180 C 
ATOM      4  C   UNL     1      -4.660   5.399  16.041  1.00  0.00     0.214 C 
ATOM      5  C   UNL     1      -3.682   5.443  14.815  1.00  0.00     0.339 C 
ATOM      6  O   UNL     1      -2.622   4.488  14.813  1.00  0.00    -0.332 OA
ENDROOT
BRANCH   1   7
ATOM      7  C   UNL     1      -1.669   4.927  17.052  1.00  0.00     0.198 C 
BRANCH   7   8
ATOM      8  O   UNL     1      -0.420   5.405  16.556  1.00  0.00    -0.347 OA
BRANCH   8   9
ATOM      9  C   UNL     1       0.314   6.129  17.536  1.00  0.00     0.281 C 
ATOM     10  C   UNL     1      -0.562   6.961  20.996  1.00  0.00     0.041 C 
ATOM     11  C   UNL     1       0.376   6.639  19.829  1.00  0.00     0.150 C 
ATOM     12  C   UNL     1       1.351   7.815  19.471  1.00  0.00     0.174 C 
ATOM     13  O   UNL     1      -0.442   6.248  18.737  1.00  0.00    -0.344 OA
ATOM     14  C   UNL     1       0.897   8.536  18.184  1.00  0.00     0.179 C 
ATOM     15  C   UNL     1       0.776   7.531  17.019  1.00  0.00     0.202 C 
BRANCH  12  16
ATOM     16  O   UNL     1       1.549   8.710  20.544  1.00  0.00    -0.388 OA
ATOM     17  H   UNL     1       2.407   8.461  21.004  1.00  0.00     0.211 HD
ENDBRANCH  12  16
BRANCH  14  18
ATOM     18  O   UNL     1       1.792   9.567  17.846  1.00  0.00    -0.387 OA
ATOM     19  H   UNL     1       2.709   9.227  18.028  1.00  0.00     0.211 HD
ENDBRANCH  14  18
BRANCH  15  20
ATOM     20  O   UNL     1       2.002   7.392  16.325  1.00  0.00    -0.385 OA
ATOM     21  H   UNL     1       1.897   7.897  15.467  1.00  0.00     0.211 HD
ENDBRANCH  15  20
ENDBRANCH   8   9
ENDBRANCH   7   8
ENDBRANCH   1   7
BRANCH   2  22
ATOM     22  O   UNL     1      -3.286   2.510  17.848  1.00  0.00    -0.387 OA
ATOM     23  H   UNL     1      -2.840   3.177  18.430  1.00  0.00     0.211 HD
ENDBRANCH   2  22
BRANCH   3  24
ATOM     24  O   UNL     1      -5.499   4.018  17.811  1.00  0.00    -0.387 OA
ATOM     25  H   UNL     1      -4.792   4.041  18.504  1.00  0.00     0.211 HD
ENDBRANCH   3  24
BRANCH   5  26
ATOM     26  O   UNL     1      -4.395   5.349  13.578  1.00  0.00    -0.454 OA
BRANCH  26  27
ATOM     27  C   UNL     1      -5.285   6.322  13.104  1.00  0.00     0.214 A 
ATOM     28  C   UNL     1      -4.861   7.556  12.558  1.00  0.00     0.180 A 
ATOM     29  C   UNL     1      -6.661   6.058  13.169  1.00  0.00     0.239 A 
ATOM     30  O   UNL     1      -5.764   8.309  11.921  1.00  0.00    -0.452 OA
ATOM     31  C   UNL     1      -7.574   6.880  12.486  1.00  0.00     0.111 A 
ATOM     32  O   UNL     1      -7.066   5.088  13.861  1.00  0.00    -0.285 OA
ATOM     33  C   UNL     1      -7.060   8.012  11.829  1.00  0.00     0.146 A 
ATOM     34  C   UNL     1      -8.964   6.607  12.419  1.00  0.00     0.134 A 
ATOM     35  C   UNL     1      -7.912   8.843  11.090  1.00  0.00     0.094 A 
ATOM     36  C   UNL     1      -9.802   7.459  11.684  1.00  0.00     0.093 A 
ATOM     37  C   UNL     1      -9.274   8.562  11.004  1.00  0.00     0.123 A 
BRANCH  28  38
ATOM     38  C   UNL     1      -3.486   8.135  12.705  1.00  0.00     0.025 A 
ATOM     39  C   UNL     1      -2.998   8.954  11.664  1.00  0.00     0.062 A 
ATOM     40  C   UNL     1      -2.733   8.063  13.896  1.00  0.00     0.016 A 
ATOM     41  C   UNL     1      -1.822   9.716  11.815  1.00  0.00     0.161 A 
ATOM     42  C   UNL     1      -1.532   8.768  14.024  1.00  0.00     0.051 A 
ATOM     43  C   UNL     1      -1.084   9.606  13.006  1.00  0.00     0.157 A 
BRANCH  41  44
ATOM     44  O   UNL     1      -1.374  10.607  10.817  1.00  0.00    -0.493 OA
ATOM     45  C   UNL     1      -0.062  10.583  10.273  1.00  0.00     0.278 C 
ENDBRANCH  41  44
BRANCH  43  46
ATOM     46  O   UNL     1       0.086  10.340  13.198  1.00  0.00    -0.504 OA
ATOM     47  H   UNL     1       0.955  10.110  12.724  1.00  0.00     0.293 HD
ENDBRANCH  43  46
ENDBRANCH  28  38
BRANCH  34  48
ATOM     48  O   UNL     1      -9.503   5.502  13.069  1.00  0.00    -0.507 OA
ATOM     49  H   UNL     1      -8.935   4.874  13.624  1.00  0.00     0.293 HD
ENDBRANCH  34  48
BRANCH  37  50
ATOM     50  O   UNL     1     -10.125   9.370  10.251  1.00  0.00    -0.508 OA
ATOM     51  H   UNL     1     -10.271  10.350  10.450  1.00  0.00     0.293 HD
ENDBRANCH  37  50
ENDBRANCH  26  27
ENDBRANCH   5  26
BRANCH   4  52
ATOM     52  O   UNL     1      -4.225   6.214  17.106  1.00  0.00    -0.384 OA
ATOM     53  H   UNL     1      -4.705   7.087  17.060  1.00  0.00     0.211 HD
ENDBRANCH   4  52
TORSDOF 16
ENDMDL
MODEL 3
REMARK VINA RESULT:    -6.273      1.297      1.929
REMARK INTER + INTRA:         -11.462
REMARK INTER:                 -10.309
REMARK INTRA:                  -1.153
REMARK UNBOUND:                -0.973
REMARK SMILES COc1cc(-c2oc3cc(O)cc(O)c3c(=O)c2O[C@@H]2O[C@@H](CO[C@@H]3O[C@H](C)[C@H](O)[C@@H](O)[C@H]3O)[C@@H](O)[C@@H](O)[C@H]2O)ccc1O
REMARK SMILES IDX 22 1 35 2 37 3 39 4 20 5 21 6 23 7 24 8 25 9 28 10 27 11
REMARK SMILES IDX 29 12 26 13 31 14 33 15 30 16 32 18 34 20 36 22 38 24 19 26
REMARK SMILES IDX 18 27 6 28 16 29 7 30 15 31 17 32 8 33 13 34 9 35 12 36
REMARK SMILES IDX 10 37 5 38 4 39 41 40 3 41 42 42 43 43 2 44 1 45 44 46 14 48
REMARK SMILES IDX 11 50 40 52
REMARK H PARENT 30 17 32 19 34 21 36 23 38 25 44 47 14 49 11 51 40 53
REMARK Flexibility Score: inf
ROOT
ATOM      1  C   UNL     1      -1.699   5.261  15.494  1.00  0.00     0.180 C 
ATOM      2  C   UNL     1      -2.334   3.844  15.394  1.00  0.00     0.177 C 
ATOM      3  C   UNL     1      -3.888   3.876  15.447  1.00  0.00     0.180 C 
ATOM      4  C   UNL     1      -4.469   5.274  15.665  1.00  0.00     0.214 C 
ATOM      5  C   UNL     1      -3.727   6.349  14.797  1.00  0.00     0.339 C 
ATOM      6  O   UNL     1      -2.332   6.143  14.585  1.00  0.00    -0.332 OA
ENDROOT
BRANCH   1   7
ATOM      7  C   UNL     1      -1.599   5.864  16.931  1.00  0.00     0.198 C 
BRANCH   7   8
ATOM      8  O   UNL     1      -0.660   5.149  17.732  1.00  0.00    -0.347 OA
BRANCH   8   9
ATOM      9  C   UNL     1       0.216   6.012  18.445  1.00  0.00     0.281 C 
ATOM     10  C   UNL     1      -0.083   7.405  21.823  1.00  0.00     0.041 C 
ATOM     11  C   UNL     1       0.652   6.886  20.583  1.00  0.00     0.150 C 
ATOM     12  C   UNL     1       1.536   7.976  19.882  1.00  0.00     0.174 C 
ATOM     13  O   UNL     1      -0.331   6.334  19.721  1.00  0.00    -0.344 OA
ATOM     14  C   UNL     1       0.863   8.485  18.589  1.00  0.00     0.179 C 
ATOM     15  C   UNL     1       0.564   7.307  17.639  1.00  0.00     0.202 C 
BRANCH  12  16
ATOM     16  O   UNL     1       1.897   9.031  20.748  1.00  0.00    -0.388 OA
ATOM     17  H   UNL     1       2.831   9.318  20.518  1.00  0.00     0.211 HD
ENDBRANCH  12  16
BRANCH  14  18
ATOM     18  O   UNL     1       1.674   9.436  17.944  1.00  0.00    -0.387 OA
ATOM     19  H   UNL     1       1.263  10.327  18.108  1.00  0.00     0.211 HD
ENDBRANCH  14  18
BRANCH  15  20
ATOM     20  O   UNL     1       1.660   7.041  16.782  1.00  0.00    -0.385 OA
ATOM     21  H   UNL     1       1.527   6.111  16.437  1.00  0.00     0.211 HD
ENDBRANCH  15  20
ENDBRANCH   8   9
ENDBRANCH   7   8
ENDBRANCH   1   7
BRANCH   2  22
ATOM     22  O   UNL     1      -1.708   2.925  16.264  1.00  0.00    -0.387 OA
ATOM     23  H   UNL     1      -0.727   3.048  16.179  1.00  0.00     0.211 HD
ENDBRANCH   2  22
BRANCH   3  24
ATOM     24  O   UNL     1      -4.378   3.013  16.457  1.00  0.00    -0.387 OA
ATOM     25  H   UNL     1      -3.830   2.188  16.443  1.00  0.00     0.211 HD
ENDBRANCH   3  24
BRANCH   5  26
ATOM     26  O   UNL     1      -4.368   6.525  13.529  1.00  0.00    -0.454 OA
BRANCH  26  27
ATOM     27  C   UNL     1      -5.236   7.582  13.224  1.00  0.00     0.214 A 
ATOM     28  C   UNL     1      -4.789   8.831  12.732  1.00  0.00     0.180 A 
ATOM     29  C   UNL     1      -6.613   7.391  13.408  1.00  0.00     0.239 A 
ATOM     30  O   UNL     1      -5.700   9.683  12.250  1.00  0.00    -0.452 OA
ATOM     31  C   UNL     1      -7.534   8.316  12.885  1.00  0.00     0.111 A 
ATOM     32  O   UNL     1      -7.010   6.391  14.061  1.00  0.00    -0.285 OA
ATOM     33  C   UNL     1      -7.014   9.468  12.267  1.00  0.00     0.146 A 
ATOM     34  C   UNL     1      -8.939   8.127  12.939  1.00  0.00     0.134 A 
ATOM     35  C   UNL     1      -7.879  10.402  11.684  1.00  0.00     0.094 A 
ATOM     36  C   UNL     1      -9.787   9.083  12.360  1.00  0.00     0.093 A 
ATOM     37  C   UNL     1      -9.258  10.206  11.716  1.00  0.00     0.123 A 
BRANCH  28  38
ATOM     38  C   UNL     1      -3.372   9.319  12.783  1.00  0.00     0.025 A 
ATOM     39  C   UNL     1      -2.981  10.102  13.890  1.00  0.00     0.062 A 
ATOM     40  C   UNL     1      -2.367   8.889  11.890  1.00  0.00     0.016 A 
ATOM     41  C   UNL     1      -1.627  10.412  14.132  1.00  0.00     0.161 A 
ATOM     42  C   UNL     1      -1.031   9.249  12.093  1.00  0.00     0.051 A 
ATOM     43  C   UNL     1      -0.653   9.986  13.213  1.00  0.00     0.157 A 
BRANCH  41  44
ATOM     44  O   UNL     1      -1.215  11.115  15.283  1.00  0.00    -0.493 OA
ATOM     45  C   UNL     1       0.084  11.004  15.849  1.00  0.00     0.278 C 
ENDBRANCH  41  44
BRANCH  43  46
ATOM     46  O   UNL     1       0.697  10.270  13.413  1.00  0.00    -0.504 OA
ATOM     47  H   UNL     1       1.185  10.014  14.267  1.00  0.00     0.293 HD
ENDBRANCH  43  46
ENDBRANCH  28  38
BRANCH  34  48
ATOM     48  O   UNL     1      -9.481   7.005  13.555  1.00  0.00    -0.507 OA
ATOM     49  H   UNL     1      -9.145   6.070  13.361  1.00  0.00     0.293 HD
ENDBRANCH  34  48
BRANCH  37  50
ATOM     50  O   UNL     1     -10.125  11.119  11.117  1.00  0.00    -0.508 OA
ATOM     51  H   UNL     1      -9.826  11.782  10.415  1.00  0.00     0.293 HD
ENDBRANCH  37  50
ENDBRANCH  26  27
ENDBRANCH   5  26
BRANCH   4  52
ATOM     52  O   UNL     1      -4.445   5.581  17.040  1.00  0.00    -0.384 OA
ATOM     53  H   UNL     1      -4.634   6.554  17.156  1.00  0.00     0.211 HD
ENDBRANCH   4  52
TORSDOF 16
ENDMDL
MODEL 4
REMARK VINA RESULT:    -5.555     13.057     18.513
REMARK INTER + INTRA:         -10.262
REMARK INTER:                  -9.138
REMARK INTRA:                  -1.123
REMARK UNBOUND:                -0.973
REMARK SMILES COc1cc(-c2oc3cc(O)cc(O)c3c(=O)c2O[C@@H]2O[C@@H](CO[C@@H]3O[C@H](C)[C@H](O)[C@@H](O)[C@H]3O)[C@@H](O)[C@@H](O)[C@H]2O)ccc1O
REMARK SMILES IDX 22 1 35 2 37 3 39 4 20 5 21 6 23 7 24 8 25 9 28 10 27 11
REMARK SMILES IDX 29 12 26 13 31 14 33 15 30 16 32 18 34 20 36 22 38 24 19 26
REMARK SMILES IDX 18 27 6 28 16 29 7 30 15 31 17 32 8 33 13 34 9 35 12 36
REMARK SMILES IDX 10 37 5 38 4 39 41 40 3 41 42 42 43 43 2 44 1 45 44 46 14 48
REMARK SMILES IDX 11 50 40 52
REMARK H PARENT 30 17 32 19 34 21 36 23 38 25 44 47 14 49 11 51 40 53
REMARK Flexibility Score: inf
ROOT
ATOM      1  C   UNL     1      -4.633  -6.446  21.086  1.00  0.00     0.180 C 
ATOM      2  C   UNL     1      -3.923  -5.427  22.024  1.00  0.00     0.177 C 
ATOM      3  C   UNL     1      -4.487  -5.448  23.473  1.00  0.00     0.180 C 
ATOM      4  C   UNL     1      -5.669  -6.401  23.661  1.00  0.00     0.214 C 
ATOM      5  C   UNL     1      -5.430  -7.769  22.930  1.00  0.00     0.339 C 
ATOM      6  O   UNL     1      -4.697  -7.716  21.708  1.00  0.00    -0.332 OA
ENDROOT
BRANCH   1   7
ATOM      7  C   UNL     1      -6.014  -5.997  20.513  1.00  0.00     0.198 C 
BRANCH   7   8
ATOM      8  O   UNL     1      -5.896  -4.804  19.741  1.00  0.00    -0.347 OA
BRANCH   8   9
ATOM      9  C   UNL     1      -6.725  -3.756  20.226  1.00  0.00     0.281 C 
ATOM     10  C   UNL     1     -10.067  -3.900  21.724  1.00  0.00     0.041 C 
ATOM     11  C   UNL     1      -8.664  -3.335  21.486  1.00  0.00     0.150 C 
ATOM     12  C   UNL     1      -8.670  -1.893  20.868  1.00  0.00     0.174 C 
ATOM     13  O   UNL     1      -7.970  -4.277  20.683  1.00  0.00    -0.344 OA
ATOM     14  C   UNL     1      -8.306  -1.934  19.368  1.00  0.00     0.179 C 
ATOM     15  C   UNL     1      -6.942  -2.628  19.164  1.00  0.00     0.202 C 
BRANCH  12  16
ATOM     16  O   UNL     1      -9.874  -1.198  21.108  1.00  0.00    -0.388 OA
ATOM     17  H   UNL     1      -9.644  -0.297  21.487  1.00  0.00     0.211 HD
ENDBRANCH  12  16
BRANCH  14  18
ATOM     18  O   UNL     1      -8.277  -0.637  18.825  1.00  0.00    -0.387 OA
ATOM     19  H   UNL     1      -8.023  -0.019  19.562  1.00  0.00     0.211 HD
ENDBRANCH  14  18
BRANCH  15  20
ATOM     20  O   UNL     1      -5.873  -1.703  19.241  1.00  0.00    -0.385 OA
ATOM     21  H   UNL     1      -5.472  -1.662  18.325  1.00  0.00     0.211 HD
ENDBRANCH  15  20
ENDBRANCH   8   9
ENDBRANCH   7   8
ENDBRANCH   1   7
BRANCH   2  22
ATOM     22  O   UNL     1      -3.811  -4.152  21.427  1.00  0.00    -0.387 OA
ATOM     23  H   UNL     1      -3.719  -4.285  20.448  1.00  0.00     0.211 HD
ENDBRANCH   2  22
BRANCH   3  24
ATOM     24  O   UNL     1      -4.875  -4.150  23.884  1.00  0.00    -0.387 OA
ATOM     25  H   UNL     1      -4.092  -3.553  23.784  1.00  0.00     0.211 HD
ENDBRANCH   3  24
BRANCH   5  26
ATOM     26  O   UNL     1      -4.813  -8.721  23.802  1.00  0.00    -0.454 OA
BRANCH  26  27
ATOM     27  C   UNL     1      -4.002  -8.384  24.893  1.00  0.00     0.214 A 
ATOM     28  C   UNL     1      -4.503  -8.218  26.205  1.00  0.00     0.180 A 
ATOM     29  C   UNL     1      -2.628  -8.207  24.677  1.00  0.00     0.239 A 
ATOM     30  O   UNL     1      -3.626  -8.132  27.211  1.00  0.00    -0.452 OA
ATOM     31  C   UNL     1      -1.743  -8.118  25.766  1.00  0.00     0.111 A 
ATOM     32  O   UNL     1      -2.201  -8.112  23.496  1.00  0.00    -0.285 OA
ATOM     33  C   UNL     1      -2.303  -8.116  27.055  1.00  0.00     0.146 A 
ATOM     34  C   UNL     1      -0.334  -8.050  25.617  1.00  0.00     0.134 A 
ATOM     35  C   UNL     1      -1.472  -8.079  28.182  1.00  0.00     0.094 A 
ATOM     36  C   UNL     1       0.480  -8.000  26.759  1.00  0.00     0.093 A 
ATOM     37  C   UNL     1      -0.086  -8.036  28.038  1.00  0.00     0.123 A 
BRANCH  28  38
ATOM     38  C   UNL     1      -5.950  -8.048  26.559  1.00  0.00     0.025 A 
ATOM     39  C   UNL     1      -6.519  -6.764  26.416  1.00  0.00     0.062 A 
ATOM     40  C   UNL     1      -6.815  -9.125  26.846  1.00  0.00     0.016 A 
ATOM     41  C   UNL     1      -7.911  -6.560  26.508  1.00  0.00     0.161 A 
ATOM     42  C   UNL     1      -8.189  -8.915  27.002  1.00  0.00     0.051 A 
ATOM     43  C   UNL     1      -8.744  -7.650  26.814  1.00  0.00     0.157 A 
BRANCH  41  44
ATOM     44  O   UNL     1      -8.500  -5.299  26.275  1.00  0.00    -0.493 OA
ATOM     45  C   UNL     1      -9.489  -5.065  25.282  1.00  0.00     0.278 C 
ENDBRANCH  41  44
BRANCH  43  46
ATOM     46  O   UNL     1     -10.125  -7.494  26.916  1.00  0.00    -0.504 OA
ATOM     47  H   UNL     1     -10.553  -6.617  27.199  1.00  0.00     0.293 HD
ENDBRANCH  43  46
ENDBRANCH  28  38
BRANCH  34  48
ATOM     48  O   UNL     1       0.247  -8.037  24.354  1.00  0.00    -0.507 OA
ATOM     49  H   UNL     1      -0.205  -8.453  23.549  1.00  0.00     0.293 HD
ENDBRANCH  34  48
BRANCH  37  50
ATOM     50  O   UNL     1       0.749  -8.023  29.153  1.00  0.00    -0.508 OA
ATOM     51  H   UNL     1       1.625  -8.526  29.191  1.00  0.00     0.293 HD
ENDBRANCH  37  50
ENDBRANCH  26  27
ENDBRANCH   5  26
BRANCH   4  52
ATOM     52  O   UNL     1      -6.854  -5.765  23.240  1.00  0.00    -0.384 OA
ATOM     53  H   UNL     1      -7.634  -6.328  23.507  1.00  0.00     0.211 HD
ENDBRANCH   4  52
TORSDOF 16
ENDMDL
MODEL 5
REMARK VINA RESULT:    -5.528     13.085     16.528
REMARK INTER + INTRA:         -10.218
REMARK INTER:                  -8.524
REMARK INTRA:                  -1.693
REMARK UNBOUND:                -0.973
REMARK SMILES COc1cc(-c2oc3cc(O)cc(O)c3c(=O)c2O[C@@H]2O[C@@H](CO[C@@H]3O[C@H](C)[C@H](O)[C@@H](O)[C@H]3O)[C@@H](O)[C@@H](O)[C@H]2O)ccc1O
REMARK SMILES IDX 22 1 35 2 37 3 39 4 20 5 21 6 23 7 24 8 25 9 28 10 27 11
REMARK SMILES IDX 29 12 26 13 31 14 33 15 30 16 32 18 34 20 36 22 38 24 19 26
REMARK SMILES IDX 18 27 6 28 16 29 7 30 15 31 17 32 8 33 13 34 9 35 12 36
REMARK SMILES IDX 10 37 5 38 4 39 41 40 3 41 42 42 43 43 2 44 1 45 44 46 14 48
REMARK SMILES IDX 11 50 40 52
REMARK H PARENT 30 17 32 19 34 21 36 23 38 25 44 47 14 49 11 51 40 53
REMARK Flexibility Score: inf
ROOT
ATOM      1  C   UNL     1      -6.120  -8.718  25.307  1.00  0.00     0.180 C 
ATOM      2  C   UNL     1      -7.312  -8.549  26.292  1.00  0.00     0.177 C 
ATOM      3  C   UNL     1      -7.875  -7.099  26.313  1.00  0.00     0.180 C 
ATOM      4  C   UNL     1      -7.099  -6.123  25.427  1.00  0.00     0.214 C 
ATOM      5  C   UNL     1      -6.734  -6.765  24.043  1.00  0.00     0.339 C 
ATOM      6  O   UNL     1      -6.449  -8.163  24.046  1.00  0.00    -0.332 OA
ENDROOT
BRANCH   1   7
ATOM      7  C   UNL     1      -4.732  -8.227  25.825  1.00  0.00     0.198 C 
BRANCH   7   8
ATOM      8  O   UNL     1      -3.671  -9.037  25.322  1.00  0.00    -0.347 OA
BRANCH   8   9
ATOM      9  C   UNL     1      -2.542  -9.055  26.185  1.00  0.00     0.281 C 
ATOM     10  C   UNL     1      -2.276  -8.171  29.733  1.00  0.00     0.041 C 
ATOM     11  C   UNL     1      -1.911  -8.917  28.445  1.00  0.00     0.150 C 
ATOM     12  C   UNL     1      -0.451  -8.626  27.950  1.00  0.00     0.174 C 
ATOM     13  O   UNL     1      -2.898  -8.583  27.482  1.00  0.00    -0.344 OA
ATOM     14  C   UNL     1      -0.460  -7.670  26.738  1.00  0.00     0.179 C 
ATOM     15  C   UNL     1      -1.335  -8.246  25.605  1.00  0.00     0.202 C 
BRANCH  12  16
ATOM     16  O   UNL     1       0.399  -8.175  28.982  1.00  0.00    -0.388 OA
ATOM     17  H   UNL     1       0.283  -7.181  29.068  1.00  0.00     0.211 HD
ENDBRANCH  12  16
BRANCH  14  18
ATOM     18  O   UNL     1       0.847  -7.439  26.274  1.00  0.00    -0.387 OA
ATOM     19  H   UNL     1       1.376  -7.107  27.048  1.00  0.00     0.211 HD
ENDBRANCH  14  18
BRANCH  15  20
ATOM     20  O   UNL     1      -0.584  -9.083  24.744  1.00  0.00    -0.385 OA
ATOM     21  H   UNL     1      -1.151  -9.889  24.573  1.00  0.00     0.211 HD
ENDBRANCH  15  20
ENDBRANCH   8   9
ENDBRANCH   7   8
ENDBRANCH   1   7
BRANCH   2  22
ATOM     22  O   UNL     1      -7.036  -9.119  27.554  1.00  0.00    -0.387 OA
ATOM     23  H   UNL     1      -6.590  -8.426  28.107  1.00  0.00     0.211 HD
ENDBRANCH   2  22
BRANCH   3  24
ATOM     24  O   UNL     1      -7.913  -6.589  27.633  1.00  0.00    -0.387 OA
ATOM     25  H   UNL     1      -8.474  -5.774  27.628  1.00  0.00     0.211 HD
ENDBRANCH   3  24
BRANCH   5  26
ATOM     26  O   UNL     1      -7.743  -6.499  23.065  1.00  0.00    -0.454 OA
BRANCH  26  27
ATOM     27  C   UNL     1      -7.721  -5.410  22.184  1.00  0.00     0.214 A 
ATOM     28  C   UNL     1      -6.995  -5.412  20.971  1.00  0.00     0.180 A 
ATOM     29  C   UNL     1      -8.458  -4.264  22.518  1.00  0.00     0.239 A 
ATOM     30  O   UNL     1      -7.225  -4.428  20.094  1.00  0.00    -0.452 OA
ATOM     31  C   UNL     1      -8.673  -3.254  21.564  1.00  0.00     0.111 A 
ATOM     32  O   UNL     1      -8.910  -4.147  23.687  1.00  0.00    -0.285 OA
ATOM     33  C   UNL     1      -8.042  -3.399  20.316  1.00  0.00     0.146 A 
ATOM     34  C   UNL     1      -9.498  -2.126  21.801  1.00  0.00     0.134 A 
ATOM     35  C   UNL     1      -8.255  -2.451  19.307  1.00  0.00     0.094 A 
ATOM     36  C   UNL     1      -9.688  -1.181  20.781  1.00  0.00     0.093 A 
ATOM     37  C   UNL     1      -9.085  -1.355  19.530  1.00  0.00     0.123 A 
BRANCH  28  38
ATOM     38  C   UNL     1      -5.916  -6.390  20.615  1.00  0.00     0.025 A 
ATOM     39  C   UNL     1      -4.592  -5.910  20.523  1.00  0.00     0.062 A 
ATOM     40  C   UNL     1      -6.118  -7.785  20.550  1.00  0.00     0.016 A 
ATOM     41  C   UNL     1      -3.495  -6.790  20.417  1.00  0.00     0.161 A 
ATOM     42  C   UNL     1      -5.038  -8.656  20.380  1.00  0.00     0.051 A 
ATOM     43  C   UNL     1      -3.732  -8.173  20.335  1.00  0.00     0.157 A 
BRANCH  41  44
ATOM     44  O   UNL     1      -2.162  -6.327  20.418  1.00  0.00    -0.493 OA
ATOM     45  C   UNL     1      -1.780  -5.031  19.980  1.00  0.00     0.278 C 
ENDBRANCH  41  44
BRANCH  43  46
ATOM     46  O   UNL     1      -2.678  -9.078  20.229  1.00  0.00    -0.504 OA
ATOM     47  H   UNL     1      -2.583  -9.876  20.851  1.00  0.00     0.293 HD
ENDBRANCH  43  46
ENDBRANCH  28  38
BRANCH  34  48
ATOM     48  O   UNL     1     -10.125  -1.949  23.029  1.00  0.00    -0.507 OA
ATOM     49  H   UNL     1     -11.021  -1.484  23.115  1.00  0.00     0.293 HD
ENDBRANCH  34  48
BRANCH  37  50
ATOM     50  O   UNL     1      -9.321  -0.420  18.524  1.00  0.00    -0.508 OA
ATOM     51  H   UNL     1     -10.033  -0.541  17.817  1.00  0.00     0.293 HD
ENDBRANCH  37  50
ENDBRANCH  26  27
ENDBRANCH   5  26
BRANCH   4  52
ATOM     52  O   UNL     1      -5.964  -5.661  26.123  1.00  0.00    -0.384 OA
ATOM     53  H   UNL     1      -5.293  -6.397  26.170  1.00  0.00     0.211 HD
ENDBRANCH   4  52
TORSDOF 16
ENDMDL
MODEL 6
REMARK VINA RESULT:    -5.081      2.418      8.331
REMARK INTER + INTRA:          -9.469
REMARK INTER:                  -7.282
REMARK INTRA:                  -2.187
REMARK UNBOUND:                -0.973
REMARK SMILES COc1cc(-c2oc3cc(O)cc(O)c3c(=O)c2O[C@@H]2O[C@@H](CO[C@@H]3O[C@H](C)[C@H](O)[C@@H](O)[C@H]3O)[C@@H](O)[C@@H](O)[C@H]2O)ccc1O
REMARK SMILES IDX 22 1 35 2 37 3 39 4 20 5 21 6 23 7 24 8 25 9 28 10 27 11
REMARK SMILES IDX 29 12 26 13 31 14 33 15 30 16 32 18 34 20 36 22 38 24 19 26
REMARK SMILES IDX 18 27 6 28 16 29 7 30 15 31 17 32 8 33 13 34 9 35 12 36
REMARK SMILES IDX 10 37 5 38 4 39 41 40 3 41 42 42 43 43 2 44 1 45 44 46 14 48
REMARK SMILES IDX 11 50 40 52
REMARK H PARENT 30 17 32 19 34 21 36 23 38 25 44 47 14 49 11 51 40 53
REMARK Flexibility Score: inf
ROOT
ATOM      1  C   UNL     1      -5.895   7.119  16.667  1.00  0.00     0.180 C 
ATOM      2  C   UNL     1      -5.460   6.072  17.732  1.00  0.00     0.177 C 
ATOM      3  C   UNL     1      -5.154   4.677  17.116  1.00  0.00     0.180 C 
ATOM      4  C   UNL     1      -5.417   4.597  15.612  1.00  0.00     0.214 C 
ATOM      5  C   UNL     1      -4.898   5.875  14.865  1.00  0.00     0.339 C 
ATOM      6  O   UNL     1      -4.991   7.108  15.577  1.00  0.00    -0.332 OA
ENDROOT
BRANCH   1   7
ATOM      7  C   UNL     1      -7.383   7.041  16.202  1.00  0.00     0.198 C 
BRANCH   7   8
ATOM      8  O   UNL     1      -7.680   8.044  15.232  1.00  0.00    -0.347 OA
BRANCH   8   9
ATOM      9  C   UNL     1      -8.305   7.512  14.072  1.00  0.00     0.281 C 
ATOM     10  C   UNL     1      -7.055   5.083  11.627  1.00  0.00     0.041 C 
ATOM     11  C   UNL     1      -8.115   5.818  12.453  1.00  0.00     0.150 C 
ATOM     12  C   UNL     1      -9.131   6.634  11.579  1.00  0.00     0.174 C 
ATOM     13  O   UNL     1      -7.421   6.626  13.391  1.00  0.00    -0.344 OA
ATOM     14  C   UNL     1      -8.826   8.146  11.646  1.00  0.00     0.179 C 
ATOM     15  C   UNL     1      -8.830   8.630  13.112  1.00  0.00     0.202 C 
BRANCH  12  16
ATOM     16  O   UNL     1      -9.213   6.163  10.251  1.00  0.00    -0.388 OA
ATOM     17  H   UNL     1      -8.512   5.455  10.127  1.00  0.00     0.211 HD
ENDBRANCH  12  16
BRANCH  14  18
ATOM     18  O   UNL     1      -9.760   8.878  10.890  1.00  0.00    -0.387 OA
ATOM     19  H   UNL     1      -9.705   8.541   9.956  1.00  0.00     0.211 HD
ENDBRANCH  14  18
BRANCH  15  20
ATOM     20  O   UNL     1     -10.125   9.028  13.523  1.00  0.00    -0.385 OA
ATOM     21  H   UNL     1     -10.591   8.195  13.825  1.00  0.00     0.211 HD
ENDBRANCH  15  20
ENDBRANCH   8   9
ENDBRANCH   7   8
ENDBRANCH   1   7
BRANCH   2  22
ATOM     22  O   UNL     1      -6.320   6.074  18.853  1.00  0.00    -0.387 OA
ATOM     23  H   UNL     1      -6.927   5.295  18.768  1.00  0.00     0.211 HD
ENDBRANCH   2  22
BRANCH   3  24
ATOM     24  O   UNL     1      -5.896   3.662  17.767  1.00  0.00    -0.387 OA
ATOM     25  H   UNL     1      -6.200   4.019  18.639  1.00  0.00     0.211 HD
ENDBRANCH   3  24
BRANCH   5  26
ATOM     26  O   UNL     1      -3.552   5.701  14.411  1.00  0.00    -0.454 OA
BRANCH  26  27
ATOM     27  C   UNL     1      -2.556   6.682  14.503  1.00  0.00     0.214 A 
ATOM     28  C   UNL     1      -2.674   7.960  13.909  1.00  0.00     0.180 A 
ATOM     29  C   UNL     1      -1.388   6.385  15.220  1.00  0.00     0.239 A 
ATOM     30  O   UNL     1      -1.784   8.900  14.248  1.00  0.00    -0.452 OA
ATOM     31  C   UNL     1      -0.480   7.405  15.553  1.00  0.00     0.111 A 
ATOM     32  O   UNL     1      -1.158   5.191  15.547  1.00  0.00    -0.285 OA
ATOM     33  C   UNL     1      -0.744   8.693  15.055  1.00  0.00     0.146 A 
ATOM     34  C   UNL     1       0.661   7.193  16.368  1.00  0.00     0.134 A 
ATOM     35  C   UNL     1       0.097   9.762  15.391  1.00  0.00     0.094 A 
ATOM     36  C   UNL     1       1.497   8.274  16.682  1.00  0.00     0.093 A 
ATOM     37  C   UNL     1       1.204   9.559  16.212  1.00  0.00     0.123 A 
BRANCH  28  38
ATOM     38  C   UNL     1      -3.675   8.332  12.857  1.00  0.00     0.025 A 
ATOM     39  C   UNL     1      -4.665   9.281  13.191  1.00  0.00     0.062 A 
ATOM     40  C   UNL     1      -3.574   7.932  11.508  1.00  0.00     0.016 A 
ATOM     41  C   UNL     1      -5.500   9.852  12.209  1.00  0.00     0.161 A 
ATOM     42  C   UNL     1      -4.443   8.449  10.542  1.00  0.00     0.051 A 
ATOM     43  C   UNL     1      -5.387   9.418  10.878  1.00  0.00     0.157 A 
BRANCH  41  44
ATOM     44  O   UNL     1      -6.430  10.868  12.516  1.00  0.00    -0.493 OA
ATOM     45  C   UNL     1      -6.908  11.125  13.829  1.00  0.00     0.278 C 
ENDBRANCH  41  44
BRANCH  43  46
ATOM     46  O   UNL     1      -6.192   9.954   9.875  1.00  0.00    -0.504 OA
ATOM     47  H   UNL     1      -6.135   9.644   8.909  1.00  0.00     0.293 HD
ENDBRANCH  43  46
ENDBRANCH  28  38
BRANCH  34  48
ATOM     48  O   UNL     1       0.955   5.928  16.864  1.00  0.00    -0.507 OA
ATOM     49  H   UNL     1       1.694   5.772  17.539  1.00  0.00     0.293 HD
ENDBRANCH  34  48
BRANCH  37  50
ATOM     50  O   UNL     1       2.033  10.621  16.571  1.00  0.00    -0.508 OA
ATOM     51  H   UNL     1       1.695  11.567  16.690  1.00  0.00     0.293 HD
ENDBRANCH  37  50
ENDBRANCH  26  27
ENDBRANCH   5  26
BRANCH   4  52
ATOM     52  O   UNL     1      -6.788   4.362  15.388  1.00  0.00    -0.384 OA
ATOM     53  H   UNL     1      -7.319   5.010  15.930  1.00  0.00     0.211 HD
ENDBRANCH   4  52
TORSDOF 16
ENDMDL
MODEL 7
REMARK VINA RESULT:    -4.811      2.969      9.013
REMARK INTER + INTRA:          -9.018
REMARK INTER:                  -7.469
REMARK INTRA:                  -1.550
REMARK UNBOUND:                -0.973
REMARK SMILES COc1cc(-c2oc3cc(O)cc(O)c3c(=O)c2O[C@@H]2O[C@@H](CO[C@@H]3O[C@H](C)[C@H](O)[C@@H](O)[C@H]3O)[C@@H](O)[C@@H](O)[C@H]2O)ccc1O
REMARK SMILES IDX 22 1 35 2 37 3 39 4 20 5 21 6 23 7 24 8 25 9 28 10 27 11
REMARK SMILES IDX 29 12 26 13 31 14 33 15 30 16 32 18 34 20 36 22 38 24 19 26
REMARK SMILES IDX 18 27 6 28 16 29 7 30 15 31 17 32 8 33 13 34 9 35 12 36
REMARK SMILES IDX 10 37 5 38 4 39 41 40 3 41 42 42 43 43 2 44 1 45 44 46 14 48
REMARK SMILES IDX 11 50 40 52
REMARK H PARENT 30 17 32 19 34 21 36 23 38 25 44 47 14 49 11 51 40 53
REMARK Flexibility Score: inf
ROOT
ATOM      1  C   UNL     1      -3.381   9.815  11.332  1.00  0.00     0.180 C 
ATOM      2  C   UNL     1      -1.918   9.846  11.862  1.00  0.00     0.177 C 
ATOM      3  C   UNL     1      -1.771   9.182  13.261  1.00  0.00     0.180 C 
ATOM      4  C   UNL     1      -3.096   8.709  13.862  1.00  0.00     0.214 C 
ATOM      5  C   UNL     1      -3.996   8.003  12.789  1.00  0.00     0.339 C 
ATOM      6  O   UNL     1      -3.916   8.510  11.458  1.00  0.00    -0.332 OA
ENDROOT
BRANCH   1   7
ATOM      7  C   UNL     1      -4.338  10.906  11.907  1.00  0.00     0.198 C 
BRANCH   7   8
ATOM      8  O   UNL     1      -5.504  11.054  11.100  1.00  0.00    -0.347 OA
BRANCH   8   9
ATOM      9  C   UNL     1      -6.702  10.793  11.821  1.00  0.00     0.281 C 
ATOM     10  C   UNL     1      -7.208   8.996  14.976  1.00  0.00     0.041 C 
ATOM     11  C   UNL     1      -7.513  10.037  13.894  1.00  0.00     0.150 C 
ATOM     12  C   UNL     1      -8.901   9.822  13.195  1.00  0.00     0.174 C 
ATOM     13  O   UNL     1      -6.426  10.014  12.981  1.00  0.00    -0.344 OA
ATOM     14  C   UNL     1      -8.722   9.219  11.785  1.00  0.00     0.179 C 
ATOM     15  C   UNL     1      -7.795  10.112  10.933  1.00  0.00     0.202 C 
BRANCH  12  16
ATOM     16  O   UNL     1      -9.803   9.077  13.985  1.00  0.00    -0.388 OA
ATOM     17  H   UNL     1     -10.509   9.704  14.327  1.00  0.00     0.211 HD
ENDBRANCH  12  16
BRANCH  14  18
ATOM     18  O   UNL     1      -9.965   9.060  11.148  1.00  0.00    -0.387 OA
ATOM     19  H   UNL     1     -10.201   8.096  11.207  1.00  0.00     0.211 HD
ENDBRANCH  14  18
BRANCH  15  20
ATOM     20  O   UNL     1      -8.527  11.111  10.246  1.00  0.00    -0.385 OA
ATOM     21  H   UNL     1      -8.887  11.726  10.948  1.00  0.00     0.211 HD
ENDBRANCH  15  20
ENDBRANCH   8   9
ENDBRANCH   7   8
ENDBRANCH   1   7
BRANCH   2  22
ATOM     22  O   UNL     1      -1.336  11.125  11.725  1.00  0.00    -0.387 OA
ATOM     23  H   UNL     1      -1.841  11.750  12.305  1.00  0.00     0.211 HD
ENDBRANCH   2  22
BRANCH   3  24
ATOM     24  O   UNL     1      -1.141  10.061  14.175  1.00  0.00    -0.387 OA
ATOM     25  H   UNL     1      -0.189  10.139  13.915  1.00  0.00     0.211 HD
ENDBRANCH   3  24
BRANCH   5  26
ATOM     26  O   UNL     1      -3.763   6.591  12.762  1.00  0.00    -0.454 OA
BRANCH  26  27
ATOM     27  C   UNL     1      -3.770   5.768  13.896  1.00  0.00     0.214 A 
ATOM     28  C   UNL     1      -4.885   4.983  14.272  1.00  0.00     0.180 A 
ATOM     29  C   UNL     1      -2.618   5.716  14.692  1.00  0.00     0.239 A 
ATOM     30  O   UNL     1      -4.715   4.059  15.225  1.00  0.00    -0.452 OA
ATOM     31  C   UNL     1      -2.484   4.728  15.684  1.00  0.00     0.111 A 
ATOM     32  O   UNL     1      -1.714   6.575  14.518  1.00  0.00    -0.285 OA
ATOM     33  C   UNL     1      -3.581   3.876  15.900  1.00  0.00     0.146 A 
ATOM     34  C   UNL     1      -1.302   4.551  16.448  1.00  0.00     0.134 A 
ATOM     35  C   UNL     1      -3.492   2.841  16.840  1.00  0.00     0.094 A 
ATOM     36  C   UNL     1      -1.239   3.517  17.394  1.00  0.00     0.093 A 
ATOM     37  C   UNL     1      -2.323   2.651  17.574  1.00  0.00     0.123 A 
BRANCH  28  38
ATOM     38  C   UNL     1      -6.278   5.156  13.746  1.00  0.00     0.025 A 
ATOM     39  C   UNL     1      -7.299   5.474  14.667  1.00  0.00     0.062 A 
ATOM     40  C   UNL     1      -6.591   5.203  12.371  1.00  0.00     0.016 A 
ATOM     41  C   UNL     1      -8.581   5.873  14.237  1.00  0.00     0.161 A 
ATOM     42  C   UNL     1      -7.880   5.536  11.943  1.00  0.00     0.051 A 
ATOM     43  C   UNL     1      -8.867   5.890  12.861  1.00  0.00     0.157 A 
BRANCH  41  44
ATOM     44  O   UNL     1      -9.581   6.282  15.145  1.00  0.00    -0.493 OA
ATOM     45  C   UNL     1      -9.318   6.639  16.494  1.00  0.00     0.278 C 
ENDBRANCH  41  44
BRANCH  43  46
ATOM     46  O   UNL     1     -10.121   6.277  12.392  1.00  0.00    -0.504 OA
ATOM     47  H   UNL     1     -10.902   6.459  13.017  1.00  0.00     0.293 HD
ENDBRANCH  43  46
ENDBRANCH  28  38
BRANCH  34  48
ATOM     48  O   UNL     1      -0.206   5.387  16.266  1.00  0.00    -0.507 OA
ATOM     49  H   UNL     1      -0.246   6.379  16.466  1.00  0.00     0.293 HD
ENDBRANCH  34  48
BRANCH  37  50
ATOM     50  O   UNL     1      -2.217   1.609  18.494  1.00  0.00    -0.508 OA
ATOM     51  H   UNL     1      -2.247   1.753  19.494  1.00  0.00     0.293 HD
ENDBRANCH  37  50
ENDBRANCH  26  27
ENDBRANCH   5  26
BRANCH   4  52
ATOM     52  O   UNL     1      -3.745   9.797  14.479  1.00  0.00    -0.384 OA
ATOM     53  H   UNL     1      -3.954  10.482  13.785  1.00  0.00     0.211 HD
ENDBRANCH   4  52
TORSDOF 16
ENDMDL
MODEL 8
REMARK VINA RESULT:    -4.520     13.219     18.068
REMARK INTER + INTRA:          -8.530
REMARK INTER:                  -9.174
REMARK INTRA:                   0.643
REMARK UNBOUND:                -0.973
REMARK SMILES COc1cc(-c2oc3cc(O)cc(O)c3c(=O)c2O[C@@H]2O[C@@H](CO[C@@H]3O[C@H](C)[C@H](O)[C@@H](O)[C@H]3O)[C@@H](O)[C@@H](O)[C@H]2O)ccc1O
REMARK SMILES IDX 22 1 35 2 37 3 39 4 20 5 21 6 23 7 24 8 25 9 28 10 27 11
REMARK SMILES IDX 29 12 26 13 31 14 33 15 30 16 32 18 34 20 36 22 38 24 19 26
REMARK SMILES IDX 18 27 6 28 16 29 7 30 15 31 17 32 8 33 13 34 9 35 12 36
REMARK SMILES IDX 10 37 5 38 4 39 41 40 3 41 42 42 43 43 2 44 1 45 44 46 14 48
REMARK SMILES IDX 11 50 40 52
REMARK H PARENT 30 17 32 19 34 21 36 23 38 25 44 47 14 49 11 51 40 53
REMARK Flexibility Score: inf
ROOT
ATOM      1  C   UNL     1      -5.053  -6.070  20.427  1.00  0.00     0.180 C 
ATOM      2  C   UNL     1      -4.599  -4.847  21.276  1.00  0.00     0.177 C 
ATOM      3  C   UNL     1      -5.233  -4.832  22.697  1.00  0.00     0.180 C 
ATOM      4  C   UNL     1      -6.226  -5.970  22.941  1.00  0.00     0.214 C 
ATOM      5  C   UNL     1      -5.696  -7.332  22.372  1.00  0.00     0.339 C 
ATOM      6  O   UNL     1      -4.916  -7.262  21.179  1.00  0.00    -0.332 OA
ENDROOT
BRANCH   1   7
ATOM      7  C   UNL     1      -6.458  -5.951  19.757  1.00  0.00     0.198 C 
BRANCH   7   8
ATOM      8  O   UNL     1      -7.323  -5.100  20.507  1.00  0.00    -0.347 OA
BRANCH   8   9
ATOM      9  C   UNL     1      -7.791  -3.993  19.747  1.00  0.00     0.281 C 
ATOM     10  C   UNL     1      -6.248  -2.266  16.906  1.00  0.00     0.041 C 
ATOM     11  C   UNL     1      -7.402  -2.781  17.772  1.00  0.00     0.150 C 
ATOM     12  C   UNL     1      -8.281  -1.634  18.383  1.00  0.00     0.174 C 
ATOM     13  O   UNL     1      -6.833  -3.626  18.759  1.00  0.00    -0.344 OA
ATOM     14  C   UNL     1      -7.972  -1.443  19.884  1.00  0.00     0.179 C 
ATOM     15  C   UNL     1      -8.168  -2.770  20.647  1.00  0.00     0.202 C 
BRANCH  12  16
ATOM     16  O   UNL     1      -8.188  -0.426  17.660  1.00  0.00    -0.388 OA
ATOM     17  H   UNL     1      -7.468   0.134  18.080  1.00  0.00     0.211 HD
ENDBRANCH  12  16
BRANCH  14  18
ATOM     18  O   UNL     1      -8.787  -0.439  20.438  1.00  0.00    -0.387 OA
ATOM     19  H   UNL     1      -9.069   0.152  19.689  1.00  0.00     0.211 HD
ENDBRANCH  14  18
BRANCH  15  20
ATOM     20  O   UNL     1      -9.503  -2.917  21.097  1.00  0.00    -0.385 OA
ATOM     21  H   UNL     1     -10.023  -3.272  20.319  1.00  0.00     0.211 HD
ENDBRANCH  15  20
ENDBRANCH   8   9
ENDBRANCH   7   8
ENDBRANCH   1   7
BRANCH   2  22
ATOM     22  O   UNL     1      -4.691  -3.640  20.550  1.00  0.00    -0.387 OA
ATOM     23  H   UNL     1      -5.536  -3.663  20.031  1.00  0.00     0.211 HD
ENDBRANCH   2  22
BRANCH   3  24
ATOM     24  O   UNL     1      -5.878  -3.598  22.951  1.00  0.00    -0.387 OA
ATOM     25  H   UNL     1      -6.729  -3.590  22.446  1.00  0.00     0.211 HD
ENDBRANCH   3  24
BRANCH   5  26
ATOM     26  O   UNL     1      -4.964  -8.059  23.363  1.00  0.00    -0.454 OA
BRANCH  26  27
ATOM     27  C   UNL     1      -5.449  -8.354  24.644  1.00  0.00     0.214 A 
ATOM     28  C   UNL     1      -4.634  -8.342  25.800  1.00  0.00     0.180 A 
ATOM     29  C   UNL     1      -6.807  -8.671  24.788  1.00  0.00     0.239 A 
ATOM     30  O   UNL     1      -5.231  -8.403  26.995  1.00  0.00    -0.452 OA
ATOM     31  C   UNL     1      -7.392  -8.726  26.066  1.00  0.00     0.111 A 
ATOM     32  O   UNL     1      -7.490  -8.921  23.761  1.00  0.00    -0.285 OA
ATOM     33  C   UNL     1      -6.543  -8.549  27.173  1.00  0.00     0.146 A 
ATOM     34  C   UNL     1      -8.779  -8.932  26.276  1.00  0.00     0.134 A 
ATOM     35  C   UNL     1      -7.073  -8.545  28.470  1.00  0.00     0.094 A 
ATOM     36  C   UNL     1      -9.286  -8.937  27.584  1.00  0.00     0.093 A 
ATOM     37  C   UNL     1      -8.439  -8.723  28.677  1.00  0.00     0.123 A 
BRANCH  28  38
ATOM     38  C   UNL     1      -3.135  -8.350  25.796  1.00  0.00     0.025 A 
ATOM     39  C   UNL     1      -2.468  -7.836  26.929  1.00  0.00     0.062 A 
ATOM     40  C   UNL     1      -2.360  -9.005  24.815  1.00  0.00     0.016 A 
ATOM     41  C   UNL     1      -1.080  -8.008  27.108  1.00  0.00     0.161 A 
ATOM     42  C   UNL     1      -0.974  -9.120  24.960  1.00  0.00     0.051 A 
ATOM     43  C   UNL     1      -0.334  -8.648  26.103  1.00  0.00     0.157 A 
BRANCH  41  44
ATOM     44  O   UNL     1      -0.418  -7.581  28.278  1.00  0.00    -0.493 OA
ATOM     45  C   UNL     1      -0.662  -6.330  28.908  1.00  0.00     0.278 C 
ENDBRANCH  41  44
BRANCH  43  46
ATOM     46  O   UNL     1       1.040  -8.838  26.238  1.00  0.00    -0.504 OA
ATOM     47  H   UNL     1       1.600  -9.281  25.514  1.00  0.00     0.293 HD
ENDBRANCH  43  46
ENDBRANCH  28  38
BRANCH  34  48
ATOM     48  O   UNL     1      -9.640  -9.122  25.202  1.00  0.00    -0.507 OA
ATOM     49  H   UNL     1     -10.257  -9.923  25.142  1.00  0.00     0.293 HD
ENDBRANCH  34  48
BRANCH  37  50
ATOM     50  O   UNL     1      -8.978  -8.696  29.962  1.00  0.00    -0.508 OA
ATOM     51  H   UNL     1      -9.680  -8.029  30.251  1.00  0.00     0.293 HD
ENDBRANCH  37  50
ENDBRANCH  26  27
ENDBRANCH   5  26
BRANCH   4  52
ATOM     52  O   UNL     1      -7.482  -5.616  22.409  1.00  0.00    -0.384 OA
ATOM     53  H   UNL     1      -8.180  -5.764  23.106  1.00  0.00     0.211 HD
ENDBRANCH   4  52
TORSDOF 16
ENDMDL
