MODEL 1
REMARK VINA RESULT:     0.000      0.000      0.000
REMARK INTER + INTRA:          -3.060
REMARK INTER:                   0.000
REMARK INTRA:                  -3.060
REMARK UNBOUND:                -3.060
REMARK SMILES CCCCCCCCCCCCCCCCO
REMARK SMILES IDX 9 1 8 2 7 3 6 4 5 5 4 6 3 7 2 8 1 9 10 10 11 11 12 12 13 13
REMARK SMILES IDX 14 14 15 15 16 16 17 17
REMARK H PARENT 17 18
REMARK Flexibility Score: inf
ROOT
ATOM      1  C   UNL     1       5.162  18.324 -42.033  1.00  0.00     0.000 C 
ENDROOT
BRANCH   1   2
ATOM      2  C   UNL     1       4.216  17.376 -41.276  1.00  0.00    -0.000 C 
BRANCH   2   3
ATOM      3  C   UNL     1       3.863  17.895 -39.871  1.00  0.00    -0.000 C 
BRANCH   3   4
ATOM      4  C   UNL     1       4.231  16.898 -38.762  1.00  0.00    -0.000 C 
BRANCH   4   5
ATOM      5  C   UNL     1       5.158  15.799 -39.296  1.00  0.00    -0.000 C 
BRANCH   5   6
ATOM      6  C   UNL     1       6.572  15.939 -38.712  1.00  0.00    -0.000 C 
BRANCH   6   7
ATOM      7  C   UNL     1       7.678  15.686 -39.752  1.00  0.00    -0.000 C 
BRANCH   7   8
ATOM      8  C   UNL     1       7.181  15.152 -41.107  1.00  0.00    -0.003 C 
ATOM      9  C   UNL     1       7.901  15.781 -42.299  1.00  0.00     0.004 C 
ENDBRANCH   7   8
ENDBRANCH   6   7
ENDBRANCH   5   6
ENDBRANCH   4   5
ENDBRANCH   3   4
ENDBRANCH   2   3
ENDBRANCH   1   2
BRANCH   1  10
ATOM     10  C   UNL     1       5.798  19.382 -41.116  1.00  0.00     0.000 C 
BRANCH  10  11
ATOM     11  C   UNL     1       7.319  19.197 -40.960  1.00  0.00     0.000 C 
BRANCH  11  12
ATOM     12  C   UNL     1       7.785  19.397 -39.501  1.00  0.00     0.000 C 
BRANCH  12  13
ATOM     13  C   UNL     1       6.686  19.936 -38.567  1.00  0.00     0.000 C 
BRANCH  13  14
ATOM     14  C   UNL     1       6.654  19.297 -37.165  1.00  0.00     0.002 C 
BRANCH  14  15
ATOM     15  C   UNL     1       5.351  19.528 -36.377  1.00  0.00     0.028 C 
BRANCH  15  16
ATOM     16  C   UNL     1       4.361  20.437 -37.109  1.00  0.00     0.156 C 
BRANCH  16  17
ATOM     17  O   UNL     1       3.073  19.897 -37.008  1.00  0.00    -0.396 OA
ATOM     18  H   UNL     1       2.865  19.512 -37.898  1.00  0.00     0.210 HD
ENDBRANCH  16  17
ENDBRANCH  15  16
ENDBRANCH  14  15
ENDBRANCH  13  14
ENDBRANCH  12  13
ENDBRANCH  11  12
ENDBRANCH  10  11
ENDBRANCH   1  10
TORSDOF 15
ENDMDL
MODEL 2
REMARK VINA RESULT:     0.008      6.650      8.791
REMARK INTER + INTRA:          -3.045
REMARK INTER:                   0.000
REMARK INTRA:                  -3.045
REMARK UNBOUND:                -3.060
REMARK SMILES CCCCCCCCCCCCCCCCO
REMARK SMILES IDX 9 1 8 2 7 3 6 4 5 5 4 6 3 7 2 8 1 9 10 10 11 11 12 12 13 13
REMARK SMILES IDX 14 14 15 15 16 16 17 17
REMARK H PARENT 17 18
REMARK Flexibility Score: inf
ROOT
ATOM      1  C   UNL     1      -0.920  12.919 -43.426  1.00  0.00     0.000 C 
ENDROOT
BRANCH   1   2
ATOM      2  C   UNL     1      -0.200  12.781 -44.779  1.00  0.00    -0.000 C 
BRANCH   2   3
ATOM      3  C   UNL     1       1.144  12.043 -44.659  1.00  0.00    -0.000 C 
BRANCH   3   4
ATOM      4  C   UNL     1       2.315  12.842 -45.253  1.00  0.00    -0.000 C 
BRANCH   4   5
ATOM      5  C   UNL     1       1.998  14.342 -45.279  1.00  0.00    -0.000 C 
BRANCH   5   6
ATOM      6  C   UNL     1       2.711  15.076 -44.132  1.00  0.00    -0.000 C 
BRANCH   6   7
ATOM      7  C   UNL     1       1.834  16.156 -43.475  1.00  0.00    -0.000 C 
BRANCH   7   8
ATOM      8  C   UNL     1       0.460  16.365 -44.137  1.00  0.00    -0.003 C 
ATOM      9  C   UNL     1      -0.655  16.641 -43.129  1.00  0.00     0.004 C 
ENDBRANCH   7   8
ENDBRANCH   6   7
ENDBRANCH   5   6
ENDBRANCH   4   5
ENDBRANCH   3   4
ENDBRANCH   2   3
ENDBRANCH   1   2
BRANCH   1  10
ATOM     10  C   UNL     1      -0.055  12.447 -42.245  1.00  0.00     0.000 C 
BRANCH  10  11
ATOM     11  C   UNL     1       0.253  13.575 -41.244  1.00  0.00     0.000 C 
BRANCH  11  12
ATOM     12  C   UNL     1       1.734  13.581 -40.806  1.00  0.00     0.000 C 
BRANCH  12  13
ATOM     13  C   UNL     1       2.494  12.292 -41.171  1.00  0.00     0.000 C 
BRANCH  13  14
ATOM     14  C   UNL     1       3.883  12.513 -41.801  1.00  0.00     0.002 C 
BRANCH  14  15
ATOM     15  C   UNL     1       4.429  11.317 -42.603  1.00  0.00     0.028 C 
BRANCH  15  16
ATOM     16  C   UNL     1       3.538  10.076 -42.509  1.00  0.00     0.156 C 
BRANCH  16  17
ATOM     17  O   UNL     1       3.457   9.466 -43.767  1.00  0.00    -0.396 OA
ATOM     18  H   UNL     1       3.468   8.488 -43.600  1.00  0.00     0.210 HD
ENDBRANCH  16  17
ENDBRANCH  15  16
ENDBRANCH  14  15
ENDBRANCH  13  14
ENDBRANCH  12  13
ENDBRANCH  11  12
ENDBRANCH  10  11
ENDBRANCH   1  10
TORSDOF 15
ENDMDL
MODEL 3
REMARK VINA RESULT:     0.016     11.472     13.749
REMARK INTER + INTRA:          -3.031
REMARK INTER:                   0.000
REMARK INTRA:                  -3.031
REMARK UNBOUND:                -3.060
REMARK SMILES CCCCCCCCCCCCCCCCO
REMARK SMILES IDX 9 1 8 2 7 3 6 4 5 5 4 6 3 7 2 8 1 9 10 10 11 11 12 12 13 13
REMARK SMILES IDX 14 14 15 15 16 16 17 17
REMARK H PARENT 17 18
REMARK Flexibility Score: inf
ROOT
ATOM      1  C   UNL     1       0.815  13.530 -47.844  1.00  0.00     0.000 C 
ENDROOT
BRANCH   1   2
ATOM      2  C   UNL     1      -0.219  14.663 -47.970  1.00  0.00    -0.000 C 
BRANCH   2   3
ATOM      3  C   UNL     1      -1.524  14.355 -47.217  1.00  0.00    -0.000 C 
BRANCH   3   4
ATOM      4  C   UNL     1      -1.579  12.913 -46.691  1.00  0.00    -0.000 C 
BRANCH   4   5
ATOM      5  C   UNL     1      -2.887  12.227 -47.104  1.00  0.00    -0.000 C 
BRANCH   5   6
ATOM      6  C   UNL     1      -2.623  10.809 -47.633  1.00  0.00    -0.000 C 
BRANCH   6   7
ATOM      7  C   UNL     1      -1.139  10.410 -47.562  1.00  0.00    -0.000 C 
BRANCH   7   8
ATOM      8  C   UNL     1      -0.712   9.325 -48.567  1.00  0.00    -0.003 C 
ATOM      9  C   UNL     1       0.797   9.295 -48.810  1.00  0.00     0.004 C 
ENDBRANCH   7   8
ENDBRANCH   6   7
ENDBRANCH   5   6
ENDBRANCH   4   5
ENDBRANCH   3   4
ENDBRANCH   2   3
ENDBRANCH   1   2
BRANCH   1  10
ATOM     10  C   UNL     1       1.246  12.969 -49.209  1.00  0.00     0.000 C 
BRANCH  10  11
ATOM     11  C   UNL     1       0.280  13.357 -50.344  1.00  0.00     0.000 C 
BRANCH  11  12
ATOM     12  C   UNL     1      -0.415  12.127 -50.967  1.00  0.00     0.000 C 
BRANCH  12  13
ATOM     13  C   UNL     1      -1.953  12.201 -50.932  1.00  0.00     0.000 C 
BRANCH  13  14
ATOM     14  C   UNL     1      -2.530  13.614 -50.720  1.00  0.00     0.002 C 
BRANCH  14  15
ATOM     15  C   UNL     1      -4.012  13.654 -50.303  1.00  0.00     0.028 C 
BRANCH  15  16
ATOM     16  C   UNL     1      -4.745  12.338 -50.573  1.00  0.00     0.156 C 
BRANCH  16  17
ATOM     17  O   UNL     1      -5.547  12.018 -49.470  1.00  0.00    -0.396 OA
ATOM     18  H   UNL     1      -5.761  12.879 -49.025  1.00  0.00     0.210 HD
ENDBRANCH  16  17
ENDBRANCH  15  16
ENDBRANCH  14  15
ENDBRANCH  13  14
ENDBRANCH  12  13
ENDBRANCH  11  12
ENDBRANCH  10  11
ENDBRANCH   1  10
TORSDOF 15
ENDMDL
MODEL 4
REMARK VINA RESULT:     0.026      8.590     10.488
REMARK INTER + INTRA:          -3.012
REMARK INTER:                   0.000
REMARK INTRA:                  -3.012
REMARK UNBOUND:                -3.060
REMARK SMILES CCCCCCCCCCCCCCCCO
REMARK SMILES IDX 9 1 8 2 7 3 6 4 5 5 4 6 3 7 2 8 1 9 10 10 11 11 12 12 13 13
REMARK SMILES IDX 14 14 15 15 16 16 17 17
REMARK H PARENT 17 18
REMARK Flexibility Score: inf
ROOT
ATOM      1  C   UNL     1       3.251  12.517 -45.880  1.00  0.00     0.000 C 
ENDROOT
BRANCH   1   2
ATOM      2  C   UNL     1       3.062  12.445 -44.354  1.00  0.00    -0.000 C 
BRANCH   2   3
ATOM      3  C   UNL     1       2.622  11.050 -43.880  1.00  0.00    -0.000 C 
BRANCH   3   4
ATOM      4  C   UNL     1       2.235  10.123 -45.043  1.00  0.00    -0.000 C 
BRANCH   4   5
ATOM      5  C   UNL     1       0.775   9.669 -44.920  1.00  0.00    -0.000 C 
BRANCH   5   6
ATOM      6  C   UNL     1       0.057   9.749 -46.276  1.00  0.00    -0.000 C 
BRANCH   6   7
ATOM      7  C   UNL     1       1.018  10.011 -47.449  1.00  0.00    -0.000 C 
BRANCH   7   8
ATOM      8  C   UNL     1       0.442  10.890 -48.573  1.00  0.00    -0.003 C 
ATOM      9  C   UNL     1       1.518  11.476 -49.487  1.00  0.00     0.004 C 
ENDBRANCH   7   8
ENDBRANCH   6   7
ENDBRANCH   5   6
ENDBRANCH   4   5
ENDBRANCH   3   4
ENDBRANCH   2   3
ENDBRANCH   1   2
BRANCH   1  10
ATOM     10  C   UNL     1       2.345  13.570 -46.539  1.00  0.00     0.000 C 
BRANCH  10  11
ATOM     11  C   UNL     1       1.195  14.024 -45.621  1.00  0.00     0.000 C 
BRANCH  11  12
ATOM     12  C   UNL     1      -0.179  13.515 -46.108  1.00  0.00     0.000 C 
BRANCH  12  13
ATOM     13  C   UNL     1      -1.075  12.972 -44.979  1.00  0.00     0.000 C 
BRANCH  13  14
ATOM     14  C   UNL     1      -0.487  13.112 -43.561  1.00  0.00     0.002 C 
BRANCH  14  15
ATOM     15  C   UNL     1      -0.878  11.987 -42.584  1.00  0.00     0.028 C 
BRANCH  15  16
ATOM     16  C   UNL     1      -2.274  11.419 -42.853  1.00  0.00     0.156 C 
BRANCH  16  17
ATOM     17  O   UNL     1      -2.189  10.030 -43.004  1.00  0.00    -0.396 OA
ATOM     18  H   UNL     1      -1.471   9.729 -42.387  1.00  0.00     0.210 HD
ENDBRANCH  16  17
ENDBRANCH  15  16
ENDBRANCH  14  15
ENDBRANCH  13  14
ENDBRANCH  12  13
ENDBRANCH  11  12
ENDBRANCH  10  11
ENDBRANCH   1  10
TORSDOF 15
ENDMDL
MODEL 5
REMARK VINA RESULT:     0.027      7.982     10.274
REMARK INTER + INTRA:          -3.011
REMARK INTER:                   0.000
REMARK INTRA:                  -3.011
REMARK UNBOUND:                -3.060
REMARK SMILES CCCCCCCCCCCCCCCCO
REMARK SMILES IDX 9 1 8 2 7 3 6 4 5 5 4 6 3 7 2 8 1 9 10 10 11 11 12 12 13 13
REMARK SMILES IDX 14 14 15 15 16 16 17 17
REMARK H PARENT 17 18
REMARK Flexibility Score: inf
ROOT
ATOM      1  C   UNL     1       5.757  16.048 -46.852  1.00  0.00     0.000 C 
ENDROOT
BRANCH   1   2
ATOM      2  C   UNL     1       6.110  17.414 -47.468  1.00  0.00    -0.000 C 
BRANCH   2   3
ATOM      3  C   UNL     1       5.118  18.517 -47.062  1.00  0.00    -0.000 C 
BRANCH   3   4
ATOM      4  C   UNL     1       3.844  17.958 -46.409  1.00  0.00    -0.000 C 
BRANCH   4   5
ATOM      5  C   UNL     1       2.588  18.518 -47.088  1.00  0.00    -0.000 C 
BRANCH   5   6
ATOM      6  C   UNL     1       1.574  17.401 -47.378  1.00  0.00    -0.000 C 
BRANCH   6   7
ATOM      7  C   UNL     1       2.049  16.019 -46.895  1.00  0.00    -0.000 C 
BRANCH   7   8
ATOM      8  C   UNL     1       1.411  14.824 -47.625  1.00  0.00    -0.003 C 
ATOM      9  C   UNL     1       2.159  13.512 -47.393  1.00  0.00     0.004 C 
ENDBRANCH   7   8
ENDBRANCH   6   7
ENDBRANCH   5   6
ENDBRANCH   4   5
ENDBRANCH   3   4
ENDBRANCH   2   3
ENDBRANCH   1   2
BRANCH   1  10
ATOM     10  C   UNL     1       5.555  14.956 -47.915  1.00  0.00     0.000 C 
BRANCH  10  11
ATOM     11  C   UNL     1       5.525  15.517 -49.348  1.00  0.00     0.000 C 
BRANCH  11  12
ATOM     12  C   UNL     1       4.173  15.260 -50.050  1.00  0.00     0.000 C 
BRANCH  12  13
ATOM     13  C   UNL     1       3.413  16.548 -50.420  1.00  0.00     0.000 C 
BRANCH  13  14
ATOM     14  C   UNL     1       4.307  17.777 -50.679  1.00  0.00     0.002 C 
BRANCH  14  15
ATOM     15  C   UNL     1       3.594  19.136 -50.548  1.00  0.00     0.028 C 
BRANCH  15  16
ATOM     16  C   UNL     1       4.560  20.297 -50.301  1.00  0.00     0.156 C 
BRANCH  16  17
ATOM     17  O   UNL     1       5.875  19.819 -50.314  1.00  0.00    -0.396 OA
ATOM     18  H   UNL     1       6.425  20.534 -50.728  1.00  0.00     0.210 HD
ENDBRANCH  16  17
ENDBRANCH  15  16
ENDBRANCH  14  15
ENDBRANCH  13  14
ENDBRANCH  12  13
ENDBRANCH  11  12
ENDBRANCH  10  11
ENDBRANCH   1  10
TORSDOF 15
ENDMDL
MODEL 6
REMARK VINA RESULT:     0.028      5.710      7.639
REMARK INTER + INTRA:          -3.009
REMARK INTER:                   0.000
REMARK INTRA:                  -3.009
REMARK UNBOUND:                -3.060
REMARK SMILES CCCCCCCCCCCCCCCCO
REMARK SMILES IDX 9 1 8 2 7 3 6 4 5 5 4 6 3 7 2 8 1 9 10 10 11 11 12 12 13 13
REMARK SMILES IDX 14 14 15 15 16 16 17 17
REMARK H PARENT 17 18
REMARK Flexibility Score: inf
ROOT
ATOM      1  C   UNL     1       1.372  16.423 -43.721  1.00  0.00     0.000 C 
ENDROOT
BRANCH   1   2
ATOM      2  C   UNL     1      -0.089  16.568 -43.262  1.00  0.00    -0.000 C 
BRANCH   2   3
ATOM      3  C   UNL     1      -0.288  17.748 -42.296  1.00  0.00    -0.000 C 
BRANCH   3   4
ATOM      4  C   UNL     1      -1.317  18.768 -42.810  1.00  0.00    -0.000 C 
BRANCH   4   5
ATOM      5  C   UNL     1      -1.628  18.534 -44.293  1.00  0.00    -0.000 C 
BRANCH   5   6
ATOM      6  C   UNL     1      -1.143  19.713 -45.150  1.00  0.00    -0.000 C 
BRANCH   6   7
ATOM      7  C   UNL     1      -0.382  19.265 -46.410  1.00  0.00    -0.000 C 
BRANCH   7   8
ATOM      8  C   UNL     1      -0.506  17.767 -46.742  1.00  0.00    -0.003 C 
ATOM      9  C   UNL     1       0.775  17.176 -47.330  1.00  0.00     0.004 C 
ENDBRANCH   7   8
ENDBRANCH   6   7
ENDBRANCH   5   6
ENDBRANCH   4   5
ENDBRANCH   3   4
ENDBRANCH   2   3
ENDBRANCH   1   2
BRANCH   1  10
ATOM     10  C   UNL     1       2.259  17.585 -43.248  1.00  0.00     0.000 C 
BRANCH  10  11
ATOM     11  C   UNL     1       2.634  18.551 -44.386  1.00  0.00     0.000 C 
BRANCH  11  12
ATOM     12  C   UNL     1       2.396  20.029 -44.003  1.00  0.00     0.000 C 
BRANCH  12  13
ATOM     13  C   UNL     1       2.491  20.299 -42.489  1.00  0.00     0.000 C 
BRANCH  13  14
ATOM     14  C   UNL     1       1.346  21.153 -41.911  1.00  0.00     0.002 C 
BRANCH  14  15
ATOM     15  C   UNL     1       0.619  22.042 -42.937  1.00  0.00     0.028 C 
BRANCH  15  16
ATOM     16  C   UNL     1      -0.543  22.831 -42.329  1.00  0.00     0.156 C 
BRANCH  16  17
ATOM     17  O   UNL     1      -1.755  22.312 -42.801  1.00  0.00    -0.396 OA
ATOM     18  H   UNL     1      -2.374  22.306 -42.025  1.00  0.00     0.210 HD
ENDBRANCH  16  17
ENDBRANCH  15  16
ENDBRANCH  14  15
ENDBRANCH  13  14
ENDBRANCH  12  13
ENDBRANCH  11  12
ENDBRANCH  10  11
ENDBRANCH   1  10
TORSDOF 15
ENDMDL
MODEL 7
REMARK VINA RESULT:     0.028      4.389      6.319
REMARK INTER + INTRA:          -3.008
REMARK INTER:                   0.000
REMARK INTRA:                  -3.008
REMARK UNBOUND:                -3.060
REMARK SMILES CCCCCCCCCCCCCCCCO
REMARK SMILES IDX 9 1 8 2 7 3 6 4 5 5 4 6 3 7 2 8 1 9 10 10 11 11 12 12 13 13
REMARK SMILES IDX 14 14 15 15 16 16 17 17
REMARK H PARENT 17 18
REMARK Flexibility Score: inf
ROOT
ATOM      1  C   UNL     1       5.296  13.911 -46.046  1.00  0.00     0.000 C 
ENDROOT
BRANCH   1   2
ATOM      2  C   UNL     1       5.341  13.264 -44.651  1.00  0.00    -0.000 C 
BRANCH   2   3
ATOM      3  C   UNL     1       4.214  13.765 -43.732  1.00  0.00    -0.000 C 
BRANCH   3   4
ATOM      4  C   UNL     1       3.688  15.150 -44.140  1.00  0.00    -0.000 C 
BRANCH   4   5
ATOM      5  C   UNL     1       4.157  16.227 -43.154  1.00  0.00    -0.000 C 
BRANCH   5   6
ATOM      6  C   UNL     1       4.482  17.539 -43.884  1.00  0.00    -0.000 C 
BRANCH   6   7
ATOM      7  C   UNL     1       4.310  17.434 -45.410  1.00  0.00    -0.000 C 
BRANCH   7   8
ATOM      8  C   UNL     1       5.354  18.209 -46.233  1.00  0.00    -0.003 C 
ATOM      9  C   UNL     1       6.127  19.236 -45.406  1.00  0.00     0.004 C 
ENDBRANCH   7   8
ENDBRANCH   6   7
ENDBRANCH   5   6
ENDBRANCH   4   5
ENDBRANCH   3   4
ENDBRANCH   2   3
ENDBRANCH   1   2
BRANCH   1  10
ATOM     10  C   UNL     1       6.601  14.640 -46.403  1.00  0.00     0.000 C 
BRANCH  10  11
ATOM     11  C   UNL     1       7.618  14.640 -45.247  1.00  0.00     0.000 C 
BRANCH  11  12
ATOM     12  C   UNL     1       8.026  16.069 -44.826  1.00  0.00     0.000 C 
BRANCH  12  13
ATOM     13  C   UNL     1       7.899  16.328 -43.312  1.00  0.00     0.000 C 
BRANCH  13  14
ATOM     14  C   UNL     1       7.688  15.066 -42.454  1.00  0.00     0.002 C 
BRANCH  14  15
ATOM     15  C   UNL     1       7.057  15.320 -41.072  1.00  0.00     0.028 C 
BRANCH  15  16
ATOM     16  C   UNL     1       6.186  14.158 -40.588  1.00  0.00     0.156 C 
BRANCH  16  17
ATOM     17  O   UNL     1       6.611  12.973 -41.200  1.00  0.00    -0.396 OA
ATOM     18  H   UNL     1       7.549  13.130 -41.485  1.00  0.00     0.210 HD
ENDBRANCH  16  17
ENDBRANCH  15  16
ENDBRANCH  14  15
ENDBRANCH  13  14
ENDBRANCH  12  13
ENDBRANCH  11  12
ENDBRANCH  10  11
ENDBRANCH   1  10
TORSDOF 15
ENDMDL
MODEL 8
REMARK VINA RESULT:     0.029      8.361     10.535
REMARK INTER + INTRA:          -3.007
REMARK INTER:                   0.000
REMARK INTRA:                  -3.007
REMARK UNBOUND:                -3.060
REMARK SMILES CCCCCCCCCCCCCCCCO
REMARK SMILES IDX 9 1 8 2 7 3 6 4 5 5 4 6 3 7 2 8 1 9 10 10 11 11 12 12 13 13
REMARK SMILES IDX 14 14 15 15 16 16 17 17
REMARK H PARENT 17 18
REMARK Flexibility Score: inf
ROOT
ATOM      1  C   UNL     1       5.290  15.201 -48.414  1.00  0.00     0.000 C 
ENDROOT
BRANCH   1   2
ATOM      2  C   UNL     1       5.115  16.726 -48.301  1.00  0.00    -0.000 C 
BRANCH   2   3
ATOM      3  C   UNL     1       4.207  17.129 -47.127  1.00  0.00    -0.000 C 
BRANCH   3   4
ATOM      4  C   UNL     1       3.442  15.937 -46.532  1.00  0.00    -0.000 C 
BRANCH   4   5
ATOM      5  C   UNL     1       1.943  16.246 -46.424  1.00  0.00    -0.000 C 
BRANCH   5   6
ATOM      6  C   UNL     1       1.100  15.066 -46.931  1.00  0.00    -0.000 C 
BRANCH   6   7
ATOM      7  C   UNL     1       1.955  13.882 -47.417  1.00  0.00    -0.000 C 
BRANCH   7   8
ATOM      8  C   UNL     1       1.277  12.979 -48.462  1.00  0.00    -0.003 C 
ATOM      9  C   UNL     1       2.255  12.041 -49.168  1.00  0.00     0.004 C 
ENDBRANCH   7   8
ENDBRANCH   6   7
ENDBRANCH   5   6
ENDBRANCH   4   5
ENDBRANCH   3   4
ENDBRANCH   2   3
ENDBRANCH   1   2
BRANCH   1  10
ATOM     10  C   UNL     1       4.830  14.653 -49.774  1.00  0.00     0.000 C 
BRANCH  10  11
ATOM     11  C   UNL     1       4.131  15.717 -50.640  1.00  0.00     0.000 C 
BRANCH  11  12
ATOM     12  C   UNL     1       2.673  15.335 -50.975  1.00  0.00     0.000 C 
BRANCH  12  13
ATOM     13  C   UNL     1       1.626  16.266 -50.335  1.00  0.00     0.000 C 
BRANCH  13  14
ATOM     14  C   UNL     1       2.069  17.734 -50.185  1.00  0.00     0.002 C 
BRANCH  14  15
ATOM     15  C   UNL     1       1.228  18.567 -49.199  1.00  0.00     0.028 C 
BRANCH  15  16
ATOM     16  C   UNL     1       1.992  19.760 -48.619  1.00  0.00     0.156 C 
BRANCH  16  17
ATOM     17  O   UNL     1       3.246  19.851 -49.233  1.00  0.00    -0.396 OA
ATOM     18  H   UNL     1       3.444  20.820 -49.315  1.00  0.00     0.210 HD
ENDBRANCH  16  17
ENDBRANCH  15  16
ENDBRANCH  14  15
ENDBRANCH  13  14
ENDBRANCH  12  13
ENDBRANCH  11  12
ENDBRANCH  10  11
ENDBRANCH   1  10
TORSDOF 15
ENDMDL
MODEL 9
REMARK VINA RESULT:     0.032      5.705      8.978
REMARK INTER + INTRA:          -3.001
REMARK INTER:                   0.000
REMARK INTRA:                  -3.001
REMARK UNBOUND:                -3.060
REMARK SMILES CCCCCCCCCCCCCCCCO
REMARK SMILES IDX 9 1 8 2 7 3 6 4 5 5 4 6 3 7 2 8 1 9 10 10 11 11 12 12 13 13
REMARK SMILES IDX 14 14 15 15 16 16 17 17
REMARK H PARENT 17 18
REMARK Flexibility Score: inf
ROOT
ATOM      1  C   UNL     1       5.728  14.942 -45.180  1.00  0.00     0.000 C 
ENDROOT
BRANCH   1   2
ATOM      2  C   UNL     1       5.813  14.668 -46.691  1.00  0.00    -0.000 C 
BRANCH   2   3
ATOM      3  C   UNL     1       6.030  15.951 -47.511  1.00  0.00    -0.000 C 
BRANCH   3   4
ATOM      4  C   UNL     1       6.410  17.156 -46.637  1.00  0.00    -0.000 C 
BRANCH   4   5
ATOM      5  C   UNL     1       7.828  17.643 -46.959  1.00  0.00    -0.000 C 
BRANCH   5   6
ATOM      6  C   UNL     1       8.593  17.998 -45.675  1.00  0.00    -0.000 C 
BRANCH   6   7
ATOM      7  C   UNL     1       7.692  18.021 -44.427  1.00  0.00    -0.000 C 
BRANCH   7   8
ATOM      8  C   UNL     1       8.309  17.380 -43.171  1.00  0.00    -0.003 C 
ATOM      9  C   UNL     1       7.272  17.034 -42.104  1.00  0.00     0.004 C 
ENDBRANCH   7   8
ENDBRANCH   6   7
ENDBRANCH   5   6
ENDBRANCH   4   5
ENDBRANCH   3   4
ENDBRANCH   2   3
ENDBRANCH   1   2
BRANCH   1  10
ATOM     10  C   UNL     1       6.768  14.144 -44.375  1.00  0.00     0.000 C 
BRANCH  10  11
ATOM     11  C   UNL     1       7.898  13.580 -45.256  1.00  0.00     0.000 C 
BRANCH  11  12
ATOM     12  C   UNL     1       9.226  14.345 -45.066  1.00  0.00     0.000 C 
BRANCH  12  13
ATOM     13  C   UNL     1       9.962  14.647 -46.385  1.00  0.00     0.000 C 
BRANCH  13  14
ATOM     14  C   UNL     1       9.361  13.970 -47.632  1.00  0.00     0.002 C 
BRANCH  14  15
ATOM     15  C   UNL     1       9.310  14.858 -48.890  1.00  0.00     0.028 C 
BRANCH  15  16
ATOM     16  C   UNL     1      10.645  15.543 -49.194  1.00  0.00     0.156 C 
BRANCH  16  17
ATOM     17  O   UNL     1      10.451  16.928 -49.256  1.00  0.00    -0.396 OA
ATOM     18  H   UNL     1      11.341  17.322 -49.455  1.00  0.00     0.210 HD
ENDBRANCH  16  17
ENDBRANCH  15  16
ENDBRANCH  14  15
ENDBRANCH  13  14
ENDBRANCH  12  13
ENDBRANCH  11  12
ENDBRANCH  10  11
ENDBRANCH   1  10
TORSDOF 15
ENDMDL
