MODEL 1
REMARK VINA RESULT:    -7.042      0.000      0.000
REMARK INTER + INTRA:          -9.508
REMARK INTER:                  -8.894
REMARK INTRA:                  -0.614
REMARK UNBOUND:                -0.614
REMARK SMILES Oc1ccc(CCc2cc(O)cc(O)c2)cc1
REMARK SMILES IDX 6 1 5 2 4 3 3 4 2 5 16 6 17 7 1 8 7 10 8 11 15 12 9 13 13 14
REMARK SMILES IDX 10 15 12 16 14 17 11 19
REMARK H PARENT 1 9 14 18 11 20
REMARK Flexibility Score: inf
ROOT
ATOM      1  C   UNL     1     -16.737  -5.451  39.304  1.00  0.00     0.040 C 
ENDROOT
BRANCH   1   2
ATOM      2  C   UNL     1     -15.492  -5.963  38.624  1.00  0.00    -0.047 A 
ATOM      3  C   UNL     1     -14.369  -6.332  39.383  1.00  0.00     0.007 A 
ATOM      4  C   UNL     1     -13.234  -6.853  38.756  1.00  0.00     0.046 A 
ATOM      5  C   UNL     1     -13.210  -7.014  37.367  1.00  0.00     0.115 A 
ATOM      6  C   UNL     1     -15.467  -6.134  37.230  1.00  0.00     0.007 A 
ATOM      7  C   UNL     1     -14.330  -6.654  36.605  1.00  0.00     0.046 A 
BRANCH   5   8
ATOM      8  O   UNL     1     -12.073  -7.535  36.754  1.00  0.00    -0.508 OA
ATOM      9  H   UNL     1     -11.174  -7.073  36.825  1.00  0.00     0.293 HD
ENDBRANCH   5   8
ENDBRANCH   1   2
BRANCH   1  10
ATOM     10  C   UNL     1     -17.738  -6.581  39.582  1.00  0.00     0.040 C 
BRANCH  10  11
ATOM     11  C   UNL     1     -17.682  -7.038  41.018  1.00  0.00    -0.040 A 
ATOM     12  C   UNL     1     -17.958  -8.374  41.348  1.00  0.00     0.050 A 
ATOM     13  C   UNL     1     -17.292  -6.144  42.027  1.00  0.00     0.050 A 
ATOM     14  C   UNL     1     -17.855  -8.811  42.675  1.00  0.00     0.119 A 
ATOM     15  C   UNL     1     -17.192  -6.576  43.354  1.00  0.00     0.119 A 
ATOM     16  C   UNL     1     -17.477  -7.911  43.676  1.00  0.00     0.092 A 
BRANCH  14  17
ATOM     17  O   UNL     1     -18.124 -10.136  43.009  1.00  0.00    -0.508 OA
ATOM     18  H   UNL     1     -18.989 -10.586  42.735  1.00  0.00     0.293 HD
ENDBRANCH  14  17
BRANCH  15  19
ATOM     19  O   UNL     1     -16.808  -5.675  44.344  1.00  0.00    -0.508 OA
ATOM     20  H   UNL     1     -16.069  -5.893  45.002  1.00  0.00     0.293 HD
ENDBRANCH  15  19
ENDBRANCH  10  11
ENDBRANCH   1  10
TORSDOF 6
ENDMDL
MODEL 2
REMARK VINA RESULT:    -6.726      2.406      3.986
REMARK INTER + INTRA:          -9.109
REMARK INTER:                  -8.540
REMARK INTRA:                  -0.570
REMARK UNBOUND:                -0.614
REMARK SMILES Oc1ccc(CCc2cc(O)cc(O)c2)cc1
REMARK SMILES IDX 6 1 5 2 4 3 3 4 2 5 16 6 17 7 1 8 7 10 8 11 15 12 9 13 13 14
REMARK SMILES IDX 10 15 12 16 14 17 11 19
REMARK H PARENT 1 9 14 18 11 20
REMARK Flexibility Score: inf
ROOT
ATOM      1  C   UNL     1     -12.592  -6.610  40.592  1.00  0.00     0.040 C 
ENDROOT
BRANCH   1   2
ATOM      2  C   UNL     1     -11.985  -7.624  39.657  1.00  0.00    -0.047 A 
ATOM      3  C   UNL     1     -12.347  -7.643  38.299  1.00  0.00     0.007 A 
ATOM      4  C   UNL     1     -11.746  -8.552  37.422  1.00  0.00     0.046 A 
ATOM      5  C   UNL     1     -10.778  -9.445  37.890  1.00  0.00     0.115 A 
ATOM      6  C   UNL     1     -11.006  -8.517  40.121  1.00  0.00     0.007 A 
ATOM      7  C   UNL     1     -10.408  -9.425  39.242  1.00  0.00     0.046 A 
BRANCH   5   8
ATOM      8  O   UNL     1     -10.186 -10.344  37.006  1.00  0.00    -0.508 OA
ATOM      9  H   UNL     1     -10.650 -10.628  36.150  1.00  0.00     0.293 HD
ENDBRANCH   5   8
ENDBRANCH   1   2
BRANCH   1  10
ATOM     10  C   UNL     1     -13.633  -5.732  39.882  1.00  0.00     0.040 C 
BRANCH  10  11
ATOM     11  C   UNL     1     -15.042  -6.137  40.236  1.00  0.00    -0.040 A 
ATOM     12  C   UNL     1     -15.493  -6.046  41.563  1.00  0.00     0.050 A 
ATOM     13  C   UNL     1     -15.931  -6.548  39.232  1.00  0.00     0.050 A 
ATOM     14  C   UNL     1     -16.817  -6.373  41.883  1.00  0.00     0.119 A 
ATOM     15  C   UNL     1     -17.253  -6.878  39.549  1.00  0.00     0.119 A 
ATOM     16  C   UNL     1     -17.693  -6.792  40.877  1.00  0.00     0.092 A 
BRANCH  14  17
ATOM     17  O   UNL     1     -17.272  -6.282  43.197  1.00  0.00    -0.508 OA
ATOM     18  H   UNL     1     -17.955  -6.933  43.567  1.00  0.00     0.293 HD
ENDBRANCH  14  17
BRANCH  15  19
ATOM     19  O   UNL     1     -18.121  -7.288  38.540  1.00  0.00    -0.508 OA
ATOM     20  H   UNL     1     -18.448  -6.645  37.829  1.00  0.00     0.293 HD
ENDBRANCH  15  19
ENDBRANCH  10  11
ENDBRANCH   1  10
TORSDOF 6
ENDMDL
MODEL 3
REMARK VINA RESULT:    -6.712      0.364      2.370
REMARK INTER + INTRA:          -9.091
REMARK INTER:                  -8.485
REMARK INTRA:                  -0.606
REMARK UNBOUND:                -0.614
REMARK SMILES Oc1ccc(CCc2cc(O)cc(O)c2)cc1
REMARK SMILES IDX 6 1 5 2 4 3 3 4 2 5 16 6 17 7 1 8 7 10 8 11 15 12 9 13 13 14
REMARK SMILES IDX 10 15 12 16 14 17 11 19
REMARK H PARENT 1 9 14 18 11 20
REMARK Flexibility Score: inf
ROOT
ATOM      1  C   UNL     1     -16.385  -5.291  39.675  1.00  0.00     0.040 C 
ENDROOT
BRANCH   1   2
ATOM      2  C   UNL     1     -15.277  -5.950  38.894  1.00  0.00    -0.047 A 
ATOM      3  C   UNL     1     -15.406  -6.151  37.509  1.00  0.00     0.007 A 
ATOM      4  C   UNL     1     -14.358  -6.717  36.778  1.00  0.00     0.046 A 
ATOM      5  C   UNL     1     -13.171  -7.083  37.419  1.00  0.00     0.115 A 
ATOM      6  C   UNL     1     -14.079  -6.312  39.532  1.00  0.00     0.007 A 
ATOM      7  C   UNL     1     -13.033  -6.878  38.798  1.00  0.00     0.046 A 
BRANCH   5   8
ATOM      8  O   UNL     1     -12.134  -7.644  36.678  1.00  0.00    -0.508 OA
ATOM      9  H   UNL     1     -11.256  -7.909  37.111  1.00  0.00     0.293 HD
ENDBRANCH   5   8
ENDBRANCH   1   2
BRANCH   1  10
ATOM     10  C   UNL     1     -17.534  -6.268  39.967  1.00  0.00     0.040 C 
BRANCH  10  11
ATOM     11  C   UNL     1     -17.414  -6.878  41.340  1.00  0.00    -0.040 A 
ATOM     12  C   UNL     1     -16.978  -6.101  42.426  1.00  0.00     0.050 A 
ATOM     13  C   UNL     1     -17.798  -8.210  41.556  1.00  0.00     0.050 A 
ATOM     14  C   UNL     1     -16.916  -6.653  43.711  1.00  0.00     0.119 A 
ATOM     15  C   UNL     1     -17.734  -8.766  42.839  1.00  0.00     0.119 A 
ATOM     16  C   UNL     1     -17.291  -7.985  43.915  1.00  0.00     0.092 A 
BRANCH  14  17
ATOM     17  O   UNL     1     -16.488  -5.887  44.793  1.00  0.00    -0.508 OA
ATOM     18  H   UNL     1     -16.119  -4.952  44.666  1.00  0.00     0.293 HD
ENDBRANCH  14  17
BRANCH  15  19
ATOM     19  O   UNL     1     -18.115 -10.091  43.034  1.00  0.00    -0.508 OA
ATOM     20  H   UNL     1     -18.292 -10.460  43.961  1.00  0.00     0.293 HD
ENDBRANCH  15  19
ENDBRANCH  10  11
ENDBRANCH   1  10
TORSDOF 6
ENDMDL
MODEL 4
REMARK VINA RESULT:    -6.695      2.577      3.823
REMARK INTER + INTRA:          -9.070
REMARK INTER:                  -8.507
REMARK INTRA:                  -0.563
REMARK UNBOUND:                -0.614
REMARK SMILES Oc1ccc(CCc2cc(O)cc(O)c2)cc1
REMARK SMILES IDX 6 1 5 2 4 3 3 4 2 5 16 6 17 7 1 8 7 10 8 11 15 12 9 13 13 14
REMARK SMILES IDX 10 15 12 16 14 17 11 19
REMARK H PARENT 1 9 14 18 11 20
REMARK Flexibility Score: inf
ROOT
ATOM      1  C   UNL     1     -12.433  -6.879  40.688  1.00  0.00     0.040 C 
ENDROOT
BRANCH   1   2
ATOM      2  C   UNL     1     -11.811  -7.760  39.635  1.00  0.00    -0.047 A 
ATOM      3  C   UNL     1     -10.877  -8.746  39.995  1.00  0.00     0.007 A 
ATOM      4  C   UNL     1     -10.338  -9.595  39.025  1.00  0.00     0.046 A 
ATOM      5  C   UNL     1     -10.729  -9.473  37.688  1.00  0.00     0.115 A 
ATOM      6  C   UNL     1     -12.207  -7.646  38.292  1.00  0.00     0.007 A 
ATOM      7  C   UNL     1     -11.666  -8.496  37.324  1.00  0.00     0.046 A 
BRANCH   5   8
ATOM      8  O   UNL     1     -10.186 -10.327  36.731  1.00  0.00    -0.508 OA
ATOM      9  H   UNL     1     -10.741 -10.681  35.960  1.00  0.00     0.293 HD
ENDBRANCH   5   8
ENDBRANCH   1   2
BRANCH   1  10
ATOM     10  C   UNL     1     -13.240  -5.731  40.063  1.00  0.00     0.040 C 
BRANCH  10  11
ATOM     11  C   UNL     1     -14.724  -5.926  40.250  1.00  0.00    -0.040 A 
ATOM     12  C   UNL     1     -15.568  -6.049  39.135  1.00  0.00     0.050 A 
ATOM     13  C   UNL     1     -15.263  -6.049  41.539  1.00  0.00     0.050 A 
ATOM     14  C   UNL     1     -16.939  -6.281  39.307  1.00  0.00     0.119 A 
ATOM     15  C   UNL     1     -16.632  -6.278  41.715  1.00  0.00     0.119 A 
ATOM     16  C   UNL     1     -17.469  -6.392  40.596  1.00  0.00     0.092 A 
BRANCH  14  17
ATOM     17  O   UNL     1     -17.782  -6.407  38.205  1.00  0.00    -0.508 OA
ATOM     18  H   UNL     1     -18.766  -6.175  38.262  1.00  0.00     0.293 HD
ENDBRANCH  14  17
BRANCH  15  19
ATOM     19  O   UNL     1     -17.150  -6.393  43.003  1.00  0.00    -0.508 OA
ATOM     20  H   UNL     1     -18.148  -6.461  43.168  1.00  0.00     0.293 HD
ENDBRANCH  15  19
ENDBRANCH  10  11
ENDBRANCH   1  10
TORSDOF 6
ENDMDL
MODEL 5
REMARK VINA RESULT:    -6.598      3.268      7.239
REMARK INTER + INTRA:          -8.948
REMARK INTER:                  -8.551
REMARK INTRA:                  -0.397
REMARK UNBOUND:                -0.614
REMARK SMILES Oc1ccc(CCc2cc(O)cc(O)c2)cc1
REMARK SMILES IDX 6 1 5 2 4 3 3 4 2 5 16 6 17 7 1 8 7 10 8 11 15 12 9 13 13 14
REMARK SMILES IDX 10 15 12 16 14 17 11 19
REMARK H PARENT 1 9 14 18 11 20
REMARK Flexibility Score: inf
ROOT
ATOM      1  C   UNL     1     -12.910  -6.957  38.029  1.00  0.00     0.040 C 
ENDROOT
BRANCH   1   2
ATOM      2  C   UNL     1     -14.271  -6.473  38.460  1.00  0.00    -0.047 A 
ATOM      3  C   UNL     1     -15.359  -6.530  37.573  1.00  0.00     0.007 A 
ATOM      4  C   UNL     1     -16.631  -6.127  37.990  1.00  0.00     0.046 A 
ATOM      5  C   UNL     1     -16.831  -5.670  39.297  1.00  0.00     0.115 A 
ATOM      6  C   UNL     1     -14.478  -6.021  39.774  1.00  0.00     0.007 A 
ATOM      7  C   UNL     1     -15.751  -5.618  40.188  1.00  0.00     0.046 A 
BRANCH   5   8
ATOM      8  O   UNL     1     -18.103  -5.273  39.700  1.00  0.00    -0.508 OA
ATOM      9  H   UNL     1     -18.639  -5.813  40.370  1.00  0.00     0.293 HD
ENDBRANCH   5   8
ENDBRANCH   1   2
BRANCH   1  10
ATOM     10  C   UNL     1     -12.153  -7.627  39.184  1.00  0.00     0.040 C 
BRANCH  10  11
ATOM     11  C   UNL     1     -11.102  -8.585  38.683  1.00  0.00    -0.040 A 
ATOM     12  C   UNL     1     -10.857  -8.711  37.306  1.00  0.00     0.050 A 
ATOM     13  C   UNL     1     -10.316  -9.309  39.592  1.00  0.00     0.050 A 
ATOM     14  C   UNL     1      -9.846  -9.563  36.843  1.00  0.00     0.119 A 
ATOM     15  C   UNL     1      -9.307 -10.162  39.133  1.00  0.00     0.119 A 
ATOM     16  C   UNL     1      -9.075 -10.289  37.756  1.00  0.00     0.092 A 
BRANCH  14  17
ATOM     17  O   UNL     1      -9.596  -9.691  35.478  1.00  0.00    -0.508 OA
ATOM     18  H   UNL     1      -9.482 -10.599  35.044  1.00  0.00     0.293 HD
ENDBRANCH  14  17
BRANCH  15  19
ATOM     19  O   UNL     1      -8.540 -10.877  40.050  1.00  0.00    -0.508 OA
ATOM     20  H   UNL     1      -7.961 -11.657  39.761  1.00  0.00     0.293 HD
ENDBRANCH  15  19
ENDBRANCH  10  11
ENDBRANCH   1  10
TORSDOF 6
ENDMDL
MODEL 6
REMARK VINA RESULT:    -6.538      3.285      7.267
REMARK INTER + INTRA:          -8.871
REMARK INTER:                  -8.474
REMARK INTRA:                  -0.397
REMARK UNBOUND:                -0.614
REMARK SMILES Oc1ccc(CCc2cc(O)cc(O)c2)cc1
REMARK SMILES IDX 6 1 5 2 4 3 3 4 2 5 16 6 17 7 1 8 7 10 8 11 15 12 9 13 13 14
REMARK SMILES IDX 10 15 12 16 14 17 11 19
REMARK H PARENT 1 9 14 18 11 20
REMARK Flexibility Score: inf
ROOT
ATOM      1  C   UNL     1     -12.870  -6.953  38.050  1.00  0.00     0.040 C 
ENDROOT
BRANCH   1   2
ATOM      2  C   UNL     1     -14.233  -6.467  38.472  1.00  0.00    -0.047 A 
ATOM      3  C   UNL     1     -15.303  -6.471  37.562  1.00  0.00     0.007 A 
ATOM      4  C   UNL     1     -16.577  -6.067  37.969  1.00  0.00     0.046 A 
ATOM      5  C   UNL     1     -16.798  -5.660  39.288  1.00  0.00     0.115 A 
ATOM      6  C   UNL     1     -14.461  -6.065  39.799  1.00  0.00     0.007 A 
ATOM      7  C   UNL     1     -15.737  -5.660  40.203  1.00  0.00     0.046 A 
BRANCH   5   8
ATOM      8  O   UNL     1     -18.073  -5.260  39.681  1.00  0.00    -0.508 OA
ATOM      9  H   UNL     1     -18.906  -5.695  39.299  1.00  0.00     0.293 HD
ENDBRANCH   5   8
ENDBRANCH   1   2
BRANCH   1  10
ATOM     10  C   UNL     1     -12.124  -7.631  39.209  1.00  0.00     0.040 C 
BRANCH  10  11
ATOM     11  C   UNL     1     -11.033  -8.546  38.713  1.00  0.00    -0.040 A 
ATOM     12  C   UNL     1     -10.290  -9.319  39.619  1.00  0.00     0.050 A 
ATOM     13  C   UNL     1     -10.796  -8.680  37.336  1.00  0.00     0.050 A 
ATOM     14  C   UNL     1      -9.312 -10.208  39.155  1.00  0.00     0.119 A 
ATOM     15  C   UNL     1      -9.818  -9.565  36.869  1.00  0.00     0.119 A 
ATOM     16  C   UNL     1      -9.076 -10.327  37.782  1.00  0.00     0.092 A 
BRANCH  14  17
ATOM     17  O   UNL     1      -8.573 -10.980  40.048  1.00  0.00    -0.508 OA
ATOM     18  H   UNL     1      -7.571 -11.093  39.948  1.00  0.00     0.293 HD
ENDBRANCH  14  17
BRANCH  15  19
ATOM     19  O   UNL     1      -9.593  -9.681  35.500  1.00  0.00    -0.508 OA
ATOM     20  H   UNL     1     -10.326  -9.977  34.866  1.00  0.00     0.293 HD
ENDBRANCH  15  19
ENDBRANCH  10  11
ENDBRANCH   1  10
TORSDOF 6
ENDMDL
MODEL 7
REMARK VINA RESULT:    -6.451      1.517      2.100
REMARK INTER + INTRA:          -8.762
REMARK INTER:                  -8.381
REMARK INTRA:                  -0.382
REMARK UNBOUND:                -0.614
REMARK SMILES Oc1ccc(CCc2cc(O)cc(O)c2)cc1
REMARK SMILES IDX 6 1 5 2 4 3 3 4 2 5 16 6 17 7 1 8 7 10 8 11 15 12 9 13 13 14
REMARK SMILES IDX 10 15 12 16 14 17 11 19
REMARK H PARENT 1 9 14 18 11 20
REMARK Flexibility Score: inf
ROOT
ATOM      1  C   UNL     1     -15.270  -5.987  41.563  1.00  0.00     0.040 C 
ENDROOT
BRANCH   1   2
ATOM      2  C   UNL     1     -14.923  -6.115  40.102  1.00  0.00    -0.047 A 
ATOM      3  C   UNL     1     -13.621  -6.467  39.709  1.00  0.00     0.007 A 
ATOM      4  C   UNL     1     -13.313  -6.634  38.356  1.00  0.00     0.046 A 
ATOM      5  C   UNL     1     -14.301  -6.455  37.383  1.00  0.00     0.115 A 
ATOM      6  C   UNL     1     -15.915  -5.945  39.121  1.00  0.00     0.007 A 
ATOM      7  C   UNL     1     -15.603  -6.111  37.769  1.00  0.00     0.046 A 
BRANCH   5   8
ATOM      8  O   UNL     1     -13.981  -6.626  36.038  1.00  0.00    -0.508 OA
ATOM      9  H   UNL     1     -13.846  -5.833  35.421  1.00  0.00     0.293 HD
ENDBRANCH   5   8
ENDBRANCH   1   2
BRANCH   1  10
ATOM     10  C   UNL     1     -16.688  -6.499  41.857  1.00  0.00     0.040 C 
BRANCH  10  11
ATOM     11  C   UNL     1     -16.825  -6.979  43.280  1.00  0.00    -0.040 A 
ATOM     12  C   UNL     1     -17.287  -8.278  43.549  1.00  0.00     0.050 A 
ATOM     13  C   UNL     1     -16.432  -6.153  44.344  1.00  0.00     0.050 A 
ATOM     14  C   UNL     1     -17.365  -8.741  44.868  1.00  0.00     0.119 A 
ATOM     15  C   UNL     1     -16.513  -6.612  45.663  1.00  0.00     0.119 A 
ATOM     16  C   UNL     1     -16.982  -7.908  45.922  1.00  0.00     0.092 A 
BRANCH  14  17
ATOM     17  O   UNL     1     -17.819 -10.030  45.141  1.00  0.00    -0.508 OA
ATOM     18  H   UNL     1     -17.177 -10.808  45.237  1.00  0.00     0.293 HD
ENDBRANCH  14  17
BRANCH  15  19
ATOM     19  O   UNL     1     -16.123  -5.777  46.707  1.00  0.00    -0.508 OA
ATOM     20  H   UNL     1     -16.758  -5.096  47.106  1.00  0.00     0.293 HD
ENDBRANCH  15  19
ENDBRANCH  10  11
ENDBRANCH   1  10
TORSDOF 6
ENDMDL
MODEL 8
REMARK VINA RESULT:    -6.437      1.461      6.493
REMARK INTER + INTRA:          -8.744
REMARK INTER:                  -8.177
REMARK INTRA:                  -0.567
REMARK UNBOUND:                -0.614
REMARK SMILES Oc1ccc(CCc2cc(O)cc(O)c2)cc1
REMARK SMILES IDX 6 1 5 2 4 3 3 4 2 5 16 6 17 7 1 8 7 10 8 11 15 12 9 13 13 14
REMARK SMILES IDX 10 15 12 16 14 17 11 19
REMARK H PARENT 1 9 14 18 11 20
REMARK Flexibility Score: inf
ROOT
ATOM      1  C   UNL     1     -16.221  -5.739  40.230  1.00  0.00     0.040 C 
ENDROOT
BRANCH   1   2
ATOM      2  C   UNL     1     -16.646  -6.517  41.449  1.00  0.00    -0.047 A 
ATOM      3  C   UNL     1     -17.761  -7.370  41.396  1.00  0.00     0.007 A 
ATOM      4  C   UNL     1     -18.124  -8.129  42.512  1.00  0.00     0.046 A 
ATOM      5  C   UNL     1     -17.375  -8.047  43.691  1.00  0.00     0.115 A 
ATOM      6  C   UNL     1     -15.892  -6.445  42.633  1.00  0.00     0.007 A 
ATOM      7  C   UNL     1     -16.258  -7.204  43.748  1.00  0.00     0.046 A 
BRANCH   5   8
ATOM      8  O   UNL     1     -17.747  -8.809  44.796  1.00  0.00    -0.508 OA
ATOM      9  H   UNL     1     -18.580  -8.595  45.331  1.00  0.00     0.293 HD
ENDBRANCH   5   8
ENDBRANCH   1   2
BRANCH   1  10
ATOM     10  C   UNL     1     -14.731  -5.372  40.281  1.00  0.00     0.040 C 
BRANCH  10  11
ATOM     11  C   UNL     1     -13.933  -6.135  39.253  1.00  0.00    -0.040 A 
ATOM     12  C   UNL     1     -12.836  -6.918  39.647  1.00  0.00     0.050 A 
ATOM     13  C   UNL     1     -14.319  -6.118  37.904  1.00  0.00     0.050 A 
ATOM     14  C   UNL     1     -12.125  -7.667  38.700  1.00  0.00     0.119 A 
ATOM     15  C   UNL     1     -13.610  -6.862  36.956  1.00  0.00     0.119 A 
ATOM     16  C   UNL     1     -12.512  -7.635  37.356  1.00  0.00     0.092 A 
BRANCH  14  17
ATOM     17  O   UNL     1     -11.038  -8.448  39.084  1.00  0.00    -0.508 OA
ATOM     18  H   UNL     1     -11.028  -9.451  38.935  1.00  0.00     0.293 HD
ENDBRANCH  14  17
BRANCH  15  19
ATOM     19  O   UNL     1     -14.006  -6.830  35.621  1.00  0.00    -0.508 OA
ATOM     20  H   UNL     1     -13.380  -6.510  34.891  1.00  0.00     0.293 HD
ENDBRANCH  15  19
ENDBRANCH  10  11
ENDBRANCH   1  10
TORSDOF 6
ENDMDL
MODEL 9
REMARK VINA RESULT:    -6.403      4.251      6.665
REMARK INTER + INTRA:          -8.701
REMARK INTER:                  -8.295
REMARK INTRA:                  -0.406
REMARK UNBOUND:                -0.614
REMARK SMILES Oc1ccc(CCc2cc(O)cc(O)c2)cc1
REMARK SMILES IDX 6 1 5 2 4 3 3 4 2 5 16 6 17 7 1 8 7 10 8 11 15 12 9 13 13 14
REMARK SMILES IDX 10 15 12 16 14 17 11 19
REMARK H PARENT 1 9 14 18 11 20
REMARK Flexibility Score: inf
ROOT
ATOM      1  C   UNL     1     -10.985  -8.422  39.295  1.00  0.00     0.040 C 
ENDROOT
BRANCH   1   2
ATOM      2  C   UNL     1     -10.261  -9.313  40.272  1.00  0.00    -0.047 A 
ATOM      3  C   UNL     1     -10.491  -9.188  41.652  1.00  0.00     0.007 A 
ATOM      4  C   UNL     1      -9.856 -10.047  42.554  1.00  0.00     0.046 A 
ATOM      5  C   UNL     1      -8.990 -11.041  42.087  1.00  0.00     0.115 A 
ATOM      6  C   UNL     1      -9.396 -10.317  39.807  1.00  0.00     0.007 A 
ATOM      7  C   UNL     1      -8.762 -11.174  40.711  1.00  0.00     0.046 A 
BRANCH   5   8
ATOM      8  O   UNL     1      -8.365 -11.891  42.996  1.00  0.00    -0.508 OA
ATOM      9  H   UNL     1      -8.757 -12.795  43.233  1.00  0.00     0.293 HD
ENDBRANCH   5   8
ENDBRANCH   1   2
BRANCH   1  10
ATOM     10  C   UNL     1     -11.850  -7.376  40.012  1.00  0.00     0.040 C 
BRANCH  10  11
ATOM     11  C   UNL     1     -12.949  -6.853  39.122  1.00  0.00    -0.040 A 
ATOM     12  C   UNL     1     -12.956  -7.158  37.752  1.00  0.00     0.050 A 
ATOM     13  C   UNL     1     -14.008  -6.112  39.669  1.00  0.00     0.050 A 
ATOM     14  C   UNL     1     -14.004  -6.716  36.934  1.00  0.00     0.119 A 
ATOM     15  C   UNL     1     -15.054  -5.667  38.855  1.00  0.00     0.119 A 
ATOM     16  C   UNL     1     -15.049  -5.969  37.486  1.00  0.00     0.092 A 
BRANCH  14  17
ATOM     17  O   UNL     1     -14.019  -7.017  35.574  1.00  0.00    -0.508 OA
ATOM     18  H   UNL     1     -14.742  -6.661  34.960  1.00  0.00     0.293 HD
ENDBRANCH  14  17
BRANCH  15  19
ATOM     19  O   UNL     1     -16.095  -4.929  39.414  1.00  0.00    -0.508 OA
ATOM     20  H   UNL     1     -16.416  -5.099  40.360  1.00  0.00     0.293 HD
ENDBRANCH  15  19
ENDBRANCH  10  11
ENDBRANCH   1  10
TORSDOF 6
ENDMDL
