MODEL 1
REMARK VINA RESULT:    -5.746      0.000      0.000
REMARK INTER + INTRA:          -7.175
REMARK INTER:                  -6.921
REMARK INTRA:                  -0.253
REMARK UNBOUND:                -0.253
REMARK SMILES O=c1c(O)c(-c2ccc(O)c(O)c2)oc2cc(O)cc(O)c12
REMARK SMILES IDX 5 1 3 2 2 3 1 4 22 5 20 6 19 7 17 8 16 9 15 10 14 11 6 12
REMARK SMILES IDX 7 13 8 14 9 15 13 16 11 17 10 18 12 20 4 22 21 24 18 26
REMARK H PARENT 10 19 12 21 4 23 21 25 18 27
REMARK Flexibility Score: inf
ROOT
ATOM      1  C   UNL     1       5.358  37.192  60.724  1.00  0.00     0.180 A 
ATOM      2  C   UNL     1       4.122  37.235  61.393  1.00  0.00     0.208 A 
ATOM      3  C   UNL     1       3.789  36.195  62.276  1.00  0.00     0.238 A 
ATOM      4  O   UNL     1       2.706  36.268  62.913  1.00  0.00    -0.285 OA
ATOM      5  C   UNL     1       4.687  35.118  62.467  1.00  0.00     0.111 A 
ATOM      6  C   UNL     1       4.435  33.992  63.306  1.00  0.00     0.134 A 
ATOM      7  C   UNL     1       5.448  33.049  63.520  1.00  0.00     0.093 A 
ATOM      8  C   UNL     1       6.682  33.158  62.874  1.00  0.00     0.123 A 
ATOM      9  C   UNL     1       6.916  34.222  62.006  1.00  0.00     0.094 A 
ATOM     10  C   UNL     1       5.937  35.198  61.800  1.00  0.00     0.146 A 
ATOM     11  O   UNL     1       6.206  36.201  60.973  1.00  0.00    -0.452 OA
ENDROOT
BRANCH   1  12
ATOM     12  C   UNL     1       5.768  38.237  59.760  1.00  0.00     0.025 A 
ATOM     13  C   UNL     1       5.156  38.292  58.497  1.00  0.00     0.016 A 
ATOM     14  C   UNL     1       5.514  39.283  57.580  1.00  0.00     0.051 A 
ATOM     15  C   UNL     1       6.476  40.242  57.917  1.00  0.00     0.157 A 
ATOM     16  C   UNL     1       6.719  39.216  60.101  1.00  0.00     0.062 A 
ATOM     17  C   UNL     1       7.077  40.212  59.181  1.00  0.00     0.158 A 
BRANCH  15  18
ATOM     18  O   UNL     1       6.837  41.232  57.003  1.00  0.00    -0.504 OA
ATOM     19  H   UNL     1       6.615  42.207  57.162  1.00  0.00     0.293 HD
ENDBRANCH  15  18
BRANCH  17  20
ATOM     20  O   UNL     1       8.024  41.178  59.518  1.00  0.00    -0.504 OA
ATOM     21  H   UNL     1       8.776  41.427  58.885  1.00  0.00     0.293 HD
ENDBRANCH  17  20
ENDBRANCH   1  12
BRANCH   2  22
ATOM     22  O   UNL     1       3.261  38.319  61.208  1.00  0.00    -0.502 OA
ATOM     23  H   UNL     1       3.530  39.146  60.688  1.00  0.00     0.293 HD
ENDBRANCH   2  22
BRANCH   6  24
ATOM     24  O   UNL     1       3.207  33.739  63.925  1.00  0.00    -0.507 OA
ATOM     25  H   UNL     1       3.092  33.503  64.899  1.00  0.00     0.293 HD
ENDBRANCH   6  24
BRANCH   8  26
ATOM     26  O   UNL     1       7.679  32.208  63.080  1.00  0.00    -0.508 OA
ATOM     27  H   UNL     1       7.557  31.242  62.795  1.00  0.00     0.293 HD
ENDBRANCH   8  26
TORSDOF 6
ENDMDL
MODEL 2
REMARK VINA RESULT:    -5.742      7.760      9.391
REMARK INTER + INTRA:          -7.170
REMARK INTER:                  -6.927
REMARK INTRA:                  -0.243
REMARK UNBOUND:                -0.253
REMARK SMILES O=c1c(O)c(-c2ccc(O)c(O)c2)oc2cc(O)cc(O)c12
REMARK SMILES IDX 5 1 3 2 2 3 1 4 22 5 20 6 19 7 17 8 16 9 15 10 14 11 6 12
REMARK SMILES IDX 7 13 8 14 9 15 13 16 11 17 10 18 12 20 4 22 21 24 18 26
REMARK H PARENT 10 19 12 21 4 23 21 25 18 27
REMARK Flexibility Score: inf
ROOT
ATOM      1  C   UNL     1       9.992  43.403  62.778  1.00  0.00     0.180 A 
ATOM      2  C   UNL     1      10.449  42.432  63.685  1.00  0.00     0.208 A 
ATOM      3  C   UNL     1      10.097  42.546  65.040  1.00  0.00     0.238 A 
ATOM      4  O   UNL     1      10.462  41.643  65.837  1.00  0.00    -0.285 OA
ATOM      5  C   UNL     1       9.306  43.638  65.473  1.00  0.00     0.111 A 
ATOM      6  C   UNL     1       8.924  43.875  66.827  1.00  0.00     0.134 A 
ATOM      7  C   UNL     1       8.033  44.914  67.121  1.00  0.00     0.093 A 
ATOM      8  C   UNL     1       7.562  45.765  66.118  1.00  0.00     0.123 A 
ATOM      9  C   UNL     1       7.977  45.579  64.803  1.00  0.00     0.094 A 
ATOM     10  C   UNL     1       8.837  44.528  64.472  1.00  0.00     0.146 A 
ATOM     11  O   UNL     1       9.199  44.380  63.204  1.00  0.00    -0.452 OA
ENDROOT
BRANCH   1  12
ATOM     12  C   UNL     1      10.343  43.365  61.340  1.00  0.00     0.025 A 
ATOM     13  C   UNL     1      11.315  44.247  60.841  1.00  0.00     0.016 A 
ATOM     14  C   UNL     1      11.676  44.214  59.493  1.00  0.00     0.051 A 
ATOM     15  C   UNL     1      11.082  43.287  58.626  1.00  0.00     0.157 A 
ATOM     16  C   UNL     1       9.765  42.422  60.470  1.00  0.00     0.062 A 
ATOM     17  C   UNL     1      10.128  42.387  59.116  1.00  0.00     0.158 A 
BRANCH  15  18
ATOM     18  O   UNL     1      11.438  43.252  57.278  1.00  0.00    -0.504 OA
ATOM     19  H   UNL     1      11.485  42.380  56.765  1.00  0.00     0.293 HD
ENDBRANCH  15  18
BRANCH  17  20
ATOM     20  O   UNL     1       9.550  41.457  58.254  1.00  0.00    -0.504 OA
ATOM     21  H   UNL     1      10.079  40.673  57.888  1.00  0.00     0.293 HD
ENDBRANCH  17  20
ENDBRANCH   1  12
BRANCH   2  22
ATOM     22  O   UNL     1      11.208  41.350  63.233  1.00  0.00    -0.502 OA
ATOM     23  H   UNL     1      10.920  40.770  62.454  1.00  0.00     0.293 HD
ENDBRANCH   2  22
BRANCH   6  24
ATOM     24  O   UNL     1       9.409  43.142  67.915  1.00  0.00    -0.507 OA
ATOM     25  H   UNL     1      10.275  42.627  67.920  1.00  0.00     0.293 HD
ENDBRANCH   6  24
BRANCH   8  26
ATOM     26  O   UNL     1       6.689  46.807  66.422  1.00  0.00    -0.508 OA
ATOM     27  H   UNL     1       5.846  46.967  65.882  1.00  0.00     0.293 HD
ENDBRANCH   8  26
TORSDOF 6
ENDMDL
MODEL 3
REMARK VINA RESULT:    -5.722      2.880      3.688
REMARK INTER + INTRA:          -7.146
REMARK INTER:                  -6.816
REMARK INTRA:                  -0.330
REMARK UNBOUND:                -0.253
REMARK SMILES O=c1c(O)c(-c2ccc(O)c(O)c2)oc2cc(O)cc(O)c12
REMARK SMILES IDX 5 1 3 2 2 3 1 4 22 5 20 6 19 7 17 8 16 9 15 10 14 11 6 12
REMARK SMILES IDX 7 13 8 14 9 15 13 16 11 17 10 18 12 20 4 22 21 24 18 26
REMARK H PARENT 10 19 12 21 4 23 21 25 18 27
REMARK Flexibility Score: inf
ROOT
ATOM      1  C   UNL     1       6.237  36.779  62.142  1.00  0.00     0.180 A 
ATOM      2  C   UNL     1       6.261  35.384  62.312  1.00  0.00     0.208 A 
ATOM      3  C   UNL     1       6.102  34.852  63.602  1.00  0.00     0.238 A 
ATOM      4  O   UNL     1       6.070  33.601  63.740  1.00  0.00    -0.285 OA
ATOM      5  C   UNL     1       5.937  35.721  64.707  1.00  0.00     0.111 A 
ATOM      6  C   UNL     1       5.807  35.293  66.062  1.00  0.00     0.134 A 
ATOM      7  C   UNL     1       5.518  36.234  67.058  1.00  0.00     0.093 A 
ATOM      8  C   UNL     1       5.420  37.595  66.758  1.00  0.00     0.123 A 
ATOM      9  C   UNL     1       5.604  38.029  65.448  1.00  0.00     0.094 A 
ATOM     10  C   UNL     1       5.858  37.110  64.425  1.00  0.00     0.146 A 
ATOM     11  O   UNL     1       6.016  37.565  63.189  1.00  0.00    -0.452 OA
ENDROOT
BRANCH   1  12
ATOM     12  C   UNL     1       6.424  37.414  60.818  1.00  0.00     0.025 A 
ATOM     13  C   UNL     1       5.298  37.804  60.074  1.00  0.00     0.016 A 
ATOM     14  C   UNL     1       5.451  38.424  58.832  1.00  0.00     0.051 A 
ATOM     15  C   UNL     1       6.731  38.677  58.322  1.00  0.00     0.157 A 
ATOM     16  C   UNL     1       7.707  37.690  60.311  1.00  0.00     0.062 A 
ATOM     17  C   UNL     1       7.861  38.313  59.065  1.00  0.00     0.158 A 
BRANCH  15  18
ATOM     18  O   UNL     1       6.888  39.294  57.081  1.00  0.00    -0.504 OA
ATOM     19  H   UNL     1       7.587  38.982  56.419  1.00  0.00     0.293 HD
ENDBRANCH  15  18
BRANCH  17  20
ATOM     20  O   UNL     1       9.133  38.580  58.561  1.00  0.00    -0.504 OA
ATOM     21  H   UNL     1       9.955  38.544  59.152  1.00  0.00     0.293 HD
ENDBRANCH  17  20
ENDBRANCH   1  12
BRANCH   2  22
ATOM     22  O   UNL     1       6.402  34.543  61.205  1.00  0.00    -0.502 OA
ATOM     23  H   UNL     1       5.746  33.800  60.998  1.00  0.00     0.293 HD
ENDBRANCH   2  22
BRANCH   6  24
ATOM     24  O   UNL     1       5.979  33.971  66.483  1.00  0.00    -0.507 OA
ATOM     25  H   UNL     1       6.219  33.694  67.422  1.00  0.00     0.293 HD
ENDBRANCH   6  24
BRANCH   8  26
ATOM     26  O   UNL     1       5.149  38.526  67.758  1.00  0.00    -0.508 OA
ATOM     27  H   UNL     1       4.451  39.251  67.632  1.00  0.00     0.293 HD
ENDBRANCH   8  26
TORSDOF 6
ENDMDL
MODEL 4
REMARK VINA RESULT:    -5.655      5.046      6.647
REMARK INTER + INTRA:          -7.066
REMARK INTER:                  -6.818
REMARK INTRA:                  -0.248
REMARK UNBOUND:                -0.253
REMARK SMILES O=c1c(O)c(-c2ccc(O)c(O)c2)oc2cc(O)cc(O)c12
REMARK SMILES IDX 5 1 3 2 2 3 1 4 22 5 20 6 19 7 17 8 16 9 15 10 14 11 6 12
REMARK SMILES IDX 7 13 8 14 9 15 13 16 11 17 10 18 12 20 4 22 21 24 18 26
REMARK H PARENT 10 19 12 21 4 23 21 25 18 27
REMARK Flexibility Score: inf
ROOT
ATOM      1  C   UNL     1       7.279  40.605  64.082  1.00  0.00     0.180 A 
ATOM      2  C   UNL     1       6.131  39.856  64.395  1.00  0.00     0.208 A 
ATOM      3  C   UNL     1       5.646  38.930  63.458  1.00  0.00     0.238 A 
ATOM      4  O   UNL     1       4.651  38.223  63.767  1.00  0.00    -0.285 OA
ATOM      5  C   UNL     1       6.305  38.774  62.215  1.00  0.00     0.111 A 
ATOM      6  C   UNL     1       5.877  37.894  61.175  1.00  0.00     0.134 A 
ATOM      7  C   UNL     1       6.679  37.727  60.040  1.00  0.00     0.093 A 
ATOM      8  C   UNL     1       7.859  38.456  59.876  1.00  0.00     0.123 A 
ATOM      9  C   UNL     1       8.254  39.361  60.857  1.00  0.00     0.094 A 
ATOM     10  C   UNL     1       7.494  39.525  62.019  1.00  0.00     0.146 A 
ATOM     11  O   UNL     1       7.912  40.390  62.934  1.00  0.00    -0.452 OA
ENDROOT
BRANCH   1  12
ATOM     12  C   UNL     1       7.835  41.618  65.007  1.00  0.00     0.025 A 
ATOM     13  C   UNL     1       9.080  41.390  65.616  1.00  0.00     0.016 A 
ATOM     14  C   UNL     1       9.632  42.341  66.476  1.00  0.00     0.051 A 
ATOM     15  C   UNL     1       8.957  43.542  66.728  1.00  0.00     0.157 A 
ATOM     16  C   UNL     1       7.170  42.835  65.247  1.00  0.00     0.062 A 
ATOM     17  C   UNL     1       7.726  43.791  66.109  1.00  0.00     0.158 A 
BRANCH  15  18
ATOM     18  O   UNL     1       9.504  44.493  67.587  1.00  0.00    -0.504 OA
ATOM     19  H   UNL     1       9.181  45.453  67.590  1.00  0.00     0.293 HD
ENDBRANCH  15  18
BRANCH  17  20
ATOM     20  O   UNL     1       7.063  44.993  66.351  1.00  0.00    -0.504 OA
ATOM     21  H   UNL     1       7.499  45.887  66.156  1.00  0.00     0.293 HD
ENDBRANCH  17  20
ENDBRANCH   1  12
BRANCH   2  22
ATOM     22  O   UNL     1       5.510  40.008  65.637  1.00  0.00    -0.502 OA
ATOM     23  H   UNL     1       5.563  39.303  66.362  1.00  0.00     0.293 HD
ENDBRANCH   2  22
BRANCH   6  24
ATOM     24  O   UNL     1       4.670  37.189  61.197  1.00  0.00    -0.507 OA
ATOM     25  H   UNL     1       4.464  36.423  61.818  1.00  0.00     0.293 HD
ENDBRANCH   6  24
BRANCH   8  26
ATOM     26  O   UNL     1       8.642  38.295  58.736  1.00  0.00    -0.508 OA
ATOM     27  H   UNL     1       9.514  38.799  58.616  1.00  0.00     0.293 HD
ENDBRANCH   8  26
TORSDOF 6
ENDMDL
MODEL 5
REMARK VINA RESULT:    -5.568      8.706     10.550
REMARK INTER + INTRA:          -6.961
REMARK INTER:                  -6.870
REMARK INTRA:                  -0.091
REMARK UNBOUND:                -0.253
REMARK SMILES O=c1c(O)c(-c2ccc(O)c(O)c2)oc2cc(O)cc(O)c12
REMARK SMILES IDX 5 1 3 2 2 3 1 4 22 5 20 6 19 7 17 8 16 9 15 10 14 11 6 12
REMARK SMILES IDX 7 13 8 14 9 15 13 16 11 17 10 18 12 20 4 22 21 24 18 26
REMARK H PARENT 10 19 12 21 4 23 21 25 18 27
REMARK Flexibility Score: inf
ROOT
ATOM      1  C   UNL     1       8.584  46.042  65.314  1.00  0.00     0.180 A 
ATOM      2  C   UNL     1       7.371  45.618  65.883  1.00  0.00     0.208 A 
ATOM      3  C   UNL     1       7.014  44.262  65.795  1.00  0.00     0.238 A 
ATOM      4  O   UNL     1       5.954  43.879  66.354  1.00  0.00    -0.285 OA
ATOM      5  C   UNL     1       7.867  43.351  65.126  1.00  0.00     0.111 A 
ATOM      6  C   UNL     1       7.586  41.964  64.942  1.00  0.00     0.134 A 
ATOM      7  C   UNL     1       8.561  41.132  64.378  1.00  0.00     0.093 A 
ATOM      8  C   UNL     1       9.780  41.648  63.933  1.00  0.00     0.123 A 
ATOM      9  C   UNL     1      10.039  43.011  64.053  1.00  0.00     0.094 A 
ATOM     10  C   UNL     1       9.101  43.862  64.644  1.00  0.00     0.146 A 
ATOM     11  O   UNL     1       9.392  45.152  64.749  1.00  0.00    -0.452 OA
ENDROOT
BRANCH   1  12
ATOM     12  C   UNL     1       9.016  47.457  65.344  1.00  0.00     0.025 A 
ATOM     13  C   UNL     1       8.192  48.444  64.778  1.00  0.00     0.016 A 
ATOM     14  C   UNL     1       8.570  49.788  64.814  1.00  0.00     0.051 A 
ATOM     15  C   UNL     1       9.769  50.168  65.430  1.00  0.00     0.157 A 
ATOM     16  C   UNL     1      10.208  47.847  65.981  1.00  0.00     0.062 A 
ATOM     17  C   UNL     1      10.587  49.196  66.018  1.00  0.00     0.158 A 
BRANCH  15  18
ATOM     18  O   UNL     1      10.150  51.508  65.466  1.00  0.00    -0.504 OA
ATOM     19  H   UNL     1      10.506  51.981  64.644  1.00  0.00     0.293 HD
ENDBRANCH  15  18
BRANCH  17  20
ATOM     20  O   UNL     1      11.773  49.579  66.644  1.00  0.00    -0.504 OA
ATOM     21  H   UNL     1      11.881  50.499  67.056  1.00  0.00     0.293 HD
ENDBRANCH  17  20
ENDBRANCH   1  12
BRANCH   2  22
ATOM     22  O   UNL     1       6.556  46.528  66.559  1.00  0.00    -0.502 OA
ATOM     23  H   UNL     1       5.893  47.126  66.080  1.00  0.00     0.293 HD
ENDBRANCH   2  22
BRANCH   6  24
ATOM     24  O   UNL     1       6.366  41.365  65.267  1.00  0.00    -0.507 OA
ATOM     25  H   UNL     1       5.997  40.537  64.827  1.00  0.00     0.293 HD
ENDBRANCH   6  24
BRANCH   8  26
ATOM     26  O   UNL     1      10.737  40.815  63.358  1.00  0.00    -0.508 OA
ATOM     27  H   UNL     1      10.594  40.393  62.448  1.00  0.00     0.293 HD
ENDBRANCH   8  26
TORSDOF 6
ENDMDL
MODEL 6
REMARK VINA RESULT:    -5.545      2.185      2.375
REMARK INTER + INTRA:          -6.933
REMARK INTER:                  -6.614
REMARK INTRA:                  -0.319
REMARK UNBOUND:                -0.253
REMARK SMILES O=c1c(O)c(-c2ccc(O)c(O)c2)oc2cc(O)cc(O)c12
REMARK SMILES IDX 5 1 3 2 2 3 1 4 22 5 20 6 19 7 17 8 16 9 15 10 14 11 6 12
REMARK SMILES IDX 7 13 8 14 9 15 13 16 11 17 10 18 12 20 4 22 21 24 18 26
REMARK H PARENT 10 19 12 21 4 23 21 25 18 27
REMARK Flexibility Score: inf
ROOT
ATOM      1  C   UNL     1       5.815  37.216  61.808  1.00  0.00     0.180 A 
ATOM      2  C   UNL     1       5.724  38.058  62.929  1.00  0.00     0.208 A 
ATOM      3  C   UNL     1       5.361  37.505  64.168  1.00  0.00     0.238 A 
ATOM      4  O   UNL     1       5.336  38.254  65.179  1.00  0.00    -0.285 OA
ATOM      5  C   UNL     1       5.079  36.121  64.267  1.00  0.00     0.111 A 
ATOM      6  C   UNL     1       4.663  35.462  65.462  1.00  0.00     0.134 A 
ATOM      7  C   UNL     1       4.537  34.067  65.473  1.00  0.00     0.093 A 
ATOM      8  C   UNL     1       4.748  33.315  64.316  1.00  0.00     0.123 A 
ATOM      9  C   UNL     1       5.095  33.955  63.129  1.00  0.00     0.094 A 
ATOM     10  C   UNL     1       5.264  35.342  63.094  1.00  0.00     0.146 A 
ATOM     11  O   UNL     1       5.606  35.911  61.945  1.00  0.00    -0.452 OA
ENDROOT
BRANCH   1  12
ATOM     12  C   UNL     1       6.166  37.729  60.464  1.00  0.00     0.025 A 
ATOM     13  C   UNL     1       5.145  38.135  59.590  1.00  0.00     0.016 A 
ATOM     14  C   UNL     1       5.455  38.642  58.326  1.00  0.00     0.051 A 
ATOM     15  C   UNL     1       6.791  38.765  57.923  1.00  0.00     0.157 A 
ATOM     16  C   UNL     1       7.507  37.874  60.063  1.00  0.00     0.062 A 
ATOM     17  C   UNL     1       7.819  38.384  58.794  1.00  0.00     0.158 A 
BRANCH  15  18
ATOM     18  O   UNL     1       7.104  39.268  56.661  1.00  0.00    -0.504 OA
ATOM     19  H   UNL     1       7.064  40.260  56.461  1.00  0.00     0.293 HD
ENDBRANCH  15  18
BRANCH  17  20
ATOM     20  O   UNL     1       9.147  38.522  58.396  1.00  0.00    -0.504 OA
ATOM     21  H   UNL     1       9.501  38.061  57.565  1.00  0.00     0.293 HD
ENDBRANCH  17  20
ENDBRANCH   1  12
BRANCH   2  22
ATOM     22  O   UNL     1       6.030  39.416  62.815  1.00  0.00    -0.502 OA
ATOM     23  H   UNL     1       6.762  39.760  62.204  1.00  0.00     0.293 HD
ENDBRANCH   2  22
BRANCH   6  24
ATOM     24  O   UNL     1       4.337  36.128  66.648  1.00  0.00    -0.507 OA
ATOM     25  H   UNL     1       3.792  35.733  67.398  1.00  0.00     0.293 HD
ENDBRANCH   6  24
BRANCH   8  26
ATOM     26  O   UNL     1       4.604  31.930  64.332  1.00  0.00    -0.508 OA
ATOM     27  H   UNL     1       3.690  31.492  64.304  1.00  0.00     0.293 HD
ENDBRANCH   8  26
TORSDOF 6
ENDMDL
MODEL 7
REMARK VINA RESULT:    -5.497      1.761      7.329
REMARK INTER + INTRA:          -6.876
REMARK INTER:                  -6.541
REMARK INTRA:                  -0.335
REMARK UNBOUND:                -0.253
REMARK SMILES O=c1c(O)c(-c2ccc(O)c(O)c2)oc2cc(O)cc(O)c12
REMARK SMILES IDX 5 1 3 2 2 3 1 4 22 5 20 6 19 7 17 8 16 9 15 10 14 11 6 12
REMARK SMILES IDX 7 13 8 14 9 15 13 16 11 17 10 18 12 20 4 22 21 24 18 26
REMARK H PARENT 10 19 12 21 4 23 21 25 18 27
REMARK Flexibility Score: inf
ROOT
ATOM      1  C   UNL     1       6.505  37.589  60.555  1.00  0.00     0.180 A 
ATOM      2  C   UNL     1       7.709  38.310  60.483  1.00  0.00     0.208 A 
ATOM      3  C   UNL     1       7.856  39.293  59.491  1.00  0.00     0.238 A 
ATOM      4  O   UNL     1       8.915  39.973  59.466  1.00  0.00    -0.285 OA
ATOM      5  C   UNL     1       6.803  39.533  58.575  1.00  0.00     0.111 A 
ATOM      6  C   UNL     1       6.858  40.476  57.506  1.00  0.00     0.134 A 
ATOM      7  C   UNL     1       5.711  40.722  56.742  1.00  0.00     0.093 A 
ATOM      8  C   UNL     1       4.530  40.011  56.967  1.00  0.00     0.123 A 
ATOM      9  C   UNL     1       4.484  39.045  57.969  1.00  0.00     0.094 A 
ATOM     10  C   UNL     1       5.602  38.803  58.772  1.00  0.00     0.146 A 
ATOM     11  O   UNL     1       5.512  37.882  59.723  1.00  0.00    -0.452 OA
ENDROOT
BRANCH   1  12
ATOM     12  C   UNL     1       6.285  36.521  61.556  1.00  0.00     0.025 A 
ATOM     13  C   UNL     1       5.667  36.834  62.778  1.00  0.00     0.016 A 
ATOM     14  C   UNL     1       5.431  35.838  63.728  1.00  0.00     0.051 A 
ATOM     15  C   UNL     1       5.796  34.511  63.464  1.00  0.00     0.157 A 
ATOM     16  C   UNL     1       6.630  35.183  61.288  1.00  0.00     0.062 A 
ATOM     17  C   UNL     1       6.392  34.183  62.241  1.00  0.00     0.158 A 
BRANCH  15  18
ATOM     18  O   UNL     1       5.564  33.514  64.411  1.00  0.00    -0.504 OA
ATOM     19  H   UNL     1       4.689  33.457  64.918  1.00  0.00     0.293 HD
ENDBRANCH  15  18
BRANCH  17  20
ATOM     20  O   UNL     1       6.740  32.859  61.976  1.00  0.00    -0.504 OA
ATOM     21  H   UNL     1       7.560  32.433  62.393  1.00  0.00     0.293 HD
ENDBRANCH  17  20
ENDBRANCH   1  12
BRANCH   2  22
ATOM     22  O   UNL     1       8.726  38.074  61.411  1.00  0.00    -0.502 OA
ATOM     23  H   UNL     1       8.874  38.667  62.219  1.00  0.00     0.293 HD
ENDBRANCH   2  22
BRANCH   6  24
ATOM     24  O   UNL     1       8.014  41.172  57.138  1.00  0.00    -0.507 OA
ATOM     25  H   UNL     1       8.920  40.751  57.004  1.00  0.00     0.293 HD
ENDBRANCH   6  24
BRANCH   8  26
ATOM     26  O   UNL     1       3.397  40.250  56.191  1.00  0.00    -0.508 OA
ATOM     27  H   UNL     1       2.720  39.519  56.002  1.00  0.00     0.293 HD
ENDBRANCH   8  26
TORSDOF 6
ENDMDL
MODEL 8
REMARK VINA RESULT:    -5.439      7.056      8.611
REMARK INTER + INTRA:          -6.805
REMARK INTER:                  -6.510
REMARK INTRA:                  -0.296
REMARK UNBOUND:                -0.253
REMARK SMILES O=c1c(O)c(-c2ccc(O)c(O)c2)oc2cc(O)cc(O)c12
REMARK SMILES IDX 5 1 3 2 2 3 1 4 22 5 20 6 19 7 17 8 16 9 15 10 14 11 6 12
REMARK SMILES IDX 7 13 8 14 9 15 13 16 11 17 10 18 12 20 4 22 21 24 18 26
REMARK H PARENT 10 19 12 21 4 23 21 25 18 27
REMARK Flexibility Score: inf
ROOT
ATOM      1  C   UNL     1       8.383  43.316  65.151  1.00  0.00     0.180 A 
ATOM      2  C   UNL     1       9.633  42.739  65.429  1.00  0.00     0.208 A 
ATOM      3  C   UNL     1       9.754  41.340  65.425  1.00  0.00     0.238 A 
ATOM      4  O   UNL     1      10.889  40.831  65.620  1.00  0.00    -0.285 OA
ATOM      5  C   UNL     1       8.620  40.535  65.157  1.00  0.00     0.111 A 
ATOM      6  C   UNL     1       8.619  39.108  65.167  1.00  0.00     0.134 A 
ATOM      7  C   UNL     1       7.470  38.417  64.761  1.00  0.00     0.093 A 
ATOM      8  C   UNL     1       6.304  39.100  64.409  1.00  0.00     0.123 A 
ATOM      9  C   UNL     1       6.277  40.491  64.455  1.00  0.00     0.094 A 
ATOM     10  C   UNL     1       7.418  41.211  64.821  1.00  0.00     0.146 A 
ATOM     11  O   UNL     1       7.353  42.537  64.841  1.00  0.00    -0.452 OA
ENDROOT
BRANCH   1  12
ATOM     12  C   UNL     1       8.171  44.781  65.162  1.00  0.00     0.025 A 
ATOM     13  C   UNL     1       8.523  45.539  64.033  1.00  0.00     0.016 A 
ATOM     14  C   UNL     1       8.314  46.920  64.014  1.00  0.00     0.051 A 
ATOM     15  C   UNL     1       7.734  47.561  65.117  1.00  0.00     0.157 A 
ATOM     16  C   UNL     1       7.570  45.427  66.258  1.00  0.00     0.062 A 
ATOM     17  C   UNL     1       7.358  46.812  66.239  1.00  0.00     0.158 A 
BRANCH  15  18
ATOM     18  O   UNL     1       7.525  48.939  65.102  1.00  0.00    -0.504 OA
ATOM     19  H   UNL     1       6.633  49.343  65.363  1.00  0.00     0.293 HD
ENDBRANCH  15  18
BRANCH  17  20
ATOM     20  O   UNL     1       6.768  47.452  67.328  1.00  0.00    -0.504 OA
ATOM     21  H   UNL     1       7.327  47.876  68.060  1.00  0.00     0.293 HD
ENDBRANCH  17  20
ENDBRANCH   1  12
BRANCH   2  22
ATOM     22  O   UNL     1      10.745  43.551  65.667  1.00  0.00    -0.502 OA
ATOM     23  H   UNL     1      11.630  43.415  65.194  1.00  0.00     0.293 HD
ENDBRANCH   2  22
BRANCH   6  24
ATOM     24  O   UNL     1       9.700  38.329  65.589  1.00  0.00    -0.507 OA
ATOM     25  H   UNL     1      10.115  37.584  65.052  1.00  0.00     0.293 HD
ENDBRANCH   6  24
BRANCH   8  26
ATOM     26  O   UNL     1       5.161  38.404  64.023  1.00  0.00    -0.508 OA
ATOM     27  H   UNL     1       4.463  38.824  63.420  1.00  0.00     0.293 HD
ENDBRANCH   8  26
TORSDOF 6
ENDMDL
MODEL 9
REMARK VINA RESULT:    -5.408      9.189     10.671
REMARK INTER + INTRA:          -6.768
REMARK INTER:                  -6.448
REMARK INTRA:                  -0.321
REMARK UNBOUND:                -0.253
REMARK SMILES O=c1c(O)c(-c2ccc(O)c(O)c2)oc2cc(O)cc(O)c12
REMARK SMILES IDX 5 1 3 2 2 3 1 4 22 5 20 6 19 7 17 8 16 9 15 10 14 11 6 12
REMARK SMILES IDX 7 13 8 14 9 15 13 16 11 17 10 18 12 20 4 22 21 24 18 26
REMARK H PARENT 10 19 12 21 4 23 21 25 18 27
REMARK Flexibility Score: inf
ROOT
ATOM      1  C   UNL     1       9.562  45.697  62.367  1.00  0.00     0.180 A 
ATOM      2  C   UNL     1       9.485  47.093  62.503  1.00  0.00     0.208 A 
ATOM      3  C   UNL     1       9.029  47.636  63.715  1.00  0.00     0.238 A 
ATOM      4  O   UNL     1       9.016  48.887  63.850  1.00  0.00    -0.285 OA
ATOM      5  C   UNL     1       8.641  46.776  64.770  1.00  0.00     0.111 A 
ATOM      6  C   UNL     1       8.126  47.215  66.026  1.00  0.00     0.134 A 
ATOM      7  C   UNL     1       7.895  46.280  67.043  1.00  0.00     0.093 A 
ATOM      8  C   UNL     1       8.099  44.916  66.827  1.00  0.00     0.123 A 
ATOM      9  C   UNL     1       8.544  44.471  65.585  1.00  0.00     0.094 A 
ATOM     10  C   UNL     1       8.818  45.383  64.561  1.00  0.00     0.146 A 
ATOM     11  O   UNL     1       9.251  44.917  63.396  1.00  0.00    -0.452 OA
ENDROOT
BRANCH   1  12
ATOM     12  C   UNL     1      10.008  45.051  61.112  1.00  0.00     0.025 A 
ATOM     13  C   UNL     1       9.077  44.812  60.088  1.00  0.00     0.016 A 
ATOM     14  C   UNL     1       9.480  44.222  58.888  1.00  0.00     0.051 A 
ATOM     15  C   UNL     1      10.823  43.878  58.687  1.00  0.00     0.157 A 
ATOM     16  C   UNL     1      11.359  44.722  60.897  1.00  0.00     0.062 A 
ATOM     17  C   UNL     1      11.765  44.132  59.691  1.00  0.00     0.158 A 
BRANCH  15  18
ATOM     18  O   UNL     1      11.229  43.287  57.491  1.00  0.00    -0.504 OA
ATOM     19  H   UNL     1      11.725  42.404  57.477  1.00  0.00     0.293 HD
ENDBRANCH  15  18
BRANCH  17  20
ATOM     20  O   UNL     1      13.103  43.801  59.482  1.00  0.00    -0.504 OA
ATOM     21  H   UNL     1      13.562  43.987  58.598  1.00  0.00     0.293 HD
ENDBRANCH  17  20
ENDBRANCH   1  12
BRANCH   2  22
ATOM     22  O   UNL     1       9.896  47.924  61.458  1.00  0.00    -0.502 OA
ATOM     23  H   UNL     1      10.820  48.340  61.423  1.00  0.00     0.293 HD
ENDBRANCH   2  22
BRANCH   6  24
ATOM     24  O   UNL     1       7.800  48.544  66.314  1.00  0.00    -0.507 OA
ATOM     25  H   UNL     1       7.695  49.272  65.625  1.00  0.00     0.293 HD
ENDBRANCH   6  24
BRANCH   8  26
ATOM     26  O   UNL     1       7.852  43.991  67.839  1.00  0.00    -0.508 OA
ATOM     27  H   UNL     1       7.000  44.021  68.388  1.00  0.00     0.293 HD
ENDBRANCH   8  26
TORSDOF 6
ENDMDL
