MODEL 1
REMARK VINA RESULT:    -3.946      0.000      0.000
REMARK INTER + INTRA:          -5.236
REMARK INTER:                  -5.099
REMARK INTRA:                  -0.137
REMARK UNBOUND:                -0.137
REMARK SMILES C=CC(=O)CCCCC
REMARK SMILES IDX 6 1 7 2 8 3 9 4 5 5 3 6 4 7 2 8 1 9
REMARK H PARENT
REMARK Flexibility Score: inf
ROOT
ATOM      1  C   UNL     1      17.244  -6.581  16.271  1.00  0.00     0.008 C 
ENDROOT
BRANCH   1   2
ATOM      2  C   UNL     1      16.294  -5.805  17.199  1.00  0.00     0.000 C 
BRANCH   2   3
ATOM      3  C   UNL     1      16.956  -5.397  18.523  1.00  0.00    -0.003 C 
ATOM      4  C   UNL     1      16.140  -4.326  19.239  1.00  0.00     0.004 C 
ENDBRANCH   2   3
ENDBRANCH   1   2
BRANCH   1   5
ATOM      5  C   UNL     1      17.194  -6.136  14.799  1.00  0.00     0.080 C 
BRANCH   5   6
ATOM      6  C   UNL     1      17.011  -7.300  13.866  1.00  0.00     0.155 C 
ATOM      7  O   UNL     1      15.891  -7.475  13.313  1.00  0.00    -0.295 OA
BRANCH   6   8
ATOM      8  C   UNL     1      18.123  -8.240  13.623  1.00  0.00     0.039 C 
ATOM      9  C   UNL     1      17.922  -9.525  13.337  1.00  0.00     0.012 C 
ENDBRANCH   6   8
ENDBRANCH   5   6
ENDBRANCH   1   5
TORSDOF 5
ENDMDL
MODEL 2
REMARK VINA RESULT:    -3.701      4.048      6.496
REMARK INTER + INTRA:          -4.919
REMARK INTER:                  -4.770
REMARK INTRA:                  -0.150
REMARK UNBOUND:                -0.137
REMARK SMILES C=CC(=O)CCCCC
REMARK SMILES IDX 6 1 7 2 8 3 9 4 5 5 3 6 4 7 2 8 1 9
REMARK H PARENT
REMARK Flexibility Score: inf
ROOT
ATOM      1  C   UNL     1      15.234 -11.397  12.378  1.00  0.00     0.008 C 
ENDROOT
BRANCH   1   2
ATOM      2  C   UNL     1      15.098 -12.927  12.290  1.00  0.00     0.000 C 
BRANCH   2   3
ATOM      3  C   UNL     1      13.711 -13.427  12.720  1.00  0.00    -0.003 C 
ATOM      4  C   UNL     1      12.791 -12.261  13.070  1.00  0.00     0.004 C 
ENDBRANCH   2   3
ENDBRANCH   1   2
BRANCH   1   5
ATOM      5  C   UNL     1      16.672 -10.879  12.208  1.00  0.00     0.080 C 
BRANCH   5   6
ATOM      6  C   UNL     1      16.853  -9.512  12.807  1.00  0.00     0.155 C 
ATOM      7  O   UNL     1      15.905  -8.683  12.743  1.00  0.00    -0.295 OA
BRANCH   6   8
ATOM      8  C   UNL     1      18.135  -9.139  13.436  1.00  0.00     0.039 C 
ATOM      9  C   UNL     1      18.494  -9.580  14.641  1.00  0.00     0.012 C 
ENDBRANCH   6   8
ENDBRANCH   5   6
ENDBRANCH   1   5
TORSDOF 5
ENDMDL
MODEL 3
REMARK VINA RESULT:    -3.688      4.241      5.965
REMARK INTER + INTRA:          -4.903
REMARK INTER:                  -4.768
REMARK INTRA:                  -0.135
REMARK UNBOUND:                -0.137
REMARK SMILES C=CC(=O)CCCCC
REMARK SMILES IDX 6 1 7 2 8 3 9 4 5 5 3 6 4 7 2 8 1 9
REMARK H PARENT
REMARK Flexibility Score: inf
ROOT
ATOM      1  C   UNL     1      16.978 -10.640  12.950  1.00  0.00     0.008 C 
ENDROOT
BRANCH   1   2
ATOM      2  C   UNL     1      17.600  -9.259  12.673  1.00  0.00     0.000 C 
BRANCH   2   3
ATOM      3  C   UNL     1      18.200  -8.615  13.930  1.00  0.00    -0.003 C 
ATOM      4  C   UNL     1      18.582  -9.672  14.961  1.00  0.00     0.004 C 
ENDBRANCH   2   3
ENDBRANCH   1   2
BRANCH   1   5
ATOM      5  C   UNL     1      15.634 -10.882  12.242  1.00  0.00     0.080 C 
BRANCH   5   6
ATOM      6  C   UNL     1      15.210 -12.321  12.317  1.00  0.00     0.155 C 
ATOM      7  O   UNL     1      16.070 -13.204  12.582  1.00  0.00    -0.295 OA
BRANCH   6   8
ATOM      8  C   UNL     1      13.806 -12.698  12.057  1.00  0.00     0.039 C 
ATOM      9  C   UNL     1      12.898 -12.786  13.027  1.00  0.00     0.012 C 
ENDBRANCH   6   8
ENDBRANCH   5   6
ENDBRANCH   1   5
TORSDOF 5
ENDMDL
MODEL 4
REMARK VINA RESULT:    -3.674      4.050      5.728
REMARK INTER + INTRA:          -4.885
REMARK INTER:                  -4.704
REMARK INTRA:                  -0.181
REMARK UNBOUND:                -0.137
REMARK SMILES C=CC(=O)CCCCC
REMARK SMILES IDX 6 1 7 2 8 3 9 4 5 5 3 6 4 7 2 8 1 9
REMARK H PARENT
REMARK Flexibility Score: inf
ROOT
ATOM      1  C   UNL     1      16.977 -10.780  12.930  1.00  0.00     0.008 C 
ENDROOT
BRANCH   1   2
ATOM      2  C   UNL     1      17.453  -9.358  12.586  1.00  0.00     0.000 C 
BRANCH   2   3
ATOM      3  C   UNL     1      18.216  -8.690  13.738  1.00  0.00    -0.003 C 
ATOM      4  C   UNL     1      18.523  -9.692  14.847  1.00  0.00     0.004 C 
ENDBRANCH   2   3
ENDBRANCH   1   2
BRANCH   1   5
ATOM      5  C   UNL     1      15.972 -11.372  11.927  1.00  0.00     0.080 C 
BRANCH   5   6
ATOM      6  C   UNL     1      14.558 -11.280  12.427  1.00  0.00     0.155 C 
ATOM      7  O   UNL     1      14.114 -10.167  12.816  1.00  0.00    -0.295 OA
BRANCH   6   8
ATOM      8  C   UNL     1      13.711 -12.488  12.487  1.00  0.00     0.039 C 
ATOM      9  C   UNL     1      14.212 -13.701  12.712  1.00  0.00     0.012 C 
ENDBRANCH   6   8
ENDBRANCH   5   6
ENDBRANCH   1   5
TORSDOF 5
ENDMDL
MODEL 5
REMARK VINA RESULT:    -3.628      1.478      4.595
REMARK INTER + INTRA:          -4.825
REMARK INTER:                  -4.422
REMARK INTRA:                  -0.403
REMARK UNBOUND:                -0.137
REMARK SMILES C=CC(=O)CCCCC
REMARK SMILES IDX 6 1 7 2 8 3 9 4 5 5 3 6 4 7 2 8 1 9
REMARK H PARENT
REMARK Flexibility Score: inf
ROOT
ATOM      1  C   UNL     1      18.176  -7.201  12.863  1.00  0.00     0.008 C 
ENDROOT
BRANCH   1   2
ATOM      2  C   UNL     1      17.217  -8.371  12.582  1.00  0.00     0.000 C 
BRANCH   2   3
ATOM      3  C   UNL     1      17.752  -9.716  13.095  1.00  0.00    -0.003 C 
ATOM      4  C   UNL     1      18.536  -9.537  14.392  1.00  0.00     0.004 C 
ENDBRANCH   2   3
ENDBRANCH   1   2
BRANCH   1   5
ATOM      5  C   UNL     1      17.481  -5.913  13.336  1.00  0.00     0.080 C 
BRANCH   5   6
ATOM      6  C   UNL     1      16.632  -6.147  14.554  1.00  0.00     0.155 C 
ATOM      7  O   UNL     1      15.380  -6.030  14.463  1.00  0.00    -0.295 OA
BRANCH   6   8
ATOM      8  C   UNL     1      17.261  -6.483  15.846  1.00  0.00     0.039 C 
ATOM      9  C   UNL     1      16.735  -6.116  17.013  1.00  0.00     0.012 C 
ENDBRANCH   6   8
ENDBRANCH   5   6
ENDBRANCH   1   5
TORSDOF 5
ENDMDL
MODEL 6
REMARK VINA RESULT:    -3.505      4.970      6.906
REMARK INTER + INTRA:          -4.666
REMARK INTER:                  -4.272
REMARK INTRA:                  -0.394
REMARK UNBOUND:                -0.137
REMARK SMILES C=CC(=O)CCCCC
REMARK SMILES IDX 6 1 7 2 8 3 9 4 5 5 3 6 4 7 2 8 1 9
REMARK H PARENT
REMARK Flexibility Score: inf
ROOT
ATOM      1  C   UNL     1      15.850 -12.309  12.645  1.00  0.00     0.008 C 
ENDROOT
BRANCH   1   2
ATOM      2  C   UNL     1      16.699 -11.237  11.940  1.00  0.00     0.000 C 
BRANCH   2   3
ATOM      3  C   UNL     1      16.593  -9.859  12.609  1.00  0.00    -0.003 C 
ATOM      4  C   UNL     1      17.935  -9.424  13.187  1.00  0.00     0.004 C 
ENDBRANCH   2   3
ENDBRANCH   1   2
BRANCH   1   5
ATOM      5  C   UNL     1      14.582 -12.719  11.876  1.00  0.00     0.080 C 
BRANCH   5   6
ATOM      6  C   UNL     1      13.331 -12.239  12.556  1.00  0.00     0.155 C 
ATOM      7  O   UNL     1      12.812 -12.947  13.461  1.00  0.00    -0.295 OA
BRANCH   6   8
ATOM      8  C   UNL     1      12.704 -10.966  12.149  1.00  0.00     0.039 C 
ATOM      9  C   UNL     1      12.819  -9.851  12.867  1.00  0.00     0.012 C 
ENDBRANCH   6   8
ENDBRANCH   5   6
ENDBRANCH   1   5
TORSDOF 5
ENDMDL
MODEL 7
REMARK VINA RESULT:    -3.503      2.976      6.379
REMARK INTER + INTRA:          -4.663
REMARK INTER:                  -4.570
REMARK INTRA:                  -0.093
REMARK UNBOUND:                -0.137
REMARK SMILES C=CC(=O)CCCCC
REMARK SMILES IDX 6 1 7 2 8 3 9 4 5 5 3 6 4 7 2 8 1 9
REMARK H PARENT
REMARK Flexibility Score: inf
ROOT
ATOM      1  C   UNL     1      16.933 -10.995  12.750  1.00  0.00     0.008 C 
ENDROOT
BRANCH   1   2
ATOM      2  C   UNL     1      15.806 -11.701  11.977  1.00  0.00     0.000 C 
BRANCH   2   3
ATOM      3  C   UNL     1      15.571 -13.142  12.452  1.00  0.00    -0.003 C 
ATOM      4  C   UNL     1      14.084 -13.418  12.655  1.00  0.00     0.004 C 
ENDBRANCH   2   3
ENDBRANCH   1   2
BRANCH   1   5
ATOM      5  C   UNL     1      17.007  -9.477  12.514  1.00  0.00     0.080 C 
BRANCH   5   6
ATOM      6  C   UNL     1      17.880  -8.791  13.527  1.00  0.00     0.155 C 
ATOM      7  O   UNL     1      18.618  -9.488  14.275  1.00  0.00    -0.295 OA
BRANCH   6   8
ATOM      8  C   UNL     1      17.850  -7.321  13.662  1.00  0.00     0.039 C 
ATOM      9  C   UNL     1      17.400  -6.713  14.758  1.00  0.00     0.012 C 
ENDBRANCH   6   8
ENDBRANCH   5   6
ENDBRANCH   1   5
TORSDOF 5
ENDMDL
MODEL 8
REMARK VINA RESULT:    -3.449      2.841      5.799
REMARK INTER + INTRA:          -4.594
REMARK INTER:                  -4.294
REMARK INTRA:                  -0.300
REMARK UNBOUND:                -0.137
REMARK SMILES C=CC(=O)CCCCC
REMARK SMILES IDX 6 1 7 2 8 3 9 4 5 5 3 6 4 7 2 8 1 9
REMARK H PARENT
REMARK Flexibility Score: inf
ROOT
ATOM      1  C   UNL     1      17.417 -10.248  12.597  1.00  0.00     0.008 C 
ENDROOT
BRANCH   1   2
ATOM      2  C   UNL     1      15.881 -10.146  12.594  1.00  0.00     0.000 C 
BRANCH   2   3
ATOM      3  C   UNL     1      15.204 -11.380  11.980  1.00  0.00    -0.003 C 
ATOM      4  C   UNL     1      15.908 -12.663  12.410  1.00  0.00     0.004 C 
ENDBRANCH   2   3
ENDBRANCH   1   2
BRANCH   1   5
ATOM      5  C   UNL     1      18.106  -9.368  13.654  1.00  0.00     0.080 C 
BRANCH   5   6
ATOM      6  C   UNL     1      18.010  -7.906  13.318  1.00  0.00     0.155 C 
ATOM      7  O   UNL     1      18.408  -7.506  12.191  1.00  0.00    -0.295 OA
BRANCH   6   8
ATOM      8  C   UNL     1      17.482  -6.949  14.310  1.00  0.00     0.039 C 
ATOM      9  C   UNL     1      16.267  -6.413  14.209  1.00  0.00     0.012 C 
ENDBRANCH   6   8
ENDBRANCH   5   6
ENDBRANCH   1   5
TORSDOF 5
ENDMDL
MODEL 9
REMARK VINA RESULT:    -3.432      2.698      4.521
REMARK INTER + INTRA:          -4.571
REMARK INTER:                  -4.082
REMARK INTRA:                  -0.489
REMARK UNBOUND:                -0.137
REMARK SMILES C=CC(=O)CCCCC
REMARK SMILES IDX 6 1 7 2 8 3 9 4 5 5 3 6 4 7 2 8 1 9
REMARK H PARENT
REMARK Flexibility Score: inf
ROOT
ATOM      1  C   UNL     1      17.420  -9.872  12.738  1.00  0.00     0.008 C 
ENDROOT
BRANCH   1   2
ATOM      2  C   UNL     1      18.186  -9.047  13.787  1.00  0.00     0.000 C 
BRANCH   2   3
ATOM      3  C   UNL     1      17.896  -7.543  13.688  1.00  0.00    -0.003 C 
ATOM      4  C   UNL     1      17.348  -7.002  15.005  1.00  0.00     0.004 C 
ENDBRANCH   2   3
ENDBRANCH   1   2
BRANCH   1   5
ATOM      5  C   UNL     1      16.326  -9.089  11.993  1.00  0.00     0.080 C 
BRANCH   5   6
ATOM      6  C   UNL     1      14.947  -9.474  12.450  1.00  0.00     0.155 C 
ATOM      7  O   UNL     1      14.706 -10.680  12.728  1.00  0.00    -0.295 OA
BRANCH   6   8
ATOM      8  C   UNL     1      13.883  -8.455  12.545  1.00  0.00     0.039 C 
ATOM      9  C   UNL     1      14.075  -7.274  13.130  1.00  0.00     0.012 C 
ENDBRANCH   6   8
ENDBRANCH   5   6
ENDBRANCH   1   5
TORSDOF 5
ENDMDL
