MODEL 1
REMARK VINA RESULT:    -3.448      0.000      0.000
REMARK INTER + INTRA:          -4.596
REMARK INTER:                  -4.456
REMARK INTRA:                  -0.140
REMARK UNBOUND:                -0.140
REMARK SMILES CCCCCCC(=O)[O-]
REMARK SMILES IDX 5 1 6 2 7 3 8 4 9 5 4 6 3 7 2 8 1 9
REMARK H PARENT
REMARK Flexibility Score: inf
ROOT
ATOM      1  C   UNL     1      25.491  -2.400  -2.666  1.00  0.00     0.006 C 
ENDROOT
BRANCH   1   2
ATOM      2  C   UNL     1      24.407  -1.659  -3.460  1.00  0.00     0.053 C 
BRANCH   2   3
ATOM      3  C   UNL     1      23.546  -0.814  -2.571  1.00  0.00     0.041 C 
ATOM      4  O   UNL     1      23.511   0.435  -2.726  1.00  0.00    -0.550 OA
ATOM      5  O   UNL     1      22.809  -1.403  -1.552  1.00  0.00    -0.550 OA
ENDBRANCH   2   3
ENDBRANCH   1   2
BRANCH   1   6
ATOM      6  C   UNL     1      25.962  -3.678  -3.376  1.00  0.00     0.000 C 
BRANCH   6   7
ATOM      7  C   UNL     1      27.335  -4.120  -2.859  1.00  0.00    -0.000 C 
BRANCH   7   8
ATOM      8  C   UNL     1      27.195  -5.202  -1.782  1.00  0.00    -0.003 C 
ATOM      9  C   UNL     1      27.678  -4.695  -0.425  1.00  0.00     0.004 C 
ENDBRANCH   7   8
ENDBRANCH   6   7
ENDBRANCH   1   6
TORSDOF 5
ENDMDL
MODEL 2
REMARK VINA RESULT:    -3.327      3.289      5.295
REMARK INTER + INTRA:          -4.440
REMARK INTER:                  -4.327
REMARK INTRA:                  -0.113
REMARK UNBOUND:                -0.140
REMARK SMILES CCCCCCC(=O)[O-]
REMARK SMILES IDX 5 1 6 2 7 3 8 4 9 5 4 6 3 7 2 8 1 9
REMARK H PARENT
REMARK Flexibility Score: inf
ROOT
ATOM      1  C   UNL     1      26.108  -3.662  -3.619  1.00  0.00     0.006 C 
ENDROOT
BRANCH   1   2
ATOM      2  C   UNL     1      26.204  -5.047  -2.966  1.00  0.00     0.053 C 
BRANCH   2   3
ATOM      3  C   UNL     1      27.572  -5.307  -2.412  1.00  0.00     0.041 C 
ATOM      4  O   UNL     1      28.420  -5.945  -3.092  1.00  0.00    -0.550 OA
ATOM      5  O   UNL     1      27.899  -4.875  -1.134  1.00  0.00    -0.550 OA
ENDBRANCH   2   3
ENDBRANCH   1   2
BRANCH   1   6
ATOM      6  C   UNL     1      25.662  -2.580  -2.624  1.00  0.00     0.000 C 
BRANCH   6   7
ATOM      7  C   UNL     1      24.532  -1.726  -3.211  1.00  0.00    -0.000 C 
BRANCH   7   8
ATOM      8  C   UNL     1      23.507  -1.354  -2.135  1.00  0.00    -0.003 C 
ATOM      9  C   UNL     1      22.472  -0.371  -2.674  1.00  0.00     0.004 C 
ENDBRANCH   7   8
ENDBRANCH   6   7
ENDBRANCH   1   6
TORSDOF 5
ENDMDL
MODEL 3
REMARK VINA RESULT:    -2.859      8.793     10.536
REMARK INTER + INTRA:          -3.835
REMARK INTER:                  -3.697
REMARK INTRA:                  -0.139
REMARK UNBOUND:                -0.140
REMARK SMILES CCCCCCC(=O)[O-]
REMARK SMILES IDX 5 1 6 2 7 3 8 4 9 5 4 6 3 7 2 8 1 9
REMARK H PARENT
REMARK Flexibility Score: inf
ROOT
ATOM      1  C   UNL     1      27.251   7.060  -0.956  1.00  0.00     0.006 C 
ENDROOT
BRANCH   1   2
ATOM      2  C   UNL     1      27.798   8.141  -1.897  1.00  0.00     0.053 C 
BRANCH   2   3
ATOM      3  C   UNL     1      28.019   9.439  -1.183  1.00  0.00     0.041 C 
ATOM      4  O   UNL     1      27.780   9.533   0.050  1.00  0.00    -0.550 OA
ATOM      5  O   UNL     1      28.457  10.554  -1.886  1.00  0.00    -0.550 OA
ENDBRANCH   2   3
ENDBRANCH   1   2
BRANCH   1   6
ATOM      6  C   UNL     1      26.078   6.287  -1.577  1.00  0.00     0.000 C 
BRANCH   6   7
ATOM      7  C   UNL     1      25.983   4.871  -0.996  1.00  0.00    -0.000 C 
BRANCH   7   8
ATOM      8  C   UNL     1      25.193   3.946  -1.928  1.00  0.00    -0.003 C 
ATOM      9  C   UNL     1      24.177   4.730  -2.753  1.00  0.00     0.004 C 
ENDBRANCH   7   8
ENDBRANCH   6   7
ENDBRANCH   1   6
TORSDOF 5
ENDMDL
MODEL 4
REMARK VINA RESULT:    -2.734      9.540     11.192
REMARK INTER + INTRA:          -3.673
REMARK INTER:                  -3.581
REMARK INTRA:                  -0.092
REMARK UNBOUND:                -0.140
REMARK SMILES CCCCCCC(=O)[O-]
REMARK SMILES IDX 5 1 6 2 7 3 8 4 9 5 4 6 3 7 2 8 1 9
REMARK H PARENT
REMARK Flexibility Score: inf
ROOT
ATOM      1  C   UNL     1      27.257   8.234  -0.821  1.00  0.00     0.006 C 
ENDROOT
BRANCH   1   2
ATOM      2  C   UNL     1      27.822   8.826  -2.119  1.00  0.00     0.053 C 
BRANCH   2   3
ATOM      3  C   UNL     1      28.465  10.160  -1.888  1.00  0.00     0.041 C 
ATOM      4  O   UNL     1      29.082  10.388  -0.814  1.00  0.00    -0.550 OA
ATOM      5  O   UNL     1      28.354  11.161  -2.844  1.00  0.00    -0.550 OA
ENDBRANCH   2   3
ENDBRANCH   1   2
BRANCH   1   6
ATOM      6  C   UNL     1      27.232   6.699  -0.845  1.00  0.00     0.000 C 
BRANCH   6   7
ATOM      7  C   UNL     1      26.010   6.180  -1.611  1.00  0.00    -0.000 C 
BRANCH   7   8
ATOM      8  C   UNL     1      25.740   4.707  -1.285  1.00  0.00    -0.003 C 
ATOM      9  C   UNL     1      24.719   4.106  -2.247  1.00  0.00     0.004 C 
ENDBRANCH   7   8
ENDBRANCH   6   7
ENDBRANCH   1   6
TORSDOF 5
ENDMDL
MODEL 5
REMARK VINA RESULT:    -2.690      8.902     10.753
REMARK INTER + INTRA:          -3.616
REMARK INTER:                  -3.498
REMARK INTRA:                  -0.118
REMARK UNBOUND:                -0.140
REMARK SMILES CCCCCCC(=O)[O-]
REMARK SMILES IDX 5 1 6 2 7 3 8 4 9 5 4 6 3 7 2 8 1 9
REMARK H PARENT
REMARK Flexibility Score: inf
ROOT
ATOM      1  C   UNL     1      26.973   6.709  -0.970  1.00  0.00     0.006 C 
ENDROOT
BRANCH   1   2
ATOM      2  C   UNL     1      25.820   6.073  -1.757  1.00  0.00     0.053 C 
BRANCH   2   3
ATOM      3  C   UNL     1      25.746   4.593  -1.536  1.00  0.00     0.041 C 
ATOM      4  O   UNL     1      26.640   4.006  -0.869  1.00  0.00    -0.550 OA
ATOM      5  O   UNL     1      24.709   3.857  -2.093  1.00  0.00    -0.550 OA
ENDBRANCH   2   3
ENDBRANCH   1   2
BRANCH   1   6
ATOM      6  C   UNL     1      27.461   8.018  -1.609  1.00  0.00     0.000 C 
BRANCH   6   7
ATOM      7  C   UNL     1      27.732   9.084  -0.541  1.00  0.00    -0.000 C 
BRANCH   7   8
ATOM      8  C   UNL     1      28.717  10.140  -1.055  1.00  0.00    -0.003 C 
ATOM      9  C   UNL     1      28.457  10.467  -2.523  1.00  0.00     0.004 C 
ENDBRANCH   7   8
ENDBRANCH   6   7
ENDBRANCH   1   6
TORSDOF 5
ENDMDL
MODEL 6
REMARK VINA RESULT:    -2.398      7.594      9.462
REMARK INTER + INTRA:          -3.239
REMARK INTER:                  -3.100
REMARK INTRA:                  -0.139
REMARK UNBOUND:                -0.140
REMARK SMILES CCCCCCC(=O)[O-]
REMARK SMILES IDX 5 1 6 2 7 3 8 4 9 5 4 6 3 7 2 8 1 9
REMARK H PARENT
REMARK Flexibility Score: inf
ROOT
ATOM      1  C   UNL     1      25.876   5.984  -1.545  1.00  0.00     0.006 C 
ENDROOT
BRANCH   1   2
ATOM      2  C   UNL     1      25.666   4.466  -1.485  1.00  0.00     0.053 C 
BRANCH   2   3
ATOM      3  C   UNL     1      24.541   4.024  -2.369  1.00  0.00     0.041 C 
ATOM      4  O   UNL     1      23.823   4.877  -2.955  1.00  0.00    -0.550 OA
ATOM      5  O   UNL     1      24.265   2.672  -2.521  1.00  0.00    -0.550 OA
ENDBRANCH   2   3
ENDBRANCH   1   2
BRANCH   1   6
ATOM      6  C   UNL     1      27.137   6.429  -0.789  1.00  0.00     0.000 C 
BRANCH   6   7
ATOM      7  C   UNL     1      27.277   7.955  -0.801  1.00  0.00    -0.000 C 
BRANCH   7   8
ATOM      8  C   UNL     1      27.616   8.465  -2.206  1.00  0.00    -0.003 C 
ATOM      9  C   UNL     1      29.124   8.479  -2.439  1.00  0.00     0.004 C 
ENDBRANCH   7   8
ENDBRANCH   6   7
ENDBRANCH   1   6
TORSDOF 5
ENDMDL
MODEL 7
REMARK VINA RESULT:    -2.147     11.233     12.695
REMARK INTER + INTRA:          -2.915
REMARK INTER:                  -2.763
REMARK INTRA:                  -0.152
REMARK UNBOUND:                -0.140
REMARK SMILES CCCCCCC(=O)[O-]
REMARK SMILES IDX 5 1 6 2 7 3 8 4 9 5 4 6 3 7 2 8 1 9
REMARK H PARENT
REMARK Flexibility Score: inf
ROOT
ATOM      1  C   UNL     1      28.152   9.755  -1.326  1.00  0.00     0.006 C 
ENDROOT
BRANCH   1   2
ATOM      2  C   UNL     1      29.117  10.819  -1.864  1.00  0.00     0.053 C 
BRANCH   2   3
ATOM      3  C   UNL     1      28.561  11.516  -3.069  1.00  0.00     0.041 C 
ATOM      4  O   UNL     1      28.883  12.709  -3.315  1.00  0.00    -0.550 OA
ATOM      5  O   UNL     1      27.664  10.859  -3.900  1.00  0.00    -0.550 OA
ENDBRANCH   2   3
ENDBRANCH   1   2
BRANCH   1   6
ATOM      6  C   UNL     1      28.863   8.718  -0.444  1.00  0.00     0.000 C 
BRANCH   6   7
ATOM      7  C   UNL     1      28.407   7.296  -0.792  1.00  0.00    -0.000 C 
BRANCH   7   8
ATOM      8  C   UNL     1      26.937   7.279  -1.223  1.00  0.00    -0.003 C 
ATOM      9  C   UNL     1      26.345   5.877  -1.111  1.00  0.00     0.004 C 
ENDBRANCH   7   8
ENDBRANCH   6   7
ENDBRANCH   1   6
TORSDOF 5
ENDMDL
MODEL 8
REMARK VINA RESULT:    -1.698      9.688     11.443
REMARK INTER + INTRA:          -2.334
REMARK INTER:                  -2.183
REMARK INTRA:                  -0.152
REMARK UNBOUND:                -0.140
REMARK SMILES CCCCCCC(=O)[O-]
REMARK SMILES IDX 5 1 6 2 7 3 8 4 9 5 4 6 3 7 2 8 1 9
REMARK H PARENT
REMARK Flexibility Score: inf
ROOT
ATOM      1  C   UNL     1      26.843   8.119  -1.587  1.00  0.00     0.006 C 
ENDROOT
BRANCH   1   2
ATOM      2  C   UNL     1      27.120   6.762  -0.929  1.00  0.00     0.053 C 
BRANCH   2   3
ATOM      3  C   UNL     1      26.132   5.722  -1.362  1.00  0.00     0.041 C 
ATOM      4  O   UNL     1      25.367   5.943  -2.337  1.00  0.00    -0.550 OA
ATOM      5  O   UNL     1      26.034   4.523  -0.668  1.00  0.00    -0.550 OA
ENDBRANCH   2   3
ENDBRANCH   1   2
BRANCH   1   6
ATOM      6  C   UNL     1      27.841   8.435  -2.711  1.00  0.00     0.000 C 
BRANCH   6   7
ATOM      7  C   UNL     1      27.742   9.904  -3.138  1.00  0.00    -0.000 C 
BRANCH   7   8
ATOM      8  C   UNL     1      29.015  10.673  -2.765  1.00  0.00    -0.003 C 
ATOM      9  C   UNL     1      29.117  10.871  -1.256  1.00  0.00     0.004 C 
ENDBRANCH   7   8
ENDBRANCH   6   7
ENDBRANCH   1   6
TORSDOF 5
ENDMDL
