MODEL 1
REMARK VINA RESULT:    35.373      0.000      0.000
REMARK INTER + INTRA:          47.582
REMARK INTER:                  47.781
REMARK INTRA:                  -0.198
REMARK UNBOUND:                -0.198
REMARK SMILES O=c1c(-c2ccc(O)cc2)coc2c([C@H]3O[C@H](CO)[C@H](O)[C@@H](O)[C@@H]3O)c(O)ccc12
REMARK SMILES IDX 3 1 11 2 12 3 13 4 30 5 2 6 1 7 29 8 28 9 26 10 14 11 4 12
REMARK SMILES IDX 5 13 6 14 7 15 10 16 9 17 8 18 15 20 24 21 16 22 22 23 17 24
REMARK SMILES IDX 20 25 25 26 23 28 18 30 19 31 21 33 27 35
REMARK H PARENT 8 19 25 27 23 29 19 32 21 34 27 36
REMARK Flexibility Score: inf
ROOT
ATOM      1  C   UNL     1     -47.413  40.967  12.563  1.00  0.00     0.065 A 
ATOM      2  C   UNL     1     -46.377  41.532  13.317  1.00  0.00     0.208 A 
ATOM      3  O   UNL     1     -45.127  41.527  12.869  1.00  0.00    -0.463 OA
ATOM      4  C   UNL     1     -44.774  41.001  11.699  1.00  0.00     0.147 A 
ATOM      5  C   UNL     1     -45.760  40.417  10.869  1.00  0.00     0.066 A 
ATOM      6  C   UNL     1     -47.095  40.407  11.312  1.00  0.00     0.200 A 
ATOM      7  O   UNL     1     -48.004  39.920  10.583  1.00  0.00    -0.288 OA
ATOM      8  C   UNL     1     -45.389  39.876   9.629  1.00  0.00     0.020 A 
ATOM      9  C   UNL     1     -44.061  39.919   9.212  1.00  0.00     0.047 A 
ATOM     10  C   UNL     1     -43.077  40.497  10.024  1.00  0.00     0.125 A 
ATOM     11  C   UNL     1     -43.420  41.029  11.288  1.00  0.00     0.069 A 
ENDROOT
BRANCH   1  12
ATOM     12  C   UNL     1     -48.802  40.976  13.088  1.00  0.00    -0.011 A 
ATOM     13  C   UNL     1     -49.305  39.875  13.805  1.00  0.00     0.013 A 
ATOM     14  C   UNL     1     -50.611  39.895  14.305  1.00  0.00     0.047 A 
ATOM     15  C   UNL     1     -51.427  41.015  14.101  1.00  0.00     0.115 A 
ATOM     16  C   UNL     1     -49.626  42.099  12.895  1.00  0.00     0.013 A 
ATOM     17  C   UNL     1     -50.931  42.114  13.396  1.00  0.00     0.047 A 
BRANCH  15  18
ATOM     18  O   UNL     1     -52.729  41.044  14.595  1.00  0.00    -0.508 OA
ATOM     19  H   UNL     1     -53.527  40.862  13.996  1.00  0.00     0.293 HD
ENDBRANCH  15  18
ENDBRANCH   1  12
BRANCH  11  20
ATOM     20  C   UNL     1     -42.360  41.678  12.168  1.00  0.00     0.188 C 
ATOM     21  C   UNL     1     -42.370  43.212  11.964  1.00  0.00     0.179 C 
ATOM     22  O   UNL     1     -41.091  41.120  11.854  1.00  0.00    -0.362 OA
ATOM     23  C   UNL     1     -41.268  43.871  12.813  1.00  0.00     0.177 C 
ATOM     24  C   UNL     1     -40.043  41.638  12.664  1.00  0.00     0.176 C 
ATOM     25  C   UNL     1     -39.924  43.179  12.534  1.00  0.00     0.177 C 
BRANCH  21  26
ATOM     26  O   UNL     1     -43.629  43.756  12.278  1.00  0.00    -0.387 OA
ATOM     27  H   UNL     1     -44.296  43.346  11.666  1.00  0.00     0.211 HD
ENDBRANCH  21  26
BRANCH  23  28
ATOM     28  O   UNL     1     -41.163  45.232  12.485  1.00  0.00    -0.387 OA
ATOM     29  H   UNL     1     -42.045  45.645  12.681  1.00  0.00     0.211 HD
ENDBRANCH  23  28
BRANCH  24  30
ATOM     30  C   UNL     1     -40.123  41.116  14.117  1.00  0.00     0.191 C 
BRANCH  30  31
ATOM     31  O   UNL     1     -39.662  42.095  15.007  1.00  0.00    -0.394 OA
ATOM     32  H   UNL     1     -39.747  42.963  14.532  1.00  0.00     0.210 HD
ENDBRANCH  30  31
ENDBRANCH  24  30
BRANCH  25  33
ATOM     33  O   UNL     1     -38.935  43.665  13.407  1.00  0.00    -0.388 OA
ATOM     34  H   UNL     1     -39.289  44.502  13.808  1.00  0.00     0.211 HD
ENDBRANCH  25  33
ENDBRANCH  11  20
BRANCH  10  35
ATOM     35  O   UNL     1     -41.757  40.543   9.572  1.00  0.00    -0.507 OA
ATOM     36  H   UNL     1     -41.225  39.700   9.392  1.00  0.00     0.293 HD
ENDBRANCH  10  35
TORSDOF 9
ENDMDL
MODEL 2
REMARK VINA RESULT:    36.844      3.964      7.890
REMARK INTER + INTRA:          49.569
REMARK INTER:                  48.433
REMARK INTRA:                   1.135
REMARK UNBOUND:                -0.198
REMARK SMILES O=c1c(-c2ccc(O)cc2)coc2c([C@H]3O[C@H](CO)[C@H](O)[C@@H](O)[C@@H]3O)c(O)ccc12
REMARK SMILES IDX 3 1 11 2 12 3 13 4 30 5 2 6 1 7 29 8 28 9 26 10 14 11 4 12
REMARK SMILES IDX 5 13 6 14 7 15 10 16 9 17 8 18 15 20 24 21 16 22 22 23 17 24
REMARK SMILES IDX 20 25 25 26 23 28 18 30 19 31 21 33 27 35
REMARK H PARENT 8 19 25 27 23 29 19 32 21 34 27 36
REMARK Flexibility Score: inf
ROOT
ATOM      1  C   UNL     1     -42.818  47.492  11.557  1.00  0.00     0.065 A 
ATOM      2  C   UNL     1     -43.667  46.387  11.414  1.00  0.00     0.208 A 
ATOM      3  O   UNL     1     -43.227  45.155  11.643  1.00  0.00    -0.463 OA
ATOM      4  C   UNL     1     -41.980  44.884  12.018  1.00  0.00     0.147 A 
ATOM      5  C   UNL     1     -41.058  45.942  12.196  1.00  0.00     0.066 A 
ATOM      6  C   UNL     1     -41.491  47.261  11.965  1.00  0.00     0.200 A 
ATOM      7  O   UNL     1     -40.702  48.230  12.142  1.00  0.00    -0.288 OA
ATOM      8  C   UNL     1     -39.747  45.657  12.607  1.00  0.00     0.020 A 
ATOM      9  C   UNL     1     -39.356  44.342  12.847  1.00  0.00     0.047 A 
ATOM     10  C   UNL     1     -40.261  43.287  12.676  1.00  0.00     0.125 A 
ATOM     11  C   UNL     1     -41.581  43.545  12.241  1.00  0.00     0.069 A 
ENDROOT
BRANCH   1  12
ATOM     12  C   UNL     1     -43.330  48.859  11.288  1.00  0.00    -0.011 A 
ATOM     13  C   UNL     1     -44.515  49.313  11.893  1.00  0.00     0.013 A 
ATOM     14  C   UNL     1     -44.987  50.605  11.642  1.00  0.00     0.047 A 
ATOM     15  C   UNL     1     -44.278  51.461  10.789  1.00  0.00     0.115 A 
ATOM     16  C   UNL     1     -42.621  49.727  10.438  1.00  0.00     0.013 A 
ATOM     17  C   UNL     1     -43.096  51.018  10.190  1.00  0.00     0.047 A 
BRANCH  15  18
ATOM     18  O   UNL     1     -44.740  52.750  10.532  1.00  0.00    -0.508 OA
ATOM     19  H   UNL     1     -45.730  52.957  10.479  1.00  0.00     0.293 HD
ENDBRANCH  15  18
ENDBRANCH   1  12
BRANCH  11  20
ATOM     20  C   UNL     1     -42.577  42.405  12.074  1.00  0.00     0.188 C 
ATOM     21  C   UNL     1     -42.261  41.610  10.784  1.00  0.00     0.179 C 
ATOM     22  O   UNL     1     -43.894  42.940  12.044  1.00  0.00    -0.362 OA
ATOM     23  C   UNL     1     -43.293  40.487  10.582  1.00  0.00     0.177 C 
ATOM     24  C   UNL     1     -44.896  41.938  11.935  1.00  0.00     0.176 C 
ATOM     25  C   UNL     1     -44.711  41.075  10.661  1.00  0.00     0.177 C 
BRANCH  21  26
ATOM     26  O   UNL     1     -40.956  41.084  10.823  1.00  0.00    -0.387 OA
ATOM     27  H   UNL     1     -40.515  41.430  11.642  1.00  0.00     0.211 HD
ENDBRANCH  21  26
BRANCH  23  28
ATOM     28  O   UNL     1     -43.109  39.892   9.324  1.00  0.00    -0.387 OA
ATOM     29  H   UNL     1     -43.042  40.629   8.662  1.00  0.00     0.211 HD
ENDBRANCH  23  28
BRANCH  24  30
ATOM     30  C   UNL     1     -45.052  41.131  13.245  1.00  0.00     0.191 C 
BRANCH  30  31
ATOM     31  O   UNL     1     -44.441  39.877  13.114  1.00  0.00    -0.394 OA
ATOM     32  H   UNL     1     -45.009  39.357  12.488  1.00  0.00     0.210 HD
ENDBRANCH  30  31
ENDBRANCH  24  30
BRANCH  25  33
ATOM     33  O   UNL     1     -45.668  40.046  10.627  1.00  0.00    -0.388 OA
ATOM     34  H   UNL     1     -45.192  39.216  10.362  1.00  0.00     0.211 HD
ENDBRANCH  25  33
ENDBRANCH  11  20
BRANCH  10  35
ATOM     35  O   UNL     1     -39.847  41.980  12.942  1.00  0.00    -0.507 OA
ATOM     36  H   UNL     1     -38.898  41.769  13.226  1.00  0.00     0.293 HD
ENDBRANCH  10  35
TORSDOF 9
ENDMDL
