MODEL 1
REMARK VINA RESULT:    -2.522      0.000      0.000
REMARK INTER + INTRA:          -2.522
REMARK INTER:                  -2.522
REMARK INTRA:                   0.000
REMARK UNBOUND:                 0.000
REMARK SMILES CC(=O)[O-]
REMARK SMILES IDX 1 1 2 2 3 3 4 4
REMARK H PARENT
REMARK Flexibility Score: inf
ROOT
ATOM      1  C   UNL     1     -16.718  -8.377  -2.755  1.00  0.00     0.063 C 
ATOM      2  C   UNL     1     -16.223  -8.605  -4.144  1.00  0.00     0.038 C 
ATOM      3  O   UNL     1     -16.734  -7.978  -5.108  1.00  0.00    -0.550 OA
ATOM      4  O   UNL     1     -15.160  -9.470  -4.371  1.00  0.00    -0.550 OA
ENDROOT
TORSDOF 0
ENDMDL
MODEL 2
REMARK VINA RESULT:    -2.508      1.814      2.266
REMARK INTER + INTRA:          -2.508
REMARK INTER:                  -2.508
REMARK INTRA:                   0.000
REMARK UNBOUND:                 0.000
REMARK SMILES CC(=O)[O-]
REMARK SMILES IDX 1 1 2 2 3 3 4 4
REMARK H PARENT
REMARK Flexibility Score: inf
ROOT
ATOM      1  C   UNL     1     -16.599  -8.031  -4.797  1.00  0.00     0.063 C 
ATOM      2  C   UNL     1     -16.586  -8.589  -3.414  1.00  0.00     0.038 C 
ATOM      3  O   UNL     1     -16.716  -9.828  -3.232  1.00  0.00    -0.550 OA
ATOM      4  O   UNL     1     -16.378  -7.751  -2.326  1.00  0.00    -0.550 OA
ENDROOT
TORSDOF 0
ENDMDL
MODEL 3
REMARK VINA RESULT:    -2.493      1.784      2.016
REMARK INTER + INTRA:          -2.493
REMARK INTER:                  -2.493
REMARK INTRA:                   0.000
REMARK UNBOUND:                 0.000
REMARK SMILES CC(=O)[O-]
REMARK SMILES IDX 1 1 2 2 3 3 4 4
REMARK H PARENT
REMARK Flexibility Score: inf
ROOT
ATOM      1  C   UNL     1     -16.612  -8.013  -4.826  1.00  0.00     0.063 C 
ATOM      2  C   UNL     1     -16.538  -8.555  -3.438  1.00  0.00     0.038 C 
ATOM      3  O   UNL     1     -16.335  -7.779  -2.467  1.00  0.00    -0.550 OA
ATOM      4  O   UNL     1     -16.745  -9.909  -3.206  1.00  0.00    -0.550 OA
ENDROOT
TORSDOF 0
ENDMDL
MODEL 4
REMARK VINA RESULT:    -2.452      7.124      7.736
REMARK INTER + INTRA:          -2.452
REMARK INTER:                  -2.452
REMARK INTRA:                   0.000
REMARK UNBOUND:                 0.000
REMARK SMILES CC(=O)[O-]
REMARK SMILES IDX 1 1 2 2 3 3 4 4
REMARK H PARENT
REMARK Flexibility Score: inf
ROOT
ATOM      1  C   UNL     1     -16.210 -13.888   0.166  1.00  0.00     0.063 C 
ATOM      2  C   UNL     1     -15.328 -13.705   1.354  1.00  0.00     0.038 C 
ATOM      3  O   UNL     1     -14.326 -12.945   1.286  1.00  0.00    -0.550 OA
ATOM      4  O   UNL     1     -15.637 -14.330   2.556  1.00  0.00    -0.550 OA
ENDROOT
TORSDOF 0
ENDMDL
MODEL 5
REMARK VINA RESULT:    -2.353      5.964      6.141
REMARK INTER + INTRA:          -2.353
REMARK INTER:                  -2.353
REMARK INTRA:                   0.000
REMARK UNBOUND:                 0.000
REMARK SMILES CC(=O)[O-]
REMARK SMILES IDX 1 1 2 2 3 3 4 4
REMARK H PARENT
REMARK Flexibility Score: inf
ROOT
ATOM      1  C   UNL     1     -17.440 -14.814  -2.957  1.00  0.00     0.063 C 
ATOM      2  C   UNL     1     -18.560 -13.832  -2.879  1.00  0.00     0.038 C 
ATOM      3  O   UNL     1     -19.742 -14.203  -3.100  1.00  0.00    -0.550 OA
ATOM      4  O   UNL     1     -18.307 -12.516  -2.511  1.00  0.00    -0.550 OA
ENDROOT
TORSDOF 0
ENDMDL
MODEL 6
REMARK VINA RESULT:    -2.351      4.965      5.334
REMARK INTER + INTRA:          -2.351
REMARK INTER:                  -2.351
REMARK INTRA:                   0.000
REMARK UNBOUND:                 0.000
REMARK SMILES CC(=O)[O-]
REMARK SMILES IDX 1 1 2 2 3 3 4 4
REMARK H PARENT
REMARK Flexibility Score: inf
ROOT
ATOM      1  C   UNL     1     -18.325  -8.308   1.282  1.00  0.00     0.063 C 
ATOM      2  C   UNL     1     -16.883  -8.238   0.908  1.00  0.00     0.038 C 
ATOM      3  O   UNL     1     -16.276  -9.276   0.533  1.00  0.00    -0.550 OA
ATOM      4  O   UNL     1     -16.218  -7.019   0.920  1.00  0.00    -0.550 OA
ENDROOT
TORSDOF 0
ENDMDL
MODEL 7
REMARK VINA RESULT:    -2.331      6.470      6.681
REMARK INTER + INTRA:          -2.331
REMARK INTER:                  -2.331
REMARK INTRA:                   0.000
REMARK UNBOUND:                 0.000
REMARK SMILES CC(=O)[O-]
REMARK SMILES IDX 1 1 2 2 3 3 4 4
REMARK H PARENT
REMARK Flexibility Score: inf
ROOT
ATOM      1  C   UNL     1     -17.450 -14.793  -2.915  1.00  0.00     0.063 C 
ATOM      2  C   UNL     1     -16.725 -14.431  -1.663  1.00  0.00     0.038 C 
ATOM      3  O   UNL     1     -15.492 -14.659  -1.558  1.00  0.00    -0.550 OA
ATOM      4  O   UNL     1     -17.398 -13.793  -0.628  1.00  0.00    -0.550 OA
ENDROOT
TORSDOF 0
ENDMDL
MODEL 8
REMARK VINA RESULT:    -2.289      2.063      2.372
REMARK INTER + INTRA:          -2.289
REMARK INTER:                  -2.289
REMARK INTRA:                   0.000
REMARK UNBOUND:                 0.000
REMARK SMILES CC(=O)[O-]
REMARK SMILES IDX 1 1 2 2 3 3 4 4
REMARK H PARENT
REMARK Flexibility Score: inf
ROOT
ATOM      1  C   UNL     1     -15.915  -7.632  -1.436  1.00  0.00     0.063 C 
ATOM      2  C   UNL     1     -16.789  -8.367  -2.395  1.00  0.00     0.038 C 
ATOM      3  O   UNL     1     -17.724  -9.094  -1.969  1.00  0.00    -0.550 OA
ATOM      4  O   UNL     1     -16.608  -8.208  -3.764  1.00  0.00    -0.550 OA
ENDROOT
TORSDOF 0
ENDMDL
MODEL 9
REMARK VINA RESULT:    -2.273      4.185      4.513
REMARK INTER + INTRA:          -2.273
REMARK INTER:                  -2.273
REMARK INTRA:                   0.000
REMARK UNBOUND:                 0.000
REMARK SMILES CC(=O)[O-]
REMARK SMILES IDX 1 1 2 2 3 3 4 4
REMARK H PARENT
REMARK Flexibility Score: inf
ROOT
ATOM      1  C   UNL     1     -15.955  -7.622  -1.418  1.00  0.00     0.063 C 
ATOM      2  C   UNL     1     -15.967  -7.929   0.041  1.00  0.00     0.038 C 
ATOM      3  O   UNL     1     -16.394  -7.077   0.863  1.00  0.00    -0.550 OA
ATOM      4  O   UNL     1     -15.557  -9.177   0.493  1.00  0.00    -0.550 OA
ENDROOT
TORSDOF 0
ENDMDL
