MODEL 1
REMARK VINA RESULT:    -6.002      0.000      0.000
REMARK INTER + INTRA:          -7.701
REMARK INTER:                  -7.405
REMARK INTRA:                  -0.295
REMARK UNBOUND:                -0.295
REMARK SMILES COc1cc(-c2oc3cc(O)cc(O)c3c(=O)c2O)ccc1O
REMARK SMILES IDX 6 1 18 2 16 3 17 4 15 5 13 6 12 7 10 8 9 9 8 10 7 11 5 12
REMARK SMILES IDX 3 13 22 14 4 15 21 16 20 17 2 18 1 19 23 20 19 22 14 24
REMARK SMILES IDX 11 26
REMARK H PARENT 23 21 19 23 14 25 11 27
REMARK Flexibility Score: inf
ROOT
ATOM      1  C   UNL     1       0.740  -2.735  22.555  1.00  0.00     0.180 A 
ATOM      2  C   UNL     1       1.817  -2.446  23.416  1.00  0.00     0.208 A 
ATOM      3  C   UNL     1       1.592  -2.425  24.801  1.00  0.00     0.238 A 
ATOM      4  O   UNL     1       2.551  -2.179  25.581  1.00  0.00    -0.285 OA
ATOM      5  C   UNL     1       0.296  -2.669  25.300  1.00  0.00     0.111 A 
ATOM      6  C   UNL     1      -0.016  -2.662  26.681  1.00  0.00     0.134 A 
ATOM      7  C   UNL     1      -1.333  -2.905  27.098  1.00  0.00     0.093 A 
ATOM      8  C   UNL     1      -2.342  -3.156  26.162  1.00  0.00     0.123 A 
ATOM      9  C   UNL     1      -2.039  -3.165  24.800  1.00  0.00     0.094 A 
ATOM     10  C   UNL     1      -0.733  -2.926  24.363  1.00  0.00     0.146 A 
ATOM     11  O   UNL     1      -0.472  -2.945  23.061  1.00  0.00    -0.452 OA
ENDROOT
BRANCH   1  12
ATOM     12  C   UNL     1       0.902  -2.794  21.084  1.00  0.00     0.025 A 
ATOM     13  C   UNL     1       1.775  -3.872  19.070  1.00  0.00     0.161 A 
ATOM     14  C   UNL     1       1.138  -2.901  18.284  1.00  0.00     0.157 A 
ATOM     15  C   UNL     1       1.648  -3.817  20.472  1.00  0.00     0.062 A 
ATOM     16  C   UNL     1       0.377  -1.894  18.891  1.00  0.00     0.051 A 
ATOM     17  C   UNL     1       0.254  -1.846  20.281  1.00  0.00     0.016 A 
BRANCH  13  18
ATOM     18  O   UNL     1       2.519  -4.871  18.423  1.00  0.00    -0.493 OA
ATOM     19  C   UNL     1       2.301  -6.269  18.585  1.00  0.00     0.278 C 
ENDBRANCH  13  18
BRANCH  14  20
ATOM     20  O   UNL     1       1.263  -2.946  16.896  1.00  0.00    -0.504 OA
ATOM     21  H   UNL     1       0.988  -3.765  16.366  1.00  0.00     0.293 HD
ENDBRANCH  14  20
ENDBRANCH   1  12
BRANCH   2  22
ATOM     22  O   UNL     1       3.080  -2.159  22.893  1.00  0.00    -0.502 OA
ATOM     23  H   UNL     1       3.935  -2.481  23.331  1.00  0.00     0.293 HD
ENDBRANCH   2  22
BRANCH   6  24
ATOM     24  O   UNL     1       0.969  -2.414  27.639  1.00  0.00    -0.507 OA
ATOM     25  H   UNL     1       1.144  -1.482  27.996  1.00  0.00     0.293 HD
ENDBRANCH   6  24
BRANCH   8  26
ATOM     26  O   UNL     1      -3.650  -3.398  26.576  1.00  0.00    -0.508 OA
ATOM     27  H   UNL     1      -4.093  -2.833  27.291  1.00  0.00     0.293 HD
ENDBRANCH   8  26
TORSDOF 6
ENDMDL
MODEL 2
REMARK VINA RESULT:    -5.937      2.014      3.730
REMARK INTER + INTRA:          -7.620
REMARK INTER:                  -7.315
REMARK INTRA:                  -0.304
REMARK UNBOUND:                -0.295
REMARK SMILES COc1cc(-c2oc3cc(O)cc(O)c3c(=O)c2O)ccc1O
REMARK SMILES IDX 6 1 18 2 16 3 17 4 15 5 13 6 12 7 10 8 9 9 8 10 7 11 5 12
REMARK SMILES IDX 3 13 22 14 4 15 21 16 20 17 2 18 1 19 23 20 19 22 14 24
REMARK SMILES IDX 11 26
REMARK H PARENT 23 21 19 23 14 25 11 27
REMARK Flexibility Score: inf
ROOT
ATOM      1  C   UNL     1       1.228  -3.101  23.756  1.00  0.00     0.180 A 
ATOM      2  C   UNL     1       0.123  -3.509  24.528  1.00  0.00     0.208 A 
ATOM      3  C   UNL     1      -0.198  -2.786  25.688  1.00  0.00     0.238 A 
ATOM      4  O   UNL     1      -1.192  -3.136  26.381  1.00  0.00    -0.285 OA
ATOM      5  C   UNL     1       0.599  -1.687  26.067  1.00  0.00     0.111 A 
ATOM      6  C   UNL     1       0.346  -0.909  27.223  1.00  0.00     0.134 A 
ATOM      7  C   UNL     1       1.192   0.165  27.538  1.00  0.00     0.093 A 
ATOM      8  C   UNL     1       2.285   0.475  26.720  1.00  0.00     0.123 A 
ATOM      9  C   UNL     1       2.536  -0.288  25.579  1.00  0.00     0.094 A 
ATOM     10  C   UNL     1       1.705  -1.361  25.247  1.00  0.00     0.146 A 
ATOM     11  O   UNL     1       1.966  -2.068  24.153  1.00  0.00    -0.452 OA
ENDROOT
BRANCH   1  12
ATOM     12  C   UNL     1       1.618  -3.799  22.510  1.00  0.00     0.025 A 
ATOM     13  C   UNL     1       1.834  -3.872  20.075  1.00  0.00     0.161 A 
ATOM     14  C   UNL     1       2.424  -5.140  20.173  1.00  0.00     0.157 A 
ATOM     15  C   UNL     1       1.438  -3.202  21.250  1.00  0.00     0.062 A 
ATOM     16  C   UNL     1       2.625  -5.726  21.428  1.00  0.00     0.051 A 
ATOM     17  C   UNL     1       2.231  -5.058  22.589  1.00  0.00     0.016 A 
BRANCH  13  18
ATOM     18  O   UNL     1       1.661  -3.312  18.799  1.00  0.00    -0.493 OA
ATOM     19  C   UNL     1       0.398  -3.106  18.174  1.00  0.00     0.278 C 
ENDBRANCH  13  18
BRANCH  14  20
ATOM     20  O   UNL     1       2.815  -5.810  19.014  1.00  0.00    -0.504 OA
ATOM     21  H   UNL     1       3.085  -6.786  19.032  1.00  0.00     0.293 HD
ENDBRANCH  14  20
ENDBRANCH   1  12
BRANCH   2  22
ATOM     22  O   UNL     1      -0.621  -4.631  24.157  1.00  0.00    -0.502 OA
ATOM     23  H   UNL     1      -1.401  -4.578  23.513  1.00  0.00     0.293 HD
ENDBRANCH   2  22
BRANCH   6  24
ATOM     24  O   UNL     1      -0.735  -1.195  28.059  1.00  0.00    -0.507 OA
ATOM     25  H   UNL     1      -1.509  -1.772  27.752  1.00  0.00     0.293 HD
ENDBRANCH   6  24
BRANCH   8  26
ATOM     26  O   UNL     1       3.125   1.542  27.032  1.00  0.00    -0.508 OA
ATOM     27  H   UNL     1       3.888   1.440  27.691  1.00  0.00     0.293 HD
ENDBRANCH   8  26
TORSDOF 6
ENDMDL
MODEL 3
REMARK VINA RESULT:    -5.758      1.474      2.299
REMARK INTER + INTRA:          -7.400
REMARK INTER:                  -6.998
REMARK INTRA:                  -0.402
REMARK UNBOUND:                -0.295
REMARK SMILES COc1cc(-c2oc3cc(O)cc(O)c3c(=O)c2O)ccc1O
REMARK SMILES IDX 6 1 18 2 16 3 17 4 15 5 13 6 12 7 10 8 9 9 8 10 7 11 5 12
REMARK SMILES IDX 3 13 22 14 4 15 21 16 20 17 2 18 1 19 23 20 19 22 14 24
REMARK SMILES IDX 11 26
REMARK H PARENT 23 21 19 23 14 25 11 27
REMARK Flexibility Score: inf
ROOT
ATOM      1  C   UNL     1       0.988  -2.891  23.569  1.00  0.00     0.180 A 
ATOM      2  C   UNL     1       1.809  -1.968  24.246  1.00  0.00     0.208 A 
ATOM      3  C   UNL     1       1.285  -1.273  25.346  1.00  0.00     0.238 A 
ATOM      4  O   UNL     1       2.014  -0.452  25.967  1.00  0.00    -0.285 OA
ATOM      5  C   UNL     1      -0.052  -1.495  25.738  1.00  0.00     0.111 A 
ATOM      6  C   UNL     1      -0.658  -0.833  26.833  1.00  0.00     0.134 A 
ATOM      7  C   UNL     1      -1.997  -1.101  27.154  1.00  0.00     0.093 A 
ATOM      8  C   UNL     1      -2.740  -2.018  26.402  1.00  0.00     0.123 A 
ATOM      9  C   UNL     1      -2.146  -2.674  25.323  1.00  0.00     0.094 A 
ATOM     10  C   UNL     1      -0.813  -2.421  24.987  1.00  0.00     0.146 A 
ATOM     11  O   UNL     1      -0.272  -3.063  23.957  1.00  0.00    -0.452 OA
ENDROOT
BRANCH   1  12
ATOM     12  C   UNL     1       1.475  -3.676  22.412  1.00  0.00     0.025 A 
ATOM     13  C   UNL     1       1.864  -3.931  20.011  1.00  0.00     0.161 A 
ATOM     14  C   UNL     1       2.462  -5.177  20.248  1.00  0.00     0.157 A 
ATOM     15  C   UNL     1       1.377  -3.181  21.099  1.00  0.00     0.062 A 
ATOM     16  C   UNL     1       2.581  -5.661  21.556  1.00  0.00     0.051 A 
ATOM     17  C   UNL     1       2.097  -4.913  22.631  1.00  0.00     0.016 A 
BRANCH  13  18
ATOM     18  O   UNL     1       1.774  -3.475  18.686  1.00  0.00    -0.493 OA
ATOM     19  C   UNL     1       0.552  -3.216  18.004  1.00  0.00     0.278 C 
ENDBRANCH  13  18
BRANCH  14  20
ATOM     20  O   UNL     1       2.942  -5.927  19.175  1.00  0.00    -0.504 OA
ATOM     21  H   UNL     1       3.923  -6.169  19.095  1.00  0.00     0.293 HD
ENDBRANCH  14  20
ENDBRANCH   1  12
BRANCH   2  22
ATOM     22  O   UNL     1       3.114  -1.730  23.807  1.00  0.00    -0.502 OA
ATOM     23  H   UNL     1       3.707  -1.024  24.225  1.00  0.00     0.293 HD
ENDBRANCH   2  22
BRANCH   6  24
ATOM     24  O   UNL     1       0.057   0.088  27.601  1.00  0.00    -0.507 OA
ATOM     25  H   UNL     1       0.561  -0.190  28.435  1.00  0.00     0.293 HD
ENDBRANCH   6  24
BRANCH   8  26
ATOM     26  O   UNL     1      -4.070  -2.285  26.720  1.00  0.00    -0.508 OA
ATOM     27  H   UNL     1      -4.830  -1.958  26.136  1.00  0.00     0.293 HD
ENDBRANCH   8  26
TORSDOF 6
ENDMDL
MODEL 4
REMARK VINA RESULT:    -5.622      3.924      6.271
REMARK INTER + INTRA:          -7.231
REMARK INTER:                  -7.106
REMARK INTRA:                  -0.126
REMARK UNBOUND:                -0.295
REMARK SMILES COc1cc(-c2oc3cc(O)cc(O)c3c(=O)c2O)ccc1O
REMARK SMILES IDX 6 1 18 2 16 3 17 4 15 5 13 6 12 7 10 8 9 9 8 10 7 11 5 12
REMARK SMILES IDX 3 13 22 14 4 15 21 16 20 17 2 18 1 19 23 20 19 22 14 24
REMARK SMILES IDX 11 26
REMARK H PARENT 23 21 19 23 14 25 11 27
REMARK Flexibility Score: inf
ROOT
ATOM      1  C   UNL     1      -2.908  -1.309  23.420  1.00  0.00     0.180 A 
ATOM      2  C   UNL     1      -3.080  -2.102  24.571  1.00  0.00     0.208 A 
ATOM      3  C   UNL     1      -1.957  -2.719  25.144  1.00  0.00     0.238 A 
ATOM      4  O   UNL     1      -2.097  -3.423  26.181  1.00  0.00    -0.285 OA
ATOM      5  C   UNL     1      -0.691  -2.552  24.548  1.00  0.00     0.111 A 
ATOM      6  C   UNL     1       0.490  -3.142  25.059  1.00  0.00     0.134 A 
ATOM      7  C   UNL     1       1.713  -2.936  24.403  1.00  0.00     0.093 A 
ATOM      8  C   UNL     1       1.776  -2.150  23.246  1.00  0.00     0.123 A 
ATOM      9  C   UNL     1       0.615  -1.566  22.739  1.00  0.00     0.094 A 
ATOM     10  C   UNL     1      -0.612  -1.758  23.379  1.00  0.00     0.146 A 
ATOM     11  O   UNL     1      -1.701  -1.186  22.876  1.00  0.00    -0.452 OA
ENDROOT
BRANCH   1  12
ATOM     12  C   UNL     1      -4.041  -0.611  22.769  1.00  0.00     0.025 A 
ATOM     13  C   UNL     1      -5.480  -0.212  20.833  1.00  0.00     0.161 A 
ATOM     14  C   UNL     1      -6.233   0.698  21.590  1.00  0.00     0.157 A 
ATOM     15  C   UNL     1      -4.387  -0.869  21.431  1.00  0.00     0.062 A 
ATOM     16  C   UNL     1      -5.902   0.940  22.929  1.00  0.00     0.051 A 
ATOM     17  C   UNL     1      -4.819   0.285  23.517  1.00  0.00     0.016 A 
BRANCH  13  18
ATOM     18  O   UNL     1      -5.850  -0.436  19.498  1.00  0.00    -0.493 OA
ATOM     19  C   UNL     1      -5.345   0.297  18.387  1.00  0.00     0.278 C 
ENDBRANCH  13  18
BRANCH  14  20
ATOM     20  O   UNL     1      -7.313   1.355  21.003  1.00  0.00    -0.504 OA
ATOM     21  H   UNL     1      -7.199   1.927  20.175  1.00  0.00     0.293 HD
ENDBRANCH  14  20
ENDBRANCH   1  12
BRANCH   2  22
ATOM     22  O   UNL     1      -4.354  -2.292  25.113  1.00  0.00    -0.502 OA
ATOM     23  H   UNL     1      -4.499  -2.719  26.020  1.00  0.00     0.293 HD
ENDBRANCH   2  22
BRANCH   6  24
ATOM     24  O   UNL     1       0.458  -3.931  26.211  1.00  0.00    -0.507 OA
ATOM     25  H   UNL     1       1.169  -4.628  26.400  1.00  0.00     0.293 HD
ENDBRANCH   6  24
BRANCH   8  26
ATOM     26  O   UNL     1       2.990  -1.945  22.594  1.00  0.00    -0.508 OA
ATOM     27  H   UNL     1       3.194  -2.384  21.703  1.00  0.00     0.293 HD
ENDBRANCH   8  26
TORSDOF 6
ENDMDL
MODEL 5
REMARK VINA RESULT:    -5.546      4.421      6.631
REMARK INTER + INTRA:          -7.139
REMARK INTER:                  -6.967
REMARK INTRA:                  -0.172
REMARK UNBOUND:                -0.295
REMARK SMILES COc1cc(-c2oc3cc(O)cc(O)c3c(=O)c2O)ccc1O
REMARK SMILES IDX 6 1 18 2 16 3 17 4 15 5 13 6 12 7 10 8 9 9 8 10 7 11 5 12
REMARK SMILES IDX 3 13 22 14 4 15 21 16 20 17 2 18 1 19 23 20 19 22 14 24
REMARK SMILES IDX 11 26
REMARK H PARENT 23 21 19 23 14 25 11 27
REMARK Flexibility Score: inf
ROOT
ATOM      1  C   UNL     1      -3.363  -1.274  22.556  1.00  0.00     0.180 A 
ATOM      2  C   UNL     1      -3.786  -1.921  23.733  1.00  0.00     0.208 A 
ATOM      3  C   UNL     1      -2.818  -2.416  24.620  1.00  0.00     0.238 A 
ATOM      4  O   UNL     1      -3.185  -2.987  25.683  1.00  0.00    -0.285 OA
ATOM      5  C   UNL     1      -1.450  -2.277  24.308  1.00  0.00     0.111 A 
ATOM      6  C   UNL     1      -0.412  -2.752  25.146  1.00  0.00     0.134 A 
ATOM      7  C   UNL     1       0.926  -2.583  24.760  1.00  0.00     0.093 A 
ATOM      8  C   UNL     1       1.245  -1.950  23.554  1.00  0.00     0.123 A 
ATOM      9  C   UNL     1       0.225  -1.479  22.725  1.00  0.00     0.094 A 
ATOM     10  C   UNL     1      -1.113  -1.636  23.092  1.00  0.00     0.146 A 
ATOM     11  O   UNL     1      -2.064  -1.175  22.286  1.00  0.00    -0.452 OA
ENDROOT
BRANCH   1  12
ATOM     12  C   UNL     1      -4.322  -0.708  21.580  1.00  0.00     0.025 A 
ATOM     13  C   UNL     1      -6.159   0.804  21.016  1.00  0.00     0.161 A 
ATOM     14  C   UNL     1      -6.090   0.379  19.682  1.00  0.00     0.157 A 
ATOM     15  C   UNL     1      -5.267   0.261  21.961  1.00  0.00     0.062 A 
ATOM     16  C   UNL     1      -5.136  -0.570  19.296  1.00  0.00     0.051 A 
ATOM     17  C   UNL     1      -4.253  -1.104  20.237  1.00  0.00     0.016 A 
BRANCH  13  18
ATOM     18  O   UNL     1      -7.122   1.766  21.362  1.00  0.00    -0.493 OA
ATOM     19  C   UNL     1      -7.548   2.038  22.693  1.00  0.00     0.278 C 
ENDBRANCH  13  18
BRANCH  14  20
ATOM     20  O   UNL     1      -6.973   0.910  18.742  1.00  0.00    -0.504 OA
ATOM     21  H   UNL     1      -7.974   0.911  18.898  1.00  0.00     0.293 HD
ENDBRANCH  14  20
ENDBRANCH   1  12
BRANCH   2  22
ATOM     22  O   UNL     1      -5.148  -2.090  23.994  1.00  0.00    -0.502 OA
ATOM     23  H   UNL     1      -5.736  -2.701  23.440  1.00  0.00     0.293 HD
ENDBRANCH   2  22
BRANCH   6  24
ATOM     24  O   UNL     1      -0.699  -3.389  26.354  1.00  0.00    -0.507 OA
ATOM     25  H   UNL     1       0.027  -3.813  26.919  1.00  0.00     0.293 HD
ENDBRANCH   6  24
BRANCH   8  26
ATOM     26  O   UNL     1       2.574  -1.781  23.170  1.00  0.00    -0.508 OA
ATOM     27  H   UNL     1       2.858  -1.847  22.199  1.00  0.00     0.293 HD
ENDBRANCH   8  26
TORSDOF 6
ENDMDL
MODEL 6
REMARK VINA RESULT:    -5.415      3.472      5.429
REMARK INTER + INTRA:          -6.976
REMARK INTER:                  -6.605
REMARK INTRA:                  -0.371
REMARK UNBOUND:                -0.295
REMARK SMILES COc1cc(-c2oc3cc(O)cc(O)c3c(=O)c2O)ccc1O
REMARK SMILES IDX 6 1 18 2 16 3 17 4 15 5 13 6 12 7 10 8 9 9 8 10 7 11 5 12
REMARK SMILES IDX 3 13 22 14 4 15 21 16 20 17 2 18 1 19 23 20 19 22 14 24
REMARK SMILES IDX 11 26
REMARK H PARENT 23 21 19 23 14 25 11 27
REMARK Flexibility Score: inf
ROOT
ATOM      1  C   UNL     1      -1.422  -1.873  23.967  1.00  0.00     0.180 A 
ATOM      2  C   UNL     1      -0.906  -1.114  25.035  1.00  0.00     0.208 A 
ATOM      3  C   UNL     1       0.304  -1.509  25.625  1.00  0.00     0.238 A 
ATOM      4  O   UNL     1       0.782  -0.831  26.575  1.00  0.00    -0.285 OA
ATOM      5  C   UNL     1       0.965  -2.663  25.155  1.00  0.00     0.111 A 
ATOM      6  C   UNL     1       2.186  -3.131  25.697  1.00  0.00     0.134 A 
ATOM      7  C   UNL     1       2.777  -4.293  25.180  1.00  0.00     0.093 A 
ATOM      8  C   UNL     1       2.171  -4.995  24.133  1.00  0.00     0.123 A 
ATOM      9  C   UNL     1       0.968  -4.537  23.594  1.00  0.00     0.094 A 
ATOM     10  C   UNL     1       0.364  -3.381  24.094  1.00  0.00     0.146 A 
ATOM     11  O   UNL     1      -0.779  -2.965  23.560  1.00  0.00    -0.452 OA
ENDROOT
BRANCH   1  12
ATOM     12  C   UNL     1      -2.683  -1.510  23.281  1.00  0.00     0.025 A 
ATOM     13  C   UNL     1      -3.884  -0.511  21.399  1.00  0.00     0.161 A 
ATOM     14  C   UNL     1      -5.101  -0.889  21.985  1.00  0.00     0.157 A 
ATOM     15  C   UNL     1      -2.676  -0.831  22.049  1.00  0.00     0.062 A 
ATOM     16  C   UNL     1      -5.109  -1.584  23.200  1.00  0.00     0.051 A 
ATOM     17  C   UNL     1      -3.909  -1.899  23.840  1.00  0.00     0.016 A 
BRANCH  13  18
ATOM     18  O   UNL     1      -3.917   0.175  20.175  1.00  0.00    -0.493 OA
ATOM     19  C   UNL     1      -3.548   1.539  20.005  1.00  0.00     0.278 C 
ENDBRANCH  13  18
BRANCH  14  20
ATOM     20  O   UNL     1      -6.300  -0.572  21.349  1.00  0.00    -0.504 OA
ATOM     21  H   UNL     1      -6.316  -0.122  20.441  1.00  0.00     0.293 HD
ENDBRANCH  14  20
ENDBRANCH   1  12
BRANCH   2  22
ATOM     22  O   UNL     1      -1.606  -0.005  25.515  1.00  0.00    -0.502 OA
ATOM     23  H   UNL     1      -2.150  -0.033  26.369  1.00  0.00     0.293 HD
ENDBRANCH   2  22
BRANCH   6  24
ATOM     24  O   UNL     1       2.814  -2.453  26.744  1.00  0.00    -0.507 OA
ATOM     25  H   UNL     1       2.740  -1.448  26.849  1.00  0.00     0.293 HD
ENDBRANCH   6  24
BRANCH   8  26
ATOM     26  O   UNL     1       2.758  -6.150  23.618  1.00  0.00    -0.508 OA
ATOM     27  H   UNL     1       2.588  -6.451  22.666  1.00  0.00     0.293 HD
ENDBRANCH   8  26
TORSDOF 6
ENDMDL
MODEL 7
REMARK VINA RESULT:    -5.331      1.963      7.148
REMARK INTER + INTRA:          -6.873
REMARK INTER:                  -6.852
REMARK INTRA:                  -0.021
REMARK UNBOUND:                -0.295
REMARK SMILES COc1cc(-c2oc3cc(O)cc(O)c3c(=O)c2O)ccc1O
REMARK SMILES IDX 6 1 18 2 16 3 17 4 15 5 13 6 12 7 10 8 9 9 8 10 7 11 5 12
REMARK SMILES IDX 3 13 22 14 4 15 21 16 20 17 2 18 1 19 23 20 19 22 14 24
REMARK SMILES IDX 11 26
REMARK H PARENT 23 21 19 23 14 25 11 27
REMARK Flexibility Score: inf
ROOT
ATOM      1  C   UNL     1       1.659  -3.332  23.842  1.00  0.00     0.180 A 
ATOM      2  C   UNL     1       2.247  -4.350  23.067  1.00  0.00     0.208 A 
ATOM      3  C   UNL     1       2.123  -4.296  21.670  1.00  0.00     0.238 A 
ATOM      4  O   UNL     1       2.655  -5.197  20.965  1.00  0.00    -0.285 OA
ATOM      5  C   UNL     1       1.400  -3.244  21.074  1.00  0.00     0.111 A 
ATOM      6  C   UNL     1       1.225  -3.119  19.675  1.00  0.00     0.134 A 
ATOM      7  C   UNL     1       0.482  -2.046  19.159  1.00  0.00     0.093 A 
ATOM      8  C   UNL     1      -0.088  -1.097  20.016  1.00  0.00     0.123 A 
ATOM      9  C   UNL     1       0.083  -1.216  21.395  1.00  0.00     0.094 A 
ATOM     10  C   UNL     1       0.820  -2.276  21.929  1.00  0.00     0.146 A 
ATOM     11  O   UNL     1       0.970  -2.362  23.246  1.00  0.00    -0.452 OA
ENDROOT
BRANCH   1  12
ATOM     12  C   UNL     1       1.762  -3.308  25.319  1.00  0.00     0.025 A 
ATOM     13  C   UNL     1       0.737  -3.134  27.533  1.00  0.00     0.161 A 
ATOM     14  C   UNL     1       1.996  -3.324  28.122  1.00  0.00     0.157 A 
ATOM     15  C   UNL     1       0.625  -3.134  26.128  1.00  0.00     0.062 A 
ATOM     16  C   UNL     1       3.125  -3.519  27.317  1.00  0.00     0.051 A 
ATOM     17  C   UNL     1       3.008  -3.518  25.926  1.00  0.00     0.016 A 
BRANCH  13  18
ATOM     18  O   UNL     1      -0.373  -2.954  28.373  1.00  0.00    -0.493 OA
ATOM     19  C   UNL     1      -1.165  -1.772  28.419  1.00  0.00     0.278 C 
ENDBRANCH  13  18
BRANCH  14  20
ATOM     20  O   UNL     1       2.114  -3.321  29.511  1.00  0.00    -0.504 OA
ATOM     21  H   UNL     1       1.626  -2.642  30.083  1.00  0.00     0.293 HD
ENDBRANCH  14  20
ENDBRANCH   1  12
BRANCH   2  22
ATOM     22  O   UNL     1       2.917  -5.409  23.685  1.00  0.00    -0.502 OA
ATOM     23  H   UNL     1       2.600  -5.817  24.556  1.00  0.00     0.293 HD
ENDBRANCH   2  22
BRANCH   6  24
ATOM     24  O   UNL     1       1.780  -4.050  18.795  1.00  0.00    -0.507 OA
ATOM     25  H   UNL     1       1.332  -4.939  18.607  1.00  0.00     0.293 HD
ENDBRANCH   6  24
BRANCH   8  26
ATOM     26  O   UNL     1      -0.826  -0.032  19.504  1.00  0.00    -0.508 OA
ATOM     27  H   UNL     1      -0.475   0.538  18.742  1.00  0.00     0.293 HD
ENDBRANCH   8  26
TORSDOF 6
ENDMDL
MODEL 8
REMARK VINA RESULT:    -5.236      4.755      7.459
REMARK INTER + INTRA:          -6.755
REMARK INTER:                  -6.446
REMARK INTRA:                  -0.310
REMARK UNBOUND:                -0.295
REMARK SMILES COc1cc(-c2oc3cc(O)cc(O)c3c(=O)c2O)ccc1O
REMARK SMILES IDX 6 1 18 2 16 3 17 4 15 5 13 6 12 7 10 8 9 9 8 10 7 11 5 12
REMARK SMILES IDX 3 13 22 14 4 15 21 16 20 17 2 18 1 19 23 20 19 22 14 24
REMARK SMILES IDX 11 26
REMARK H PARENT 23 21 19 23 14 25 11 27
REMARK Flexibility Score: inf
ROOT
ATOM      1  C   UNL     1      -3.580  -0.884  22.954  1.00  0.00     0.180 A 
ATOM      2  C   UNL     1      -4.432  -0.056  23.710  1.00  0.00     0.208 A 
ATOM      3  C   UNL     1      -5.431   0.674  23.047  1.00  0.00     0.238 A 
ATOM      4  O   UNL     1      -6.207   1.410  23.714  1.00  0.00    -0.285 OA
ATOM      5  C   UNL     1      -5.546   0.583  21.645  1.00  0.00     0.111 A 
ATOM      6  C   UNL     1      -6.522   1.290  20.900  1.00  0.00     0.134 A 
ATOM      7  C   UNL     1      -6.566   1.153  19.505  1.00  0.00     0.093 A 
ATOM      8  C   UNL     1      -5.654   0.325  18.841  1.00  0.00     0.123 A 
ATOM      9  C   UNL     1      -4.692  -0.374  19.570  1.00  0.00     0.094 A 
ATOM     10  C   UNL     1      -4.632  -0.253  20.961  1.00  0.00     0.146 A 
ATOM     11  O   UNL     1      -3.708  -0.933  21.631  1.00  0.00    -0.452 OA
ENDROOT
BRANCH   1  12
ATOM     12  C   UNL     1      -2.515  -1.700  23.582  1.00  0.00     0.025 A 
ATOM     13  C   UNL     1      -0.160  -2.123  24.086  1.00  0.00     0.161 A 
ATOM     14  C   UNL     1      -0.530  -3.247  24.838  1.00  0.00     0.157 A 
ATOM     15  C   UNL     1      -1.159  -1.347  23.465  1.00  0.00     0.062 A 
ATOM     16  C   UNL     1      -1.882  -3.586  24.974  1.00  0.00     0.051 A 
ATOM     17  C   UNL     1      -2.868  -2.814  24.356  1.00  0.00     0.016 A 
BRANCH  13  18
ATOM     18  O   UNL     1       1.204  -1.809  23.983  1.00  0.00    -0.493 OA
ATOM     19  C   UNL     1       2.021  -2.121  22.858  1.00  0.00     0.278 C 
ENDBRANCH  13  18
BRANCH  14  20
ATOM     20  O   UNL     1       0.453  -4.021  25.452  1.00  0.00    -0.504 OA
ATOM     21  H   UNL     1       0.502  -4.113  26.459  1.00  0.00     0.293 HD
ENDBRANCH  14  20
ENDBRANCH   1  12
BRANCH   2  22
ATOM     22  O   UNL     1      -4.265   0.054  25.092  1.00  0.00    -0.502 OA
ATOM     23  H   UNL     1      -4.981   0.439  25.697  1.00  0.00     0.293 HD
ENDBRANCH   2  22
BRANCH   6  24
ATOM     24  O   UNL     1      -7.444   2.124  21.535  1.00  0.00    -0.507 OA
ATOM     25  H   UNL     1      -7.511   3.111  21.313  1.00  0.00     0.293 HD
ENDBRANCH   6  24
BRANCH   8  26
ATOM     26  O   UNL     1      -5.698   0.189  17.455  1.00  0.00    -0.508 OA
ATOM     27  H   UNL     1      -4.859   0.248  16.890  1.00  0.00     0.293 HD
ENDBRANCH   8  26
TORSDOF 6
ENDMDL
MODEL 9
REMARK VINA RESULT:    -5.207      2.075      3.911
REMARK INTER + INTRA:          -6.720
REMARK INTER:                  -6.771
REMARK INTRA:                   0.051
REMARK UNBOUND:                -0.295
REMARK SMILES COc1cc(-c2oc3cc(O)cc(O)c3c(=O)c2O)ccc1O
REMARK SMILES IDX 6 1 18 2 16 3 17 4 15 5 13 6 12 7 10 8 9 9 8 10 7 11 5 12
REMARK SMILES IDX 3 13 22 14 4 15 21 16 20 17 2 18 1 19 23 20 19 22 14 24
REMARK SMILES IDX 11 26
REMARK H PARENT 23 21 19 23 14 25 11 27
REMARK Flexibility Score: inf
ROOT
ATOM      1  C   UNL     1       0.942  -3.654  24.674  1.00  0.00     0.180 A 
ATOM      2  C   UNL     1      -0.332  -3.111  24.932  1.00  0.00     0.208 A 
ATOM      3  C   UNL     1      -0.677  -2.792  26.255  1.00  0.00     0.238 A 
ATOM      4  O   UNL     1      -1.811  -2.296  26.497  1.00  0.00    -0.285 OA
ATOM      5  C   UNL     1       0.243  -3.039  27.294  1.00  0.00     0.111 A 
ATOM      6  C   UNL     1      -0.028  -2.750  28.653  1.00  0.00     0.134 A 
ATOM      7  C   UNL     1       0.937  -3.034  29.632  1.00  0.00     0.093 A 
ATOM      8  C   UNL     1       2.166  -3.600  29.276  1.00  0.00     0.123 A 
ATOM      9  C   UNL     1       2.438  -3.886  27.937  1.00  0.00     0.094 A 
ATOM     10  C   UNL     1       1.491  -3.609  26.948  1.00  0.00     0.146 A 
ATOM     11  O   UNL     1       1.778  -3.887  25.681  1.00  0.00    -0.452 OA
ENDROOT
BRANCH   1  12
ATOM     12  C   UNL     1       1.387  -3.998  23.304  1.00  0.00     0.025 A 
ATOM     13  C   UNL     1       1.535  -3.502  20.914  1.00  0.00     0.161 A 
ATOM     14  C   UNL     1       2.298  -4.663  20.727  1.00  0.00     0.157 A 
ATOM     15  C   UNL     1       1.086  -3.170  22.207  1.00  0.00     0.062 A 
ATOM     16  C   UNL     1       2.617  -5.477  21.822  1.00  0.00     0.051 A 
ATOM     17  C   UNL     1       2.170  -5.143  23.102  1.00  0.00     0.016 A 
BRANCH  13  18
ATOM     18  O   UNL     1       1.246  -2.706  19.794  1.00  0.00    -0.493 OA
ATOM     19  C   UNL     1       0.098  -1.873  19.672  1.00  0.00     0.278 C 
ENDBRANCH  13  18
BRANCH  14  20
ATOM     20  O   UNL     1       2.742  -4.999  19.449  1.00  0.00    -0.504 OA
ATOM     21  H   UNL     1       3.707  -5.252  19.273  1.00  0.00     0.293 HD
ENDBRANCH  14  20
ENDBRANCH   1  12
BRANCH   2  22
ATOM     22  O   UNL     1      -1.243  -2.923  23.891  1.00  0.00    -0.502 OA
ATOM     23  H   UNL     1      -1.879  -2.134  23.861  1.00  0.00     0.293 HD
ENDBRANCH   2  22
BRANCH   6  24
ATOM     24  O   UNL     1      -1.246  -2.186  29.039  1.00  0.00    -0.507 OA
ATOM     25  H   UNL     1      -1.347  -1.681  29.911  1.00  0.00     0.293 HD
ENDBRANCH   6  24
BRANCH   8  26
ATOM     26  O   UNL     1       3.125  -3.882  30.247  1.00  0.00    -0.508 OA
ATOM     27  H   UNL     1       3.355  -3.214  30.974  1.00  0.00     0.293 HD
ENDBRANCH   8  26
TORSDOF 6
ENDMDL
