MODEL 1
REMARK VINA RESULT:    -4.712      0.000      0.000
REMARK INTER + INTRA:         -17.654
REMARK INTER:                 -11.873
REMARK INTRA:                  -5.781
REMARK UNBOUND:                -5.781
REMARK SMILES CCCCCCCCCCCCCCCCCCCCCCCCCCCC(=O)[O-]
REMARK SMILES IDX 15 1 16 2 17 3 18 4 19 5 20 6 21 7 22 8 23 9 24 10 25 11
REMARK SMILES IDX 26 12 27 13 28 14 29 15 30 16 14 17 13 18 12 19 11 20 10 21
REMARK SMILES IDX 9 22 8 23 7 24 6 25 5 26 4 27 3 28 2 29 1 30
REMARK H PARENT
REMARK Flexibility Score: inf
ROOT
ATOM      1  C   UNL     1      24.667  35.176 147.397  1.00  0.00     0.000 C 
ENDROOT
BRANCH   1   2
ATOM      2  C   UNL     1      23.466  36.132 147.359  1.00  0.00     0.000 C 
BRANCH   2   3
ATOM      3  C   UNL     1      23.598  37.307 148.344  1.00  0.00     0.000 C 
BRANCH   3   4
ATOM      4  C   UNL     1      23.697  38.698 147.690  1.00  0.00     0.000 C 
BRANCH   4   5
ATOM      5  C   UNL     1      24.314  39.757 148.616  1.00  0.00     0.000 C 
BRANCH   5   6
ATOM      6  C   UNL     1      24.125  39.372 150.091  1.00  0.00     0.000 C 
BRANCH   6   7
ATOM      7  C   UNL     1      25.345  39.741 150.956  1.00  0.00     0.000 C 
BRANCH   7   8
ATOM      8  C   UNL     1      26.130  40.965 150.436  1.00  0.00     0.000 C 
BRANCH   8   9
ATOM      9  C   UNL     1      27.662  40.809 150.506  1.00  0.00     0.000 C 
BRANCH   9  10
ATOM     10  C   UNL     1      28.403  41.344 149.265  1.00  0.00     0.000 C 
BRANCH  10  11
ATOM     11  C   UNL     1      27.555  41.242 147.985  1.00  0.00     0.000 C 
BRANCH  11  12
ATOM     12  C   UNL     1      28.402  41.323 146.706  1.00  0.00     0.006 C 
BRANCH  12  13
ATOM     13  C   UNL     1      27.620  40.918 145.451  1.00  0.00     0.053 C 
BRANCH  13  14
ATOM     14  C   UNL     1      28.555  40.652 144.315  1.00  0.00     0.041 C 
ATOM     15  O   UNL     1      29.062  41.611 143.675  1.00  0.00    -0.550 OA
ATOM     16  O   UNL     1      28.826  39.346 143.926  1.00  0.00    -0.550 OA
ENDBRANCH  13  14
ENDBRANCH  12  13
ENDBRANCH  11  12
ENDBRANCH  10  11
ENDBRANCH   9  10
ENDBRANCH   8   9
ENDBRANCH   7   8
ENDBRANCH   6   7
ENDBRANCH   5   6
ENDBRANCH   4   5
ENDBRANCH   3   4
ENDBRANCH   2   3
ENDBRANCH   1   2
BRANCH   1  17
ATOM     17  C   UNL     1      24.400  34.001 148.349  1.00  0.00     0.000 C 
BRANCH  17  18
ATOM     18  C   UNL     1      25.690  33.391 148.928  1.00  0.00     0.000 C 
BRANCH  18  19
ATOM     19  C   UNL     1      26.993  33.845 148.245  1.00  0.00     0.000 C 
BRANCH  19  20
ATOM     20  C   UNL     1      28.047  34.350 149.244  1.00  0.00     0.000 C 
BRANCH  20  21
ATOM     21  C   UNL     1      27.444  35.191 150.384  1.00  0.00     0.000 C 
BRANCH  21  22
ATOM     22  C   UNL     1      26.880  36.561 149.965  1.00  0.00    -0.000 C 
BRANCH  22  23
ATOM     23  C   UNL     1      27.875  37.398 149.146  1.00  0.00    -0.000 C 
BRANCH  23  24
ATOM     24  C   UNL     1      27.322  37.692 147.744  1.00  0.00    -0.000 C 
BRANCH  24  25
ATOM     25  C   UNL     1      28.215  37.136 146.620  1.00  0.00    -0.000 C 
BRANCH  25  26
ATOM     26  C   UNL     1      29.675  36.853 147.026  1.00  0.00    -0.000 C 
BRANCH  26  27
ATOM     27  C   UNL     1      30.740  37.612 146.208  1.00  0.00    -0.000 C 
BRANCH  27  28
ATOM     28  C   UNL     1      31.658  38.536 147.031  1.00  0.00    -0.000 C 
BRANCH  28  29
ATOM     29  C   UNL     1      30.989  39.191 148.253  1.00  0.00    -0.003 C 
ATOM     30  C   UNL     1      31.931  39.318 149.450  1.00  0.00     0.004 C 
ENDBRANCH  28  29
ENDBRANCH  27  28
ENDBRANCH  26  27
ENDBRANCH  25  26
ENDBRANCH  24  25
ENDBRANCH  23  24
ENDBRANCH  22  23
ENDBRANCH  21  22
ENDBRANCH  20  21
ENDBRANCH  19  20
ENDBRANCH  18  19
ENDBRANCH  17  18
ENDBRANCH   1  17
TORSDOF 26
ENDMDL
MODEL 2
REMARK VINA RESULT:    -4.665      1.849      5.392
REMARK INTER + INTRA:         -17.537
REMARK INTER:                 -12.628
REMARK INTRA:                  -4.910
REMARK UNBOUND:                -5.781
REMARK SMILES CCCCCCCCCCCCCCCCCCCCCCCCCCCC(=O)[O-]
REMARK SMILES IDX 15 1 16 2 17 3 18 4 19 5 20 6 21 7 22 8 23 9 24 10 25 11
REMARK SMILES IDX 26 12 27 13 28 14 29 15 30 16 14 17 13 18 12 19 11 20 10 21
REMARK SMILES IDX 9 22 8 23 7 24 6 25 5 26 4 27 3 28 2 29 1 30
REMARK H PARENT
REMARK Flexibility Score: inf
ROOT
ATOM      1  C   UNL     1      24.403  37.088 147.355  1.00  0.00     0.000 C 
ENDROOT
BRANCH   1   2
ATOM      2  C   UNL     1      23.435  35.896 147.378  1.00  0.00     0.000 C 
BRANCH   2   3
ATOM      3  C   UNL     1      24.134  34.545 147.147  1.00  0.00     0.000 C 
BRANCH   3   4
ATOM      4  C   UNL     1      24.021  33.546 148.314  1.00  0.00     0.000 C 
BRANCH   4   5
ATOM      5  C   UNL     1      24.775  34.002 149.572  1.00  0.00     0.000 C 
BRANCH   5   6
ATOM      6  C   UNL     1      26.270  34.201 149.275  1.00  0.00     0.000 C 
BRANCH   6   7
ATOM      7  C   UNL     1      26.830  35.486 149.910  1.00  0.00     0.000 C 
BRANCH   7   8
ATOM      8  C   UNL     1      27.749  36.296 148.970  1.00  0.00     0.000 C 
BRANCH   8   9
ATOM      9  C   UNL     1      27.765  35.791 147.514  1.00  0.00     0.000 C 
BRANCH   9  10
ATOM     10  C   UNL     1      28.187  36.860 146.485  1.00  0.00     0.000 C 
BRANCH  10  11
ATOM     11  C   UNL     1      27.834  38.286 146.943  1.00  0.00     0.000 C 
BRANCH  11  12
ATOM     12  C   UNL     1      28.694  39.356 146.254  1.00  0.00     0.006 C 
BRANCH  12  13
ATOM     13  C   UNL     1      28.924  39.064 144.766  1.00  0.00     0.053 C 
BRANCH  13  14
ATOM     14  C   UNL     1      29.585  40.228 144.100  1.00  0.00     0.041 C 
ATOM     15  O   UNL     1      30.621  40.055 143.405  1.00  0.00    -0.550 OA
ATOM     16  O   UNL     1      29.089  41.512 144.289  1.00  0.00    -0.550 OA
ENDBRANCH  13  14
ENDBRANCH  12  13
ENDBRANCH  11  12
ENDBRANCH  10  11
ENDBRANCH   9  10
ENDBRANCH   8   9
ENDBRANCH   7   8
ENDBRANCH   6   7
ENDBRANCH   5   6
ENDBRANCH   4   5
ENDBRANCH   3   4
ENDBRANCH   2   3
ENDBRANCH   1   2
BRANCH   1  17
ATOM     17  C   UNL     1      23.698  38.374 147.808  1.00  0.00     0.000 C 
BRANCH  17  18
ATOM     18  C   UNL     1      23.191  38.303 149.260  1.00  0.00     0.000 C 
BRANCH  18  19
ATOM     19  C   UNL     1      24.016  39.106 150.282  1.00  0.00     0.000 C 
BRANCH  19  20
ATOM     20  C   UNL     1      25.526  39.072 149.991  1.00  0.00     0.000 C 
BRANCH  20  21
ATOM     21  C   UNL     1      26.340  39.994 150.917  1.00  0.00     0.000 C 
BRANCH  21  22
ATOM     22  C   UNL     1      26.641  41.395 150.353  1.00  0.00    -0.000 C 
BRANCH  22  23
ATOM     23  C   UNL     1      27.457  41.357 149.051  1.00  0.00    -0.000 C 
BRANCH  23  24
ATOM     24  C   UNL     1      26.814  42.245 147.975  1.00  0.00    -0.000 C 
BRANCH  24  25
ATOM     25  C   UNL     1      25.673  41.539 147.221  1.00  0.00    -0.000 C 
BRANCH  25  26
ATOM     26  C   UNL     1      24.253  42.000 147.606  1.00  0.00    -0.000 C 
BRANCH  26  27
ATOM     27  C   UNL     1      24.182  43.351 148.345  1.00  0.00    -0.000 C 
BRANCH  27  28
ATOM     28  C   UNL     1      23.668  43.274 149.796  1.00  0.00    -0.000 C 
BRANCH  28  29
ATOM     29  C   UNL     1      23.889  44.550 150.629  1.00  0.00    -0.003 C 
ATOM     30  C   UNL     1      25.321  45.077 150.541  1.00  0.00     0.004 C 
ENDBRANCH  28  29
ENDBRANCH  27  28
ENDBRANCH  26  27
ENDBRANCH  25  26
ENDBRANCH  24  25
ENDBRANCH  23  24
ENDBRANCH  22  23
ENDBRANCH  21  22
ENDBRANCH  20  21
ENDBRANCH  19  20
ENDBRANCH  18  19
ENDBRANCH  17  18
ENDBRANCH   1  17
TORSDOF 26
ENDMDL
MODEL 3
REMARK VINA RESULT:    -4.596      1.290      4.653
REMARK INTER + INTRA:         -17.361
REMARK INTER:                 -12.037
REMARK INTRA:                  -5.324
REMARK UNBOUND:                -5.781
REMARK SMILES CCCCCCCCCCCCCCCCCCCCCCCCCCCC(=O)[O-]
REMARK SMILES IDX 15 1 16 2 17 3 18 4 19 5 20 6 21 7 22 8 23 9 24 10 25 11
REMARK SMILES IDX 26 12 27 13 28 14 29 15 30 16 14 17 13 18 12 19 11 20 10 21
REMARK SMILES IDX 9 22 8 23 7 24 6 25 5 26 4 27 3 28 2 29 1 30
REMARK H PARENT
REMARK Flexibility Score: inf
ROOT
ATOM      1  C   UNL     1      24.306  34.555 148.503  1.00  0.00     0.000 C 
ENDROOT
BRANCH   1   2
ATOM      2  C   UNL     1      24.954  34.483 147.112  1.00  0.00     0.000 C 
BRANCH   2   3
ATOM      3  C   UNL     1      26.488  34.359 147.166  1.00  0.00     0.000 C 
BRANCH   3   4
ATOM      4  C   UNL     1      27.035  33.578 148.376  1.00  0.00     0.000 C 
BRANCH   4   5
ATOM      5  C   UNL     1      28.133  34.339 149.136  1.00  0.00     0.000 C 
BRANCH   5   6
ATOM      6  C   UNL     1      27.542  35.108 150.328  1.00  0.00     0.000 C 
BRANCH   6   7
ATOM      7  C   UNL     1      27.300  36.594 150.006  1.00  0.00     0.000 C 
BRANCH   7   8
ATOM      8  C   UNL     1      28.232  37.154 148.910  1.00  0.00     0.000 C 
BRANCH   8   9
ATOM      9  C   UNL     1      27.494  37.681 147.663  1.00  0.00     0.000 C 
BRANCH   9  10
ATOM     10  C   UNL     1      28.272  37.485 146.346  1.00  0.00     0.000 C 
BRANCH  10  11
ATOM     11  C   UNL     1      29.792  37.397 146.569  1.00  0.00     0.000 C 
BRANCH  11  12
ATOM     12  C   UNL     1      30.576  38.376 145.683  1.00  0.00     0.006 C 
BRANCH  12  13
ATOM     13  C   UNL     1      29.901  38.619 144.328  1.00  0.00     0.053 C 
BRANCH  13  14
ATOM     14  C   UNL     1      30.682  39.609 143.524  1.00  0.00     0.041 C 
ATOM     15  O   UNL     1      31.698  39.239 142.878  1.00  0.00    -0.550 OA
ATOM     16  O   UNL     1      30.321  40.951 143.529  1.00  0.00    -0.550 OA
ENDBRANCH  13  14
ENDBRANCH  12  13
ENDBRANCH  11  12
ENDBRANCH  10  11
ENDBRANCH   9  10
ENDBRANCH   8   9
ENDBRANCH   7   8
ENDBRANCH   6   7
ENDBRANCH   5   6
ENDBRANCH   4   5
ENDBRANCH   3   4
ENDBRANCH   2   3
ENDBRANCH   1   2
BRANCH   1  17
ATOM     17  C   UNL     1      23.969  36.006 148.874  1.00  0.00     0.000 C 
BRANCH  17  18
ATOM     18  C   UNL     1      23.475  36.835 147.674  1.00  0.00     0.000 C 
BRANCH  18  19
ATOM     19  C   UNL     1      24.292  38.105 147.375  1.00  0.00     0.000 C 
BRANCH  19  20
ATOM     20  C   UNL     1      23.515  39.399 147.671  1.00  0.00     0.000 C 
BRANCH  20  21
ATOM     21  C   UNL     1      24.431  40.620 147.873  1.00  0.00     0.000 C 
BRANCH  21  22
ATOM     22  C   UNL     1      24.034  41.558 149.027  1.00  0.00    -0.000 C 
BRANCH  22  23
ATOM     23  C   UNL     1      24.781  41.256 150.335  1.00  0.00    -0.000 C 
BRANCH  23  24
ATOM     24  C   UNL     1      25.700  40.036 150.172  1.00  0.00    -0.000 C 
BRANCH  24  25
ATOM     25  C   UNL     1      26.966  40.121 151.044  1.00  0.00    -0.000 C 
BRANCH  25  26
ATOM     26  C   UNL     1      28.242  40.568 150.302  1.00  0.00    -0.000 C 
BRANCH  26  27
ATOM     27  C   UNL     1      28.001  41.232 148.931  1.00  0.00    -0.000 C 
BRANCH  27  28
ATOM     28  C   UNL     1      29.116  41.004 147.892  1.00  0.00    -0.000 C 
BRANCH  28  29
ATOM     29  C   UNL     1      28.799  41.525 146.479  1.00  0.00    -0.003 C 
ATOM     30  C   UNL     1      27.445  41.045 145.958  1.00  0.00     0.004 C 
ENDBRANCH  28  29
ENDBRANCH  27  28
ENDBRANCH  26  27
ENDBRANCH  25  26
ENDBRANCH  24  25
ENDBRANCH  23  24
ENDBRANCH  22  23
ENDBRANCH  21  22
ENDBRANCH  20  21
ENDBRANCH  19  20
ENDBRANCH  18  19
ENDBRANCH  17  18
ENDBRANCH   1  17
TORSDOF 26
ENDMDL
MODEL 4
REMARK VINA RESULT:    -4.576      1.742      4.785
REMARK INTER + INTRA:         -17.312
REMARK INTER:                 -12.264
REMARK INTRA:                  -5.048
REMARK UNBOUND:                -5.781
REMARK SMILES CCCCCCCCCCCCCCCCCCCCCCCCCCCC(=O)[O-]
REMARK SMILES IDX 15 1 16 2 17 3 18 4 19 5 20 6 21 7 22 8 23 9 24 10 25 11
REMARK SMILES IDX 26 12 27 13 28 14 29 15 30 16 14 17 13 18 12 19 11 20 10 21
REMARK SMILES IDX 9 22 8 23 7 24 6 25 5 26 4 27 3 28 2 29 1 30
REMARK H PARENT
REMARK Flexibility Score: inf
ROOT
ATOM      1  C   UNL     1      23.715  35.036 147.220  1.00  0.00     0.000 C 
ENDROOT
BRANCH   1   2
ATOM      2  C   UNL     1      24.138  33.692 147.829  1.00  0.00     0.000 C 
BRANCH   2   3
ATOM      3  C   UNL     1      25.214  33.835 148.920  1.00  0.00     0.000 C 
BRANCH   3   4
ATOM      4  C   UNL     1      26.625  33.376 148.507  1.00  0.00     0.000 C 
BRANCH   4   5
ATOM      5  C   UNL     1      27.736  34.295 149.038  1.00  0.00     0.000 C 
BRANCH   5   6
ATOM      6  C   UNL     1      27.251  35.096 150.256  1.00  0.00     0.000 C 
BRANCH   6   7
ATOM      7  C   UNL     1      27.344  36.616 150.035  1.00  0.00     0.000 C 
BRANCH   7   8
ATOM      8  C   UNL     1      27.701  37.015 148.587  1.00  0.00     0.000 C 
BRANCH   8   9
ATOM      9  C   UNL     1      27.645  38.531 148.318  1.00  0.00     0.000 C 
BRANCH   9  10
ATOM     10  C   UNL     1      28.403  39.381 149.357  1.00  0.00     0.000 C 
BRANCH  10  11
ATOM     11  C   UNL     1      29.657  40.049 148.767  1.00  0.00     0.000 C 
BRANCH  11  12
ATOM     12  C   UNL     1      30.840  39.077 148.639  1.00  0.00     0.006 C 
BRANCH  12  13
ATOM     13  C   UNL     1      31.428  39.044 147.223  1.00  0.00     0.053 C 
BRANCH  13  14
ATOM     14  C   UNL     1      31.832  37.651 146.857  1.00  0.00     0.041 C 
ATOM     15  O   UNL     1      31.413  37.130 145.790  1.00  0.00    -0.550 OA
ATOM     16  O   UNL     1      32.629  36.908 147.719  1.00  0.00    -0.550 OA
ENDBRANCH  13  14
ENDBRANCH  12  13
ENDBRANCH  11  12
ENDBRANCH  10  11
ENDBRANCH   9  10
ENDBRANCH   8   9
ENDBRANCH   7   8
ENDBRANCH   6   7
ENDBRANCH   5   6
ENDBRANCH   4   5
ENDBRANCH   3   4
ENDBRANCH   2   3
ENDBRANCH   1   2
BRANCH   1  17
ATOM     17  C   UNL     1      24.135  36.203 148.126  1.00  0.00     0.000 C 
BRANCH  17  18
ATOM     18  C   UNL     1      24.182  37.553 147.386  1.00  0.00     0.000 C 
BRANCH  18  19
ATOM     19  C   UNL     1      23.567  38.739 148.150  1.00  0.00     0.000 C 
BRANCH  19  20
ATOM     20  C   UNL     1      23.572  38.536 149.674  1.00  0.00     0.000 C 
BRANCH  20  21
ATOM     21  C   UNL     1      24.532  39.490 150.408  1.00  0.00     0.000 C 
BRANCH  21  22
ATOM     22  C   UNL     1      24.416  40.974 150.014  1.00  0.00    -0.000 C 
BRANCH  22  23
ATOM     23  C   UNL     1      25.772  41.695 149.974  1.00  0.00    -0.000 C 
BRANCH  23  24
ATOM     24  C   UNL     1      25.875  42.603 148.739  1.00  0.00    -0.000 C 
BRANCH  24  25
ATOM     25  C   UNL     1      25.180  42.008 147.501  1.00  0.00    -0.000 C 
BRANCH  25  26
ATOM     26  C   UNL     1      26.054  41.066 146.649  1.00  0.00    -0.000 C 
BRANCH  26  27
ATOM     27  C   UNL     1      27.444  41.622 146.278  1.00  0.00    -0.000 C 
BRANCH  27  28
ATOM     28  C   UNL     1      28.006  41.127 144.931  1.00  0.00    -0.000 C 
BRANCH  28  29
ATOM     29  C   UNL     1      28.633  39.721 144.970  1.00  0.00    -0.003 C 
ATOM     30  C   UNL     1      29.613  39.476 143.824  1.00  0.00     0.004 C 
ENDBRANCH  28  29
ENDBRANCH  27  28
ENDBRANCH  26  27
ENDBRANCH  25  26
ENDBRANCH  24  25
ENDBRANCH  23  24
ENDBRANCH  22  23
ENDBRANCH  21  22
ENDBRANCH  20  21
ENDBRANCH  19  20
ENDBRANCH  18  19
ENDBRANCH  17  18
ENDBRANCH   1  17
TORSDOF 26
ENDMDL
MODEL 5
REMARK VINA RESULT:    -4.555      1.433      4.809
REMARK INTER + INTRA:         -17.259
REMARK INTER:                 -12.053
REMARK INTRA:                  -5.205
REMARK UNBOUND:                -5.781
REMARK SMILES CCCCCCCCCCCCCCCCCCCCCCCCCCCC(=O)[O-]
REMARK SMILES IDX 15 1 16 2 17 3 18 4 19 5 20 6 21 7 22 8 23 9 24 10 25 11
REMARK SMILES IDX 26 12 27 13 28 14 29 15 30 16 14 17 13 18 12 19 11 20 10 21
REMARK SMILES IDX 9 22 8 23 7 24 6 25 5 26 4 27 3 28 2 29 1 30
REMARK H PARENT
REMARK Flexibility Score: inf
ROOT
ATOM      1  C   UNL     1      23.259  35.884 147.302  1.00  0.00     0.000 C 
ENDROOT
BRANCH   1   2
ATOM      2  C   UNL     1      24.195  34.669 147.387  1.00  0.00     0.000 C 
BRANCH   2   3
ATOM      3  C   UNL     1      24.016  33.858 148.682  1.00  0.00     0.000 C 
BRANCH   3   4
ATOM      4  C   UNL     1      25.298  33.667 149.514  1.00  0.00     0.000 C 
BRANCH   4   5
ATOM      5  C   UNL     1      26.180  34.924 149.558  1.00  0.00     0.000 C 
BRANCH   5   6
ATOM      6  C   UNL     1      27.670  34.552 149.519  1.00  0.00     0.000 C 
BRANCH   6   7
ATOM      7  C   UNL     1      28.303  34.802 148.139  1.00  0.00     0.000 C 
BRANCH   7   8
ATOM      8  C   UNL     1      27.454  35.704 147.218  1.00  0.00     0.000 C 
BRANCH   8   9
ATOM      9  C   UNL     1      27.798  37.204 147.311  1.00  0.00     0.000 C 
BRANCH   9  10
ATOM     10  C   UNL     1      28.602  37.738 146.109  1.00  0.00     0.000 C 
BRANCH  10  11
ATOM     11  C   UNL     1      30.120  37.561 146.292  1.00  0.00     0.000 C 
BRANCH  11  12
ATOM     12  C   UNL     1      30.936  38.335 145.246  1.00  0.00     0.006 C 
BRANCH  12  13
ATOM     13  C   UNL     1      30.500  39.800 145.120  1.00  0.00     0.053 C 
BRANCH  13  14
ATOM     14  C   UNL     1      29.988  40.077 143.743  1.00  0.00     0.041 C 
ATOM     15  O   UNL     1      28.830  40.544 143.580  1.00  0.00    -0.550 OA
ATOM     16  O   UNL     1      30.769  39.771 142.635  1.00  0.00    -0.550 OA
ENDBRANCH  13  14
ENDBRANCH  12  13
ENDBRANCH  11  12
ENDBRANCH  10  11
ENDBRANCH   9  10
ENDBRANCH   8   9
ENDBRANCH   7   8
ENDBRANCH   6   7
ENDBRANCH   5   6
ENDBRANCH   4   5
ENDBRANCH   3   4
ENDBRANCH   2   3
ENDBRANCH   1   2
BRANCH   1  17
ATOM     17  C   UNL     1      24.047  37.192 147.460  1.00  0.00     0.000 C 
BRANCH  17  18
ATOM     18  C   UNL     1      23.268  38.276 148.227  1.00  0.00     0.000 C 
BRANCH  18  19
ATOM     19  C   UNL     1      23.830  38.628 149.616  1.00  0.00     0.000 C 
BRANCH  19  20
ATOM     20  C   UNL     1      25.355  38.450 149.706  1.00  0.00     0.000 C 
BRANCH  20  21
ATOM     21  C   UNL     1      26.021  39.442 150.677  1.00  0.00     0.000 C 
BRANCH  21  22
ATOM     22  C   UNL     1      25.232  40.737 150.942  1.00  0.00    -0.000 C 
BRANCH  22  23
ATOM     23  C   UNL     1      26.061  42.008 150.701  1.00  0.00    -0.000 C 
BRANCH  23  24
ATOM     24  C   UNL     1      25.445  42.861 149.582  1.00  0.00    -0.000 C 
BRANCH  24  25
ATOM     25  C   UNL     1      24.307  42.139 148.837  1.00  0.00    -0.000 C 
BRANCH  25  26
ATOM     26  C   UNL     1      24.601  41.808 147.360  1.00  0.00    -0.000 C 
BRANCH  26  27
ATOM     27  C   UNL     1      25.685  40.734 147.134  1.00  0.00    -0.000 C 
BRANCH  27  28
ATOM     28  C   UNL     1      26.935  41.219 146.375  1.00  0.00    -0.000 C 
BRANCH  28  29
ATOM     29  C   UNL     1      28.071  41.747 147.270  1.00  0.00    -0.003 C 
ATOM     30  C   UNL     1      28.558  40.715 148.286  1.00  0.00     0.004 C 
ENDBRANCH  28  29
ENDBRANCH  27  28
ENDBRANCH  26  27
ENDBRANCH  25  26
ENDBRANCH  24  25
ENDBRANCH  23  24
ENDBRANCH  22  23
ENDBRANCH  21  22
ENDBRANCH  20  21
ENDBRANCH  19  20
ENDBRANCH  18  19
ENDBRANCH  17  18
ENDBRANCH   1  17
TORSDOF 26
ENDMDL
MODEL 6
REMARK VINA RESULT:    -4.545      1.670      5.118
REMARK INTER + INTRA:         -17.233
REMARK INTER:                 -12.318
REMARK INTRA:                  -4.915
REMARK UNBOUND:                -5.781
REMARK SMILES CCCCCCCCCCCCCCCCCCCCCCCCCCCC(=O)[O-]
REMARK SMILES IDX 15 1 16 2 17 3 18 4 19 5 20 6 21 7 22 8 23 9 24 10 25 11
REMARK SMILES IDX 26 12 27 13 28 14 29 15 30 16 14 17 13 18 12 19 11 20 10 21
REMARK SMILES IDX 9 22 8 23 7 24 6 25 5 26 4 27 3 28 2 29 1 30
REMARK H PARENT
REMARK Flexibility Score: inf
ROOT
ATOM      1  C   UNL     1      24.354  38.198 147.372  1.00  0.00     0.000 C 
ENDROOT
BRANCH   1   2
ATOM      2  C   UNL     1      23.988  36.957 148.198  1.00  0.00     0.000 C 
BRANCH   2   3
ATOM      3  C   UNL     1      23.328  35.847 147.360  1.00  0.00     0.000 C 
BRANCH   3   4
ATOM      4  C   UNL     1      24.223  34.625 147.077  1.00  0.00     0.000 C 
BRANCH   4   5
ATOM      5  C   UNL     1      23.801  33.375 147.864  1.00  0.00     0.000 C 
BRANCH   5   6
ATOM      6  C   UNL     1      24.910  32.936 148.833  1.00  0.00     0.000 C 
BRANCH   6   7
ATOM      7  C   UNL     1      25.449  34.105 149.678  1.00  0.00     0.000 C 
BRANCH   7   8
ATOM      8  C   UNL     1      26.922  34.461 149.381  1.00  0.00     0.000 C 
BRANCH   8   9
ATOM      9  C   UNL     1      27.361  35.833 149.927  1.00  0.00     0.000 C 
BRANCH   9  10
ATOM     10  C   UNL     1      27.690  36.867 148.830  1.00  0.00     0.000 C 
BRANCH  10  11
ATOM     11  C   UNL     1      27.587  36.273 147.414  1.00  0.00     0.000 C 
BRANCH  11  12
ATOM     12  C   UNL     1      28.364  37.092 146.373  1.00  0.00     0.006 C 
BRANCH  12  13
ATOM     13  C   UNL     1      29.510  37.902 146.991  1.00  0.00     0.053 C 
BRANCH  13  14
ATOM     14  C   UNL     1      30.823  37.236 146.728  1.00  0.00     0.041 C 
ATOM     15  O   UNL     1      31.098  36.138 147.281  1.00  0.00    -0.550 OA
ATOM     16  O   UNL     1      31.765  37.852 145.914  1.00  0.00    -0.550 OA
ENDBRANCH  13  14
ENDBRANCH  12  13
ENDBRANCH  11  12
ENDBRANCH  10  11
ENDBRANCH   9  10
ENDBRANCH   8   9
ENDBRANCH   7   8
ENDBRANCH   6   7
ENDBRANCH   5   6
ENDBRANCH   4   5
ENDBRANCH   3   4
ENDBRANCH   2   3
ENDBRANCH   1   2
BRANCH   1  17
ATOM     17  C   UNL     1      23.439  39.379 147.726  1.00  0.00     0.000 C 
BRANCH  17  18
ATOM     18  C   UNL     1      24.185  40.725 147.780  1.00  0.00     0.000 C 
BRANCH  18  19
ATOM     19  C   UNL     1      24.308  41.350 149.181  1.00  0.00     0.000 C 
BRANCH  19  20
ATOM     20  C   UNL     1      24.586  40.309 150.278  1.00  0.00     0.000 C 
BRANCH  20  21
ATOM     21  C   UNL     1      26.039  39.800 150.273  1.00  0.00     0.000 C 
BRANCH  21  22
ATOM     22  C   UNL     1      27.118  40.888 150.120  1.00  0.00    -0.000 C 
BRANCH  22  23
ATOM     23  C   UNL     1      28.238  40.493 149.145  1.00  0.00    -0.000 C 
BRANCH  23  24
ATOM     24  C   UNL     1      28.639  41.681 148.258  1.00  0.00    -0.000 C 
BRANCH  24  25
ATOM     25  C   UNL     1      27.557  42.048 147.226  1.00  0.00    -0.000 C 
BRANCH  25  26
ATOM     26  C   UNL     1      27.290  40.976 146.151  1.00  0.00    -0.000 C 
BRANCH  26  27
ATOM     27  C   UNL     1      27.933  41.255 144.777  1.00  0.00    -0.000 C 
BRANCH  27  28
ATOM     28  C   UNL     1      28.801  40.111 144.220  1.00  0.00    -0.000 C 
BRANCH  28  29
ATOM     29  C   UNL     1      30.275  40.479 143.971  1.00  0.00    -0.003 C 
ATOM     30  C   UNL     1      30.939  41.127 145.185  1.00  0.00     0.004 C 
ENDBRANCH  28  29
ENDBRANCH  27  28
ENDBRANCH  26  27
ENDBRANCH  25  26
ENDBRANCH  24  25
ENDBRANCH  23  24
ENDBRANCH  22  23
ENDBRANCH  21  22
ENDBRANCH  20  21
ENDBRANCH  19  20
ENDBRANCH  18  19
ENDBRANCH  17  18
ENDBRANCH   1  17
TORSDOF 26
ENDMDL
MODEL 7
REMARK VINA RESULT:    -4.531      2.910      5.629
REMARK INTER + INTRA:         -17.199
REMARK INTER:                 -11.634
REMARK INTRA:                  -5.565
REMARK UNBOUND:                -5.781
REMARK SMILES CCCCCCCCCCCCCCCCCCCCCCCCCCCC(=O)[O-]
REMARK SMILES IDX 15 1 16 2 17 3 18 4 19 5 20 6 21 7 22 8 23 9 24 10 25 11
REMARK SMILES IDX 26 12 27 13 28 14 29 15 30 16 14 17 13 18 12 19 11 20 10 21
REMARK SMILES IDX 9 22 8 23 7 24 6 25 5 26 4 27 3 28 2 29 1 30
REMARK H PARENT
REMARK Flexibility Score: inf
ROOT
ATOM      1  C   UNL     1      25.994  40.058 147.244  1.00  0.00     0.000 C 
ENDROOT
BRANCH   1   2
ATOM      2  C   UNL     1      24.730  40.909 147.436  1.00  0.00     0.000 C 
BRANCH   2   3
ATOM      3  C   UNL     1      24.750  41.736 148.734  1.00  0.00     0.000 C 
BRANCH   3   4
ATOM      4  C   UNL     1      24.298  40.978 149.996  1.00  0.00     0.000 C 
BRANCH   4   5
ATOM      5  C   UNL     1      25.403  40.863 151.057  1.00  0.00     0.000 C 
BRANCH   5   6
ATOM      6  C   UNL     1      26.181  39.547 150.899  1.00  0.00     0.000 C 
BRANCH   6   7
ATOM      7  C   UNL     1      27.624  39.773 150.413  1.00  0.00     0.000 C 
BRANCH   7   8
ATOM      8  C   UNL     1      28.144  41.208 150.647  1.00  0.00     0.000 C 
BRANCH   8   9
ATOM      9  C   UNL     1      28.549  41.950 149.359  1.00  0.00     0.000 C 
BRANCH   9  10
ATOM     10  C   UNL     1      27.915  43.349 149.217  1.00  0.00     0.000 C 
BRANCH  10  11
ATOM     11  C   UNL     1      27.359  43.880 150.550  1.00  0.00     0.000 C 
BRANCH  11  12
ATOM     12  C   UNL     1      26.941  45.356 150.470  1.00  0.00     0.006 C 
BRANCH  12  13
ATOM     13  C   UNL     1      25.522  45.599 150.998  1.00  0.00     0.053 C 
BRANCH  13  14
ATOM     14  C   UNL     1      24.507  45.168 149.988  1.00  0.00     0.041 C 
ATOM     15  O   UNL     1      24.700  45.387 148.763  1.00  0.00    -0.550 OA
ATOM     16  O   UNL     1      23.322  44.571 150.401  1.00  0.00    -0.550 OA
ENDBRANCH  13  14
ENDBRANCH  12  13
ENDBRANCH  11  12
ENDBRANCH  10  11
ENDBRANCH   9  10
ENDBRANCH   8   9
ENDBRANCH   7   8
ENDBRANCH   6   7
ENDBRANCH   5   6
ENDBRANCH   4   5
ENDBRANCH   3   4
ENDBRANCH   2   3
ENDBRANCH   1   2
BRANCH   1  17
ATOM     17  C   UNL     1      27.022  40.796 146.375  1.00  0.00     0.000 C 
BRANCH  17  18
ATOM     18  C   UNL     1      28.224  39.915 145.985  1.00  0.00     0.000 C 
BRANCH  18  19
ATOM     19  C   UNL     1      28.531  38.760 146.956  1.00  0.00     0.000 C 
BRANCH  19  20
ATOM     20  C   UNL     1      28.422  37.377 146.293  1.00  0.00     0.000 C 
BRANCH  20  21
ATOM     21  C   UNL     1      27.651  36.356 147.150  1.00  0.00     0.000 C 
BRANCH  21  22
ATOM     22  C   UNL     1      27.751  36.564 148.672  1.00  0.00    -0.000 C 
BRANCH  22  23
ATOM     23  C   UNL     1      27.118  35.421 149.480  1.00  0.00    -0.000 C 
BRANCH  23  24
ATOM     24  C   UNL     1      26.764  34.235 148.569  1.00  0.00    -0.000 C 
BRANCH  24  25
ATOM     25  C   UNL     1      25.253  33.943 148.529  1.00  0.00    -0.000 C 
BRANCH  25  26
ATOM     26  C   UNL     1      24.561  34.267 147.190  1.00  0.00    -0.000 C 
BRANCH  26  27
ATOM     27  C   UNL     1      23.447  35.331 147.271  1.00  0.00    -0.000 C 
BRANCH  27  28
ATOM     28  C   UNL     1      23.940  36.789 147.321  1.00  0.00    -0.000 C 
BRANCH  28  29
ATOM     29  C   UNL     1      24.098  37.370 148.738  1.00  0.00    -0.003 C 
ATOM     30  C   UNL     1      22.784  37.893 149.317  1.00  0.00     0.004 C 
ENDBRANCH  28  29
ENDBRANCH  27  28
ENDBRANCH  26  27
ENDBRANCH  25  26
ENDBRANCH  24  25
ENDBRANCH  23  24
ENDBRANCH  22  23
ENDBRANCH  21  22
ENDBRANCH  20  21
ENDBRANCH  19  20
ENDBRANCH  18  19
ENDBRANCH  17  18
ENDBRANCH   1  17
TORSDOF 26
ENDMDL
MODEL 8
REMARK VINA RESULT:    -4.504      2.281      5.745
REMARK INTER + INTRA:         -17.131
REMARK INTER:                 -11.494
REMARK INTRA:                  -5.637
REMARK UNBOUND:                -5.781
REMARK SMILES CCCCCCCCCCCCCCCCCCCCCCCCCCCC(=O)[O-]
REMARK SMILES IDX 15 1 16 2 17 3 18 4 19 5 20 6 21 7 22 8 23 9 24 10 25 11
REMARK SMILES IDX 26 12 27 13 28 14 29 15 30 16 14 17 13 18 12 19 11 20 10 21
REMARK SMILES IDX 9 22 8 23 7 24 6 25 5 26 4 27 3 28 2 29 1 30
REMARK H PARENT
REMARK Flexibility Score: inf
ROOT
ATOM      1  C   UNL     1      27.322  37.738 147.451  1.00  0.00     0.000 C 
ENDROOT
BRANCH   1   2
ATOM      2  C   UNL     1      27.795  38.585 148.641  1.00  0.00     0.000 C 
BRANCH   2   3
ATOM      3  C   UNL     1      27.083  38.228 149.958  1.00  0.00     0.000 C 
BRANCH   3   4
ATOM      4  C   UNL     1      26.217  39.353 150.556  1.00  0.00     0.000 C 
BRANCH   4   5
ATOM      5  C   UNL     1      26.009  40.530 149.591  1.00  0.00     0.000 C 
BRANCH   5   6
ATOM      6  C   UNL     1      24.551  40.595 149.110  1.00  0.00     0.000 C 
BRANCH   6   7
ATOM      7  C   UNL     1      24.363  39.975 147.714  1.00  0.00     0.000 C 
BRANCH   7   8
ATOM      8  C   UNL     1      23.272  38.884 147.657  1.00  0.00     0.000 C 
BRANCH   8   9
ATOM      9  C   UNL     1      23.700  37.532 148.260  1.00  0.00     0.000 C 
BRANCH   9  10
ATOM     10  C   UNL     1      23.527  36.336 147.301  1.00  0.00     0.000 C 
BRANCH  10  11
ATOM     11  C   UNL     1      24.146  35.042 147.859  1.00  0.00     0.000 C 
BRANCH  11  12
ATOM     12  C   UNL     1      25.274  35.313 148.866  1.00  0.00     0.006 C 
BRANCH  12  13
ATOM     13  C   UNL     1      26.097  34.059 149.184  1.00  0.00     0.053 C 
BRANCH  13  14
ATOM     14  C   UNL     1      27.503  34.431 149.532  1.00  0.00     0.041 C 
ATOM     15  O   UNL     1      28.425  34.286 148.686  1.00  0.00    -0.550 OA
ATOM     16  O   UNL     1      27.807  34.888 150.808  1.00  0.00    -0.550 OA
ENDBRANCH  13  14
ENDBRANCH  12  13
ENDBRANCH  11  12
ENDBRANCH  10  11
ENDBRANCH   9  10
ENDBRANCH   8   9
ENDBRANCH   7   8
ENDBRANCH   6   7
ENDBRANCH   5   6
ENDBRANCH   4   5
ENDBRANCH   3   4
ENDBRANCH   2   3
ENDBRANCH   1   2
BRANCH   1  17
ATOM     17  C   UNL     1      28.519  37.158 146.683  1.00  0.00     0.000 C 
BRANCH  17  18
ATOM     18  C   UNL     1      29.865  37.414 147.385  1.00  0.00     0.000 C 
BRANCH  18  19
ATOM     19  C   UNL     1      30.911  38.165 146.542  1.00  0.00     0.000 C 
BRANCH  19  20
ATOM     20  C   UNL     1      31.912  38.958 147.399  1.00  0.00     0.000 C 
BRANCH  20  21
ATOM     21  C   UNL     1      31.528  39.002 148.889  1.00  0.00     0.000 C 
BRANCH  21  22
ATOM     22  C   UNL     1      31.566  40.398 149.539  1.00  0.00    -0.000 C 
BRANCH  22  23
ATOM     23  C   UNL     1      30.169  40.952 149.857  1.00  0.00    -0.000 C 
BRANCH  23  24
ATOM     24  C   UNL     1      29.925  42.280 149.124  1.00  0.00    -0.000 C 
BRANCH  24  25
ATOM     25  C   UNL     1      28.794  42.188 148.083  1.00  0.00    -0.000 C 
BRANCH  25  26
ATOM     26  C   UNL     1      29.159  41.441 146.785  1.00  0.00    -0.000 C 
BRANCH  26  27
ATOM     27  C   UNL     1      27.961  41.046 145.899  1.00  0.00    -0.000 C 
BRANCH  27  28
ATOM     28  C   UNL     1      28.267  40.953 144.392  1.00  0.00    -0.000 C 
BRANCH  28  29
ATOM     29  C   UNL     1      28.901  39.625 143.941  1.00  0.00    -0.003 C 
ATOM     30  C   UNL     1      30.261  39.812 143.270  1.00  0.00     0.004 C 
ENDBRANCH  28  29
ENDBRANCH  27  28
ENDBRANCH  26  27
ENDBRANCH  25  26
ENDBRANCH  24  25
ENDBRANCH  23  24
ENDBRANCH  22  23
ENDBRANCH  21  22
ENDBRANCH  20  21
ENDBRANCH  19  20
ENDBRANCH  18  19
ENDBRANCH  17  18
ENDBRANCH   1  17
TORSDOF 26
ENDMDL
MODEL 9
REMARK VINA RESULT:    -4.483      2.987      4.080
REMARK INTER + INTRA:         -17.078
REMARK INTER:                 -12.343
REMARK INTRA:                  -4.735
REMARK UNBOUND:                -5.781
REMARK SMILES CCCCCCCCCCCCCCCCCCCCCCCCCCCC(=O)[O-]
REMARK SMILES IDX 15 1 16 2 17 3 18 4 19 5 20 6 21 7 22 8 23 9 24 10 25 11
REMARK SMILES IDX 26 12 27 13 28 14 29 15 30 16 14 17 13 18 12 19 11 20 10 21
REMARK SMILES IDX 9 22 8 23 7 24 6 25 5 26 4 27 3 28 2 29 1 30
REMARK H PARENT
REMARK Flexibility Score: inf
ROOT
ATOM      1  C   UNL     1      23.632  36.247 147.364  1.00  0.00     0.000 C 
ENDROOT
BRANCH   1   2
ATOM      2  C   UNL     1      23.620  36.824 148.787  1.00  0.00     0.000 C 
BRANCH   2   3
ATOM      3  C   UNL     1      23.010  38.235 148.862  1.00  0.00     0.000 C 
BRANCH   3   4
ATOM      4  C   UNL     1      23.495  39.212 147.774  1.00  0.00     0.000 C 
BRANCH   4   5
ATOM      5  C   UNL     1      24.175  40.464 148.350  1.00  0.00     0.000 C 
BRANCH   5   6
ATOM      6  C   UNL     1      24.393  40.323 149.864  1.00  0.00     0.000 C 
BRANCH   6   7
ATOM      7  C   UNL     1      25.870  40.082 150.226  1.00  0.00     0.000 C 
BRANCH   7   8
ATOM      8  C   UNL     1      26.578  41.323 150.812  1.00  0.00     0.000 C 
BRANCH   8   9
ATOM      9  C   UNL     1      27.827  41.766 150.026  1.00  0.00     0.000 C 
BRANCH   9  10
ATOM     10  C   UNL     1      27.725  43.188 149.437  1.00  0.00     0.000 C 
BRANCH  10  11
ATOM     11  C   UNL     1      26.515  43.350 148.501  1.00  0.00     0.000 C 
BRANCH  11  12
ATOM     12  C   UNL     1      25.744  44.654 148.752  1.00  0.00     0.006 C 
BRANCH  12  13
ATOM     13  C   UNL     1      25.408  44.867 150.233  1.00  0.00     0.053 C 
BRANCH  13  14
ATOM     14  C   UNL     1      23.953  44.627 150.480  1.00  0.00     0.041 C 
ATOM     15  O   UNL     1      23.103  45.495 150.149  1.00  0.00    -0.550 OA
ATOM     16  O   UNL     1      23.537  43.468 151.123  1.00  0.00    -0.550 OA
ENDBRANCH  13  14
ENDBRANCH  12  13
ENDBRANCH  11  12
ENDBRANCH  10  11
ENDBRANCH   9  10
ENDBRANCH   8   9
ENDBRANCH   7   8
ENDBRANCH   6   7
ENDBRANCH   5   6
ENDBRANCH   4   5
ENDBRANCH   3   4
ENDBRANCH   2   3
ENDBRANCH   1   2
BRANCH   1  17
ATOM     17  C   UNL     1      24.051  34.769 147.378  1.00  0.00     0.000 C 
BRANCH  17  18
ATOM     18  C   UNL     1      24.382  34.250 148.789  1.00  0.00     0.000 C 
BRANCH  18  19
ATOM     19  C   UNL     1      25.594  33.305 148.871  1.00  0.00     0.000 C 
BRANCH  19  20
ATOM     20  C   UNL     1      26.937  34.053 148.871  1.00  0.00     0.000 C 
BRANCH  20  21
ATOM     21  C   UNL     1      27.024  35.137 149.961  1.00  0.00     0.000 C 
BRANCH  21  22
ATOM     22  C   UNL     1      27.354  36.554 149.457  1.00  0.00    -0.000 C 
BRANCH  22  23
ATOM     23  C   UNL     1      27.496  36.633 147.929  1.00  0.00    -0.000 C 
BRANCH  23  24
ATOM     24  C   UNL     1      26.870  37.926 147.385  1.00  0.00    -0.000 C 
BRANCH  24  25
ATOM     25  C   UNL     1      27.922  38.976 146.983  1.00  0.00    -0.000 C 
BRANCH  25  26
ATOM     26  C   UNL     1      27.360  40.377 146.670  1.00  0.00    -0.000 C 
BRANCH  26  27
ATOM     27  C   UNL     1      28.298  41.289 145.854  1.00  0.00    -0.000 C 
BRANCH  27  28
ATOM     28  C   UNL     1      28.146  41.179 144.325  1.00  0.00    -0.000 C 
BRANCH  28  29
ATOM     29  C   UNL     1      29.146  40.229 143.642  1.00  0.00    -0.003 C 
ATOM     30  C   UNL     1      30.433  40.931 143.209  1.00  0.00     0.004 C 
ENDBRANCH  28  29
ENDBRANCH  27  28
ENDBRANCH  26  27
ENDBRANCH  25  26
ENDBRANCH  24  25
ENDBRANCH  23  24
ENDBRANCH  22  23
ENDBRANCH  21  22
ENDBRANCH  20  21
ENDBRANCH  19  20
ENDBRANCH  18  19
ENDBRANCH  17  18
ENDBRANCH   1  17
TORSDOF 26
ENDMDL
