MODEL 1
REMARK VINA RESULT:    10.364      0.000      0.000
REMARK INTER + INTRA:          18.000
REMARK INTER:                  18.847
REMARK INTRA:                  -0.847
REMARK UNBOUND:                -0.847
REMARK SMILES CCCCCCCCCCCCCCCC(=O)[O-]
REMARK SMILES IDX 9 1 10 2 11 3 12 4 13 5 14 6 15 7 16 8 17 9 18 10 8 11 7 12
REMARK SMILES IDX 6 13 5 14 4 15 3 16 2 17 1 18
REMARK H PARENT
REMARK Flexibility Score: inf
ROOT
ATOM      1  C   UNL     1       2.419  -8.492  10.404  1.00  0.00     0.000 C 
ENDROOT
BRANCH   1   2
ATOM      2  C   UNL     1       1.271  -8.210  11.387  1.00  0.00     0.000 C 
BRANCH   2   3
ATOM      3  C   UNL     1      -0.081  -8.736  10.885  1.00  0.00     0.000 C 
BRANCH   3   4
ATOM      4  C   UNL     1      -1.050  -7.579  10.603  1.00  0.00     0.000 C 
BRANCH   4   5
ATOM      5  C   UNL     1      -0.766  -6.867   9.267  1.00  0.00     0.000 C 
BRANCH   5   6
ATOM      6  C   UNL     1      -0.065  -5.502   9.393  1.00  0.00     0.006 C 
BRANCH   6   7
ATOM      7  C   UNL     1       1.442  -5.575   9.117  1.00  0.00     0.053 C 
BRANCH   7   8
ATOM      8  C   UNL     1       2.202  -4.803  10.151  1.00  0.00     0.041 C 
ATOM      9  O   UNL     1       2.569  -5.365  11.216  1.00  0.00    -0.550 OA
ATOM     10  O   UNL     1       2.544  -3.478   9.917  1.00  0.00    -0.550 OA
ENDBRANCH   7   8
ENDBRANCH   6   7
ENDBRANCH   5   6
ENDBRANCH   4   5
ENDBRANCH   3   4
ENDBRANCH   2   3
ENDBRANCH   1   2
BRANCH   1  11
ATOM     11  C   UNL     1       3.792  -8.543  11.097  1.00  0.00     0.000 C 
BRANCH  11  12
ATOM     12  C   UNL     1       3.709  -8.219  12.597  1.00  0.00    -0.000 C 
BRANCH  12  13
ATOM     13  C   UNL     1       4.937  -7.442  13.101  1.00  0.00    -0.000 C 
BRANCH  13  14
ATOM     14  C   UNL     1       5.747  -6.813  11.956  1.00  0.00    -0.000 C 
BRANCH  14  15
ATOM     15  C   UNL     1       7.242  -6.687  12.293  1.00  0.00    -0.000 C 
BRANCH  15  16
ATOM     16  C   UNL     1       7.522  -6.759  13.804  1.00  0.00    -0.000 C 
BRANCH  16  17
ATOM     17  C   UNL     1       7.962  -5.412  14.414  1.00  0.00    -0.003 C 
ATOM     18  C   UNL     1       6.985  -4.907  15.477  1.00  0.00     0.004 C 
ENDBRANCH  16  17
ENDBRANCH  15  16
ENDBRANCH  14  15
ENDBRANCH  13  14
ENDBRANCH  12  13
ENDBRANCH  11  12
ENDBRANCH   1  11
TORSDOF 14
ENDMDL
MODEL 2
REMARK VINA RESULT:    10.525      2.330      6.525
REMARK INTER + INTRA:          18.291
REMARK INTER:                  18.850
REMARK INTRA:                  -0.559
REMARK UNBOUND:                -0.847
REMARK SMILES CCCCCCCCCCCCCCCC(=O)[O-]
REMARK SMILES IDX 9 1 10 2 11 3 12 4 13 5 14 6 15 7 16 8 17 9 18 10 8 11 7 12
REMARK SMILES IDX 6 13 5 14 4 15 3 16 2 17 1 18
REMARK H PARENT
REMARK Flexibility Score: inf
ROOT
ATOM      1  C   UNL     1       2.235  -8.282  10.886  1.00  0.00     0.000 C 
ENDROOT
BRANCH   1   2
ATOM      2  C   UNL     1       3.751  -8.270  11.140  1.00  0.00     0.000 C 
BRANCH   2   3
ATOM      3  C   UNL     1       4.110  -8.594  12.598  1.00  0.00     0.000 C 
BRANCH   3   4
ATOM      4  C   UNL     1       5.056  -7.534  13.179  1.00  0.00     0.000 C 
BRANCH   4   5
ATOM      5  C   UNL     1       5.808  -6.739  12.096  1.00  0.00     0.000 C 
BRANCH   5   6
ATOM      6  C   UNL     1       7.292  -6.467  12.401  1.00  0.00     0.006 C 
BRANCH   6   7
ATOM      7  C   UNL     1       7.685  -6.829  13.839  1.00  0.00     0.053 C 
BRANCH   7   8
ATOM      8  C   UNL     1       7.961  -5.591  14.634  1.00  0.00     0.041 C 
ATOM      9  O   UNL     1       9.139  -5.158  14.741  1.00  0.00    -0.550 OA
ATOM     10  O   UNL     1       6.913  -4.891  15.216  1.00  0.00    -0.550 OA
ENDBRANCH   7   8
ENDBRANCH   6   7
ENDBRANCH   5   6
ENDBRANCH   4   5
ENDBRANCH   3   4
ENDBRANCH   2   3
ENDBRANCH   1   2
BRANCH   1  11
ATOM     11  C   UNL     1       1.429  -7.774  12.095  1.00  0.00     0.000 C 
BRANCH  11  12
ATOM     12  C   UNL     1      -0.085  -7.760  11.830  1.00  0.00    -0.000 C 
BRANCH  12  13
ATOM     13  C   UNL     1      -0.467  -8.525  10.551  1.00  0.00    -0.000 C 
BRANCH  13  14
ATOM     14  C   UNL     1      -0.942  -7.592   9.426  1.00  0.00    -0.000 C 
BRANCH  14  15
ATOM     15  C   UNL     1      -0.629  -6.115   9.714  1.00  0.00    -0.000 C 
BRANCH  15  16
ATOM     16  C   UNL     1       0.716  -5.663   9.119  1.00  0.00    -0.000 C 
BRANCH  16  17
ATOM     17  C   UNL     1       1.764  -5.279  10.185  1.00  0.00    -0.003 C 
ATOM     18  C   UNL     1       2.458  -3.954   9.870  1.00  0.00     0.004 C 
ENDBRANCH  16  17
ENDBRANCH  15  16
ENDBRANCH  14  15
ENDBRANCH  13  14
ENDBRANCH  12  13
ENDBRANCH  11  12
ENDBRANCH   1  11
TORSDOF 14
ENDMDL
MODEL 3
REMARK VINA RESULT:    10.909      1.131      1.713
REMARK INTER + INTRA:          18.991
REMARK INTER:                  16.755
REMARK INTRA:                   2.235
REMARK UNBOUND:                -0.847
REMARK SMILES CCCCCCCCCCCCCCCC(=O)[O-]
REMARK SMILES IDX 9 1 10 2 11 3 12 4 13 5 14 6 15 7 16 8 17 9 18 10 8 11 7 12
REMARK SMILES IDX 6 13 5 14 4 15 3 16 2 17 1 18
REMARK H PARENT
REMARK Flexibility Score: inf
ROOT
ATOM      1  C   UNL     1       1.958  -8.688  10.893  1.00  0.00     0.000 C 
ENDROOT
BRANCH   1   2
ATOM      2  C   UNL     1       0.666  -8.995  10.118  1.00  0.00     0.000 C 
BRANCH   2   3
ATOM      3  C   UNL     1      -0.493  -8.065  10.507  1.00  0.00     0.000 C 
BRANCH   3   4
ATOM      4  C   UNL     1      -0.287  -7.490  11.915  1.00  0.00     0.000 C 
BRANCH   4   5
ATOM      5  C   UNL     1       1.198  -7.299  12.277  1.00  0.00     0.000 C 
BRANCH   5   6
ATOM      6  C   UNL     1       1.710  -5.851  12.181  1.00  0.00     0.006 C 
BRANCH   6   7
ATOM      7  C   UNL     1       2.798  -5.669  11.114  1.00  0.00     0.053 C 
BRANCH   7   8
ATOM      8  C   UNL     1       2.294  -4.815   9.993  1.00  0.00     0.041 C 
ATOM      9  O   UNL     1       1.513  -5.298   9.132  1.00  0.00    -0.550 OA
ATOM     10  O   UNL     1       2.650  -3.474   9.927  1.00  0.00    -0.550 OA
ENDBRANCH   7   8
ENDBRANCH   6   7
ENDBRANCH   5   6
ENDBRANCH   4   5
ENDBRANCH   3   4
ENDBRANCH   2   3
ENDBRANCH   1   2
BRANCH   1  11
ATOM     11  C   UNL     1       3.225  -9.055  10.100  1.00  0.00     0.000 C 
BRANCH  11  12
ATOM     12  C   UNL     1       4.514  -8.624  10.817  1.00  0.00    -0.000 C 
BRANCH  12  13
ATOM     13  C   UNL     1       4.324  -8.484  12.338  1.00  0.00    -0.000 C 
BRANCH  13  14
ATOM     14  C   UNL     1       4.854  -7.146  12.877  1.00  0.00    -0.000 C 
BRANCH  14  15
ATOM     15  C   UNL     1       6.241  -6.793  12.318  1.00  0.00    -0.000 C 
BRANCH  15  16
ATOM     16  C   UNL     1       7.367  -6.990  13.347  1.00  0.00    -0.000 C 
BRANCH  16  17
ATOM     17  C   UNL     1       7.905  -5.668  13.934  1.00  0.00    -0.003 C 
ATOM     18  C   UNL     1       7.150  -5.240  15.193  1.00  0.00     0.004 C 
ENDBRANCH  16  17
ENDBRANCH  15  16
ENDBRANCH  14  15
ENDBRANCH  13  14
ENDBRANCH  12  13
ENDBRANCH  11  12
ENDBRANCH   1  11
TORSDOF 14
ENDMDL
MODEL 4
REMARK VINA RESULT:    11.396      2.394      6.848
REMARK INTER + INTRA:          19.876
REMARK INTER:                  20.800
REMARK INTRA:                  -0.924
REMARK UNBOUND:                -0.847
REMARK SMILES CCCCCCCCCCCCCCCC(=O)[O-]
REMARK SMILES IDX 9 1 10 2 11 3 12 4 13 5 14 6 15 7 16 8 17 9 18 10 8 11 7 12
REMARK SMILES IDX 6 13 5 14 4 15 3 16 2 17 1 18
REMARK H PARENT
REMARK Flexibility Score: inf
ROOT
ATOM      1  C   UNL     1       3.397  -8.188  10.604  1.00  0.00     0.000 C 
ENDROOT
BRANCH   1   2
ATOM      2  C   UNL     1       4.370  -8.933  11.533  1.00  0.00     0.000 C 
BRANCH   2   3
ATOM      3  C   UNL     1       4.491  -8.273  12.914  1.00  0.00     0.000 C 
BRANCH   3   4
ATOM      4  C   UNL     1       4.699  -6.757  12.783  1.00  0.00     0.000 C 
BRANCH   4   5
ATOM      5  C   UNL     1       5.983  -6.390  12.016  1.00  0.00     0.000 C 
BRANCH   5   6
ATOM      6  C   UNL     1       7.296  -6.797  12.710  1.00  0.00     0.006 C 
BRANCH   6   7
ATOM      7  C   UNL     1       7.202  -6.756  14.241  1.00  0.00     0.053 C 
BRANCH   7   8
ATOM      8  C   UNL     1       7.804  -5.492  14.768  1.00  0.00     0.041 C 
ATOM      9  O   UNL     1       7.081  -4.640  15.349  1.00  0.00    -0.550 OA
ATOM     10  O   UNL     1       9.172  -5.276  14.661  1.00  0.00    -0.550 OA
ENDBRANCH   7   8
ENDBRANCH   6   7
ENDBRANCH   5   6
ENDBRANCH   4   5
ENDBRANCH   3   4
ENDBRANCH   2   3
ENDBRANCH   1   2
BRANCH   1  11
ATOM     11  C   UNL     1       1.928  -8.576  10.852  1.00  0.00     0.000 C 
BRANCH  11  12
ATOM     12  C   UNL     1       1.289  -7.768  11.993  1.00  0.00    -0.000 C 
BRANCH  12  13
ATOM     13  C   UNL     1      -0.207  -7.498  11.758  1.00  0.00    -0.000 C 
BRANCH  13  14
ATOM     14  C   UNL     1      -0.843  -8.510  10.791  1.00  0.00    -0.000 C 
BRANCH  14  15
ATOM     15  C   UNL     1      -1.115  -7.907   9.403  1.00  0.00    -0.000 C 
BRANCH  15  16
ATOM     16  C   UNL     1      -1.123  -6.368   9.412  1.00  0.00    -0.000 C 
BRANCH  16  17
ATOM     17  C   UNL     1       0.012  -5.741   8.575  1.00  0.00    -0.003 C 
ATOM     18  C   UNL     1       1.185  -5.278   9.440  1.00  0.00     0.004 C 
ENDBRANCH  16  17
ENDBRANCH  15  16
ENDBRANCH  14  15
ENDBRANCH  13  14
ENDBRANCH  12  13
ENDBRANCH  11  12
ENDBRANCH   1  11
TORSDOF 14
ENDMDL
MODEL 5
REMARK VINA RESULT:    11.525      3.152      4.660
REMARK INTER + INTRA:          20.110
REMARK INTER:                  20.751
REMARK INTRA:                  -0.640
REMARK UNBOUND:                -0.847
REMARK SMILES CCCCCCCCCCCCCCCC(=O)[O-]
REMARK SMILES IDX 9 1 10 2 11 3 12 4 13 5 14 6 15 7 16 8 17 9 18 10 8 11 7 12
REMARK SMILES IDX 6 13 5 14 4 15 3 16 2 17 1 18
REMARK H PARENT
REMARK Flexibility Score: inf
ROOT
ATOM      1  C   UNL     1       1.046  -6.106  10.347  1.00  0.00     0.000 C 
ENDROOT
BRANCH   1   2
ATOM      2  C   UNL     1       2.246  -5.427  11.026  1.00  0.00     0.000 C 
BRANCH   2   3
ATOM      3  C   UNL     1       2.892  -4.347  10.146  1.00  0.00     0.000 C 
BRANCH   3   4
ATOM      4  C   UNL     1       1.902  -3.209   9.857  1.00  0.00     0.000 C 
BRANCH   4   5
ATOM      5  C   UNL     1       2.554  -1.815   9.909  1.00  0.00     0.000 C 
BRANCH   5   6
ATOM      6  C   UNL     1       1.600  -0.663  10.275  1.00  0.00     0.006 C 
BRANCH   6   7
ATOM      7  C   UNL     1       1.571   0.449   9.220  1.00  0.00     0.053 C 
BRANCH   7   8
ATOM      8  C   UNL     1       0.410   1.363   9.454  1.00  0.00     0.041 C 
ATOM      9  O   UNL     1      -0.453   1.080  10.326  1.00  0.00    -0.550 OA
ATOM     10  O   UNL     1       0.307   2.552   8.744  1.00  0.00    -0.550 OA
ENDBRANCH   7   8
ENDBRANCH   6   7
ENDBRANCH   5   6
ENDBRANCH   4   5
ENDBRANCH   3   4
ENDBRANCH   2   3
ENDBRANCH   1   2
BRANCH   1  11
ATOM     11  C   UNL     1       0.469  -7.262  11.182  1.00  0.00     0.000 C 
BRANCH  11  12
ATOM     12  C   UNL     1       1.518  -8.339  11.503  1.00  0.00    -0.000 C 
BRANCH  12  13
ATOM     13  C   UNL     1       2.716  -8.300  10.538  1.00  0.00    -0.000 C 
BRANCH  13  14
ATOM     14  C   UNL     1       4.048  -8.611  11.238  1.00  0.00    -0.000 C 
BRANCH  14  15
ATOM     15  C   UNL     1       4.019  -8.268  12.737  1.00  0.00    -0.000 C 
BRANCH  15  16
ATOM     16  C   UNL     1       4.833  -7.008  13.076  1.00  0.00    -0.000 C 
BRANCH  16  17
ATOM     17  C   UNL     1       5.967  -6.717  12.071  1.00  0.00    -0.003 C 
ATOM     18  C   UNL     1       7.353  -6.846  12.703  1.00  0.00     0.004 C 
ENDBRANCH  16  17
ENDBRANCH  15  16
ENDBRANCH  14  15
ENDBRANCH  13  14
ENDBRANCH  12  13
ENDBRANCH  11  12
ENDBRANCH   1  11
TORSDOF 14
ENDMDL
MODEL 6
REMARK VINA RESULT:    11.628      1.971      3.315
REMARK INTER + INTRA:          20.298
REMARK INTER:                  21.105
REMARK INTRA:                  -0.807
REMARK UNBOUND:                -0.847
REMARK SMILES CCCCCCCCCCCCCCCC(=O)[O-]
REMARK SMILES IDX 9 1 10 2 11 3 12 4 13 5 14 6 15 7 16 8 17 9 18 10 8 11 7 12
REMARK SMILES IDX 6 13 5 14 4 15 3 16 2 17 1 18
REMARK H PARENT
REMARK Flexibility Score: inf
ROOT
ATOM      1  C   UNL     1       4.468  -8.894  12.581  1.00  0.00     0.000 C 
ENDROOT
BRANCH   1   2
ATOM      2  C   UNL     1       4.713  -8.957  11.065  1.00  0.00     0.000 C 
BRANCH   2   3
ATOM      3  C   UNL     1       3.465  -8.591  10.248  1.00  0.00     0.000 C 
BRANCH   3   4
ATOM      4  C   UNL     1       2.255  -8.362  11.165  1.00  0.00     0.000 C 
BRANCH   4   5
ATOM      5  C   UNL     1       1.850  -6.880  11.268  1.00  0.00     0.000 C 
BRANCH   5   6
ATOM      6  C   UNL     1       0.537  -6.615  12.026  1.00  0.00     0.006 C 
BRANCH   6   7
ATOM      7  C   UNL     1      -0.501  -7.729  11.833  1.00  0.00     0.053 C 
BRANCH   7   8
ATOM      8  C   UNL     1      -0.940  -7.794  10.404  1.00  0.00     0.041 C 
ATOM      9  O   UNL     1      -1.104  -6.735   9.744  1.00  0.00    -0.550 OA
ATOM     10  O   UNL     1      -1.120  -9.025   9.788  1.00  0.00    -0.550 OA
ENDBRANCH   7   8
ENDBRANCH   6   7
ENDBRANCH   5   6
ENDBRANCH   4   5
ENDBRANCH   3   4
ENDBRANCH   2   3
ENDBRANCH   1   2
BRANCH   1  11
ATOM     11  C   UNL     1       4.906  -7.554  13.196  1.00  0.00     0.000 C 
BRANCH  11  12
ATOM     12  C   UNL     1       5.347  -6.534  12.135  1.00  0.00    -0.000 C 
BRANCH  12  13
ATOM     13  C   UNL     1       6.878  -6.436  12.012  1.00  0.00    -0.000 C 
BRANCH  13  14
ATOM     14  C   UNL     1       7.609  -7.336  13.021  1.00  0.00    -0.000 C 
BRANCH  14  15
ATOM     15  C   UNL     1       8.188  -6.544  14.205  1.00  0.00    -0.000 C 
BRANCH  15  16
ATOM     16  C   UNL     1       7.633  -5.112  14.293  1.00  0.00    -0.000 C 
BRANCH  16  17
ATOM     17  C   UNL     1       7.141  -4.728  15.705  1.00  0.00    -0.003 C 
ATOM     18  C   UNL     1       5.707  -5.188  15.967  1.00  0.00     0.004 C 
ENDBRANCH  16  17
ENDBRANCH  15  16
ENDBRANCH  14  15
ENDBRANCH  13  14
ENDBRANCH  12  13
ENDBRANCH  11  12
ENDBRANCH   1  11
TORSDOF 14
ENDMDL
MODEL 7
REMARK VINA RESULT:    11.684      2.524      6.831
REMARK INTER + INTRA:          20.400
REMARK INTER:                  20.708
REMARK INTRA:                  -0.308
REMARK UNBOUND:                -0.847
REMARK SMILES CCCCCCCCCCCCCCCC(=O)[O-]
REMARK SMILES IDX 9 1 10 2 11 3 12 4 13 5 14 6 15 7 16 8 17 9 18 10 8 11 7 12
REMARK SMILES IDX 6 13 5 14 4 15 3 16 2 17 1 18
REMARK H PARENT
REMARK Flexibility Score: inf
ROOT
ATOM      1  C   UNL     1       2.867  -6.324  11.894  1.00  0.00     0.000 C 
ENDROOT
BRANCH   1   2
ATOM      2  C   UNL     1       2.893  -7.834  11.607  1.00  0.00     0.000 C 
BRANCH   2   3
ATOM      3  C   UNL     1       3.901  -8.586  12.488  1.00  0.00     0.000 C 
BRANCH   3   4
ATOM      4  C   UNL     1       4.943  -7.624  13.076  1.00  0.00     0.000 C 
BRANCH   4   5
ATOM      5  C   UNL     1       5.973  -7.144  12.037  1.00  0.00     0.000 C 
BRANCH   5   6
ATOM      6  C   UNL     1       6.942  -6.056  12.534  1.00  0.00     0.006 C 
BRANCH   6   7
ATOM      7  C   UNL     1       7.827  -6.526  13.695  1.00  0.00     0.053 C 
BRANCH   7   8
ATOM      8  C   UNL     1       7.992  -5.433  14.704  1.00  0.00     0.041 C 
ATOM      9  O   UNL     1       6.982  -4.924  15.258  1.00  0.00    -0.550 OA
ATOM     10  O   UNL     1       9.264  -5.008  15.066  1.00  0.00    -0.550 OA
ENDBRANCH   7   8
ENDBRANCH   6   7
ENDBRANCH   5   6
ENDBRANCH   4   5
ENDBRANCH   3   4
ENDBRANCH   2   3
ENDBRANCH   1   2
BRANCH   1  11
ATOM     11  C   UNL     1       2.213  -5.516  10.758  1.00  0.00     0.000 C 
BRANCH  11  12
ATOM     12  C   UNL     1       1.356  -6.392   9.830  1.00  0.00    -0.000 C 
BRANCH  12  13
ATOM     13  C   UNL     1       0.062  -5.689   9.385  1.00  0.00    -0.000 C 
BRANCH  13  14
ATOM     14  C   UNL     1      -1.120  -6.661   9.250  1.00  0.00    -0.000 C 
BRANCH  14  15
ATOM     15  C   UNL     1      -0.719  -8.119   9.530  1.00  0.00    -0.000 C 
BRANCH  15  16
ATOM     16  C   UNL     1      -1.125  -8.589  10.938  1.00  0.00    -0.000 C 
BRANCH  16  17
ATOM     17  C   UNL     1      -0.489  -7.759  12.073  1.00  0.00    -0.003 C 
ATOM     18  C   UNL     1       0.292  -8.625  13.061  1.00  0.00     0.004 C 
ENDBRANCH  16  17
ENDBRANCH  15  16
ENDBRANCH  14  15
ENDBRANCH  13  14
ENDBRANCH  12  13
ENDBRANCH  11  12
ENDBRANCH   1  11
TORSDOF 14
ENDMDL
MODEL 8
REMARK VINA RESULT:    11.803      2.310      6.579
REMARK INTER + INTRA:          20.616
REMARK INTER:                  19.680
REMARK INTRA:                   0.936
REMARK UNBOUND:                -0.847
REMARK SMILES CCCCCCCCCCCCCCCC(=O)[O-]
REMARK SMILES IDX 9 1 10 2 11 3 12 4 13 5 14 6 15 7 16 8 17 9 18 10 8 11 7 12
REMARK SMILES IDX 6 13 5 14 4 15 3 16 2 17 1 18
REMARK H PARENT
REMARK Flexibility Score: inf
ROOT
ATOM      1  C   UNL     1       2.228  -7.011  11.941  1.00  0.00     0.000 C 
ENDROOT
BRANCH   1   2
ATOM      2  C   UNL     1       2.992  -7.758  10.835  1.00  0.00     0.000 C 
BRANCH   2   3
ATOM      3  C   UNL     1       4.300  -8.386  11.339  1.00  0.00     0.000 C 
BRANCH   3   4
ATOM      4  C   UNL     1       4.432  -8.233  12.861  1.00  0.00     0.000 C 
BRANCH   4   5
ATOM      5  C   UNL     1       5.250  -6.996  13.273  1.00  0.00     0.000 C 
BRANCH   5   6
ATOM      6  C   UNL     1       6.515  -6.742  12.431  1.00  0.00     0.006 C 
BRANCH   6   7
ATOM      7  C   UNL     1       7.808  -6.828  13.252  1.00  0.00     0.053 C 
BRANCH   7   8
ATOM      8  C   UNL     1       7.824  -5.777  14.317  1.00  0.00     0.041 C 
ATOM      9  O   UNL     1       6.742  -5.335  14.786  1.00  0.00    -0.550 OA
ATOM     10  O   UNL     1       9.033  -5.319  14.824  1.00  0.00    -0.550 OA
ENDBRANCH   7   8
ENDBRANCH   6   7
ENDBRANCH   5   6
ENDBRANCH   4   5
ENDBRANCH   3   4
ENDBRANCH   2   3
ENDBRANCH   1   2
BRANCH   1  11
ATOM     11  C   UNL     1       0.740  -7.398  11.997  1.00  0.00     0.000 C 
BRANCH  11  12
ATOM     12  C   UNL     1       0.341  -8.375  10.879  1.00  0.00    -0.000 C 
BRANCH  12  13
ATOM     13  C   UNL     1      -1.091  -8.137  10.372  1.00  0.00    -0.000 C 
BRANCH  13  14
ATOM     14  C   UNL     1      -1.125  -7.374   9.038  1.00  0.00    -0.000 C 
BRANCH  14  15
ATOM     15  C   UNL     1      -0.907  -5.863   9.218  1.00  0.00    -0.000 C 
BRANCH  15  16
ATOM     16  C   UNL     1       0.416  -5.374   8.603  1.00  0.00    -0.000 C 
BRANCH  16  17
ATOM     17  C   UNL     1       1.614  -5.457   9.573  1.00  0.00    -0.003 C 
ATOM     18  C   UNL     1       2.242  -4.089   9.840  1.00  0.00     0.004 C 
ENDBRANCH  16  17
ENDBRANCH  15  16
ENDBRANCH  14  15
ENDBRANCH  13  14
ENDBRANCH  12  13
ENDBRANCH  11  12
ENDBRANCH   1  11
TORSDOF 14
ENDMDL
MODEL 9
REMARK VINA RESULT:    12.065      3.579      6.856
REMARK INTER + INTRA:          21.092
REMARK INTER:                  21.721
REMARK INTRA:                  -0.629
REMARK UNBOUND:                -0.847
REMARK SMILES CCCCCCCCCCCCCCCC(=O)[O-]
REMARK SMILES IDX 9 1 10 2 11 3 12 4 13 5 14 6 15 7 16 8 17 9 18 10 8 11 7 12
REMARK SMILES IDX 6 13 5 14 4 15 3 16 2 17 1 18
REMARK H PARENT
REMARK Flexibility Score: inf
ROOT
ATOM      1  C   UNL     1       2.126  -5.660  11.267  1.00  0.00     0.000 C 
ENDROOT
BRANCH   1   2
ATOM      2  C   UNL     1       1.072  -6.779  11.291  1.00  0.00     0.000 C 
BRANCH   2   3
ATOM      3  C   UNL     1       1.692  -8.173  11.473  1.00  0.00     0.000 C 
BRANCH   3   4
ATOM      4  C   UNL     1       2.849  -8.392  10.488  1.00  0.00     0.000 C 
BRANCH   4   5
ATOM      5  C   UNL     1       4.201  -8.623  11.188  1.00  0.00     0.000 C 
BRANCH   5   6
ATOM      6  C   UNL     1       4.158  -8.554  12.726  1.00  0.00     0.006 C 
BRANCH   6   7
ATOM      7  C   UNL     1       4.731  -7.245  13.284  1.00  0.00     0.053 C 
BRANCH   7   8
ATOM      8  C   UNL     1       5.996  -6.882  12.570  1.00  0.00     0.041 C 
ATOM      9  O   UNL     1       5.951  -6.213  11.505  1.00  0.00    -0.550 OA
ATOM     10  O   UNL     1       7.225  -7.242  13.108  1.00  0.00    -0.550 OA
ENDBRANCH   7   8
ENDBRANCH   6   7
ENDBRANCH   5   6
ENDBRANCH   4   5
ENDBRANCH   3   4
ENDBRANCH   2   3
ENDBRANCH   1   2
BRANCH   1  11
ATOM     11  C   UNL     1       2.215  -4.960   9.900  1.00  0.00     0.000 C 
BRANCH  11  12
ATOM     12  C   UNL     1       2.838  -3.558   9.994  1.00  0.00    -0.000 C 
BRANCH  12  13
ATOM     13  C   UNL     1       1.803  -2.439   9.794  1.00  0.00    -0.000 C 
BRANCH  13  14
ATOM     14  C   UNL     1       2.354  -1.053  10.165  1.00  0.00    -0.000 C 
BRANCH  14  15
ATOM     15  C   UNL     1       1.583   0.090   9.484  1.00  0.00    -0.000 C 
BRANCH  15  16
ATOM     16  C   UNL     1       0.245   0.402  10.176  1.00  0.00    -0.000 C 
BRANCH  16  17
ATOM     17  C   UNL     1      -0.453   1.665   9.628  1.00  0.00    -0.003 C 
ATOM     18  C   UNL     1       0.355   2.343   8.522  1.00  0.00     0.004 C 
ENDBRANCH  16  17
ENDBRANCH  15  16
ENDBRANCH  14  15
ENDBRANCH  13  14
ENDBRANCH  12  13
ENDBRANCH  11  12
ENDBRANCH   1  11
TORSDOF 14
ENDMDL
