MODEL 1
REMARK VINA RESULT:    -3.506      0.000      0.000
REMARK INTER + INTRA:          -4.561
REMARK INTER:                  -4.326
REMARK INTRA:                  -0.235
REMARK UNBOUND:                -0.235
REMARK SMILES CCCCC=CC(C)=O
REMARK SMILES IDX 4 1 3 2 2 3 1 4 5 5 6 6 7 7 9 8 8 9
REMARK H PARENT
REMARK Flexibility Score: inf
ROOT
ATOM      1  C   UNL     1       5.613  21.875  -8.473  1.00  0.00     0.027 C 
ENDROOT
BRANCH   1   2
ATOM      2  C   UNL     1       5.005  21.924  -7.065  1.00  0.00     0.004 C 
BRANCH   2   3
ATOM      3  C   UNL     1       5.758  22.896  -6.144  1.00  0.00    -0.003 C 
ATOM      4  C   UNL     1       5.702  24.321  -6.686  1.00  0.00     0.004 C 
ENDBRANCH   2   3
ENDBRANCH   1   2
BRANCH   1   5
ATOM      5  C   UNL     1       4.558  22.030  -9.534  1.00  0.00    -0.023 C 
ATOM      6  C   UNL     1       4.534  23.089 -10.350  1.00  0.00     0.042 C 
BRANCH   6   7
ATOM      7  C   UNL     1       3.487  23.274 -11.371  1.00  0.00     0.152 C 
ATOM      8  O   UNL     1       3.516  22.624 -12.452  1.00  0.00    -0.295 OA
ATOM      9  C   UNL     1       2.377  24.242 -11.124  1.00  0.00     0.093 C 
ENDBRANCH   6   7
ENDBRANCH   1   5
TORSDOF 4
ENDMDL
MODEL 2
REMARK VINA RESULT:    -3.031     19.229     20.367
REMARK INTER + INTRA:          -3.975
REMARK INTER:                  -3.776
REMARK INTRA:                  -0.198
REMARK UNBOUND:                -0.235
REMARK SMILES CCCCC=CC(C)=O
REMARK SMILES IDX 4 1 3 2 2 3 1 4 5 5 6 6 7 7 9 8 8 9
REMARK H PARENT
REMARK Flexibility Score: inf
ROOT
ATOM      1  C   UNL     1       1.655  35.738 -26.125  1.00  0.00     0.027 C 
ENDROOT
BRANCH   1   2
ATOM      2  C   UNL     1       1.125  36.031 -24.715  1.00  0.00     0.004 C 
BRANCH   2   3
ATOM      3  C   UNL     1       0.900  37.532 -24.481  1.00  0.00    -0.003 C 
ATOM      4  C   UNL     1       1.349  37.942 -23.082  1.00  0.00     0.004 C 
ENDBRANCH   2   3
ENDBRANCH   1   2
BRANCH   1   5
ATOM      5  C   UNL     1       2.617  34.583 -26.124  1.00  0.00    -0.023 C 
ATOM      6  C   UNL     1       3.596  34.486 -25.217  1.00  0.00     0.042 C 
BRANCH   6   7
ATOM      7  C   UNL     1       4.570  33.379 -25.224  1.00  0.00     0.152 C 
ATOM      8  O   UNL     1       5.596  33.418 -24.492  1.00  0.00    -0.295 OA
ATOM      9  C   UNL     1       4.340  32.197 -26.108  1.00  0.00     0.093 C 
ENDBRANCH   6   7
ENDBRANCH   1   5
TORSDOF 4
ENDMDL
MODEL 3
REMARK VINA RESULT:    -3.003     18.430     19.206
REMARK INTER + INTRA:          -3.940
REMARK INTER:                  -3.948
REMARK INTRA:                   0.007
REMARK UNBOUND:                -0.235
REMARK SMILES CCCCC=CC(C)=O
REMARK SMILES IDX 4 1 3 2 2 3 1 4 5 5 6 6 7 7 9 8 8 9
REMARK H PARENT
REMARK Flexibility Score: inf
ROOT
ATOM      1  C   UNL     1      12.367  37.913 -17.546  1.00  0.00     0.027 C 
ENDROOT
BRANCH   1   2
ATOM      2  C   UNL     1      12.308  36.795 -16.496  1.00  0.00     0.004 C 
BRANCH   2   3
ATOM      3  C   UNL     1      13.697  36.445 -15.943  1.00  0.00    -0.003 C 
ATOM      4  C   UNL     1      14.215  37.546 -15.023  1.00  0.00     0.004 C 
ENDBRANCH   2   3
ENDBRANCH   1   2
BRANCH   1   5
ATOM      5  C   UNL     1      11.696  39.165 -17.056  1.00  0.00    -0.023 C 
ATOM      6  C   UNL     1      11.661  39.481 -15.757  1.00  0.00     0.042 C 
BRANCH   6   7
ATOM      7  C   UNL     1      10.975  40.687 -15.256  1.00  0.00     0.152 C 
ATOM      8  O   UNL     1       9.742  40.665 -14.992  1.00  0.00    -0.295 OA
ATOM      9  C   UNL     1      11.749  41.949 -15.060  1.00  0.00     0.093 C 
ENDBRANCH   6   7
ENDBRANCH   1   5
TORSDOF 4
ENDMDL
MODEL 4
REMARK VINA RESULT:    -2.970     17.442     18.889
REMARK INTER + INTRA:          -3.899
REMARK INTER:                  -3.618
REMARK INTRA:                  -0.281
REMARK UNBOUND:                -0.235
REMARK SMILES CCCCC=CC(C)=O
REMARK SMILES IDX 4 1 3 2 2 3 1 4 5 5 6 6 7 7 9 8 8 9
REMARK H PARENT
REMARK Flexibility Score: inf
ROOT
ATOM      1  C   UNL     1       5.702  31.004 -26.016  1.00  0.00     0.027 C 
ENDROOT
BRANCH   1   2
ATOM      2  C   UNL     1       7.094  31.636 -25.884  1.00  0.00     0.004 C 
BRANCH   2   3
ATOM      3  C   UNL     1       7.983  30.875 -24.891  1.00  0.00    -0.003 C 
ATOM      4  C   UNL     1       8.010  31.571 -23.533  1.00  0.00     0.004 C 
ENDBRANCH   2   3
ENDBRANCH   1   2
BRANCH   1   5
ATOM      5  C   UNL     1       4.613  32.027 -25.849  1.00  0.00    -0.023 C 
ATOM      6  C   UNL     1       4.833  33.192 -25.229  1.00  0.00     0.042 C 
BRANCH   6   7
ATOM      7  C   UNL     1       3.768  34.190 -25.026  1.00  0.00     0.152 C 
ATOM      8  O   UNL     1       3.668  34.813 -23.934  1.00  0.00    -0.295 OA
ATOM      9  C   UNL     1       2.796  34.469 -26.125  1.00  0.00     0.093 C 
ENDBRANCH   6   7
ENDBRANCH   1   5
TORSDOF 4
ENDMDL
MODEL 5
REMARK VINA RESULT:    -2.927     11.941     13.172
REMARK INTER + INTRA:          -3.847
REMARK INTER:                  -3.650
REMARK INTRA:                  -0.196
REMARK UNBOUND:                -0.235
REMARK SMILES CCCCC=CC(C)=O
REMARK SMILES IDX 4 1 3 2 2 3 1 4 5 5 6 6 7 7 9 8 8 9
REMARK H PARENT
REMARK Flexibility Score: inf
ROOT
ATOM      1  C   UNL     1       1.649  36.250  -6.615  1.00  0.00     0.027 C 
ENDROOT
BRANCH   1   2
ATOM      2  C   UNL     1       0.931  37.410  -7.317  1.00  0.00     0.004 C 
BRANCH   2   3
ATOM      3  C   UNL     1       1.772  38.695  -7.319  1.00  0.00    -0.003 C 
ATOM      4  C   UNL     1       3.261  38.376  -7.403  1.00  0.00     0.004 C 
ENDBRANCH   2   3
ENDBRANCH   1   2
BRANCH   1   5
ATOM      5  C   UNL     1       1.184  34.918  -7.133  1.00  0.00    -0.023 C 
ATOM      6  C   UNL     1       1.982  34.131  -7.864  1.00  0.00     0.042 C 
BRANCH   6   7
ATOM      7  C   UNL     1       1.529  32.839  -8.411  1.00  0.00     0.152 C 
ATOM      8  O   UNL     1       1.687  31.771  -7.758  1.00  0.00    -0.295 OA
ATOM      9  C   UNL     1       0.876  32.793  -9.753  1.00  0.00     0.093 C 
ENDBRANCH   6   7
ENDBRANCH   1   5
TORSDOF 4
ENDMDL
MODEL 6
REMARK VINA RESULT:    -2.860      2.270      4.950
REMARK INTER + INTRA:          -3.764
REMARK INTER:                  -3.568
REMARK INTRA:                  -0.196
REMARK UNBOUND:                -0.235
REMARK SMILES CCCCC=CC(C)=O
REMARK SMILES IDX 4 1 3 2 2 3 1 4 5 5 6 6 7 7 9 8 8 9
REMARK H PARENT
REMARK Flexibility Score: inf
ROOT
ATOM      1  C   UNL     1       4.288  22.645 -10.870  1.00  0.00     0.027 C 
ENDROOT
BRANCH   1   2
ATOM      2  C   UNL     1       3.473  23.941 -10.959  1.00  0.00     0.004 C 
BRANCH   2   3
ATOM      3  C   UNL     1       2.053  23.696 -11.491  1.00  0.00    -0.003 C 
ATOM      4  C   UNL     1       2.055  22.652 -12.603  1.00  0.00     0.004 C 
ENDBRANCH   2   3
ENDBRANCH   1   2
BRANCH   1   5
ATOM      5  C   UNL     1       4.691  22.343  -9.452  1.00  0.00    -0.023 C 
ATOM      6  C   UNL     1       4.976  23.318  -8.582  1.00  0.00     0.042 C 
BRANCH   6   7
ATOM      7  C   UNL     1       5.408  23.039  -7.200  1.00  0.00     0.152 C 
ATOM      8  O   UNL     1       5.329  21.875  -6.721  1.00  0.00    -0.295 OA
ATOM      9  C   UNL     1       5.945  24.148  -6.356  1.00  0.00     0.093 C 
ENDBRANCH   6   7
ENDBRANCH   1   5
TORSDOF 4
ENDMDL
MODEL 7
REMARK VINA RESULT:    -2.707     14.983     16.151
REMARK INTER + INTRA:          -3.575
REMARK INTER:                  -3.403
REMARK INTRA:                  -0.172
REMARK UNBOUND:                -0.235
REMARK SMILES CCCCC=CC(C)=O
REMARK SMILES IDX 4 1 3 2 2 3 1 4 5 5 6 6 7 7 9 8 8 9
REMARK H PARENT
REMARK Flexibility Score: inf
ROOT
ATOM      1  C   UNL     1       2.020  38.191  -6.903  1.00  0.00     0.027 C 
ENDROOT
BRANCH   1   2
ATOM      2  C   UNL     1       1.101  37.115  -6.310  1.00  0.00     0.004 C 
BRANCH   2   3
ATOM      3  C   UNL     1       0.892  35.937  -7.273  1.00  0.00    -0.003 C 
ATOM      4  C   UNL     1       1.735  34.734  -6.859  1.00  0.00     0.004 C 
ENDBRANCH   2   3
ENDBRANCH   1   2
BRANCH   1   5
ATOM      5  C   UNL     1       1.476  38.729  -8.198  1.00  0.00    -0.023 C 
ATOM      6  C   UNL     1       1.848  39.922  -8.673  1.00  0.00     0.042 C 
BRANCH   6   7
ATOM      7  C   UNL     1       1.297  40.480  -9.922  1.00  0.00     0.152 C 
ATOM      8  O   UNL     1       0.875  41.667  -9.967  1.00  0.00    -0.295 OA
ATOM      9  C   UNL     1       1.237  39.629 -11.148  1.00  0.00     0.093 C 
ENDBRANCH   6   7
ENDBRANCH   1   5
TORSDOF 4
ENDMDL
MODEL 8
REMARK VINA RESULT:    -2.568     18.287     19.434
REMARK INTER + INTRA:          -3.404
REMARK INTER:                  -3.268
REMARK INTRA:                  -0.136
REMARK UNBOUND:                -0.235
REMARK SMILES CCCCC=CC(C)=O
REMARK SMILES IDX 4 1 3 2 2 3 1 4 5 5 6 6 7 7 9 8 8 9
REMARK H PARENT
REMARK Flexibility Score: inf
ROOT
ATOM      1  C   UNL     1       5.407  33.012 -24.997  1.00  0.00     0.027 C 
ENDROOT
BRANCH   1   2
ATOM      2  C   UNL     1       5.726  31.918 -26.025  1.00  0.00     0.004 C 
BRANCH   2   3
ATOM      3  C   UNL     1       7.090  31.262 -25.767  1.00  0.00    -0.003 C 
ATOM      4  C   UNL     1       7.635  31.649 -24.396  1.00  0.00     0.004 C 
ENDBRANCH   2   3
ENDBRANCH   1   2
BRANCH   1   5
ATOM      5  C   UNL     1       4.223  33.837 -25.419  1.00  0.00    -0.023 C 
ATOM      6  C   UNL     1       3.527  34.566 -24.540  1.00  0.00     0.042 C 
BRANCH   6   7
ATOM      7  C   UNL     1       2.342  35.352 -24.930  1.00  0.00     0.152 C 
ATOM      8  O   UNL     1       1.939  35.363 -26.125  1.00  0.00    -0.295 OA
ATOM      9  C   UNL     1       1.608  36.144 -23.898  1.00  0.00     0.093 C 
ENDBRANCH   6   7
ENDBRANCH   1   5
TORSDOF 4
ENDMDL
