MODEL 1
REMARK VINA RESULT:    -6.580      0.000      0.000
REMARK INTER + INTRA:          -7.763
REMARK INTER:                  -7.734
REMARK INTRA:                  -0.030
REMARK UNBOUND:                -0.030
REMARK SMILES O=c1c(O)c(-c2ccc(O)c(O)c2)oc2cc(O)ccc12
REMARK SMILES IDX 5 1 3 2 2 3 1 4 21 5 15 6 14 7 16 8 17 9 19 10 20 11 6 12
REMARK SMILES IDX 7 13 8 14 9 15 13 16 11 17 10 18 12 20 4 22 18 24
REMARK H PARENT 10 19 12 21 4 23 18 25
REMARK Flexibility Score: inf
ROOT
ATOM      1  C   UNL     1       3.785   8.722 -12.995  1.00  0.00     0.180 A 
ATOM      2  C   UNL     1       4.524   7.522 -13.054  1.00  0.00     0.208 A 
ATOM      3  C   UNL     1       5.304   7.262 -14.192  1.00  0.00     0.235 A 
ATOM      4  O   UNL     1       5.965   6.190 -14.271  1.00  0.00    -0.285 OA
ATOM      5  C   UNL     1       5.344   8.204 -15.231  1.00  0.00     0.069 A 
ATOM      6  C   UNL     1       4.595   9.392 -15.087  1.00  0.00     0.142 A 
ATOM      7  O   UNL     1       3.863   9.596 -13.997  1.00  0.00    -0.452 OA
ATOM      8  C   UNL     1       4.617  10.361 -16.096  1.00  0.00     0.094 A 
ATOM      9  C   UNL     1       5.378  10.158 -17.252  1.00  0.00     0.119 A 
ATOM     10  C   UNL     1       6.122   8.980 -17.399  1.00  0.00     0.047 A 
ATOM     11  C   UNL     1       6.108   8.006 -16.396  1.00  0.00     0.020 A 
ENDROOT
BRANCH   1  12
ATOM     12  C   UNL     1       2.926   9.061 -11.838  1.00  0.00     0.025 A 
ATOM     13  C   UNL     1       3.429   9.052 -10.526  1.00  0.00     0.016 A 
ATOM     14  C   UNL     1       2.593   9.352  -9.447  1.00  0.00     0.051 A 
ATOM     15  C   UNL     1       1.244   9.650  -9.659  1.00  0.00     0.157 A 
ATOM     16  C   UNL     1       1.566   9.340 -12.046  1.00  0.00     0.062 A 
ATOM     17  C   UNL     1       0.725   9.641 -10.964  1.00  0.00     0.158 A 
BRANCH  15  18
ATOM     18  O   UNL     1       0.435   9.947  -8.563  1.00  0.00    -0.504 OA
ATOM     19  H   UNL     1       0.820  10.164  -7.652  1.00  0.00     0.293 HD
ENDBRANCH  15  18
BRANCH  17  20
ATOM     20  O   UNL     1      -0.621   9.931 -11.183  1.00  0.00    -0.504 OA
ATOM     21  H   UNL     1      -1.179  10.419 -10.492  1.00  0.00     0.293 HD
ENDBRANCH  17  20
ENDBRANCH   1  12
BRANCH   2  22
ATOM     22  O   UNL     1       4.503   6.625 -11.983  1.00  0.00    -0.502 OA
ATOM     23  H   UNL     1       4.482   6.935 -11.018  1.00  0.00     0.293 HD
ENDBRANCH   2  22
BRANCH   9  24
ATOM     24  O   UNL     1       5.388  11.133 -18.247  1.00  0.00    -0.508 OA
ATOM     25  H   UNL     1       4.666  11.843 -18.299  1.00  0.00     0.293 HD
ENDBRANCH   9  24
TORSDOF 5
ENDMDL
MODEL 2
REMARK VINA RESULT:    -6.538      2.239      6.555
REMARK INTER + INTRA:          -7.714
REMARK INTER:                  -7.861
REMARK INTRA:                   0.147
REMARK UNBOUND:                -0.030
REMARK SMILES O=c1c(O)c(-c2ccc(O)c(O)c2)oc2cc(O)ccc12
REMARK SMILES IDX 5 1 3 2 2 3 1 4 21 5 15 6 14 7 16 8 17 9 19 10 20 11 6 12
REMARK SMILES IDX 7 13 8 14 9 15 13 16 11 17 10 18 12 20 4 22 18 24
REMARK H PARENT 10 19 12 21 4 23 18 25
REMARK Flexibility Score: inf
ROOT
ATOM      1  C   UNL     1       3.459   8.782 -12.795  1.00  0.00     0.180 A 
ATOM      2  C   UNL     1       3.686  10.031 -13.411  1.00  0.00     0.208 A 
ATOM      3  C   UNL     1       3.003  11.158 -12.928  1.00  0.00     0.235 A 
ATOM      4  O   UNL     1       3.181  12.283 -13.470  1.00  0.00    -0.285 OA
ATOM      5  C   UNL     1       2.128  11.020 -11.839  1.00  0.00     0.069 A 
ATOM      6  C   UNL     1       1.973   9.742 -11.263  1.00  0.00     0.142 A 
ATOM      7  O   UNL     1       2.632   8.698 -11.754  1.00  0.00    -0.452 OA
ATOM      8  C   UNL     1       1.118   9.565 -10.169  1.00  0.00     0.094 A 
ATOM      9  C   UNL     1       0.412  10.653  -9.643  1.00  0.00     0.119 A 
ATOM     10  C   UNL     1       0.563  11.924 -10.213  1.00  0.00     0.047 A 
ATOM     11  C   UNL     1       1.416  12.110 -11.306  1.00  0.00     0.020 A 
ENDROOT
BRANCH   1  12
ATOM     12  C   UNL     1       4.128   7.545 -13.257  1.00  0.00     0.025 A 
ATOM     13  C   UNL     1       5.480   7.543 -13.642  1.00  0.00     0.016 A 
ATOM     14  C   UNL     1       6.083   6.368 -14.097  1.00  0.00     0.051 A 
ATOM     15  C   UNL     1       5.347   5.183 -14.188  1.00  0.00     0.157 A 
ATOM     16  C   UNL     1       3.385   6.359 -13.369  1.00  0.00     0.062 A 
ATOM     17  C   UNL     1       3.989   5.177 -13.826  1.00  0.00     0.158 A 
BRANCH  15  18
ATOM     18  O   UNL     1       5.976   4.026 -14.644  1.00  0.00    -0.504 OA
ATOM     19  H   UNL     1       5.714   3.577 -15.513  1.00  0.00     0.293 HD
ENDBRANCH  15  18
BRANCH  17  20
ATOM     20  O   UNL     1       3.246   4.002 -13.920  1.00  0.00    -0.504 OA
ATOM     21  H   UNL     1       3.625   3.166 -14.350  1.00  0.00     0.293 HD
ENDBRANCH  17  20
ENDBRANCH   1  12
BRANCH   2  22
ATOM     22  O   UNL     1       4.600  10.145 -14.462  1.00  0.00    -0.502 OA
ATOM     23  H   UNL     1       4.511  10.853 -15.182  1.00  0.00     0.293 HD
ENDBRANCH   2  22
BRANCH   9  24
ATOM     24  O   UNL     1      -0.435  10.459  -8.554  1.00  0.00    -0.508 OA
ATOM     25  H   UNL     1      -0.998  11.214  -8.181  1.00  0.00     0.293 HD
ENDBRANCH   9  24
TORSDOF 5
ENDMDL
MODEL 3
REMARK VINA RESULT:    -6.514      1.427      6.583
REMARK INTER + INTRA:          -7.686
REMARK INTER:                  -7.708
REMARK INTRA:                   0.022
REMARK UNBOUND:                -0.030
REMARK SMILES O=c1c(O)c(-c2ccc(O)c(O)c2)oc2cc(O)ccc12
REMARK SMILES IDX 5 1 3 2 2 3 1 4 21 5 15 6 14 7 16 8 17 9 19 10 20 11 6 12
REMARK SMILES IDX 7 13 8 14 9 15 13 16 11 17 10 18 12 20 4 22 18 24
REMARK H PARENT 10 19 12 21 4 23 18 25
REMARK Flexibility Score: inf
ROOT
ATOM      1  C   UNL     1       3.872   9.466 -12.762  1.00  0.00     0.180 A 
ATOM      2  C   UNL     1       4.640   8.555 -12.008  1.00  0.00     0.208 A 
ATOM      3  C   UNL     1       4.226   8.235 -10.706  1.00  0.00     0.235 A 
ATOM      4  O   UNL     1       4.903   7.430 -10.009  1.00  0.00    -0.285 OA
ATOM      5  C   UNL     1       3.054   8.812 -10.193  1.00  0.00     0.069 A 
ATOM      6  C   UNL     1       2.327   9.697 -11.018  1.00  0.00     0.142 A 
ATOM      7  O   UNL     1       2.758   9.980 -12.243  1.00  0.00    -0.452 OA
ATOM      8  C   UNL     1       1.148  10.286 -10.548  1.00  0.00     0.094 A 
ATOM      9  C   UNL     1       0.685  10.002  -9.259  1.00  0.00     0.119 A 
ATOM     10  C   UNL     1       1.404   9.125  -8.436  1.00  0.00     0.047 A 
ATOM     11  C   UNL     1       2.582   8.531  -8.898  1.00  0.00     0.020 A 
ENDROOT
BRANCH   1  12
ATOM     12  C   UNL     1       4.252   9.868 -14.136  1.00  0.00     0.025 A 
ATOM     13  C   UNL     1       4.572   8.913 -15.115  1.00  0.00     0.016 A 
ATOM     14  C   UNL     1       4.951   9.316 -16.398  1.00  0.00     0.051 A 
ATOM     15  C   UNL     1       5.030  10.674 -16.718  1.00  0.00     0.157 A 
ATOM     16  C   UNL     1       4.352  11.232 -14.453  1.00  0.00     0.062 A 
ATOM     17  C   UNL     1       4.732  11.639 -15.741  1.00  0.00     0.158 A 
BRANCH  15  18
ATOM     18  O   UNL     1       5.409  11.047 -18.007  1.00  0.00    -0.504 OA
ATOM     19  H   UNL     1       6.369  11.267 -18.243  1.00  0.00     0.293 HD
ENDBRANCH  15  18
BRANCH  17  20
ATOM     20  O   UNL     1       4.815  12.996 -16.050  1.00  0.00    -0.504 OA
ATOM     21  H   UNL     1       5.632  13.547 -15.810  1.00  0.00     0.293 HD
ENDBRANCH  17  20
ENDBRANCH   1  12
BRANCH   2  22
ATOM     22  O   UNL     1       5.775   7.959 -12.564  1.00  0.00    -0.502 OA
ATOM     23  H   UNL     1       6.521   7.578 -11.992  1.00  0.00     0.293 HD
ENDBRANCH   2  22
BRANCH   9  24
ATOM     24  O   UNL     1      -0.491  10.597  -8.806  1.00  0.00    -0.508 OA
ATOM     25  H   UNL     1      -0.487  11.513  -8.371  1.00  0.00     0.293 HD
ENDBRANCH   9  24
TORSDOF 5
ENDMDL
MODEL 4
REMARK VINA RESULT:    -6.490      1.916      3.619
REMARK INTER + INTRA:          -7.658
REMARK INTER:                  -8.082
REMARK INTRA:                   0.424
REMARK UNBOUND:                -0.030
REMARK SMILES O=c1c(O)c(-c2ccc(O)c(O)c2)oc2cc(O)ccc12
REMARK SMILES IDX 5 1 3 2 2 3 1 4 21 5 15 6 14 7 16 8 17 9 19 10 20 11 6 12
REMARK SMILES IDX 7 13 8 14 9 15 13 16 11 17 10 18 12 20 4 22 18 24
REMARK H PARENT 10 19 12 21 4 23 18 25
REMARK Flexibility Score: inf
ROOT
ATOM      1  C   UNL     1       3.058   9.437 -12.952  1.00  0.00     0.180 A 
ATOM      2  C   UNL     1       3.946   9.999 -13.894  1.00  0.00     0.208 A 
ATOM      3  C   UNL     1       4.746   9.142 -14.666  1.00  0.00     0.235 A 
ATOM      4  O   UNL     1       5.554   9.622 -15.507  1.00  0.00    -0.285 OA
ATOM      5  C   UNL     1       4.632   7.754 -14.497  1.00  0.00     0.069 A 
ATOM      6  C   UNL     1       3.704   7.268 -13.551  1.00  0.00     0.142 A 
ATOM      7  O   UNL     1       2.971   8.113 -12.834  1.00  0.00    -0.452 OA
ATOM      8  C   UNL     1       3.553   5.890 -13.360  1.00  0.00     0.094 A 
ATOM      9  C   UNL     1       4.321   4.988 -14.103  1.00  0.00     0.119 A 
ATOM     10  C   UNL     1       5.244   5.465 -15.043  1.00  0.00     0.047 A 
ATOM     11  C   UNL     1       5.401   6.841 -15.241  1.00  0.00     0.020 A 
ENDROOT
BRANCH   1  12
ATOM     12  C   UNL     1       2.195  10.274 -12.089  1.00  0.00     0.025 A 
ATOM     13  C   UNL     1       2.390  11.662 -11.983  1.00  0.00     0.016 A 
ATOM     14  C   UNL     1       1.577  12.427 -11.143  1.00  0.00     0.051 A 
ATOM     15  C   UNL     1       0.570  11.821 -10.387  1.00  0.00     0.157 A 
ATOM     16  C   UNL     1       1.196   9.664 -11.312  1.00  0.00     0.062 A 
ATOM     17  C   UNL     1       0.379  10.431 -10.468  1.00  0.00     0.158 A 
BRANCH  15  18
ATOM     18  O   UNL     1      -0.226  12.611  -9.559  1.00  0.00    -0.504 OA
ATOM     19  H   UNL     1       0.152  13.388  -9.031  1.00  0.00     0.293 HD
ENDBRANCH  15  18
BRANCH  17  20
ATOM     20  O   UNL     1      -0.618   9.817  -9.712  1.00  0.00    -0.504 OA
ATOM     21  H   UNL     1      -1.531  10.241  -9.594  1.00  0.00     0.293 HD
ENDBRANCH  17  20
ENDBRANCH   1  12
BRANCH   2  22
ATOM     22  O   UNL     1       4.001  11.384 -14.074  1.00  0.00    -0.502 OA
ATOM     23  H   UNL     1       4.380  12.006 -13.370  1.00  0.00     0.293 HD
ENDBRANCH   2  22
BRANCH   9  24
ATOM     24  O   UNL     1       4.158   3.619 -13.900  1.00  0.00    -0.508 OA
ATOM     25  H   UNL     1       4.891   2.958 -14.133  1.00  0.00     0.293 HD
ENDBRANCH   9  24
TORSDOF 5
ENDMDL
MODEL 5
REMARK VINA RESULT:    -6.395      1.600      3.329
REMARK INTER + INTRA:          -7.547
REMARK INTER:                  -7.382
REMARK INTRA:                  -0.165
REMARK UNBOUND:                -0.030
REMARK SMILES O=c1c(O)c(-c2ccc(O)c(O)c2)oc2cc(O)ccc12
REMARK SMILES IDX 5 1 3 2 2 3 1 4 21 5 15 6 14 7 16 8 17 9 19 10 20 11 6 12
REMARK SMILES IDX 7 13 8 14 9 15 13 16 11 17 10 18 12 20 4 22 18 24
REMARK H PARENT 10 19 12 21 4 23 18 25
REMARK Flexibility Score: inf
ROOT
ATOM      1  C   UNL     1       3.094   8.910 -12.839  1.00  0.00     0.180 A 
ATOM      2  C   UNL     1       3.748   9.918 -13.578  1.00  0.00     0.208 A 
ATOM      3  C   UNL     1       4.699   9.544 -14.540  1.00  0.00     0.235 A 
ATOM      4  O   UNL     1       5.304  10.429 -15.205  1.00  0.00    -0.285 OA
ATOM      5  C   UNL     1       4.964   8.183 -14.755  1.00  0.00     0.069 A 
ATOM      6  C   UNL     1       4.252   7.234 -13.992  1.00  0.00     0.142 A 
ATOM      7  O   UNL     1       3.364   7.629 -13.086  1.00  0.00    -0.452 OA
ATOM      8  C   UNL     1       4.479   5.866 -14.184  1.00  0.00     0.094 A 
ATOM      9  C   UNL     1       5.414   5.434 -15.131  1.00  0.00     0.119 A 
ATOM     10  C   UNL     1       6.125   6.373 -15.890  1.00  0.00     0.047 A 
ATOM     11  C   UNL     1       5.903   7.742 -15.706  1.00  0.00     0.020 A 
ENDROOT
BRANCH   1  12
ATOM     12  C   UNL     1       2.092   9.224 -11.796  1.00  0.00     0.025 A 
ATOM     13  C   UNL     1       0.868   9.836 -12.117  1.00  0.00     0.016 A 
ATOM     14  C   UNL     1      -0.052  10.144 -11.113  1.00  0.00     0.051 A 
ATOM     15  C   UNL     1       0.238   9.862  -9.775  1.00  0.00     0.157 A 
ATOM     16  C   UNL     1       2.390   8.959 -10.450  1.00  0.00     0.062 A 
ATOM     17  C   UNL     1       1.467   9.268  -9.439  1.00  0.00     0.158 A 
BRANCH  15  18
ATOM     18  O   UNL     1      -0.701  10.179  -8.795  1.00  0.00    -0.504 OA
ATOM     19  H   UNL     1      -0.797  11.117  -8.424  1.00  0.00     0.293 HD
ENDBRANCH  15  18
BRANCH  17  20
ATOM     20  O   UNL     1       1.767   8.989  -8.107  1.00  0.00    -0.504 OA
ATOM     21  H   UNL     1       2.062   8.065  -7.812  1.00  0.00     0.293 HD
ENDBRANCH  17  20
ENDBRANCH   1  12
BRANCH   2  22
ATOM     22  O   UNL     1       3.427  11.263 -13.376  1.00  0.00    -0.502 OA
ATOM     23  H   UNL     1       2.635  11.705 -13.828  1.00  0.00     0.293 HD
ENDBRANCH   2  22
BRANCH   9  24
ATOM     24  O   UNL     1       5.629   4.069 -15.309  1.00  0.00    -0.508 OA
ATOM     25  H   UNL     1       6.430   3.722 -15.824  1.00  0.00     0.293 HD
ENDBRANCH   9  24
TORSDOF 5
ENDMDL
MODEL 6
REMARK VINA RESULT:    -6.220      2.441      5.281
REMARK INTER + INTRA:          -7.341
REMARK INTER:                  -7.298
REMARK INTRA:                  -0.043
REMARK UNBOUND:                -0.030
REMARK SMILES O=c1c(O)c(-c2ccc(O)c(O)c2)oc2cc(O)ccc12
REMARK SMILES IDX 5 1 3 2 2 3 1 4 21 5 15 6 14 7 16 8 17 9 19 10 20 11 6 12
REMARK SMILES IDX 7 13 8 14 9 15 13 16 11 17 10 18 12 20 4 22 18 24
REMARK H PARENT 10 19 12 21 4 23 18 25
REMARK Flexibility Score: inf
ROOT
ATOM      1  C   UNL     1       3.780   8.643 -13.674  1.00  0.00     0.180 A 
ATOM      2  C   UNL     1       3.197   9.036 -12.451  1.00  0.00     0.208 A 
ATOM      3  C   UNL     1       2.720  10.349 -12.319  1.00  0.00     0.235 A 
ATOM      4  O   UNL     1       2.205  10.726 -11.231  1.00  0.00    -0.285 OA
ATOM      5  C   UNL     1       2.817  11.231 -13.406  1.00  0.00     0.069 A 
ATOM      6  C   UNL     1       3.391  10.755 -14.604  1.00  0.00     0.142 A 
ATOM      7  O   UNL     1       3.838   9.507 -14.686  1.00  0.00    -0.452 OA
ATOM      8  C   UNL     1       3.497  11.600 -15.715  1.00  0.00     0.094 A 
ATOM      9  C   UNL     1       3.035  12.919 -15.643  1.00  0.00     0.119 A 
ATOM     10  C   UNL     1       2.465  13.395 -14.455  1.00  0.00     0.047 A 
ATOM     11  C   UNL     1       2.355  12.558 -13.341  1.00  0.00     0.020 A 
ENDROOT
BRANCH   1  12
ATOM     12  C   UNL     1       4.321   7.281 -13.886  1.00  0.00     0.025 A 
ATOM     13  C   UNL     1       5.643   7.079 -14.317  1.00  0.00     0.016 A 
ATOM     14  C   UNL     1       6.125   5.785 -14.534  1.00  0.00     0.051 A 
ATOM     15  C   UNL     1       5.294   4.678 -14.338  1.00  0.00     0.157 A 
ATOM     16  C   UNL     1       3.482   6.169 -13.710  1.00  0.00     0.062 A 
ATOM     17  C   UNL     1       3.964   4.869 -13.927  1.00  0.00     0.158 A 
BRANCH  15  18
ATOM     18  O   UNL     1       5.803   3.400 -14.561  1.00  0.00    -0.504 OA
ATOM     19  H   UNL     1       6.343   2.906 -13.861  1.00  0.00     0.293 HD
ENDBRANCH  15  18
BRANCH  17  20
ATOM     20  O   UNL     1       3.127   3.771 -13.736  1.00  0.00    -0.504 OA
ATOM     21  H   UNL     1       2.479   3.466 -14.453  1.00  0.00     0.293 HD
ENDBRANCH  17  20
ENDBRANCH   1  12
BRANCH   2  22
ATOM     22  O   UNL     1       3.071   8.121 -11.402  1.00  0.00    -0.502 OA
ATOM     23  H   UNL     1       2.325   7.435 -11.370  1.00  0.00     0.293 HD
ENDBRANCH   2  22
BRANCH   9  24
ATOM     24  O   UNL     1       3.148  13.747 -16.758  1.00  0.00    -0.508 OA
ATOM     25  H   UNL     1       3.425  14.718 -16.670  1.00  0.00     0.293 HD
ENDBRANCH   9  24
TORSDOF 5
ENDMDL
MODEL 7
REMARK VINA RESULT:    -6.032      2.187      6.901
REMARK INTER + INTRA:          -7.119
REMARK INTER:                  -6.838
REMARK INTRA:                  -0.282
REMARK UNBOUND:                -0.030
REMARK SMILES O=c1c(O)c(-c2ccc(O)c(O)c2)oc2cc(O)ccc12
REMARK SMILES IDX 5 1 3 2 2 3 1 4 21 5 15 6 14 7 16 8 17 9 19 10 20 11 6 12
REMARK SMILES IDX 7 13 8 14 9 15 13 16 11 17 10 18 12 20 4 22 18 24
REMARK H PARENT 10 19 12 21 4 23 18 25
REMARK Flexibility Score: inf
ROOT
ATOM      1  C   UNL     1       3.405  10.246 -13.016  1.00  0.00     0.180 A 
ATOM      2  C   UNL     1       2.624  11.217 -12.355  1.00  0.00     0.208 A 
ATOM      3  C   UNL     1       2.139  10.934 -11.069  1.00  0.00     0.235 A 
ATOM      4  O   UNL     1       1.429  11.783 -10.463  1.00  0.00    -0.285 OA
ATOM      5  C   UNL     1       2.455   9.707 -10.466  1.00  0.00     0.069 A 
ATOM      6  C   UNL     1       3.262   8.798 -11.183  1.00  0.00     0.142 A 
ATOM      7  O   UNL     1       3.695   9.100 -12.402  1.00  0.00    -0.452 OA
ATOM      8  C   UNL     1       3.609   7.568 -10.612  1.00  0.00     0.094 A 
ATOM      9  C   UNL     1       3.156   7.233  -9.331  1.00  0.00     0.119 A 
ATOM     10  C   UNL     1       2.354   8.132  -8.617  1.00  0.00     0.047 A 
ATOM     11  C   UNL     1       2.004   9.364  -9.178  1.00  0.00     0.020 A 
ENDROOT
BRANCH   1  12
ATOM     12  C   UNL     1       3.939  10.461 -14.380  1.00  0.00     0.025 A 
ATOM     13  C   UNL     1       5.267  10.871 -14.590  1.00  0.00     0.016 A 
ATOM     14  C   UNL     1       5.741  11.091 -15.886  1.00  0.00     0.051 A 
ATOM     15  C   UNL     1       4.898  10.920 -16.987  1.00  0.00     0.157 A 
ATOM     16  C   UNL     1       3.088  10.310 -15.487  1.00  0.00     0.062 A 
ATOM     17  C   UNL     1       3.562  10.530 -16.788  1.00  0.00     0.158 A 
BRANCH  15  18
ATOM     18  O   UNL     1       5.400  11.145 -18.268  1.00  0.00    -0.504 OA
ATOM     19  H   UNL     1       6.378  11.344 -18.436  1.00  0.00     0.293 HD
ENDBRANCH  15  18
BRANCH  17  20
ATOM     20  O   UNL     1       2.713  10.364 -17.881  1.00  0.00    -0.504 OA
ATOM     21  H   UNL     1       2.626   9.473 -18.355  1.00  0.00     0.293 HD
ENDBRANCH  17  20
ENDBRANCH   1  12
BRANCH   2  22
ATOM     22  O   UNL     1       2.367  12.449 -12.961  1.00  0.00    -0.502 OA
ATOM     23  H   UNL     1       2.724  13.321 -12.588  1.00  0.00     0.293 HD
ENDBRANCH   2  22
BRANCH   9  24
ATOM     24  O   UNL     1       3.510   6.004  -8.779  1.00  0.00    -0.508 OA
ATOM     25  H   UNL     1       3.732   5.205  -9.362  1.00  0.00     0.293 HD
ENDBRANCH   9  24
TORSDOF 5
ENDMDL
MODEL 8
REMARK VINA RESULT:    -5.979      2.213      7.102
REMARK INTER + INTRA:          -7.057
REMARK INTER:                  -6.744
REMARK INTRA:                  -0.313
REMARK UNBOUND:                -0.030
REMARK SMILES O=c1c(O)c(-c2ccc(O)c(O)c2)oc2cc(O)ccc12
REMARK SMILES IDX 5 1 3 2 2 3 1 4 21 5 15 6 14 7 16 8 17 9 19 10 20 11 6 12
REMARK SMILES IDX 7 13 8 14 9 15 13 16 11 17 10 18 12 20 4 22 18 24
REMARK H PARENT 10 19 12 21 4 23 18 25
REMARK Flexibility Score: inf
ROOT
ATOM      1  C   UNL     1       3.662  10.686 -14.199  1.00  0.00     0.180 A 
ATOM      2  C   UNL     1       4.058  11.978 -13.796  1.00  0.00     0.208 A 
ATOM      3  C   UNL     1       3.397  12.584 -12.716  1.00  0.00     0.235 A 
ATOM      4  O   UNL     1       3.728  13.743 -12.345  1.00  0.00    -0.285 OA
ATOM      5  C   UNL     1       2.376  11.886 -12.053  1.00  0.00     0.069 A 
ATOM      6  C   UNL     1       2.053  10.587 -12.501  1.00  0.00     0.142 A 
ATOM      7  O   UNL     1       2.697  10.052 -13.533  1.00  0.00    -0.452 OA
ATOM      8  C   UNL     1       1.047   9.854 -11.861  1.00  0.00     0.094 A 
ATOM      9  C   UNL     1       0.356  10.405 -10.776  1.00  0.00     0.119 A 
ATOM     10  C   UNL     1       0.673  11.695 -10.329  1.00  0.00     0.047 A 
ATOM     11  C   UNL     1       1.677  12.434 -10.962  1.00  0.00     0.020 A 
ENDROOT
BRANCH   1  12
ATOM     12  C   UNL     1       4.297   9.987 -15.339  1.00  0.00     0.025 A 
ATOM     13  C   UNL     1       5.468   9.228 -15.172  1.00  0.00     0.016 A 
ATOM     14  C   UNL     1       6.063   8.597 -16.267  1.00  0.00     0.051 A 
ATOM     15  C   UNL     1       5.510   8.726 -17.544  1.00  0.00     0.157 A 
ATOM     16  C   UNL     1       3.755  10.132 -16.626  1.00  0.00     0.062 A 
ATOM     17  C   UNL     1       4.351   9.499 -17.728  1.00  0.00     0.158 A 
BRANCH  15  18
ATOM     18  O   UNL     1       6.125   8.084 -18.618  1.00  0.00    -0.504 OA
ATOM     19  H   UNL     1       5.682   8.006 -19.525  1.00  0.00     0.293 HD
ENDBRANCH  15  18
BRANCH  17  20
ATOM     20  O   UNL     1       3.797   9.638 -18.999  1.00  0.00    -0.504 OA
ATOM     21  H   UNL     1       3.355  10.500 -19.295  1.00  0.00     0.293 HD
ENDBRANCH  17  20
ENDBRANCH   1  12
BRANCH   2  22
ATOM     22  O   UNL     1       5.112  12.628 -14.445  1.00  0.00    -0.502 OA
ATOM     23  H   UNL     1       5.941  12.136 -14.757  1.00  0.00     0.293 HD
ENDBRANCH   2  22
BRANCH   9  24
ATOM     24  O   UNL     1      -0.642   9.663 -10.150  1.00  0.00    -0.508 OA
ATOM     25  H   UNL     1      -1.216   9.006 -10.667  1.00  0.00     0.293 HD
ENDBRANCH   9  24
TORSDOF 5
ENDMDL
MODEL 9
REMARK VINA RESULT:    -5.897      2.614      3.347
REMARK INTER + INTRA:          -6.961
REMARK INTER:                  -6.647
REMARK INTRA:                  -0.313
REMARK UNBOUND:                -0.030
REMARK SMILES O=c1c(O)c(-c2ccc(O)c(O)c2)oc2cc(O)ccc12
REMARK SMILES IDX 5 1 3 2 2 3 1 4 21 5 15 6 14 7 16 8 17 9 19 10 20 11 6 12
REMARK SMILES IDX 7 13 8 14 9 15 13 16 11 17 10 18 12 20 4 22 18 24
REMARK H PARENT 10 19 12 21 4 23 18 25
REMARK Flexibility Score: inf
ROOT
ATOM      1  C   UNL     1       3.161  11.133 -12.760  1.00  0.00     0.180 A 
ATOM      2  C   UNL     1       4.240  12.034 -12.647  1.00  0.00     0.208 A 
ATOM      3  C   UNL     1       5.001  12.326 -13.789  1.00  0.00     0.235 A 
ATOM      4  O   UNL     1       5.977  13.121 -13.709  1.00  0.00    -0.285 OA
ATOM      5  C   UNL     1       4.662  11.733 -15.015  1.00  0.00     0.069 A 
ATOM      6  C   UNL     1       3.554  10.860 -15.052  1.00  0.00     0.142 A 
ATOM      7  O   UNL     1       2.863  10.603 -13.946  1.00  0.00    -0.452 OA
ATOM      8  C   UNL     1       3.177  10.256 -16.256  1.00  0.00     0.094 A 
ATOM      9  C   UNL     1       3.897  10.512 -17.428  1.00  0.00     0.119 A 
ATOM     10  C   UNL     1       4.999  11.377 -17.396  1.00  0.00     0.047 A 
ATOM     11  C   UNL     1       5.381  11.986 -16.197  1.00  0.00     0.020 A 
ENDROOT
BRANCH   1  12
ATOM     12  C   UNL     1       2.321  10.760 -11.599  1.00  0.00     0.025 A 
ATOM     13  C   UNL     1       1.216  11.538 -11.215  1.00  0.00     0.016 A 
ATOM     14  C   UNL     1       0.453  11.180 -10.101  1.00  0.00     0.051 A 
ATOM     15  C   UNL     1       0.788  10.052  -9.347  1.00  0.00     0.157 A 
ATOM     16  C   UNL     1       2.668   9.640 -10.827  1.00  0.00     0.062 A 
ATOM     17  C   UNL     1       1.903   9.278  -9.708  1.00  0.00     0.158 A 
BRANCH  15  18
ATOM     18  O   UNL     1       0.007   9.719  -8.241  1.00  0.00    -0.504 OA
ATOM     19  H   UNL     1       0.379   9.201  -7.455  1.00  0.00     0.293 HD
ENDBRANCH  15  18
BRANCH  17  20
ATOM     20  O   UNL     1       2.248   8.155  -8.957  1.00  0.00    -0.504 OA
ATOM     21  H   UNL     1       2.483   8.226  -7.974  1.00  0.00     0.293 HD
ENDBRANCH  17  20
ENDBRANCH   1  12
BRANCH   2  22
ATOM     22  O   UNL     1       4.523  12.647 -11.423  1.00  0.00    -0.502 OA
ATOM     23  H   UNL     1       5.053  12.182 -10.695  1.00  0.00     0.293 HD
ENDBRANCH   2  22
BRANCH   9  24
ATOM     24  O   UNL     1       3.508   9.902 -18.619  1.00  0.00    -0.508 OA
ATOM     25  H   UNL     1       4.178   9.700 -19.353  1.00  0.00     0.293 HD
ENDBRANCH   9  24
TORSDOF 5
ENDMDL
