MODEL 1
REMARK VINA RESULT:    -5.350      0.000      0.000
REMARK INTER + INTRA:          -8.642
REMARK INTER:                  -7.227
REMARK INTRA:                  -1.415
REMARK UNBOUND:                -1.415
REMARK SMILES O=c1c(-c2ccc(O)cc2)coc2c([C@@H]3O[C@H](CO)[C@H](O)[C@H](O)[C@@H]3O)c(O)ccc12
REMARK SMILES IDX 3 1 11 2 12 3 13 4 30 5 2 6 1 7 29 8 28 9 26 10 14 11 4 12
REMARK SMILES IDX 5 13 6 14 7 15 10 16 9 17 8 18 15 20 24 21 16 22 22 23 17 24
REMARK SMILES IDX 20 25 25 26 23 28 18 30 19 31 21 33 27 35
REMARK H PARENT 8 19 25 27 23 29 19 32 21 34 27 36
REMARK Flexibility Score: inf
ROOT
ATOM      1  C   UNL     1      29.450  -0.262 -28.993  1.00  0.00     0.065 A 
ATOM      2  C   UNL     1      30.286  -1.313 -29.391  1.00  0.00     0.208 A 
ATOM      3  O   UNL     1      29.838  -2.563 -29.430  1.00  0.00    -0.463 OA
ATOM      4  C   UNL     1      28.594  -2.903 -29.100  1.00  0.00     0.147 A 
ATOM      5  C   UNL     1      27.687  -1.905 -28.676  1.00  0.00     0.066 A 
ATOM      6  C   UNL     1      28.129  -0.570 -28.622  1.00  0.00     0.200 A 
ATOM      7  O   UNL     1      27.353   0.342 -28.223  1.00  0.00    -0.288 OA
ATOM      8  C   UNL     1      26.383  -2.263 -28.313  1.00  0.00     0.020 A 
ATOM      9  C   UNL     1      25.989  -3.597 -28.344  1.00  0.00     0.047 A 
ATOM     10  C   UNL     1      26.876  -4.601 -28.741  1.00  0.00     0.125 A 
ATOM     11  C   UNL     1      28.189  -4.260 -29.174  1.00  0.00     0.069 A 
ENDROOT
BRANCH   1  12
ATOM     12  C   UNL     1      29.971   1.128 -28.968  1.00  0.00    -0.011 A 
ATOM     13  C   UNL     1      29.869   1.954 -30.102  1.00  0.00     0.013 A 
ATOM     14  C   UNL     1      30.369   3.259 -30.075  1.00  0.00     0.047 A 
ATOM     15  C   UNL     1      30.979   3.755 -28.919  1.00  0.00     0.115 A 
ATOM     16  C   UNL     1      30.592   1.632 -27.811  1.00  0.00     0.013 A 
ATOM     17  C   UNL     1      31.091   2.938 -27.787  1.00  0.00     0.047 A 
BRANCH  15  18
ATOM     18  O   UNL     1      31.472   5.058 -28.907  1.00  0.00    -0.508 OA
ATOM     19  H   UNL     1      32.468   5.247 -28.897  1.00  0.00     0.293 HD
ENDBRANCH  15  18
ENDBRANCH   1  12
BRANCH  11  20
ATOM     20  C   UNL     1      29.179  -5.305 -29.687  1.00  0.00     0.188 C 
ATOM     21  C   UNL     1      29.889  -6.073 -28.536  1.00  0.00     0.179 C 
ATOM     22  O   UNL     1      28.547  -6.206 -30.577  1.00  0.00    -0.362 OA
ATOM     23  C   UNL     1      30.424  -7.447 -29.025  1.00  0.00     0.177 C 
ATOM     24  C   UNL     1      29.496  -6.906 -31.372  1.00  0.00     0.176 C 
ATOM     25  C   UNL     1      30.720  -7.431 -30.542  1.00  0.00     0.177 C 
BRANCH  21  26
ATOM     26  O   UNL     1      29.043  -6.262 -27.429  1.00  0.00    -0.387 OA
ATOM     27  H   UNL     1      29.452  -6.969 -26.862  1.00  0.00     0.211 HD
ENDBRANCH  21  26
BRANCH  23  28
ATOM     28  O   UNL     1      29.557  -8.505 -28.692  1.00  0.00    -0.387 OA
ATOM     29  H   UNL     1      29.154  -8.849 -29.529  1.00  0.00     0.211 HD
ENDBRANCH  23  28
BRANCH  24  30
ATOM     30  C   UNL     1      28.761  -8.028 -32.127  1.00  0.00     0.191 C 
BRANCH  30  31
ATOM     31  O   UNL     1      27.998  -8.799 -31.237  1.00  0.00    -0.394 OA
ATOM     32  H   UNL     1      27.420  -8.170 -30.731  1.00  0.00     0.210 HD
ENDBRANCH  30  31
ENDBRANCH  24  30
BRANCH  25  33
ATOM     33  O   UNL     1      31.139  -8.703 -30.972  1.00  0.00    -0.388 OA
ATOM     34  H   UNL     1      31.895  -8.562 -31.599  1.00  0.00     0.211 HD
ENDBRANCH  25  33
ENDBRANCH  11  20
BRANCH  10  35
ATOM     35  O   UNL     1      26.414  -5.917 -28.668  1.00  0.00    -0.507 OA
ATOM     36  H   UNL     1      25.825  -6.351 -29.362  1.00  0.00     0.293 HD
ENDBRANCH  10  35
TORSDOF 9
ENDMDL
MODEL 2
REMARK VINA RESULT:    -5.270      4.724      8.725
REMARK INTER + INTRA:          -8.534
REMARK INTER:                  -7.036
REMARK INTRA:                  -1.498
REMARK UNBOUND:                -1.415
REMARK SMILES O=c1c(-c2ccc(O)cc2)coc2c([C@@H]3O[C@H](CO)[C@H](O)[C@H](O)[C@@H]3O)c(O)ccc12
REMARK SMILES IDX 3 1 11 2 12 3 13 4 30 5 2 6 1 7 29 8 28 9 26 10 14 11 4 12
REMARK SMILES IDX 5 13 6 14 7 15 10 16 9 17 8 18 15 20 24 21 16 22 22 23 17 24
REMARK SMILES IDX 20 25 25 26 23 28 18 30 19 31 21 33 27 35
REMARK H PARENT 8 19 25 27 23 29 19 32 21 34 27 36
REMARK Flexibility Score: inf
ROOT
ATOM      1  C   UNL     1      24.327  -7.497 -25.094  1.00  0.00     0.065 A 
ATOM      2  C   UNL     1      25.475  -8.137 -25.579  1.00  0.00     0.208 A 
ATOM      3  O   UNL     1      26.235  -7.564 -26.505  1.00  0.00    -0.463 OA
ATOM      4  C   UNL     1      25.970  -6.370 -27.031  1.00  0.00     0.147 A 
ATOM      5  C   UNL     1      24.824  -5.660 -26.605  1.00  0.00     0.066 A 
ATOM      6  C   UNL     1      23.995  -6.238 -25.626  1.00  0.00     0.200 A 
ATOM      7  O   UNL     1      22.950  -5.643 -25.243  1.00  0.00    -0.288 OA
ATOM      8  C   UNL     1      24.535  -4.410 -27.169  1.00  0.00     0.020 A 
ATOM      9  C   UNL     1      25.355  -3.883 -28.161  1.00  0.00     0.047 A 
ATOM     10  C   UNL     1      26.481  -4.578 -28.610  1.00  0.00     0.125 A 
ATOM     11  C   UNL     1      26.835  -5.821 -28.012  1.00  0.00     0.069 A 
ENDROOT
BRANCH   1  12
ATOM     12  C   UNL     1      23.499  -8.153 -24.051  1.00  0.00    -0.011 A 
ATOM     13  C   UNL     1      23.732  -7.902 -22.686  1.00  0.00     0.013 A 
ATOM     14  C   UNL     1      22.954  -8.529 -21.709  1.00  0.00     0.047 A 
ATOM     15  C   UNL     1      21.939  -9.417 -22.079  1.00  0.00     0.115 A 
ATOM     16  C   UNL     1      22.481  -9.053 -24.416  1.00  0.00     0.013 A 
ATOM     17  C   UNL     1      21.706  -9.679 -23.435  1.00  0.00     0.047 A 
BRANCH  15  18
ATOM     18  O   UNL     1      21.173 -10.035 -21.094  1.00  0.00    -0.508 OA
ATOM     19  H   UNL     1      21.592 -10.647 -20.402  1.00  0.00     0.293 HD
ENDBRANCH  15  18
ENDBRANCH   1  12
BRANCH  11  20
ATOM     20  C   UNL     1      28.092  -6.593 -28.410  1.00  0.00     0.188 C 
ATOM     21  C   UNL     1      27.865  -7.516 -29.640  1.00  0.00     0.179 C 
ATOM     22  O   UNL     1      29.175  -5.710 -28.638  1.00  0.00    -0.362 OA
ATOM     23  C   UNL     1      29.204  -7.834 -30.359  1.00  0.00     0.177 C 
ATOM     24  C   UNL     1      30.422  -6.393 -28.597  1.00  0.00     0.176 C 
ATOM     25  C   UNL     1      30.402  -7.750 -29.385  1.00  0.00     0.177 C 
BRANCH  21  26
ATOM     26  O   UNL     1      26.957  -6.957 -30.558  1.00  0.00    -0.387 OA
ATOM     27  H   UNL     1      26.423  -6.278 -30.067  1.00  0.00     0.211 HD
ENDBRANCH  21  26
BRANCH  23  28
ATOM     28  O   UNL     1      29.412  -7.014 -31.484  1.00  0.00    -0.387 OA
ATOM     29  H   UNL     1      28.539  -6.631 -31.753  1.00  0.00     0.211 HD
ENDBRANCH  23  28
BRANCH  24  30
ATOM     30  C   UNL     1      31.517  -5.431 -29.092  1.00  0.00     0.191 C 
BRANCH  30  31
ATOM     31  O   UNL     1      31.240  -5.005 -30.400  1.00  0.00    -0.394 OA
ATOM     32  H   UNL     1      30.254  -4.907 -30.469  1.00  0.00     0.210 HD
ENDBRANCH  30  31
ENDBRANCH  24  30
BRANCH  25  33
ATOM     33  O   UNL     1      31.609  -7.975 -30.073  1.00  0.00    -0.388 OA
ATOM     34  H   UNL     1      31.565  -8.898 -30.438  1.00  0.00     0.211 HD
ENDBRANCH  25  33
ENDBRANCH  11  20
BRANCH  10  35
ATOM     35  O   UNL     1      27.201  -4.004 -29.660  1.00  0.00    -0.507 OA
ATOM     36  H   UNL     1      27.288  -3.011 -29.812  1.00  0.00     0.293 HD
ENDBRANCH  10  35
TORSDOF 9
ENDMDL
MODEL 3
REMARK VINA RESULT:    -5.240      9.198     12.210
REMARK INTER + INTRA:          -8.494
REMARK INTER:                  -8.063
REMARK INTRA:                  -0.431
REMARK UNBOUND:                -1.415
REMARK SMILES O=c1c(-c2ccc(O)cc2)coc2c([C@@H]3O[C@H](CO)[C@H](O)[C@H](O)[C@@H]3O)c(O)ccc12
REMARK SMILES IDX 3 1 11 2 12 3 13 4 30 5 2 6 1 7 29 8 28 9 26 10 14 11 4 12
REMARK SMILES IDX 5 13 6 14 7 15 10 16 9 17 8 18 15 20 24 21 16 22 22 23 17 24
REMARK SMILES IDX 20 25 25 26 23 28 18 30 19 31 21 33 27 35
REMARK H PARENT 8 19 25 27 23 29 19 32 21 34 27 36
REMARK Flexibility Score: inf
ROOT
ATOM      1  C   UNL     1      23.517   5.806 -21.809  1.00  0.00     0.065 A 
ATOM      2  C   UNL     1      22.470   4.964 -22.207  1.00  0.00     0.208 A 
ATOM      3  O   UNL     1      22.592   4.184 -23.275  1.00  0.00    -0.463 OA
ATOM      4  C   UNL     1      23.688   4.144 -24.029  1.00  0.00     0.147 A 
ATOM      5  C   UNL     1      24.789   4.971 -23.704  1.00  0.00     0.066 A 
ATOM      6  C   UNL     1      24.693   5.812 -22.580  1.00  0.00     0.200 A 
ATOM      7  O   UNL     1      25.647   6.581 -22.277  1.00  0.00    -0.288 OA
ATOM      8  C   UNL     1      25.937   4.942 -24.506  1.00  0.00     0.020 A 
ATOM      9  C   UNL     1      25.985   4.126 -25.631  1.00  0.00     0.047 A 
ATOM     10  C   UNL     1      24.901   3.316 -25.981  1.00  0.00     0.125 A 
ATOM     11  C   UNL     1      23.745   3.278 -25.150  1.00  0.00     0.069 A 
ENDROOT
BRANCH   1  12
ATOM     12  C   UNL     1      23.361   6.662 -20.606  1.00  0.00    -0.011 A 
ATOM     13  C   UNL     1      23.444   6.109 -19.315  1.00  0.00     0.013 A 
ATOM     14  C   UNL     1      23.288   6.918 -18.187  1.00  0.00     0.047 A 
ATOM     15  C   UNL     1      23.043   8.288 -18.330  1.00  0.00     0.115 A 
ATOM     16  C   UNL     1      23.107   8.039 -20.743  1.00  0.00     0.013 A 
ATOM     17  C   UNL     1      22.951   8.846 -19.612  1.00  0.00     0.047 A 
BRANCH  15  18
ATOM     18  O   UNL     1      22.889   9.082 -17.197  1.00  0.00    -0.508 OA
ATOM     19  H   UNL     1      22.158   9.781 -17.135  1.00  0.00     0.293 HD
ENDBRANCH  15  18
ENDBRANCH   1  12
BRANCH  11  20
ATOM     20  C   UNL     1      22.558   2.360 -25.441  1.00  0.00     0.188 C 
ATOM     21  C   UNL     1      22.514   1.120 -24.504  1.00  0.00     0.179 C 
ATOM     22  O   UNL     1      21.339   3.078 -25.382  1.00  0.00    -0.362 OA
ATOM     23  C   UNL     1      21.079   0.535 -24.415  1.00  0.00     0.177 C 
ATOM     24  C   UNL     1      20.289   2.379 -26.039  1.00  0.00     0.176 C 
ATOM     25  C   UNL     1      20.259   0.850 -25.687  1.00  0.00     0.177 C 
BRANCH  21  26
ATOM     26  O   UNL     1      22.984   1.420 -23.213  1.00  0.00    -0.387 OA
ATOM     27  H   UNL     1      22.434   0.898 -22.571  1.00  0.00     0.211 HD
ENDBRANCH  21  26
BRANCH  23  28
ATOM     28  O   UNL     1      20.399   0.964 -23.259  1.00  0.00    -0.387 OA
ATOM     29  H   UNL     1      19.760   1.673 -23.522  1.00  0.00     0.211 HD
ENDBRANCH  23  28
BRANCH  24  30
ATOM     30  C   UNL     1      18.961   3.091 -25.722  1.00  0.00     0.191 C 
BRANCH  30  31
ATOM     31  O   UNL     1      18.076   2.980 -26.805  1.00  0.00    -0.394 OA
ATOM     32  H   UNL     1      18.621   2.745 -27.601  1.00  0.00     0.210 HD
ENDBRANCH  30  31
ENDBRANCH  24  30
BRANCH  25  33
ATOM     33  O   UNL     1      18.944   0.368 -25.554  1.00  0.00    -0.388 OA
ATOM     34  H   UNL     1      18.379   1.138 -25.285  1.00  0.00     0.211 HD
ENDBRANCH  25  33
ENDBRANCH  11  20
BRANCH  10  35
ATOM     35  O   UNL     1      25.013   2.588 -27.167  1.00  0.00    -0.507 OA
ATOM     36  H   UNL     1      25.588   1.767 -27.277  1.00  0.00     0.293 HD
ENDBRANCH  10  35
TORSDOF 9
ENDMDL
MODEL 4
REMARK VINA RESULT:    -5.229      2.642      6.094
REMARK INTER + INTRA:          -8.479
REMARK INTER:                  -7.837
REMARK INTRA:                  -0.642
REMARK UNBOUND:                -1.415
REMARK SMILES O=c1c(-c2ccc(O)cc2)coc2c([C@@H]3O[C@H](CO)[C@H](O)[C@H](O)[C@@H]3O)c(O)ccc12
REMARK SMILES IDX 3 1 11 2 12 3 13 4 30 5 2 6 1 7 29 8 28 9 26 10 14 11 4 12
REMARK SMILES IDX 5 13 6 14 7 15 10 16 9 17 8 18 15 20 24 21 16 22 22 23 17 24
REMARK SMILES IDX 20 25 25 26 23 28 18 30 19 31 21 33 27 35
REMARK H PARENT 8 19 25 27 23 29 19 32 21 34 27 36
REMARK Flexibility Score: inf
ROOT
ATOM      1  C   UNL     1      25.655  -4.263 -27.764  1.00  0.00     0.065 A 
ATOM      2  C   UNL     1      26.265  -5.348 -28.409  1.00  0.00     0.208 A 
ATOM      3  O   UNL     1      27.474  -5.230 -28.944  1.00  0.00    -0.463 OA
ATOM      4  C   UNL     1      28.181  -4.102 -28.911  1.00  0.00     0.147 A 
ATOM      5  C   UNL     1      27.635  -2.955 -28.289  1.00  0.00     0.066 A 
ATOM      6  C   UNL     1      26.355  -3.045 -27.713  1.00  0.00     0.200 A 
ATOM      7  O   UNL     1      25.828  -2.033 -27.172  1.00  0.00    -0.288 OA
ATOM      8  C   UNL     1      28.370  -1.763 -28.267  1.00  0.00     0.020 A 
ATOM      9  C   UNL     1      29.618  -1.700 -28.878  1.00  0.00     0.047 A 
ATOM     10  C   UNL     1      30.167  -2.815 -29.516  1.00  0.00     0.125 A 
ATOM     11  C   UNL     1      29.470  -4.057 -29.500  1.00  0.00     0.069 A 
ENDROOT
BRANCH   1  12
ATOM     12  C   UNL     1      24.306  -4.423 -27.164  1.00  0.00    -0.011 A 
ATOM     13  C   UNL     1      24.098  -5.309 -26.091  1.00  0.00     0.013 A 
ATOM     14  C   UNL     1      22.824  -5.460 -25.536  1.00  0.00     0.047 A 
ATOM     15  C   UNL     1      21.743  -4.735 -26.046  1.00  0.00     0.115 A 
ATOM     16  C   UNL     1      23.213  -3.702 -27.676  1.00  0.00     0.013 A 
ATOM     17  C   UNL     1      21.940  -3.856 -27.119  1.00  0.00     0.047 A 
BRANCH  15  18
ATOM     18  O   UNL     1      20.479  -4.897 -25.482  1.00  0.00    -0.508 OA
ATOM     19  H   UNL     1      19.676  -5.147 -26.047  1.00  0.00     0.293 HD
ENDBRANCH  15  18
ENDBRANCH   1  12
BRANCH  11  20
ATOM     20  C   UNL     1      30.050  -5.329 -30.118  1.00  0.00     0.188 C 
ATOM     21  C   UNL     1      30.790  -6.217 -29.078  1.00  0.00     0.179 C 
ATOM     22  O   UNL     1      29.045  -6.069 -30.786  1.00  0.00    -0.362 OA
ATOM     23  C   UNL     1      30.865  -7.694 -29.554  1.00  0.00     0.177 C 
ATOM     24  C   UNL     1      29.606  -7.005 -31.699  1.00  0.00     0.176 C 
ATOM     25  C   UNL     1      30.821  -7.794 -31.096  1.00  0.00     0.177 C 
BRANCH  21  26
ATOM     26  O   UNL     1      30.183  -6.160 -27.810  1.00  0.00    -0.387 OA
ATOM     27  H   UNL     1      29.335  -6.675 -27.865  1.00  0.00     0.211 HD
ENDBRANCH  21  26
BRANCH  23  28
ATOM     28  O   UNL     1      29.865  -8.494 -28.969  1.00  0.00    -0.387 OA
ATOM     29  H   UNL     1      30.297  -9.099 -28.315  1.00  0.00     0.211 HD
ENDBRANCH  23  28
BRANCH  24  30
ATOM     30  C   UNL     1      28.480  -7.929 -32.197  1.00  0.00     0.191 C 
BRANCH  30  31
ATOM     31  O   UNL     1      27.852  -8.562 -31.114  1.00  0.00    -0.394 OA
ATOM     32  H   UNL     1      27.451  -7.846 -30.554  1.00  0.00     0.210 HD
ENDBRANCH  30  31
ENDBRANCH  24  30
BRANCH  25  33
ATOM     33  O   UNL     1      30.823  -9.142 -31.499  1.00  0.00    -0.388 OA
ATOM     34  H   UNL     1      30.210  -9.212 -32.277  1.00  0.00     0.211 HD
ENDBRANCH  25  33
ENDBRANCH  11  20
BRANCH  10  35
ATOM     35  O   UNL     1      31.390  -2.635 -30.165  1.00  0.00    -0.507 OA
ATOM     36  H   UNL     1      32.042  -1.895 -29.952  1.00  0.00     0.293 HD
ENDBRANCH  10  35
TORSDOF 9
ENDMDL
MODEL 5
REMARK VINA RESULT:    -5.098      7.769     10.666
REMARK INTER + INTRA:          -8.301
REMARK INTER:                  -6.809
REMARK INTRA:                  -1.493
REMARK UNBOUND:                -1.415
REMARK SMILES O=c1c(-c2ccc(O)cc2)coc2c([C@@H]3O[C@H](CO)[C@H](O)[C@H](O)[C@@H]3O)c(O)ccc12
REMARK SMILES IDX 3 1 11 2 12 3 13 4 30 5 2 6 1 7 29 8 28 9 26 10 14 11 4 12
REMARK SMILES IDX 5 13 6 14 7 15 10 16 9 17 8 18 15 20 24 21 16 22 22 23 17 24
REMARK SMILES IDX 20 25 25 26 23 28 18 30 19 31 21 33 27 35
REMARK H PARENT 8 19 25 27 23 29 19 32 21 34 27 36
REMARK Flexibility Score: inf
ROOT
ATOM      1  C   UNL     1      23.966   5.209 -22.062  1.00  0.00     0.065 A 
ATOM      2  C   UNL     1      25.347   5.145 -22.291  1.00  0.00     0.208 A 
ATOM      3  O   UNL     1      25.831   4.534 -23.366  1.00  0.00    -0.463 OA
ATOM      4  C   UNL     1      25.063   3.949 -24.282  1.00  0.00     0.147 A 
ATOM      5  C   UNL     1      23.658   3.957 -24.122  1.00  0.00     0.066 A 
ATOM      6  C   UNL     1      23.110   4.595 -22.993  1.00  0.00     0.200 A 
ATOM      7  O   UNL     1      21.862   4.598 -22.806  1.00  0.00    -0.288 OA
ATOM      8  C   UNL     1      22.848   3.328 -25.076  1.00  0.00     0.020 A 
ATOM      9  C   UNL     1      23.424   2.675 -26.161  1.00  0.00     0.047 A 
ATOM     10  C   UNL     1      24.810   2.638 -26.327  1.00  0.00     0.125 A 
ATOM     11  C   UNL     1      25.655   3.321 -25.407  1.00  0.00     0.069 A 
ENDROOT
BRANCH   1  12
ATOM     12  C   UNL     1      23.448   5.907 -20.858  1.00  0.00    -0.011 A 
ATOM     13  C   UNL     1      23.114   7.273 -20.909  1.00  0.00     0.013 A 
ATOM     14  C   UNL     1      22.635   7.927 -19.770  1.00  0.00     0.047 A 
ATOM     15  C   UNL     1      22.486   7.229 -18.567  1.00  0.00     0.115 A 
ATOM     16  C   UNL     1      23.302   5.214 -19.643  1.00  0.00     0.013 A 
ATOM     17  C   UNL     1      22.822   5.871 -18.506  1.00  0.00     0.047 A 
BRANCH  15  18
ATOM     18  O   UNL     1      22.007   7.894 -17.441  1.00  0.00    -0.508 OA
ATOM     19  H   UNL     1      22.399   8.780 -17.142  1.00  0.00     0.293 HD
ENDBRANCH  15  18
ENDBRANCH   1  12
BRANCH  11  20
ATOM     20  C   UNL     1      27.173   3.377 -25.575  1.00  0.00     0.188 C 
ATOM     21  C   UNL     1      27.888   2.128 -24.984  1.00  0.00     0.179 C 
ATOM     22  O   UNL     1      27.524   3.561 -26.934  1.00  0.00    -0.362 OA
ATOM     23  C   UNL     1      29.283   1.921 -25.634  1.00  0.00     0.177 C 
ATOM     24  C   UNL     1      28.862   4.025 -27.069  1.00  0.00     0.176 C 
ATOM     25  C   UNL     1      29.872   3.255 -26.147  1.00  0.00     0.177 C 
BRANCH  21  26
ATOM     26  O   UNL     1      27.118   0.961 -25.136  1.00  0.00    -0.387 OA
ATOM     27  H   UNL     1      26.456   1.135 -25.856  1.00  0.00     0.211 HD
ENDBRANCH  21  26
BRANCH  23  28
ATOM     28  O   UNL     1      29.256   0.956 -26.659  1.00  0.00    -0.387 OA
ATOM     29  H   UNL     1      29.496   1.402 -27.510  1.00  0.00     0.211 HD
ENDBRANCH  23  28
BRANCH  24  30
ATOM     30  C   UNL     1      29.247   3.965 -28.558  1.00  0.00     0.191 C 
BRANCH  30  31
ATOM     31  O   UNL     1      29.153   2.649 -29.035  1.00  0.00    -0.394 OA
ATOM     32  H   UNL     1      28.582   2.676 -29.847  1.00  0.00     0.210 HD
ENDBRANCH  30  31
ENDBRANCH  24  30
BRANCH  25  33
ATOM     33  O   UNL     1      31.104   3.031 -26.790  1.00  0.00    -0.388 OA
ATOM     34  H   UNL     1      30.898   2.736 -27.715  1.00  0.00     0.211 HD
ENDBRANCH  25  33
ENDBRANCH  11  20
BRANCH  10  35
ATOM     35  O   UNL     1      25.299   1.896 -27.405  1.00  0.00    -0.507 OA
ATOM     36  H   UNL     1      25.243   0.891 -27.474  1.00  0.00     0.293 HD
ENDBRANCH  10  35
TORSDOF 9
ENDMDL
MODEL 6
REMARK VINA RESULT:    -4.870     12.995     15.482
REMARK INTER + INTRA:          -7.994
REMARK INTER:                  -6.685
REMARK INTRA:                  -1.309
REMARK UNBOUND:                -1.415
REMARK SMILES O=c1c(-c2ccc(O)cc2)coc2c([C@@H]3O[C@H](CO)[C@H](O)[C@H](O)[C@@H]3O)c(O)ccc12
REMARK SMILES IDX 3 1 11 2 12 3 13 4 30 5 2 6 1 7 29 8 28 9 26 10 14 11 4 12
REMARK SMILES IDX 5 13 6 14 7 15 10 16 9 17 8 18 15 20 24 21 16 22 22 23 17 24
REMARK SMILES IDX 20 25 25 26 23 28 18 30 19 31 21 33 27 35
REMARK H PARENT 8 19 25 27 23 29 19 32 21 34 27 36
REMARK Flexibility Score: inf
ROOT
ATOM      1  C   UNL     1      29.216  -3.366 -15.747  1.00  0.00     0.065 A 
ATOM      2  C   UNL     1      27.871  -3.617 -15.447  1.00  0.00     0.208 A 
ATOM      3  O   UNL     1      26.932  -2.718 -15.721  1.00  0.00    -0.463 OA
ATOM      4  C   UNL     1      27.191  -1.541 -16.284  1.00  0.00     0.147 A 
ATOM      5  C   UNL     1      28.525  -1.202 -16.610  1.00  0.00     0.066 A 
ATOM      6  C   UNL     1      29.545  -2.130 -16.332  1.00  0.00     0.200 A 
ATOM      7  O   UNL     1      30.749  -1.849 -16.586  1.00  0.00    -0.288 OA
ATOM      8  C   UNL     1      28.801   0.044 -17.188  1.00  0.00     0.020 A 
ATOM      9  C   UNL     1      27.774   0.953 -17.416  1.00  0.00     0.047 A 
ATOM     10  C   UNL     1      26.452   0.646 -17.083  1.00  0.00     0.125 A 
ATOM     11  C   UNL     1      26.132  -0.636 -16.552  1.00  0.00     0.069 A 
ENDROOT
BRANCH   1  12
ATOM     12  C   UNL     1      30.246  -4.391 -15.441  1.00  0.00    -0.011 A 
ATOM     13  C   UNL     1      30.734  -5.242 -16.450  1.00  0.00     0.013 A 
ATOM     14  C   UNL     1      31.697  -6.210 -16.153  1.00  0.00     0.047 A 
ATOM     15  C   UNL     1      32.183  -6.345 -14.849  1.00  0.00     0.115 A 
ATOM     16  C   UNL     1      30.733  -4.537 -14.130  1.00  0.00     0.013 A 
ATOM     17  C   UNL     1      31.697  -5.507 -13.837  1.00  0.00     0.047 A 
BRANCH  15  18
ATOM     18  O   UNL     1      33.143  -7.314 -14.569  1.00  0.00    -0.508 OA
ATOM     19  H   UNL     1      33.404  -7.541 -13.616  1.00  0.00     0.293 HD
ENDBRANCH  15  18
ENDBRANCH   1  12
BRANCH  11  20
ATOM     20  C   UNL     1      24.698  -1.056 -16.235  1.00  0.00     0.188 C 
ATOM     21  C   UNL     1      24.342  -0.887 -14.731  1.00  0.00     0.179 C 
ATOM     22  O   UNL     1      23.776  -0.358 -17.051  1.00  0.00    -0.362 OA
ATOM     23  C   UNL     1      22.807  -0.766 -14.528  1.00  0.00     0.177 C 
ATOM     24  C   UNL     1      22.510  -1.007 -17.080  1.00  0.00     0.176 C 
ATOM     25  C   UNL     1      22.029  -1.473 -15.661  1.00  0.00     0.177 C 
BRANCH  21  26
ATOM     26  O   UNL     1      24.983   0.227 -14.160  1.00  0.00    -0.387 OA
ATOM     27  H   UNL     1      24.327   0.670 -13.560  1.00  0.00     0.211 HD
ENDBRANCH  21  26
BRANCH  23  28
ATOM     28  O   UNL     1      22.391   0.572 -14.391  1.00  0.00    -0.387 OA
ATOM     29  H   UNL     1      21.440   0.629 -14.658  1.00  0.00     0.211 HD
ENDBRANCH  23  28
BRANCH  24  30
ATOM     30  C   UNL     1      21.503  -0.072 -17.775  1.00  0.00     0.191 C 
BRANCH  30  31
ATOM     31  O   UNL     1      21.381   1.131 -17.064  1.00  0.00    -0.394 OA
ATOM     32  H   UNL     1      20.451   1.168 -16.718  1.00  0.00     0.210 HD
ENDBRANCH  30  31
ENDBRANCH  24  30
BRANCH  25  33
ATOM     33  O   UNL     1      20.644  -1.293 -15.491  1.00  0.00    -0.388 OA
ATOM     34  H   UNL     1      20.249  -2.194 -15.356  1.00  0.00     0.211 HD
ENDBRANCH  25  33
ENDBRANCH  11  20
BRANCH  10  35
ATOM     35  O   UNL     1      25.501   1.649 -17.280  1.00  0.00    -0.507 OA
ATOM     36  H   UNL     1      25.415   2.471 -16.702  1.00  0.00     0.293 HD
ENDBRANCH  10  35
TORSDOF 9
ENDMDL
MODEL 7
REMARK VINA RESULT:    -4.861      9.341     12.858
REMARK INTER + INTRA:          -7.981
REMARK INTER:                  -6.509
REMARK INTRA:                  -1.472
REMARK UNBOUND:                -1.415
REMARK SMILES O=c1c(-c2ccc(O)cc2)coc2c([C@@H]3O[C@H](CO)[C@H](O)[C@H](O)[C@@H]3O)c(O)ccc12
REMARK SMILES IDX 3 1 11 2 12 3 13 4 30 5 2 6 1 7 29 8 28 9 26 10 14 11 4 12
REMARK SMILES IDX 5 13 6 14 7 15 10 16 9 17 8 18 15 20 24 21 16 22 22 23 17 24
REMARK SMILES IDX 20 25 25 26 23 28 18 30 19 31 21 33 27 35
REMARK H PARENT 8 19 25 27 23 29 19 32 21 34 27 36
REMARK Flexibility Score: inf
ROOT
ATOM      1  C   UNL     1      23.749   2.290 -19.123  1.00  0.00     0.065 A 
ATOM      2  C   UNL     1      24.235   1.681 -20.288  1.00  0.00     0.208 A 
ATOM      3  O   UNL     1      24.430   2.388 -21.395  1.00  0.00    -0.463 OA
ATOM      4  C   UNL     1      24.183   3.693 -21.482  1.00  0.00     0.147 A 
ATOM      5  C   UNL     1      23.679   4.384 -20.355  1.00  0.00     0.066 A 
ATOM      6  C   UNL     1      23.459   3.665 -19.165  1.00  0.00     0.200 A 
ATOM      7  O   UNL     1      22.986   4.246 -18.149  1.00  0.00    -0.288 OA
ATOM      8  C   UNL     1      23.403   5.754 -20.449  1.00  0.00     0.020 A 
ATOM      9  C   UNL     1      23.598   6.426 -21.652  1.00  0.00     0.047 A 
ATOM     10  C   UNL     1      24.076   5.758 -22.782  1.00  0.00     0.125 A 
ATOM     11  C   UNL     1      24.424   4.380 -22.699  1.00  0.00     0.069 A 
ENDROOT
BRANCH   1  12
ATOM     12  C   UNL     1      23.549   1.481 -17.894  1.00  0.00    -0.011 A 
ATOM     13  C   UNL     1      22.280   0.963 -17.575  1.00  0.00     0.013 A 
ATOM     14  C   UNL     1      22.096   0.209 -16.412  1.00  0.00     0.047 A 
ATOM     15  C   UNL     1      23.172  -0.034 -15.552  1.00  0.00     0.115 A 
ATOM     16  C   UNL     1      24.625   1.239 -17.021  1.00  0.00     0.013 A 
ATOM     17  C   UNL     1      24.437   0.484 -15.859  1.00  0.00     0.047 A 
BRANCH  15  18
ATOM     18  O   UNL     1      22.973  -0.787 -14.398  1.00  0.00    -0.508 OA
ATOM     19  H   UNL     1      22.294  -1.539 -14.367  1.00  0.00     0.293 HD
ENDBRANCH  15  18
ENDBRANCH   1  12
BRANCH  11  20
ATOM     20  C   UNL     1      25.018   3.613 -23.880  1.00  0.00     0.188 C 
ATOM     21  C   UNL     1      23.929   2.999 -24.805  1.00  0.00     0.179 C 
ATOM     22  O   UNL     1      25.902   4.433 -24.621  1.00  0.00    -0.362 OA
ATOM     23  C   UNL     1      24.486   2.737 -26.230  1.00  0.00     0.177 C 
ATOM     24  C   UNL     1      26.766   3.658 -25.444  1.00  0.00     0.176 C 
ATOM     25  C   UNL     1      26.015   2.510 -26.207  1.00  0.00     0.177 C 
BRANCH  21  26
ATOM     26  O   UNL     1      22.786   3.815 -24.887  1.00  0.00    -0.387 OA
ATOM     27  H   UNL     1      23.093   4.758 -24.824  1.00  0.00     0.211 HD
ENDBRANCH  21  26
BRANCH  23  28
ATOM     28  O   UNL     1      24.143   3.761 -27.133  1.00  0.00    -0.387 OA
ATOM     29  H   UNL     1      23.469   3.403 -27.764  1.00  0.00     0.211 HD
ENDBRANCH  23  28
BRANCH  24  30
ATOM     30  C   UNL     1      27.517   4.613 -26.391  1.00  0.00     0.191 C 
BRANCH  30  31
ATOM     31  O   UNL     1      26.608   5.391 -27.123  1.00  0.00    -0.394 OA
ATOM     32  H   UNL     1      27.142   5.943 -27.752  1.00  0.00     0.210 HD
ENDBRANCH  30  31
ENDBRANCH  24  30
BRANCH  25  33
ATOM     33  O   UNL     1      26.505   2.342 -27.515  1.00  0.00    -0.388 OA
ATOM     34  H   UNL     1      26.185   3.117 -28.046  1.00  0.00     0.211 HD
ENDBRANCH  25  33
ENDBRANCH  11  20
BRANCH  10  35
ATOM     35  O   UNL     1      24.169   6.499 -23.962  1.00  0.00    -0.507 OA
ATOM     36  H   UNL     1      23.541   6.399 -24.745  1.00  0.00     0.293 HD
ENDBRANCH  10  35
TORSDOF 9
ENDMDL
MODEL 8
REMARK VINA RESULT:    -4.823      8.819     11.462
REMARK INTER + INTRA:          -7.930
REMARK INTER:                  -7.482
REMARK INTRA:                  -0.448
REMARK UNBOUND:                -1.415
REMARK SMILES O=c1c(-c2ccc(O)cc2)coc2c([C@@H]3O[C@H](CO)[C@H](O)[C@H](O)[C@@H]3O)c(O)ccc12
REMARK SMILES IDX 3 1 11 2 12 3 13 4 30 5 2 6 1 7 29 8 28 9 26 10 14 11 4 12
REMARK SMILES IDX 5 13 6 14 7 15 10 16 9 17 8 18 15 20 24 21 16 22 22 23 17 24
REMARK SMILES IDX 20 25 25 26 23 28 18 30 19 31 21 33 27 35
REMARK H PARENT 8 19 25 27 23 29 19 32 21 34 27 36
REMARK Flexibility Score: inf
ROOT
ATOM      1  C   UNL     1      23.562   5.954 -21.643  1.00  0.00     0.065 A 
ATOM      2  C   UNL     1      23.069   4.643 -21.606  1.00  0.00     0.208 A 
ATOM      3  O   UNL     1      23.043   3.894 -22.702  1.00  0.00    -0.463 OA
ATOM      4  C   UNL     1      23.470   4.320 -23.888  1.00  0.00     0.147 A 
ATOM      5  C   UNL     1      23.974   5.635 -24.017  1.00  0.00     0.066 A 
ATOM      6  C   UNL     1      24.015   6.457 -22.876  1.00  0.00     0.200 A 
ATOM      7  O   UNL     1      24.434   7.645 -22.961  1.00  0.00    -0.288 OA
ATOM      8  C   UNL     1      24.409   6.090 -25.268  1.00  0.00     0.020 A 
ATOM      9  C   UNL     1      24.322   5.263 -26.383  1.00  0.00     0.047 A 
ATOM     10  C   UNL     1      23.809   3.968 -26.281  1.00  0.00     0.125 A 
ATOM     11  C   UNL     1      23.417   3.456 -25.012  1.00  0.00     0.069 A 
ENDROOT
BRANCH   1  12
ATOM     12  C   UNL     1      23.591   6.769 -20.402  1.00  0.00    -0.011 A 
ATOM     13  C   UNL     1      24.356   7.948 -20.335  1.00  0.00     0.013 A 
ATOM     14  C   UNL     1      24.385   8.706 -19.162  1.00  0.00     0.047 A 
ATOM     15  C   UNL     1      23.656   8.298 -18.041  1.00  0.00     0.115 A 
ATOM     16  C   UNL     1      22.865   6.361 -19.269  1.00  0.00     0.013 A 
ATOM     17  C   UNL     1      22.897   7.122 -18.096  1.00  0.00     0.047 A 
BRANCH  15  18
ATOM     18  O   UNL     1      23.694   9.065 -16.878  1.00  0.00    -0.508 OA
ATOM     19  H   UNL     1      24.483   9.665 -16.665  1.00  0.00     0.293 HD
ENDBRANCH  15  18
ENDBRANCH   1  12
BRANCH  11  20
ATOM     20  C   UNL     1      22.915   2.024 -24.825  1.00  0.00     0.188 C 
ATOM     21  C   UNL     1      21.405   1.870 -25.162  1.00  0.00     0.179 C 
ATOM     22  O   UNL     1      23.694   1.115 -25.580  1.00  0.00    -0.362 OA
ATOM     23  C   UNL     1      21.057   0.398 -25.515  1.00  0.00     0.177 C 
ATOM     24  C   UNL     1      23.531  -0.221 -25.117  1.00  0.00     0.176 C 
ATOM     25  C   UNL     1      22.033  -0.592 -24.838  1.00  0.00     0.177 C 
BRANCH  21  26
ATOM     26  O   UNL     1      21.011   2.714 -26.215  1.00  0.00    -0.387 OA
ATOM     27  H   UNL     1      20.020   2.769 -26.194  1.00  0.00     0.211 HD
ENDBRANCH  21  26
BRANCH  23  28
ATOM     28  O   UNL     1      21.005   0.182 -26.905  1.00  0.00    -0.387 OA
ATOM     29  H   UNL     1      20.695   1.017 -27.336  1.00  0.00     0.211 HD
ENDBRANCH  23  28
BRANCH  24  30
ATOM     30  C   UNL     1      24.204  -1.168 -26.127  1.00  0.00     0.191 C 
BRANCH  30  31
ATOM     31  O   UNL     1      24.599  -2.357 -25.496  1.00  0.00    -0.394 OA
ATOM     32  H   UNL     1      23.783  -2.754 -25.092  1.00  0.00     0.210 HD
ENDBRANCH  30  31
ENDBRANCH  24  30
BRANCH  25  33
ATOM     33  O   UNL     1      21.738  -1.912 -25.226  1.00  0.00    -0.388 OA
ATOM     34  H   UNL     1      21.733  -2.462 -24.399  1.00  0.00     0.211 HD
ENDBRANCH  25  33
ENDBRANCH  11  20
BRANCH  10  35
ATOM     35  O   UNL     1      23.691   3.240 -27.467  1.00  0.00    -0.507 OA
ATOM     36  H   UNL     1      23.609   2.235 -27.510  1.00  0.00     0.293 HD
ENDBRANCH  10  35
TORSDOF 9
ENDMDL
MODEL 9
REMARK VINA RESULT:    -4.679      2.702      4.323
REMARK INTER + INTRA:          -7.735
REMARK INTER:                  -6.339
REMARK INTRA:                  -1.396
REMARK UNBOUND:                -1.415
REMARK SMILES O=c1c(-c2ccc(O)cc2)coc2c([C@@H]3O[C@H](CO)[C@H](O)[C@H](O)[C@@H]3O)c(O)ccc12
REMARK SMILES IDX 3 1 11 2 12 3 13 4 30 5 2 6 1 7 29 8 28 9 26 10 14 11 4 12
REMARK SMILES IDX 5 13 6 14 7 15 10 16 9 17 8 18 15 20 24 21 16 22 22 23 17 24
REMARK SMILES IDX 20 25 25 26 23 28 18 30 19 31 21 33 27 35
REMARK H PARENT 8 19 25 27 23 29 19 32 21 34 27 36
REMARK Flexibility Score: inf
ROOT
ATOM      1  C   UNL     1      31.857  -0.615 -30.938  1.00  0.00     0.065 A 
ATOM      2  C   UNL     1      31.327  -1.316 -29.847  1.00  0.00     0.208 A 
ATOM      3  O   UNL     1      31.273  -2.643 -29.851  1.00  0.00    -0.463 OA
ATOM      4  C   UNL     1      31.705  -3.388 -30.865  1.00  0.00     0.147 A 
ATOM      5  C   UNL     1      32.245  -2.760 -32.012  1.00  0.00     0.066 A 
ATOM      6  C   UNL     1      32.316  -1.355 -32.042  1.00  0.00     0.200 A 
ATOM      7  O   UNL     1      32.768  -0.762 -33.060  1.00  0.00    -0.288 OA
ATOM      8  C   UNL     1      32.685  -3.542 -33.087  1.00  0.00     0.020 A 
ATOM      9  C   UNL     1      32.568  -4.928 -33.039  1.00  0.00     0.047 A 
ATOM     10  C   UNL     1      32.019  -5.567 -31.925  1.00  0.00     0.125 A 
ATOM     11  C   UNL     1      31.620  -4.802 -30.792  1.00  0.00     0.069 A 
ENDROOT
BRANCH   1  12
ATOM     12  C   UNL     1      31.916   0.869 -30.906  1.00  0.00    -0.011 A 
ATOM     13  C   UNL     1      33.146   1.535 -30.759  1.00  0.00     0.013 A 
ATOM     14  C   UNL     1      33.194   2.931 -30.722  1.00  0.00     0.047 A 
ATOM     15  C   UNL     1      32.018   3.680 -30.826  1.00  0.00     0.115 A 
ATOM     16  C   UNL     1      30.736   1.628 -31.003  1.00  0.00     0.013 A 
ATOM     17  C   UNL     1      30.788   3.024 -30.965  1.00  0.00     0.047 A 
BRANCH  15  18
ATOM     18  O   UNL     1      32.081   5.071 -30.787  1.00  0.00    -0.508 OA
ATOM     19  H   UNL     1      31.302   5.645 -31.090  1.00  0.00     0.293 HD
ENDBRANCH  15  18
ENDBRANCH   1  12
BRANCH  11  20
ATOM     20  C   UNL     1      31.080  -5.448 -29.516  1.00  0.00     0.188 C 
ATOM     21  C   UNL     1      29.559  -5.760 -29.601  1.00  0.00     0.179 C 
ATOM     22  O   UNL     1      31.815  -6.613 -29.191  1.00  0.00    -0.362 OA
ATOM     23  C   UNL     1      29.159  -6.877 -28.599  1.00  0.00     0.177 C 
ATOM     24  C   UNL     1      31.621  -6.990 -27.833  1.00  0.00     0.176 C 
ATOM     25  C   UNL     1      30.118  -6.920 -27.387  1.00  0.00     0.177 C 
BRANCH  21  26
ATOM     26  O   UNL     1      29.168  -6.129 -30.901  1.00  0.00    -0.387 OA
ATOM     27  H   UNL     1      28.214  -5.874 -31.005  1.00  0.00     0.211 HD
ENDBRANCH  21  26
BRANCH  23  28
ATOM     28  O   UNL     1      29.071  -8.140 -29.216  1.00  0.00    -0.387 OA
ATOM     29  H   UNL     1      28.977  -8.000 -30.192  1.00  0.00     0.211 HD
ENDBRANCH  23  28
BRANCH  24  30
ATOM     30  C   UNL     1      32.243  -8.382 -27.623  1.00  0.00     0.191 C 
BRANCH  30  31
ATOM     31  O   UNL     1      31.698  -9.303 -28.530  1.00  0.00    -0.394 OA
ATOM     32  H   UNL     1      30.780  -9.511 -28.214  1.00  0.00     0.210 HD
ENDBRANCH  30  31
ENDBRANCH  24  30
BRANCH  25  33
ATOM     33  O   UNL     1      29.776  -7.982 -26.529  1.00  0.00    -0.388 OA
ATOM     34  H   UNL     1      29.882  -8.820 -27.050  1.00  0.00     0.211 HD
ENDBRANCH  25  33
ENDBRANCH  11  20
BRANCH  10  35
ATOM     35  O   UNL     1      31.873  -6.953 -31.999  1.00  0.00    -0.507 OA
ATOM     36  H   UNL     1      31.116  -7.420 -32.474  1.00  0.00     0.293 HD
ENDBRANCH  10  35
TORSDOF 9
ENDMDL
