MODEL 1
REMARK VINA RESULT:    -2.828      0.000      0.000
REMARK INTER + INTRA:          -4.092
REMARK INTER:                  -3.655
REMARK INTRA:                  -0.436
REMARK UNBOUND:                -0.436
REMARK SMILES C=CC(=O)CCCCC
REMARK SMILES IDX 6 1 7 2 8 3 9 4 5 5 3 6 4 7 2 8 1 9
REMARK H PARENT
REMARK Flexibility Score: inf
ROOT
ATOM      1  C   UNL     1       9.655  14.828  -0.176  1.00  0.00     0.008 C 
ENDROOT
BRANCH   1   2
ATOM      2  C   UNL     1      10.361  13.555  -0.677  1.00  0.00     0.000 C 
BRANCH   2   3
ATOM      3  C   UNL     1      11.887  13.710  -0.747  1.00  0.00    -0.003 C 
ATOM      4  C   UNL     1      12.571  12.922   0.366  1.00  0.00     0.004 C 
ENDBRANCH   2   3
ENDBRANCH   1   2
BRANCH   1   5
ATOM      5  C   UNL     1       9.581  14.944   1.358  1.00  0.00     0.080 C 
BRANCH   5   6
ATOM      6  C   UNL     1       9.679  16.368   1.860  1.00  0.00     0.155 C 
ATOM      7  O   UNL     1       8.626  17.035   2.048  1.00  0.00    -0.295 OA
BRANCH   6   8
ATOM      8  C   UNL     1      10.975  17.040   2.085  1.00  0.00     0.039 C 
ATOM      9  C   UNL     1      12.144  16.401   2.125  1.00  0.00     0.012 C 
ENDBRANCH   6   8
ENDBRANCH   5   6
ENDBRANCH   1   5
TORSDOF 5
ENDMDL
MODEL 2
REMARK VINA RESULT:    -2.715      2.271      4.519
REMARK INTER + INTRA:          -3.944
REMARK INTER:                  -3.543
REMARK INTRA:                  -0.401
REMARK UNBOUND:                -0.436
REMARK SMILES C=CC(=O)CCCCC
REMARK SMILES IDX 6 1 7 2 8 3 9 4 5 5 3 6 4 7 2 8 1 9
REMARK H PARENT
REMARK Flexibility Score: inf
ROOT
ATOM      1  C   UNL     1      11.887  15.833   2.061  1.00  0.00     0.008 C 
ENDROOT
BRANCH   1   2
ATOM      2  C   UNL     1      10.834  16.956   2.022  1.00  0.00     0.000 C 
BRANCH   2   3
ATOM      3  C   UNL     1       9.405  16.425   1.839  1.00  0.00    -0.003 C 
ATOM      4  C   UNL     1       8.375  17.515   2.119  1.00  0.00     0.004 C 
ENDBRANCH   2   3
ENDBRANCH   1   2
BRANCH   1   5
ATOM      5  C   UNL     1      11.291  14.414   2.125  1.00  0.00     0.080 C 
BRANCH   5   6
ATOM      6  C   UNL     1      11.875  13.468   1.100  1.00  0.00     0.155 C 
ATOM      7  O   UNL     1      13.018  12.970   1.293  1.00  0.00    -0.295 OA
BRANCH   6   8
ATOM      8  C   UNL     1      11.183  13.144  -0.164  1.00  0.00     0.039 C 
ATOM      9  C   UNL     1      10.411  14.004  -0.828  1.00  0.00     0.012 C 
ENDBRANCH   6   8
ENDBRANCH   5   6
ENDBRANCH   1   5
TORSDOF 5
ENDMDL
MODEL 3
REMARK VINA RESULT:    -2.683      1.897      3.720
REMARK INTER + INTRA:          -3.904
REMARK INTER:                  -3.440
REMARK INTRA:                  -0.463
REMARK UNBOUND:                -0.436
REMARK SMILES C=CC(=O)CCCCC
REMARK SMILES IDX 6 1 7 2 8 3 9 4 5 5 3 6 4 7 2 8 1 9
REMARK H PARENT
REMARK Flexibility Score: inf
ROOT
ATOM      1  C   UNL     1       9.636  15.322   1.947  1.00  0.00     0.008 C 
ENDROOT
BRANCH   1   2
ATOM      2  C   UNL     1       9.710  16.859   1.893  1.00  0.00     0.000 C 
BRANCH   2   3
ATOM      3  C   UNL     1      11.053  17.371   1.351  1.00  0.00    -0.003 C 
ATOM      4  C   UNL     1      12.223  16.770   2.124  1.00  0.00     0.004 C 
ENDBRANCH   2   3
ENDBRANCH   1   2
BRANCH   1   5
ATOM      5  C   UNL     1       9.619  14.646   0.563  1.00  0.00     0.080 C 
BRANCH   5   6
ATOM      6  C   UNL     1      10.902  13.916   0.233  1.00  0.00     0.155 C 
ATOM      7  O   UNL     1      11.408  14.036  -0.916  1.00  0.00    -0.295 OA
BRANCH   6   8
ATOM      8  C   UNL     1      11.565  13.008   1.191  1.00  0.00     0.039 C 
ATOM      9  C   UNL     1      12.839  13.124   1.562  1.00  0.00     0.012 C 
ENDBRANCH   6   8
ENDBRANCH   5   6
ENDBRANCH   1   5
TORSDOF 5
ENDMDL
MODEL 4
REMARK VINA RESULT:    -2.599      1.520      2.437
REMARK INTER + INTRA:          -3.795
REMARK INTER:                  -3.348
REMARK INTRA:                  -0.447
REMARK UNBOUND:                -0.436
REMARK SMILES C=CC(=O)CCCCC
REMARK SMILES IDX 6 1 7 2 8 3 9 4 5 5 3 6 4 7 2 8 1 9
REMARK H PARENT
REMARK Flexibility Score: inf
ROOT
ATOM      1  C   UNL     1      11.134  13.714   1.825  1.00  0.00     0.008 C 
ENDROOT
BRANCH   1   2
ATOM      2  C   UNL     1      11.502  12.893   0.576  1.00  0.00     0.000 C 
BRANCH   2   3
ATOM      3  C   UNL     1      11.368  13.697  -0.725  1.00  0.00    -0.003 C 
ATOM      4  C   UNL     1       9.904  13.974  -1.051  1.00  0.00     0.004 C 
ENDBRANCH   2   3
ENDBRANCH   1   2
BRANCH   1   5
ATOM      5  C   UNL     1      12.005  14.968   2.032  1.00  0.00     0.080 C 
BRANCH   5   6
ATOM      6  C   UNL     1      11.224  16.262   1.969  1.00  0.00     0.155 C 
ATOM      7  O   UNL     1      11.839  17.354   1.832  1.00  0.00    -0.295 OA
BRANCH   6   8
ATOM      8  C   UNL     1       9.755  16.308   2.125  1.00  0.00     0.039 C 
ATOM      9  C   UNL     1       8.988  17.278   1.631  1.00  0.00     0.012 C 
ENDBRANCH   6   8
ENDBRANCH   5   6
ENDBRANCH   1   5
TORSDOF 5
ENDMDL
MODEL 5
REMARK VINA RESULT:    -2.520      1.177      1.669
REMARK INTER + INTRA:          -3.693
REMARK INTER:                  -3.689
REMARK INTRA:                  -0.005
REMARK UNBOUND:                -0.436
REMARK SMILES C=CC(=O)CCCCC
REMARK SMILES IDX 6 1 7 2 8 3 9 4 5 5 3 6 4 7 2 8 1 9
REMARK H PARENT
REMARK Flexibility Score: inf
ROOT
ATOM      1  C   UNL     1      11.116  14.515  -0.225  1.00  0.00     0.008 C 
ENDROOT
BRANCH   1   2
ATOM      2  C   UNL     1      11.651  13.071  -0.220  1.00  0.00     0.000 C 
BRANCH   2   3
ATOM      3  C   UNL     1      12.836  12.879   0.738  1.00  0.00    -0.003 C 
ATOM      4  C   UNL     1      12.573  13.557   2.079  1.00  0.00     0.004 C 
ENDBRANCH   2   3
ENDBRANCH   1   2
BRANCH   1   5
ATOM      5  C   UNL     1       9.609  14.627   0.073  1.00  0.00     0.080 C 
BRANCH   5   6
ATOM      6  C   UNL     1       9.305  15.123   1.469  1.00  0.00     0.155 C 
ATOM      7  O   UNL     1       8.307  14.664   2.089  1.00  0.00    -0.295 OA
BRANCH   6   8
ATOM      8  C   UNL     1      10.103  16.179   2.125  1.00  0.00     0.039 C 
ATOM      9  C   UNL     1      10.789  17.109   1.462  1.00  0.00     0.012 C 
ENDBRANCH   6   8
ENDBRANCH   5   6
ENDBRANCH   1   5
TORSDOF 5
ENDMDL
MODEL 6
REMARK VINA RESULT:    -1.868      2.371      4.330
REMARK INTER + INTRA:          -2.851
REMARK INTER:                  -2.803
REMARK INTRA:                  -0.048
REMARK UNBOUND:                -0.436
REMARK SMILES C=CC(=O)CCCCC
REMARK SMILES IDX 6 1 7 2 8 3 9 4 5 5 3 6 4 7 2 8 1 9
REMARK H PARENT
REMARK Flexibility Score: inf
ROOT
ATOM      1  C   UNL     1       8.873  15.400   1.837  1.00  0.00     0.008 C 
ENDROOT
BRANCH   1   2
ATOM      2  C   UNL     1       7.798  14.336   2.125  1.00  0.00     0.000 C 
BRANCH   2   3
ATOM      3  C   UNL     1       6.372  14.902   2.072  1.00  0.00    -0.003 C 
ATOM      4  C   UNL     1       5.451  13.997   1.258  1.00  0.00     0.004 C 
ENDBRANCH   2   3
ENDBRANCH   1   2
BRANCH   1   5
ATOM      5  C   UNL     1      10.270  14.819   1.547  1.00  0.00     0.080 C 
BRANCH   5   6
ATOM      6  C   UNL     1      10.472  14.426   0.100  1.00  0.00     0.155 C 
ATOM      7  O   UNL     1       9.489  14.438  -0.690  1.00  0.00    -0.295 OA
BRANCH   6   8
ATOM      8  C   UNL     1      11.774  13.963  -0.420  1.00  0.00     0.039 C 
ATOM      9  C   UNL     1      12.404  12.875   0.021  1.00  0.00     0.012 C 
ENDBRANCH   6   8
ENDBRANCH   5   6
ENDBRANCH   1   5
TORSDOF 5
ENDMDL
MODEL 7
REMARK VINA RESULT:    -1.555      2.154      4.019
REMARK INTER + INTRA:          -2.445
REMARK INTER:                  -2.247
REMARK INTRA:                  -0.199
REMARK UNBOUND:                -0.436
REMARK SMILES C=CC(=O)CCCCC
REMARK SMILES IDX 6 1 7 2 8 3 9 4 5 5 3 6 4 7 2 8 1 9
REMARK H PARENT
REMARK Flexibility Score: inf
ROOT
ATOM      1  C   UNL     1      11.068  15.871   0.980  1.00  0.00     0.008 C 
ENDROOT
BRANCH   1   2
ATOM      2  C   UNL     1       9.613  16.095   1.432  1.00  0.00     0.000 C 
BRANCH   2   3
ATOM      3  C   UNL     1       9.010  14.864   2.125  1.00  0.00    -0.003 C 
ATOM      4  C   UNL     1       7.531  14.710   1.780  1.00  0.00     0.004 C 
ENDBRANCH   2   3
ENDBRANCH   1   2
BRANCH   1   5
ATOM      5  C   UNL     1      11.201  15.147  -0.373  1.00  0.00     0.080 C 
BRANCH   5   6
ATOM      6  C   UNL     1      11.235  13.640  -0.250  1.00  0.00     0.155 C 
ATOM      7  O   UNL     1      10.338  12.950  -0.807  1.00  0.00    -0.295 OA
BRANCH   6   8
ATOM      8  C   UNL     1      12.253  12.935   0.555  1.00  0.00     0.039 C 
ATOM      9  C   UNL     1      12.236  12.878   1.887  1.00  0.00     0.012 C 
ENDBRANCH   6   8
ENDBRANCH   5   6
ENDBRANCH   1   5
TORSDOF 5
ENDMDL
MODEL 8
REMARK VINA RESULT:    -0.990      1.821      2.741
REMARK INTER + INTRA:          -1.715
REMARK INTER:                  -1.337
REMARK INTRA:                  -0.378
REMARK UNBOUND:                -0.436
REMARK SMILES C=CC(=O)CCCCC
REMARK SMILES IDX 6 1 7 2 8 3 9 4 5 5 3 6 4 7 2 8 1 9
REMARK H PARENT
REMARK Flexibility Score: inf
ROOT
ATOM      1  C   UNL     1       9.447  14.970   1.259  1.00  0.00     0.008 C 
ENDROOT
BRANCH   1   2
ATOM      2  C   UNL     1       9.039  14.412  -0.117  1.00  0.00     0.000 C 
BRANCH   2   3
ATOM      3  C   UNL     1      10.180  13.659  -0.815  1.00  0.00    -0.003 C 
ATOM      4  C   UNL     1      10.475  14.258  -2.187  1.00  0.00     0.004 C 
ENDBRANCH   2   3
ENDBRANCH   1   2
BRANCH   1   5
ATOM      5  C   UNL     1      10.609  15.981   1.208  1.00  0.00     0.080 C 
BRANCH   5   6
ATOM      6  C   UNL     1      11.880  15.471   1.852  1.00  0.00     0.155 C 
ATOM      7  O   UNL     1      12.806  16.282   2.125  1.00  0.00    -0.295 OA
BRANCH   6   8
ATOM      8  C   UNL     1      12.110  14.038   2.123  1.00  0.00     0.039 C 
ATOM      9  C   UNL     1      12.946  13.275   1.420  1.00  0.00     0.012 C 
ENDBRANCH   6   8
ENDBRANCH   5   6
ENDBRANCH   1   5
TORSDOF 5
ENDMDL
