MODEL 1
REMARK VINA RESULT:    -1.994      0.000      0.000
REMARK INTER + INTRA:          -1.994
REMARK INTER:                  -1.994
REMARK INTRA:                   0.000
REMARK UNBOUND:                 0.000
REMARK SMILES CC(=O)[O-]
REMARK SMILES IDX 1 1 2 2 3 3 4 4
REMARK H PARENT
REMARK Flexibility Score: inf
ROOT
ATOM      1  C   UNL     1     145.199 132.008 160.006  1.00  0.00     0.063 C 
ATOM      2  C   UNL     1     145.951 133.195 160.504  1.00  0.00     0.038 C 
ATOM      3  O   UNL     1     147.186 133.113 160.727  1.00  0.00    -0.550 OA
ATOM      4  O   UNL     1     145.279 134.380 160.776  1.00  0.00    -0.550 OA
ENDROOT
TORSDOF 0
ENDMDL
MODEL 2
REMARK VINA RESULT:    -1.982      0.090      1.619
REMARK INTER + INTRA:          -1.982
REMARK INTER:                  -1.982
REMARK INTRA:                   0.000
REMARK UNBOUND:                 0.000
REMARK SMILES CC(=O)[O-]
REMARK SMILES IDX 1 1 2 2 3 3 4 4
REMARK H PARENT
REMARK Flexibility Score: inf
ROOT
ATOM      1  C   UNL     1     145.190 132.012 159.965  1.00  0.00     0.063 C 
ATOM      2  C   UNL     1     145.908 133.199 160.510  1.00  0.00     0.038 C 
ATOM      3  O   UNL     1     145.296 134.285 160.679  1.00  0.00    -0.550 OA
ATOM      4  O   UNL     1     147.268 133.125 160.784  1.00  0.00    -0.550 OA
ENDROOT
TORSDOF 0
ENDMDL
MODEL 3
REMARK VINA RESULT:    -1.881     13.905     14.229
REMARK INTER + INTRA:          -1.881
REMARK INTER:                  -1.881
REMARK INTRA:                   0.000
REMARK UNBOUND:                 0.000
REMARK SMILES CC(=O)[O-]
REMARK SMILES IDX 1 1 2 2 3 3 4 4
REMARK H PARENT
REMARK Flexibility Score: inf
ROOT
ATOM      1  C   UNL     1     157.939 132.701 169.524  1.00  0.00     0.063 C 
ATOM      2  C   UNL     1     157.757 133.011 168.077  1.00  0.00     0.038 C 
ATOM      3  O   UNL     1     157.486 134.184 167.712  1.00  0.00    -0.550 OA
ATOM      4  O   UNL     1     157.832 131.995 167.133  1.00  0.00    -0.550 OA
ENDROOT
TORSDOF 0
ENDMDL
MODEL 4
REMARK VINA RESULT:    -1.858      1.877      2.103
REMARK INTER + INTRA:          -1.858
REMARK INTER:                  -1.858
REMARK INTRA:                   0.000
REMARK UNBOUND:                 0.000
REMARK SMILES CC(=O)[O-]
REMARK SMILES IDX 1 1 2 2 3 3 4 4
REMARK H PARENT
REMARK Flexibility Score: inf
ROOT
ATOM      1  C   UNL     1     146.659 132.999 160.915  1.00  0.00     0.063 C 
ATOM      2  C   UNL     1     145.297 132.425 160.720  1.00  0.00     0.038 C 
ATOM      3  O   UNL     1     144.993 131.875 159.630  1.00  0.00    -0.550 OA
ATOM      4  O   UNL     1     144.342 132.545 161.721  1.00  0.00    -0.550 OA
ENDROOT
TORSDOF 0
ENDMDL
MODEL 5
REMARK VINA RESULT:    -1.852     12.072     12.696
REMARK INTER + INTRA:          -1.852
REMARK INTER:                  -1.852
REMARK INTRA:                   0.000
REMARK UNBOUND:                 0.000
REMARK SMILES CC(=O)[O-]
REMARK SMILES IDX 1 1 2 2 3 3 4 4
REMARK H PARENT
REMARK Flexibility Score: inf
ROOT
ATOM      1  C   UNL     1     157.850 132.605 167.467  1.00  0.00     0.063 C 
ATOM      2  C   UNL     1     156.380 132.431 167.294  1.00  0.00     0.038 C 
ATOM      3  O   UNL     1     155.613 132.511 168.289  1.00  0.00    -0.550 OA
ATOM      4  O   UNL     1     155.857 132.126 166.044  1.00  0.00    -0.550 OA
ENDROOT
TORSDOF 0
ENDMDL
MODEL 6
REMARK VINA RESULT:    -1.805      8.916      9.510
REMARK INTER + INTRA:          -1.805
REMARK INTER:                  -1.805
REMARK INTRA:                   0.000
REMARK UNBOUND:                 0.000
REMARK SMILES CC(=O)[O-]
REMARK SMILES IDX 1 1 2 2 3 3 4 4
REMARK H PARENT
REMARK Flexibility Score: inf
ROOT
ATOM      1  C   UNL     1     154.695 131.942 165.931  1.00  0.00     0.063 C 
ATOM      2  C   UNL     1     154.105 132.956 165.012  1.00  0.00     0.038 C 
ATOM      3  O   UNL     1     154.295 134.183 165.219  1.00  0.00    -0.550 OA
ATOM      4  O   UNL     1     153.297 132.552 163.956  1.00  0.00    -0.550 OA
ENDROOT
TORSDOF 0
ENDMDL
MODEL 7
REMARK VINA RESULT:    -1.797      6.362      6.881
REMARK INTER + INTRA:          -1.797
REMARK INTER:                  -1.797
REMARK INTRA:                   0.000
REMARK UNBOUND:                 0.000
REMARK SMILES CC(=O)[O-]
REMARK SMILES IDX 1 1 2 2 3 3 4 4
REMARK H PARENT
REMARK Flexibility Score: inf
ROOT
ATOM      1  C   UNL     1     152.778 131.875 163.322  1.00  0.00     0.063 C 
ATOM      2  C   UNL     1     151.578 132.490 163.957  1.00  0.00     0.038 C 
ATOM      3  O   UNL     1     151.701 133.506 164.690  1.00  0.00    -0.550 OA
ATOM      4  O   UNL     1     150.326 131.912 163.786  1.00  0.00    -0.550 OA
ENDROOT
TORSDOF 0
ENDMDL
MODEL 8
REMARK VINA RESULT:    -1.769      8.020      8.528
REMARK INTER + INTRA:          -1.769
REMARK INTER:                  -1.769
REMARK INTRA:                   0.000
REMARK UNBOUND:                 0.000
REMARK SMILES CC(=O)[O-]
REMARK SMILES IDX 1 1 2 2 3 3 4 4
REMARK H PARENT
REMARK Flexibility Score: inf
ROOT
ATOM      1  C   UNL     1     152.564 131.875 163.355  1.00  0.00     0.063 C 
ATOM      2  C   UNL     1     153.134 132.195 164.695  1.00  0.00     0.038 C 
ATOM      3  O   UNL     1     152.509 131.875 165.740  1.00  0.00    -0.550 OA
ATOM      4  O   UNL     1     154.330 132.895 164.794  1.00  0.00    -0.550 OA
ENDROOT
TORSDOF 0
ENDMDL
MODEL 9
REMARK VINA RESULT:    -1.745      8.190      8.619
REMARK INTER + INTRA:          -1.745
REMARK INTER:                  -1.745
REMARK INTRA:                   0.000
REMARK UNBOUND:                 0.000
REMARK SMILES CC(=O)[O-]
REMARK SMILES IDX 1 1 2 2 3 3 4 4
REMARK H PARENT
REMARK Flexibility Score: inf
ROOT
ATOM      1  C   UNL     1     152.544 131.875 165.722  1.00  0.00     0.063 C 
ATOM      2  C   UNL     1     153.265 132.466 164.558  1.00  0.00     0.038 C 
ATOM      3  O   UNL     1     152.947 132.138 163.385  1.00  0.00    -0.550 OA
ATOM      4  O   UNL     1     154.326 133.338 164.766  1.00  0.00    -0.550 OA
ENDROOT
TORSDOF 0
ENDMDL
