MODEL 1
REMARK VINA RESULT:    -1.566      0.000      0.000
REMARK INTER + INTRA:          -2.351
REMARK INTER:                  -2.024
REMARK INTRA:                  -0.326
REMARK UNBOUND:                -0.326
REMARK SMILES CCCCCCC(=O)[O-]
REMARK SMILES IDX 5 1 6 2 7 3 8 4 9 5 4 6 3 7 2 8 1 9
REMARK H PARENT
REMARK Flexibility Score: inf
ROOT
ATOM      1  C   UNL     1      14.189 -34.616  -0.138  1.00  0.00     0.006 C 
ENDROOT
BRANCH   1   2
ATOM      2  C   UNL     1      13.791 -33.856  -1.406  1.00  0.00     0.053 C 
BRANCH   2   3
ATOM      3  C   UNL     1      12.688 -32.889  -1.114  1.00  0.00     0.041 C 
ATOM      4  O   UNL     1      12.254 -32.130  -2.021  1.00  0.00    -0.550 OA
ATOM      5  O   UNL     1      12.173 -32.788   0.172  1.00  0.00    -0.550 OA
ENDBRANCH   2   3
ENDBRANCH   1   2
BRANCH   1   6
ATOM      6  C   UNL     1      15.714 -34.670   0.015  1.00  0.00     0.000 C 
BRANCH   6   7
ATOM      7  C   UNL     1      16.156 -34.039   1.344  1.00  0.00    -0.000 C 
BRANCH   7   8
ATOM      8  C   UNL     1      14.970 -33.562   2.195  1.00  0.00    -0.003 C 
ATOM      9  C   UNL     1      15.027 -32.067   2.504  1.00  0.00     0.004 C 
ENDBRANCH   7   8
ENDBRANCH   6   7
ENDBRANCH   1   6
TORSDOF 5
ENDMDL
MODEL 2
REMARK VINA RESULT:    -1.473      0.902      1.624
REMARK INTER + INTRA:          -2.229
REMARK INTER:                  -2.075
REMARK INTRA:                  -0.154
REMARK UNBOUND:                -0.326
REMARK SMILES CCCCCCC(=O)[O-]
REMARK SMILES IDX 5 1 6 2 7 3 8 4 9 5 4 6 3 7 2 8 1 9
REMARK H PARENT
REMARK Flexibility Score: inf
ROOT
ATOM      1  C   UNL     1      13.912 -34.386   0.158  1.00  0.00     0.006 C 
ENDROOT
BRANCH   1   2
ATOM      2  C   UNL     1      13.542 -33.836  -1.223  1.00  0.00     0.053 C 
BRANCH   2   3
ATOM      3  C   UNL     1      12.561 -32.713  -1.095  1.00  0.00     0.041 C 
ATOM      4  O   UNL     1      12.163 -32.099  -2.121  1.00  0.00    -0.550 OA
ATOM      5  O   UNL     1      12.126 -32.309   0.160  1.00  0.00    -0.550 OA
ENDBRANCH   2   3
ENDBRANCH   1   2
BRANCH   1   6
ATOM      6  C   UNL     1      15.428 -34.340   0.378  1.00  0.00     0.000 C 
BRANCH   6   7
ATOM      7  C   UNL     1      15.766 -33.740   1.752  1.00  0.00    -0.000 C 
BRANCH   7   8
ATOM      8  C   UNL     1      17.272 -33.507   1.941  1.00  0.00    -0.003 C 
ATOM      9  C   UNL     1      18.123 -34.313   0.960  1.00  0.00     0.004 C 
ENDBRANCH   7   8
ENDBRANCH   6   7
ENDBRANCH   1   6
TORSDOF 5
ENDMDL
MODEL 3
REMARK VINA RESULT:    -1.447      2.225      4.075
REMARK INTER + INTRA:          -2.197
REMARK INTER:                  -1.989
REMARK INTRA:                  -0.207
REMARK UNBOUND:                -0.326
REMARK SMILES CCCCCCC(=O)[O-]
REMARK SMILES IDX 5 1 6 2 7 3 8 4 9 5 4 6 3 7 2 8 1 9
REMARK H PARENT
REMARK Flexibility Score: inf
ROOT
ATOM      1  C   UNL     1      14.587 -33.752   1.253  1.00  0.00     0.006 C 
ENDROOT
BRANCH   1   2
ATOM      2  C   UNL     1      15.771 -33.194   2.047  1.00  0.00     0.053 C 
BRANCH   2   3
ATOM      3  C   UNL     1      15.422 -31.869   2.648  1.00  0.00     0.041 C 
ATOM      4  O   UNL     1      16.253 -31.266   3.378  1.00  0.00    -0.550 OA
ATOM      5  O   UNL     1      14.161 -31.324   2.445  1.00  0.00    -0.550 OA
ENDBRANCH   2   3
ENDBRANCH   1   2
BRANCH   1   6
ATOM      6  C   UNL     1      15.054 -34.362  -0.074  1.00  0.00     0.000 C 
BRANCH   6   7
ATOM      7  C   UNL     1      14.099 -33.986  -1.217  1.00  0.00    -0.000 C 
BRANCH   7   8
ATOM      8  C   UNL     1      12.843 -33.254  -0.722  1.00  0.00    -0.003 C 
ATOM      9  C   UNL     1      12.253 -32.314  -1.772  1.00  0.00     0.004 C 
ENDBRANCH   7   8
ENDBRANCH   6   7
ENDBRANCH   1   6
TORSDOF 5
ENDMDL
MODEL 4
REMARK VINA RESULT:    -1.406      1.742      2.463
REMARK INTER + INTRA:          -2.143
REMARK INTER:                  -1.932
REMARK INTRA:                  -0.211
REMARK UNBOUND:                -0.326
REMARK SMILES CCCCCCC(=O)[O-]
REMARK SMILES IDX 5 1 6 2 7 3 8 4 9 5 4 6 3 7 2 8 1 9
REMARK H PARENT
REMARK Flexibility Score: inf
ROOT
ATOM      1  C   UNL     1      15.970 -34.319   0.773  1.00  0.00     0.006 C 
ENDROOT
BRANCH   1   2
ATOM      2  C   UNL     1      14.500 -34.444   0.360  1.00  0.00     0.053 C 
BRANCH   2   3
ATOM      3  C   UNL     1      14.350 -34.233  -1.114  1.00  0.00     0.041 C 
ATOM      4  O   UNL     1      13.512 -33.400  -1.552  1.00  0.00    -0.550 OA
ATOM      5  O   UNL     1      15.097 -34.991  -2.005  1.00  0.00    -0.550 OA
ENDBRANCH   2   3
ENDBRANCH   1   2
BRANCH   1   6
ATOM      6  C   UNL     1      16.121 -33.408   1.997  1.00  0.00     0.000 C 
BRANCH   6   7
ATOM      7  C   UNL     1      14.870 -32.538   2.192  1.00  0.00    -0.000 C 
BRANCH   7   8
ATOM      8  C   UNL     1      15.140 -31.302   3.062  1.00  0.00    -0.003 C 
ATOM      9  C   UNL     1      16.542 -30.731   2.860  1.00  0.00     0.004 C 
ENDBRANCH   7   8
ENDBRANCH   6   7
ENDBRANCH   1   6
TORSDOF 5
ENDMDL
MODEL 5
REMARK VINA RESULT:    -1.404      7.795      8.450
REMARK INTER + INTRA:          -2.140
REMARK INTER:                  -1.909
REMARK INTRA:                  -0.231
REMARK UNBOUND:                -0.326
REMARK SMILES CCCCCCC(=O)[O-]
REMARK SMILES IDX 5 1 6 2 7 3 8 4 9 5 4 6 3 7 2 8 1 9
REMARK H PARENT
REMARK Flexibility Score: inf
ROOT
ATOM      1  C   UNL     1      20.102 -29.008  -0.926  1.00  0.00     0.006 C 
ENDROOT
BRANCH   1   2
ATOM      2  C   UNL     1      20.729 -28.005  -1.899  1.00  0.00     0.053 C 
BRANCH   2   3
ATOM      3  C   UNL     1      21.048 -26.722  -1.198  1.00  0.00     0.041 C 
ATOM      4  O   UNL     1      20.750 -26.574   0.017  1.00  0.00    -0.550 OA
ATOM      5  O   UNL     1      21.627 -25.672  -1.898  1.00  0.00    -0.550 OA
ENDBRANCH   2   3
ENDBRANCH   1   2
BRANCH   1   6
ATOM      6  C   UNL     1      21.135 -30.042  -0.463  1.00  0.00     0.000 C 
BRANCH   6   7
ATOM      7  C   UNL     1      20.681 -30.727   0.835  1.00  0.00    -0.000 C 
BRANCH   7   8
ATOM      8  C   UNL     1      19.659 -29.891   1.619  1.00  0.00    -0.003 C 
ATOM      9  C   UNL     1      18.674 -30.751   2.410  1.00  0.00     0.004 C 
ENDBRANCH   7   8
ENDBRANCH   6   7
ENDBRANCH   1   6
TORSDOF 5
ENDMDL
MODEL 6
REMARK VINA RESULT:    -1.382      2.913      4.446
REMARK INTER + INTRA:          -2.112
REMARK INTER:                  -1.889
REMARK INTRA:                  -0.223
REMARK UNBOUND:                -0.326
REMARK SMILES CCCCCCC(=O)[O-]
REMARK SMILES IDX 5 1 6 2 7 3 8 4 9 5 4 6 3 7 2 8 1 9
REMARK H PARENT
REMARK Flexibility Score: inf
ROOT
ATOM      1  C   UNL     1      16.182 -33.462   2.050  1.00  0.00     0.006 C 
ENDROOT
BRANCH   1   2
ATOM      2  C   UNL     1      15.283 -32.319   2.531  1.00  0.00     0.053 C 
BRANCH   2   3
ATOM      3  C   UNL     1      16.089 -31.079   2.758  1.00  0.00     0.041 C 
ATOM      4  O   UNL     1      17.345 -31.114   2.670  1.00  0.00    -0.550 OA
ATOM      5  O   UNL     1      15.458 -29.895   3.117  1.00  0.00    -0.550 OA
ENDBRANCH   2   3
ENDBRANCH   1   2
BRANCH   1   6
ATOM      6  C   UNL     1      15.562 -34.177   0.843  1.00  0.00     0.000 C 
BRANCH   6   7
ATOM      7  C   UNL     1      14.110 -33.727   0.624  1.00  0.00    -0.000 C 
BRANCH   7   8
ATOM      8  C   UNL     1      13.647 -33.909  -0.829  1.00  0.00    -0.003 C 
ATOM      9  C   UNL     1      14.675 -34.644  -1.689  1.00  0.00     0.004 C 
ENDBRANCH   7   8
ENDBRANCH   6   7
ENDBRANCH   1   6
TORSDOF 5
ENDMDL
MODEL 7
REMARK VINA RESULT:    -1.378      8.592      9.467
REMARK INTER + INTRA:          -2.107
REMARK INTER:                  -1.646
REMARK INTRA:                  -0.461
REMARK UNBOUND:                -0.326
REMARK SMILES CCCCCCC(=O)[O-]
REMARK SMILES IDX 5 1 6 2 7 3 8 4 9 5 4 6 3 7 2 8 1 9
REMARK H PARENT
REMARK Flexibility Score: inf
ROOT
ATOM      1  C   UNL     1      20.382 -30.126   0.479  1.00  0.00     0.006 C 
ENDROOT
BRANCH   1   2
ATOM      2  C   UNL     1      21.042 -29.653   1.777  1.00  0.00     0.053 C 
BRANCH   2   3
ATOM      3  C   UNL     1      22.341 -28.971   1.487  1.00  0.00     0.041 C 
ATOM      4  O   UNL     1      22.588 -27.840   1.984  1.00  0.00    -0.550 OA
ATOM      5  O   UNL     1      23.258 -29.559   0.626  1.00  0.00    -0.550 OA
ENDBRANCH   2   3
ENDBRANCH   1   2
BRANCH   1   6
ATOM      6  C   UNL     1      19.893 -28.936  -0.355  1.00  0.00     0.000 C 
BRANCH   6   7
ATOM      7  C   UNL     1      20.525 -28.949  -1.755  1.00  0.00    -0.000 C 
BRANCH   7   8
ATOM      8  C   UNL     1      21.304 -27.662  -2.064  1.00  0.00    -0.003 C 
ATOM      9  C   UNL     1      21.046 -26.555  -1.043  1.00  0.00     0.004 C 
ENDBRANCH   7   8
ENDBRANCH   6   7
ENDBRANCH   1   6
TORSDOF 5
ENDMDL
MODEL 8
REMARK VINA RESULT:    -1.362      2.174      2.843
REMARK INTER + INTRA:          -2.087
REMARK INTER:                  -1.906
REMARK INTRA:                  -0.181
REMARK UNBOUND:                -0.326
REMARK SMILES CCCCCCC(=O)[O-]
REMARK SMILES IDX 5 1 6 2 7 3 8 4 9 5 4 6 3 7 2 8 1 9
REMARK H PARENT
REMARK Flexibility Score: inf
ROOT
ATOM      1  C   UNL     1      14.563 -33.576   1.255  1.00  0.00     0.006 C 
ENDROOT
BRANCH   1   2
ATOM      2  C   UNL     1      15.229 -34.447   0.186  1.00  0.00     0.053 C 
BRANCH   2   3
ATOM      3  C   UNL     1      14.485 -34.349  -1.109  1.00  0.00     0.041 C 
ATOM      4  O   UNL     1      14.885 -34.986  -2.119  1.00  0.00    -0.550 OA
ATOM      5  O   UNL     1      13.381 -33.514  -1.215  1.00  0.00    -0.550 OA
ENDBRANCH   2   3
ENDBRANCH   1   2
BRANCH   1   6
ATOM      6  C   UNL     1      15.614 -32.869   2.120  1.00  0.00     0.000 C 
BRANCH   6   7
ATOM      7  C   UNL     1      16.989 -33.535   1.967  1.00  0.00    -0.000 C 
BRANCH   7   8
ATOM      8  C   UNL     1      18.140 -32.628   2.429  1.00  0.00    -0.003 C 
ATOM      9  C   UNL     1      19.375 -32.738   1.535  1.00  0.00     0.004 C 
ENDBRANCH   7   8
ENDBRANCH   6   7
ENDBRANCH   1   6
TORSDOF 5
ENDMDL
MODEL 9
REMARK VINA RESULT:    -1.315      2.330      4.015
REMARK INTER + INTRA:          -2.026
REMARK INTER:                  -1.788
REMARK INTRA:                  -0.238
REMARK UNBOUND:                -0.326
REMARK SMILES CCCCCCC(=O)[O-]
REMARK SMILES IDX 5 1 6 2 7 3 8 4 9 5 4 6 3 7 2 8 1 9
REMARK H PARENT
REMARK Flexibility Score: inf
ROOT
ATOM      1  C   UNL     1      16.149 -33.301   2.573  1.00  0.00     0.006 C 
ENDROOT
BRANCH   1   2
ATOM      2  C   UNL     1      16.451 -31.818   2.810  1.00  0.00     0.053 C 
BRANCH   2   3
ATOM      3  C   UNL     1      15.197 -31.007   2.729  1.00  0.00     0.041 C 
ATOM      4  O   UNL     1      15.253 -29.749   2.758  1.00  0.00    -0.550 OA
ATOM      5  O   UNL     1      13.962 -31.639   2.674  1.00  0.00    -0.550 OA
ENDBRANCH   2   3
ENDBRANCH   1   2
BRANCH   1   6
ATOM      6  C   UNL     1      17.189 -33.932   1.641  1.00  0.00     0.000 C 
BRANCH   6   7
ATOM      7  C   UNL     1      16.509 -34.660   0.472  1.00  0.00    -0.000 C 
BRANCH   7   8
ATOM      8  C   UNL     1      15.050 -34.225   0.272  1.00  0.00    -0.003 C 
ATOM      9  C   UNL     1      14.531 -34.522  -1.134  1.00  0.00     0.004 C 
ENDBRANCH   7   8
ENDBRANCH   6   7
ENDBRANCH   1   6
TORSDOF 5
ENDMDL
