MODEL 1
REMARK VINA RESULT:    -7.386      0.000      0.000
REMARK INTER + INTRA:          -7.386
REMARK INTER:                  -7.386
REMARK INTRA:                   0.000
REMARK UNBOUND:                 0.000
REMARK SMILES O=c1ccc2ccccc2o1
REMARK SMILES IDX 7 1 8 2 9 3 10 4 5 5 6 6 4 7 3 8 2 9 1 10 11 11
REMARK H PARENT
REMARK Flexibility Score: inf
ROOT
ATOM      1  C   UNL     1     -18.459 -14.997 -12.218  1.00  0.00     0.001 A 
ATOM      2  C   UNL     1     -18.458 -16.233 -12.871  1.00  0.00     0.004 A 
ATOM      3  C   UNL     1     -19.662 -16.807 -13.294  1.00  0.00     0.048 A 
ATOM      4  C   UNL     1     -20.873 -16.145 -13.063  1.00  0.00     0.138 A 
ATOM      5  C   UNL     1     -20.874 -14.895 -12.403  1.00  0.00     0.018 A 
ATOM      6  C   UNL     1     -19.664 -14.326 -11.982  1.00  0.00     0.012 A 
ATOM      7  C   UNL     1     -22.100 -14.258 -12.187  1.00  0.00     0.019 A 
ATOM      8  C   UNL     1     -23.275 -14.867 -12.625  1.00  0.00     0.094 A 
ATOM      9  C   UNL     1     -23.197 -16.105 -13.272  1.00  0.00     0.336 A 
ATOM     10  O   UNL     1     -24.247 -16.671 -13.676  1.00  0.00    -0.246 OA
ATOM     11  O   UNL     1     -22.017 -16.691 -13.466  1.00  0.00    -0.423 OA
ENDROOT
TORSDOF 0
ENDMDL
MODEL 2
REMARK VINA RESULT:    -7.357      1.553      3.806
REMARK INTER + INTRA:          -7.357
REMARK INTER:                  -7.357
REMARK INTRA:                   0.000
REMARK UNBOUND:                 0.000
REMARK SMILES O=c1ccc2ccccc2o1
REMARK SMILES IDX 7 1 8 2 9 3 10 4 5 5 6 6 4 7 3 8 2 9 1 10 11 11
REMARK H PARENT
REMARK Flexibility Score: inf
ROOT
ATOM      1  C   UNL     1     -23.201 -14.494 -12.320  1.00  0.00     0.001 A 
ATOM      2  C   UNL     1     -23.331 -15.710 -12.998  1.00  0.00     0.004 A 
ATOM      3  C   UNL     1     -22.195 -16.460 -13.322  1.00  0.00     0.048 A 
ATOM      4  C   UNL     1     -20.924 -15.995 -12.969  1.00  0.00     0.138 A 
ATOM      5  C   UNL     1     -20.792 -14.766 -12.284  1.00  0.00     0.018 A 
ATOM      6  C   UNL     1     -21.935 -14.019 -11.962  1.00  0.00     0.012 A 
ATOM      7  C   UNL     1     -19.509 -14.326 -11.944  1.00  0.00     0.019 A 
ATOM      8  C   UNL     1     -18.406 -15.106 -12.288  1.00  0.00     0.094 A 
ATOM      9  C   UNL     1     -18.612 -16.313 -12.965  1.00  0.00     0.336 A 
ATOM     10  O   UNL     1     -17.628 -17.031 -13.284  1.00  0.00    -0.246 OA
ATOM     11  O   UNL     1     -19.844 -16.709 -13.277  1.00  0.00    -0.423 OA
ENDROOT
TORSDOF 0
ENDMDL
MODEL 3
REMARK VINA RESULT:    -7.318      0.923      1.055
REMARK INTER + INTRA:          -7.318
REMARK INTER:                  -7.318
REMARK INTRA:                   0.000
REMARK UNBOUND:                 0.000
REMARK SMILES O=c1ccc2ccccc2o1
REMARK SMILES IDX 7 1 8 2 9 3 10 4 5 5 6 6 4 7 3 8 2 9 1 10 11 11
REMARK H PARENT
REMARK Flexibility Score: inf
ROOT
ATOM      1  C   UNL     1     -18.321 -14.246 -12.245  1.00  0.00     0.001 A 
ATOM      2  C   UNL     1     -17.828 -15.492 -12.645  1.00  0.00     0.004 A 
ATOM      3  C   UNL     1     -18.708 -16.500 -13.052  1.00  0.00     0.048 A 
ATOM      4  C   UNL     1     -20.087 -16.265 -13.061  1.00  0.00     0.138 A 
ATOM      5  C   UNL     1     -20.586 -15.005 -12.657  1.00  0.00     0.018 A 
ATOM      6  C   UNL     1     -19.698 -13.999 -12.250  1.00  0.00     0.012 A 
ATOM      7  C   UNL     1     -21.969 -14.800 -12.676  1.00  0.00     0.019 A 
ATOM      8  C   UNL     1     -22.809 -15.833 -13.089  1.00  0.00     0.094 A 
ATOM      9  C   UNL     1     -22.244 -17.053 -13.475  1.00  0.00     0.336 A 
ATOM     10  O   UNL     1     -22.986 -17.998 -13.852  1.00  0.00    -0.246 OA
ATOM     11  O   UNL     1     -20.924 -17.224 -13.449  1.00  0.00    -0.423 OA
ENDROOT
TORSDOF 0
ENDMDL
MODEL 4
REMARK VINA RESULT:    -7.235      1.477      2.290
REMARK INTER + INTRA:          -7.235
REMARK INTER:                  -7.235
REMARK INTRA:                   0.000
REMARK UNBOUND:                 0.000
REMARK SMILES O=c1ccc2ccccc2o1
REMARK SMILES IDX 7 1 8 2 9 3 10 4 5 5 6 6 4 7 3 8 2 9 1 10 11 11
REMARK H PARENT
REMARK Flexibility Score: inf
ROOT
ATOM      1  C   UNL     1     -17.972 -16.424 -13.002  1.00  0.00     0.001 A 
ATOM      2  C   UNL     1     -17.830 -15.235 -12.280  1.00  0.00     0.004 A 
ATOM      3  C   UNL     1     -18.959 -14.488 -11.926  1.00  0.00     0.048 A 
ATOM      4  C   UNL     1     -20.235 -14.928 -12.294  1.00  0.00     0.138 A 
ATOM      5  C   UNL     1     -20.378 -16.130 -13.023  1.00  0.00     0.018 A 
ATOM      6  C   UNL     1     -19.243 -16.875 -13.375  1.00  0.00     0.012 A 
ATOM      7  C   UNL     1     -21.666 -16.545 -13.377  1.00  0.00     0.019 A 
ATOM      8  C   UNL     1     -22.762 -15.768 -13.004  1.00  0.00     0.094 A 
ATOM      9  C   UNL     1     -22.543 -14.590 -12.281  1.00  0.00     0.336 A 
ATOM     10  O   UNL     1     -23.520 -13.875 -11.934  1.00  0.00    -0.246 OA
ATOM     11  O   UNL     1     -21.307 -14.217 -11.957  1.00  0.00    -0.423 OA
ENDROOT
TORSDOF 0
ENDMDL
MODEL 5
REMARK VINA RESULT:    -7.027      2.061      4.390
REMARK INTER + INTRA:          -7.027
REMARK INTER:                  -7.027
REMARK INTRA:                   0.000
REMARK UNBOUND:                 0.000
REMARK SMILES O=c1ccc2ccccc2o1
REMARK SMILES IDX 7 1 8 2 9 3 10 4 5 5 6 6 4 7 3 8 2 9 1 10 11 11
REMARK H PARENT
REMARK Flexibility Score: inf
ROOT
ATOM      1  C   UNL     1     -23.309 -15.642 -12.929  1.00  0.00     0.001 A 
ATOM      2  C   UNL     1     -23.069 -14.367 -12.408  1.00  0.00     0.004 A 
ATOM      3  C   UNL     1     -21.758 -13.931 -12.190  1.00  0.00     0.048 A 
ATOM      4  C   UNL     1     -20.680 -14.770 -12.492  1.00  0.00     0.138 A 
ATOM      5  C   UNL     1     -20.922 -16.059 -13.020  1.00  0.00     0.018 A 
ATOM      6  C   UNL     1     -22.239 -16.490 -13.236  1.00  0.00     0.012 A 
ATOM      7  C   UNL     1     -19.825 -16.875 -13.312  1.00  0.00     0.019 A 
ATOM      8  C   UNL     1     -18.536 -16.398 -13.078  1.00  0.00     0.094 A 
ATOM      9  C   UNL     1     -18.373 -15.111 -12.555  1.00  0.00     0.336 A 
ATOM     10  O   UNL     1     -17.216 -14.663 -12.337  1.00  0.00    -0.246 OA
ATOM     11  O   UNL     1     -19.433 -14.354 -12.285  1.00  0.00    -0.423 OA
ENDROOT
TORSDOF 0
ENDMDL
MODEL 6
REMARK VINA RESULT:    -6.916      1.332      1.992
REMARK INTER + INTRA:          -6.916
REMARK INTER:                  -6.916
REMARK INTRA:                   0.000
REMARK UNBOUND:                 0.000
REMARK SMILES O=c1ccc2ccccc2o1
REMARK SMILES IDX 7 1 8 2 9 3 10 4 5 5 6 6 4 7 3 8 2 9 1 10 11 11
REMARK H PARENT
REMARK Flexibility Score: inf
ROOT
ATOM      1  C   UNL     1     -20.547 -13.886 -12.423  1.00  0.00     0.001 A 
ATOM      2  C   UNL     1     -19.578 -14.886 -12.550  1.00  0.00     0.004 A 
ATOM      3  C   UNL     1     -19.948 -16.181 -12.930  1.00  0.00     0.048 A 
ATOM      4  C   UNL     1     -21.291 -16.480 -13.184  1.00  0.00     0.138 A 
ATOM      5  C   UNL     1     -22.271 -15.470 -13.057  1.00  0.00     0.018 A 
ATOM      6  C   UNL     1     -21.893 -14.174 -12.675  1.00  0.00     0.012 A 
ATOM      7  C   UNL     1     -23.605 -15.799 -13.317  1.00  0.00     0.019 A 
ATOM      8  C   UNL     1     -23.927 -17.102 -13.693  1.00  0.00     0.094 A 
ATOM      9  C   UNL     1     -22.904 -18.050 -13.800  1.00  0.00     0.336 A 
ATOM     10  O   UNL     1     -23.175 -19.233 -14.138  1.00  0.00    -0.246 OA
ATOM     11  O   UNL     1     -21.642 -17.712 -13.546  1.00  0.00    -0.423 OA
ENDROOT
TORSDOF 0
ENDMDL
MODEL 7
REMARK VINA RESULT:    -6.747      1.376      2.767
REMARK INTER + INTRA:          -6.747
REMARK INTER:                  -6.747
REMARK INTRA:                   0.000
REMARK UNBOUND:                 0.000
REMARK SMILES O=c1ccc2ccccc2o1
REMARK SMILES IDX 7 1 8 2 9 3 10 4 5 5 6 6 4 7 3 8 2 9 1 10 11 11
REMARK H PARENT
REMARK Flexibility Score: inf
ROOT
ATOM      1  C   UNL     1     -20.160 -14.954 -12.553  1.00  0.00     0.001 A 
ATOM      2  C   UNL     1     -21.237 -14.067 -12.453  1.00  0.00     0.004 A 
ATOM      3  C   UNL     1     -22.532 -14.496 -12.762  1.00  0.00     0.048 A 
ATOM      4  C   UNL     1     -22.755 -15.814 -13.175  1.00  0.00     0.138 A 
ATOM      5  C   UNL     1     -21.667 -16.710 -13.275  1.00  0.00     0.018 A 
ATOM      6  C   UNL     1     -20.371 -16.274 -12.963  1.00  0.00     0.012 A 
ATOM      7  C   UNL     1     -21.920 -18.021 -13.690  1.00  0.00     0.019 A 
ATOM      8  C   UNL     1     -23.227 -18.404 -13.989  1.00  0.00     0.094 A 
ATOM      9  C   UNL     1     -24.255 -17.463 -13.866  1.00  0.00     0.336 A 
ATOM     10  O   UNL     1     -25.442 -17.789 -14.131  1.00  0.00    -0.246 OA
ATOM     11  O   UNL     1     -23.987 -16.221 -13.469  1.00  0.00    -0.423 OA
ENDROOT
TORSDOF 0
ENDMDL
MODEL 8
REMARK VINA RESULT:    -6.343      2.120      4.847
REMARK INTER + INTRA:          -6.343
REMARK INTER:                  -6.343
REMARK INTRA:                   0.000
REMARK UNBOUND:                 0.000
REMARK SMILES O=c1ccc2ccccc2o1
REMARK SMILES IDX 7 1 8 2 9 3 10 4 5 5 6 6 4 7 3 8 2 9 1 10 11 11
REMARK H PARENT
REMARK Flexibility Score: inf
ROOT
ATOM      1  C   UNL     1     -25.756 -15.278 -15.259  1.00  0.00     0.001 A 
ATOM      2  C   UNL     1     -25.240 -14.009 -14.981  1.00  0.00     0.004 A 
ATOM      3  C   UNL     1     -23.982 -13.875 -14.385  1.00  0.00     0.048 A 
ATOM      4  C   UNL     1     -23.234 -15.013 -14.064  1.00  0.00     0.138 A 
ATOM      5  C   UNL     1     -23.754 -16.296 -14.345  1.00  0.00     0.018 A 
ATOM      6  C   UNL     1     -25.017 -16.423 -14.943  1.00  0.00     0.012 A 
ATOM      7  C   UNL     1     -22.984 -17.415 -14.012  1.00  0.00     0.019 A 
ATOM      8  C   UNL     1     -21.736 -17.234 -13.419  1.00  0.00     0.094 A 
ATOM      9  C   UNL     1     -21.284 -15.933 -13.171  1.00  0.00     0.336 A 
ATOM     10  O   UNL     1     -20.159 -15.749 -12.636  1.00  0.00    -0.246 OA
ATOM     11  O   UNL     1     -22.037 -14.885 -13.497  1.00  0.00    -0.423 OA
ENDROOT
TORSDOF 0
ENDMDL
MODEL 9
REMARK VINA RESULT:    -6.300      1.652      2.550
REMARK INTER + INTRA:          -6.300
REMARK INTER:                  -6.300
REMARK INTRA:                   0.000
REMARK UNBOUND:                 0.000
REMARK SMILES O=c1ccc2ccccc2o1
REMARK SMILES IDX 7 1 8 2 9 3 10 4 5 5 6 6 4 7 3 8 2 9 1 10 11 11
REMARK H PARENT
REMARK Flexibility Score: inf
ROOT
ATOM      1  C   UNL     1     -19.703 -16.093 -12.824  1.00  0.00     0.001 A 
ATOM      2  C   UNL     1     -19.754 -14.713 -12.603  1.00  0.00     0.004 A 
ATOM      3  C   UNL     1     -20.928 -14.000 -12.870  1.00  0.00     0.048 A 
ATOM      4  C   UNL     1     -22.057 -14.666 -13.360  1.00  0.00     0.138 A 
ATOM      5  C   UNL     1     -22.006 -16.060 -13.582  1.00  0.00     0.018 A 
ATOM      6  C   UNL     1     -20.826 -16.770 -13.313  1.00  0.00     0.012 A 
ATOM      7  C   UNL     1     -23.150 -16.699 -14.072  1.00  0.00     0.019 A 
ATOM      8  C   UNL     1     -24.297 -15.947 -14.325  1.00  0.00     0.094 A 
ATOM      9  C   UNL     1     -24.274 -14.570 -14.080  1.00  0.00     0.336 A 
ATOM     10  O   UNL     1     -25.301 -13.875 -14.301  1.00  0.00    -0.246 OA
ATOM     11  O   UNL     1     -23.172 -13.987 -13.613  1.00  0.00    -0.423 OA
ENDROOT
TORSDOF 0
ENDMDL
