MODEL 1
REMARK VINA RESULT:    -3.963      0.000      0.000
REMARK INTER + INTRA:          -7.623
REMARK INTER:                  -6.280
REMARK INTRA:                  -1.342
REMARK UNBOUND:                -1.342
REMARK SMILES CCCCCCCCCCCC(=O)[O-]
REMARK SMILES IDX 7 1 8 2 9 3 10 4 11 5 12 6 13 7 14 8 6 9 5 10 4 11 3 12 2 13
REMARK SMILES IDX 1 14
REMARK H PARENT
REMARK Flexibility Score: inf
ROOT
ATOM      1  C   UNL     1      56.955  -2.025  84.267  1.00  0.00     0.000 C 
ENDROOT
BRANCH   1   2
ATOM      2  C   UNL     1      56.797  -3.111  83.184  1.00  0.00     0.000 C 
BRANCH   2   3
ATOM      3  C   UNL     1      58.074  -3.919  82.873  1.00  0.00     0.000 C 
BRANCH   3   4
ATOM      4  C   UNL     1      58.425  -5.000  83.910  1.00  0.00     0.006 C 
BRANCH   4   5
ATOM      5  C   UNL     1      59.934  -5.116  84.162  1.00  0.00     0.053 C 
BRANCH   5   6
ATOM      6  C   UNL     1      60.532  -6.165  83.279  1.00  0.00     0.041 C 
ATOM      7  O   UNL     1      61.676  -5.996  82.780  1.00  0.00    -0.550 OA
ATOM      8  O   UNL     1      59.848  -7.351  83.047  1.00  0.00    -0.550 OA
ENDBRANCH   5   6
ENDBRANCH   4   5
ENDBRANCH   3   4
ENDBRANCH   2   3
ENDBRANCH   1   2
BRANCH   1   9
ATOM      9  C   UNL     1      57.753  -0.784  83.827  1.00  0.00     0.000 C 
BRANCH   9  10
ATOM     10  C   UNL     1      58.882  -0.425  84.808  1.00  0.00    -0.000 C 
BRANCH  10  11
ATOM     11  C   UNL     1      60.266  -0.848  84.293  1.00  0.00    -0.000 C 
BRANCH  11  12
ATOM     12  C   UNL     1      60.254  -1.208  82.796  1.00  0.00    -0.000 C 
BRANCH  12  13
ATOM     13  C   UNL     1      61.399  -2.157  82.410  1.00  0.00    -0.003 C 
ATOM     14  C   UNL     1      61.094  -2.965  81.148  1.00  0.00     0.004 C 
ENDBRANCH  12  13
ENDBRANCH  11  12
ENDBRANCH  10  11
ENDBRANCH   9  10
ENDBRANCH   1   9
TORSDOF 10
ENDMDL
MODEL 2
REMARK VINA RESULT:    -3.888      1.436      2.307
REMARK INTER + INTRA:          -7.503
REMARK INTER:                  -6.562
REMARK INTRA:                  -0.941
REMARK UNBOUND:                -1.342
REMARK SMILES CCCCCCCCCCCC(=O)[O-]
REMARK SMILES IDX 7 1 8 2 9 3 10 4 11 5 12 6 13 7 14 8 6 9 5 10 4 11 3 12 2 13
REMARK SMILES IDX 1 14
REMARK H PARENT
REMARK Flexibility Score: inf
ROOT
ATOM      1  C   UNL     1      57.432  -4.291  83.800  1.00  0.00     0.000 C 
ENDROOT
BRANCH   1   2
ATOM      2  C   UNL     1      58.445  -5.445  83.933  1.00  0.00     0.000 C 
BRANCH   2   3
ATOM      3  C   UNL     1      59.924  -5.014  84.008  1.00  0.00     0.000 C 
BRANCH   3   4
ATOM      4  C   UNL     1      60.877  -5.807  83.096  1.00  0.00     0.006 C 
BRANCH   4   5
ATOM      5  C   UNL     1      60.601  -7.316  83.115  1.00  0.00     0.053 C 
BRANCH   5   6
ATOM      6  C   UNL     1      61.649  -8.048  82.339  1.00  0.00     0.041 C 
ATOM      7  O   UNL     1      62.071  -9.165  82.743  1.00  0.00    -0.550 OA
ATOM      8  O   UNL     1      62.125  -7.524  81.144  1.00  0.00    -0.550 OA
ENDBRANCH   5   6
ENDBRANCH   4   5
ENDBRANCH   3   4
ENDBRANCH   2   3
ENDBRANCH   1   2
BRANCH   1   9
ATOM      9  C   UNL     1      57.924  -3.091  82.969  1.00  0.00     0.000 C 
BRANCH   9  10
ATOM     10  C   UNL     1      57.861  -1.765  83.745  1.00  0.00    -0.000 C 
BRANCH  10  11
ATOM     11  C   UNL     1      59.085  -0.873  83.484  1.00  0.00    -0.000 C 
BRANCH  11  12
ATOM     12  C   UNL     1      60.403  -1.540  83.914  1.00  0.00    -0.000 C 
BRANCH  12  13
ATOM     13  C   UNL     1      61.382  -1.719  82.743  1.00  0.00    -0.003 C 
ATOM     14  C   UNL     1      60.698  -1.606  81.381  1.00  0.00     0.004 C 
ENDBRANCH  12  13
ENDBRANCH  11  12
ENDBRANCH  10  11
ENDBRANCH   9  10
ENDBRANCH   1   9
TORSDOF 10
ENDMDL
MODEL 3
REMARK VINA RESULT:    -3.807     13.584     15.271
REMARK INTER + INTRA:          -7.376
REMARK INTER:                  -6.120
REMARK INTRA:                  -1.256
REMARK UNBOUND:                -1.342
REMARK SMILES CCCCCCCCCCCC(=O)[O-]
REMARK SMILES IDX 7 1 8 2 9 3 10 4 11 5 12 6 13 7 14 8 6 9 5 10 4 11 3 12 2 13
REMARK SMILES IDX 1 14
REMARK H PARENT
REMARK Flexibility Score: inf
ROOT
ATOM      1  C   UNL     1      51.115  -0.122  72.384  1.00  0.00     0.000 C 
ENDROOT
BRANCH   1   2
ATOM      2  C   UNL     1      49.903  -0.766  71.682  1.00  0.00     0.000 C 
BRANCH   2   3
ATOM      3  C   UNL     1      48.535  -0.460  72.323  1.00  0.00     0.000 C 
BRANCH   3   4
ATOM      4  C   UNL     1      48.583  -0.127  73.825  1.00  0.00     0.006 C 
BRANCH   4   5
ATOM      5  C   UNL     1      47.646   1.026  74.209  1.00  0.00     0.053 C 
BRANCH   5   6
ATOM      6  C   UNL     1      48.216   2.334  73.761  1.00  0.00     0.041 C 
ATOM      7  O   UNL     1      47.469   3.204  73.240  1.00  0.00    -0.550 OA
ATOM      8  O   UNL     1      49.561   2.613  73.963  1.00  0.00    -0.550 OA
ENDBRANCH   5   6
ENDBRANCH   4   5
ENDBRANCH   3   4
ENDBRANCH   2   3
ENDBRANCH   1   2
BRANCH   1   9
ATOM      9  C   UNL     1      52.391  -0.985  72.392  1.00  0.00     0.000 C 
BRANCH   9  10
ATOM     10  C   UNL     1      52.387  -2.042  73.508  1.00  0.00    -0.000 C 
BRANCH  10  11
ATOM     11  C   UNL     1      52.021  -3.442  72.991  1.00  0.00    -0.000 C 
BRANCH  11  12
ATOM     12  C   UNL     1      50.672  -3.939  73.541  1.00  0.00    -0.000 C 
BRANCH  12  13
ATOM     13  C   UNL     1      49.653  -4.228  72.427  1.00  0.00    -0.003 C 
ATOM     14  C   UNL     1      48.206  -4.125  72.911  1.00  0.00     0.004 C 
ENDBRANCH  12  13
ENDBRANCH  11  12
ENDBRANCH  10  11
ENDBRANCH   9  10
ENDBRANCH   1   9
TORSDOF 10
ENDMDL
MODEL 4
REMARK VINA RESULT:    -3.767     12.558     14.279
REMARK INTER + INTRA:          -7.312
REMARK INTER:                  -6.344
REMARK INTRA:                  -0.968
REMARK UNBOUND:                -1.342
REMARK SMILES CCCCCCCCCCCC(=O)[O-]
REMARK SMILES IDX 7 1 8 2 9 3 10 4 11 5 12 6 13 7 14 8 6 9 5 10 4 11 3 12 2 13
REMARK SMILES IDX 1 14
REMARK H PARENT
REMARK Flexibility Score: inf
ROOT
ATOM      1  C   UNL     1      48.965   0.072  72.899  1.00  0.00     0.000 C 
ENDROOT
BRANCH   1   2
ATOM      2  C   UNL     1      50.433   0.310  73.305  1.00  0.00     0.000 C 
BRANCH   2   3
ATOM      3  C   UNL     1      51.458   0.187  72.159  1.00  0.00     0.000 C 
BRANCH   3   4
ATOM      4  C   UNL     1      52.584  -0.833  72.404  1.00  0.00     0.006 C 
BRANCH   4   5
ATOM      5  C   UNL     1      52.390  -1.635  73.698  1.00  0.00     0.053 C 
BRANCH   5   6
ATOM      6  C   UNL     1      53.471  -2.659  73.844  1.00  0.00     0.041 C 
ATOM      7  O   UNL     1      53.978  -2.886  74.975  1.00  0.00    -0.550 OA
ATOM      8  O   UNL     1      53.885  -3.397  72.743  1.00  0.00    -0.550 OA
ENDBRANCH   5   6
ENDBRANCH   4   5
ENDBRANCH   3   4
ENDBRANCH   2   3
ENDBRANCH   1   2
BRANCH   1   9
ATOM      9  C   UNL     1      48.698  -1.271  72.196  1.00  0.00     0.000 C 
BRANCH   9  10
ATOM     10  C   UNL     1      48.849  -2.477  73.138  1.00  0.00    -0.000 C 
BRANCH  10  11
ATOM     11  C   UNL     1      49.546  -3.668  72.462  1.00  0.00    -0.000 C 
BRANCH  11  12
ATOM     12  C   UNL     1      48.956  -5.021  72.899  1.00  0.00    -0.000 C 
BRANCH  12  13
ATOM     13  C   UNL     1      47.459  -5.143  72.573  1.00  0.00    -0.003 C 
ATOM     14  C   UNL     1      46.600  -5.361  73.819  1.00  0.00     0.004 C 
ENDBRANCH  12  13
ENDBRANCH  11  12
ENDBRANCH  10  11
ENDBRANCH   9  10
ENDBRANCH   1   9
TORSDOF 10
ENDMDL
MODEL 5
REMARK VINA RESULT:    -3.703      2.016      4.634
REMARK INTER + INTRA:          -7.209
REMARK INTER:                  -6.448
REMARK INTRA:                  -0.761
REMARK UNBOUND:                -1.342
REMARK SMILES CCCCCCCCCCCC(=O)[O-]
REMARK SMILES IDX 7 1 8 2 9 3 10 4 11 5 12 6 13 7 14 8 6 9 5 10 4 11 3 12 2 13
REMARK SMILES IDX 1 14
REMARK H PARENT
REMARK Flexibility Score: inf
ROOT
ATOM      1  C   UNL     1      57.016  -0.037  85.022  1.00  0.00     0.000 C 
ENDROOT
BRANCH   1   2
ATOM      2  C   UNL     1      58.479  -0.379  85.368  1.00  0.00     0.000 C 
BRANCH   2   3
ATOM      3  C   UNL     1      59.497  -0.123  84.238  1.00  0.00     0.000 C 
BRANCH   3   4
ATOM      4  C   UNL     1      60.446  -1.298  83.942  1.00  0.00     0.006 C 
BRANCH   4   5
ATOM      5  C   UNL     1      60.265  -1.868  82.529  1.00  0.00     0.053 C 
BRANCH   5   6
ATOM      6  C   UNL     1      60.500  -3.345  82.528  1.00  0.00     0.041 C 
ATOM      7  O   UNL     1      59.899  -4.083  83.355  1.00  0.00    -0.550 OA
ATOM      8  O   UNL     1      61.344  -3.915  81.584  1.00  0.00    -0.550 OA
ENDBRANCH   5   6
ENDBRANCH   4   5
ENDBRANCH   3   4
ENDBRANCH   2   3
ENDBRANCH   1   2
BRANCH   1   9
ATOM      9  C   UNL     1      56.400  -0.893  83.901  1.00  0.00     0.000 C 
BRANCH   9  10
ATOM     10  C   UNL     1      56.873  -2.355  83.941  1.00  0.00    -0.000 C 
BRANCH  10  11
ATOM     11  C   UNL     1      56.274  -3.199  82.805  1.00  0.00    -0.000 C 
BRANCH  11  12
ATOM     12  C   UNL     1      54.876  -2.712  82.383  1.00  0.00    -0.000 C 
BRANCH  12  13
ATOM     13  C   UNL     1      53.946  -3.867  81.981  1.00  0.00    -0.003 C 
ATOM     14  C   UNL     1      52.468  -3.523  82.161  1.00  0.00     0.004 C 
ENDBRANCH  12  13
ENDBRANCH  11  12
ENDBRANCH  10  11
ENDBRANCH   9  10
ENDBRANCH   1   9
TORSDOF 10
ENDMDL
MODEL 6
REMARK VINA RESULT:    -3.698     11.649     13.173
REMARK INTER + INTRA:          -7.203
REMARK INTER:                  -6.365
REMARK INTRA:                  -0.838
REMARK UNBOUND:                -1.342
REMARK SMILES CCCCCCCCCCCC(=O)[O-]
REMARK SMILES IDX 7 1 8 2 9 3 10 4 11 5 12 6 13 7 14 8 6 9 5 10 4 11 3 12 2 13
REMARK SMILES IDX 1 14
REMARK H PARENT
REMARK Flexibility Score: inf
ROOT
ATOM      1  C   UNL     1      52.149  -0.663  72.245  1.00  0.00     0.000 C 
ENDROOT
BRANCH   1   2
ATOM      2  C   UNL     1      52.738  -1.617  73.303  1.00  0.00     0.000 C 
BRANCH   2   3
ATOM      3  C   UNL     1      53.056  -3.040  72.800  1.00  0.00     0.000 C 
BRANCH   3   4
ATOM      4  C   UNL     1      52.852  -4.156  73.839  1.00  0.00     0.006 C 
BRANCH   4   5
ATOM      5  C   UNL     1      54.052  -4.319  74.781  1.00  0.00     0.053 C 
BRANCH   5   6
ATOM      6  C   UNL     1      55.013  -5.325  74.232  1.00  0.00     0.041 C 
ATOM      7  O   UNL     1      56.151  -4.960  73.832  1.00  0.00    -0.550 OA
ATOM      8  O   UNL     1      54.674  -6.672  74.208  1.00  0.00    -0.550 OA
ENDBRANCH   5   6
ENDBRANCH   4   5
ENDBRANCH   3   4
ENDBRANCH   2   3
ENDBRANCH   1   2
BRANCH   1   9
ATOM      9  C   UNL     1      50.694  -0.230  72.503  1.00  0.00     0.000 C 
BRANCH   9  10
ATOM     10  C   UNL     1      49.670  -1.144  71.810  1.00  0.00    -0.000 C 
BRANCH  10  11
ATOM     11  C   UNL     1      48.997  -2.122  72.785  1.00  0.00    -0.000 C 
BRANCH  11  12
ATOM     12  C   UNL     1      49.391  -3.585  72.518  1.00  0.00    -0.000 C 
BRANCH  12  13
ATOM     13  C   UNL     1      48.236  -4.563  72.784  1.00  0.00    -0.003 C 
ATOM     14  C   UNL     1      47.541  -4.305  74.121  1.00  0.00     0.004 C 
ENDBRANCH  12  13
ENDBRANCH  11  12
ENDBRANCH  10  11
ENDBRANCH   9  10
ENDBRANCH   1   9
TORSDOF 10
ENDMDL
MODEL 7
REMARK VINA RESULT:    -3.676     11.832     13.366
REMARK INTER + INTRA:          -7.168
REMARK INTER:                  -5.706
REMARK INTRA:                  -1.462
REMARK UNBOUND:                -1.342
REMARK SMILES CCCCCCCCCCCC(=O)[O-]
REMARK SMILES IDX 7 1 8 2 9 3 10 4 11 5 12 6 13 7 14 8 6 9 5 10 4 11 3 12 2 13
REMARK SMILES IDX 1 14
REMARK H PARENT
REMARK Flexibility Score: inf
ROOT
ATOM      1  C   UNL     1      49.888  -0.510  71.895  1.00  0.00     0.000 C 
ENDROOT
BRANCH   1   2
ATOM      2  C   UNL     1      51.160   0.019  72.587  1.00  0.00     0.000 C 
BRANCH   2   3
ATOM      3  C   UNL     1      52.444  -0.789  72.308  1.00  0.00     0.000 C 
BRANCH   3   4
ATOM      4  C   UNL     1      52.748  -1.896  73.333  1.00  0.00     0.006 C 
BRANCH   4   5
ATOM      5  C   UNL     1      53.443  -3.112  72.708  1.00  0.00     0.053 C 
BRANCH   5   6
ATOM      6  C   UNL     1      53.843  -4.088  73.769  1.00  0.00     0.041 C 
ATOM      7  O   UNL     1      53.023  -4.419  74.666  1.00  0.00    -0.550 OA
ATOM      8  O   UNL     1      55.104  -4.670  73.739  1.00  0.00    -0.550 OA
ENDBRANCH   5   6
ENDBRANCH   4   5
ENDBRANCH   3   4
ENDBRANCH   2   3
ENDBRANCH   1   2
BRANCH   1   9
ATOM      9  C   UNL     1      48.645  -0.589  72.801  1.00  0.00     0.000 C 
BRANCH   9  10
ATOM     10  C   UNL     1      49.001  -0.812  74.280  1.00  0.00    -0.000 C 
BRANCH  10  11
ATOM     11  C   UNL     1      48.555  -2.191  74.791  1.00  0.00    -0.000 C 
BRANCH  11  12
ATOM     12  C   UNL     1      49.658  -3.256  74.651  1.00  0.00    -0.000 C 
BRANCH  12  13
ATOM     13  C   UNL     1      49.293  -4.351  73.637  1.00  0.00    -0.003 C 
ATOM     14  C   UNL     1      49.913  -4.110  72.261  1.00  0.00     0.004 C 
ENDBRANCH  12  13
ENDBRANCH  11  12
ENDBRANCH  10  11
ENDBRANCH   9  10
ENDBRANCH   1   9
TORSDOF 10
ENDMDL
MODEL 8
REMARK VINA RESULT:    -3.667     12.953     14.591
REMARK INTER + INTRA:          -7.154
REMARK INTER:                  -5.603
REMARK INTRA:                  -1.551
REMARK UNBOUND:                -1.342
REMARK SMILES CCCCCCCCCCCC(=O)[O-]
REMARK SMILES IDX 7 1 8 2 9 3 10 4 11 5 12 6 13 7 14 8 6 9 5 10 4 11 3 12 2 13
REMARK SMILES IDX 1 14
REMARK H PARENT
REMARK Flexibility Score: inf
ROOT
ATOM      1  C   UNL     1      52.287  -2.242  73.734  1.00  0.00     0.000 C 
ENDROOT
BRANCH   1   2
ATOM      2  C   UNL     1      51.843  -3.673  73.372  1.00  0.00     0.000 C 
BRANCH   2   3
ATOM      3  C   UNL     1      50.382  -4.017  73.729  1.00  0.00     0.000 C 
BRANCH   3   4
ATOM      4  C   UNL     1      49.469  -4.300  72.524  1.00  0.00     0.006 C 
BRANCH   4   5
ATOM      5  C   UNL     1      47.978  -4.176  72.864  1.00  0.00     0.053 C 
BRANCH   5   6
ATOM      6  C   UNL     1      47.419  -5.508  73.252  1.00  0.00     0.041 C 
ATOM      7  O   UNL     1      47.075  -6.333  72.364  1.00  0.00    -0.550 OA
ATOM      8  O   UNL     1      47.323  -5.860  74.592  1.00  0.00    -0.550 OA
ENDBRANCH   5   6
ENDBRANCH   4   5
ENDBRANCH   3   4
ENDBRANCH   2   3
ENDBRANCH   1   2
BRANCH   1   9
ATOM      9  C   UNL     1      52.380  -1.272  72.541  1.00  0.00     0.000 C 
BRANCH   9  10
ATOM     10  C   UNL     1      51.257  -0.222  72.541  1.00  0.00    -0.000 C 
BRANCH  10  11
ATOM     11  C   UNL     1      49.980  -0.725  71.851  1.00  0.00    -0.000 C 
BRANCH  11  12
ATOM     12  C   UNL     1      48.748  -0.660  72.771  1.00  0.00    -0.000 C 
BRANCH  12  13
ATOM     13  C   UNL     1      49.119  -0.360  74.232  1.00  0.00    -0.003 C 
ATOM     14  C   UNL     1      48.484  -1.344  75.215  1.00  0.00     0.004 C 
ENDBRANCH  12  13
ENDBRANCH  11  12
ENDBRANCH  10  11
ENDBRANCH   9  10
ENDBRANCH   1   9
TORSDOF 10
ENDMDL
MODEL 9
REMARK VINA RESULT:    -3.614     13.107     14.435
REMARK INTER + INTRA:          -7.070
REMARK INTER:                  -5.515
REMARK INTRA:                  -1.554
REMARK UNBOUND:                -1.342
REMARK SMILES CCCCCCCCCCCC(=O)[O-]
REMARK SMILES IDX 7 1 8 2 9 3 10 4 11 5 12 6 13 7 14 8 6 9 5 10 4 11 3 12 2 13
REMARK SMILES IDX 1 14
REMARK H PARENT
REMARK Flexibility Score: inf
ROOT
ATOM      1  C   UNL     1      48.261  -0.707  74.741  1.00  0.00     0.000 C 
ENDROOT
BRANCH   1   2
ATOM      2  C   UNL     1      49.375  -1.527  75.422  1.00  0.00     0.000 C 
BRANCH   2   3
ATOM      3  C   UNL     1      49.368  -3.035  75.103  1.00  0.00     0.000 C 
BRANCH   3   4
ATOM      4  C   UNL     1      48.078  -3.552  74.443  1.00  0.00     0.006 C 
BRANCH   4   5
ATOM      5  C   UNL     1      48.312  -4.108  73.032  1.00  0.00     0.053 C 
BRANCH   5   6
ATOM      6  C   UNL     1      47.868  -5.534  72.952  1.00  0.00     0.041 C 
ATOM      7  O   UNL     1      46.824  -5.837  72.315  1.00  0.00    -0.550 OA
ATOM      8  O   UNL     1      48.632  -6.535  73.537  1.00  0.00    -0.550 OA
ENDBRANCH   5   6
ENDBRANCH   4   5
ENDBRANCH   3   4
ENDBRANCH   2   3
ENDBRANCH   1   2
BRANCH   1   9
ATOM      9  C   UNL     1      48.736   0.197  73.589  1.00  0.00     0.000 C 
BRANCH   9  10
ATOM     10  C   UNL     1      48.704  -0.511  72.225  1.00  0.00    -0.000 C 
BRANCH  10  11
ATOM     11  C   UNL     1      50.053  -1.149  71.861  1.00  0.00    -0.000 C 
BRANCH  11  12
ATOM     12  C   UNL     1      51.250  -0.334  72.382  1.00  0.00    -0.000 C 
BRANCH  12  13
ATOM     13  C   UNL     1      52.338  -1.221  73.008  1.00  0.00    -0.003 C 
ATOM     14  C   UNL     1      52.100  -2.710  72.758  1.00  0.00     0.004 C 
ENDBRANCH  12  13
ENDBRANCH  11  12
ENDBRANCH  10  11
ENDBRANCH   9  10
ENDBRANCH   1   9
TORSDOF 10
ENDMDL
