MODEL 1
REMARK VINA RESULT:    -4.775      0.000      0.000
REMARK INTER + INTRA:          -4.839
REMARK INTER:                  -5.891
REMARK INTRA:                   1.053
REMARK UNBOUND:                 1.053
REMARK SMILES CC1=CC=CC(C)(C)CC1=O
REMARK SMILES IDX 1 1 2 2 3 3 10 4 11 5 9 6 4 8 5 9 6 10 7 11 8 12
REMARK H PARENT
REMARK Flexibility Score: 80.00
ROOT
ATOM      1  C   UNL     1      80.365   6.764  26.900  1.00  0.00     0.048 C 
ATOM      2  C   UNL     1      81.683   6.027  26.830  1.00  0.00    -0.008 C 
ATOM      3  C   UNL     1      82.087   5.583  25.619  1.00  0.00     0.007 C 
ENDROOT
BRANCH   2   4
ATOM      4  C   UNL     1      82.463   5.917  28.087  1.00  0.00     0.159 C 
ATOM      5  O   UNL     1      81.888   6.161  29.183  1.00  0.00    -0.295 OA
BRANCH   4   6
ATOM      6  C   UNL     1      83.905   5.514  28.131  1.00  0.00     0.091 CG0
ATOM      7  G   UNL     1      84.170   4.127  27.504  1.00  0.00     0.000 G0
ENDBRANCH   4   6
ENDBRANCH   2   4
BRANCH   3   8
ATOM      8  C   UNL     1      83.323   4.863  25.236  1.00  0.00    -0.003 C 
ATOM      9  C   UNL     1      84.224   4.254  26.018  1.00  0.00    -0.020 C 
BRANCH   9  10
ATOM     10  C   UNL     1      84.170   4.135  27.523  1.00  0.00    -0.010 CG0
ATOM     11  C   UNL     1      82.993   3.204  27.893  1.00  0.00     0.016 C 
ATOM     12  C   UNL     1      85.472   3.489  28.050  1.00  0.00     0.016 C 
ATOM     13  G   UNL     1      83.898   5.522  28.146  1.00  0.00     0.000 G0
ENDBRANCH   9  10
ENDBRANCH   3   8
TORSDOF 0
ENDMDL
MODEL 2
REMARK VINA RESULT:    -4.555      1.924      3.266
REMARK INTER + INTRA:          -4.568
REMARK INTER:                  -5.330
REMARK INTRA:                   0.763
REMARK UNBOUND:                 1.053
REMARK SMILES CC1=CC=CC(C)(C)CC1=O
REMARK SMILES IDX 1 1 2 2 3 3 10 4 11 5 9 6 4 8 5 9 6 10 7 11 8 12
REMARK H PARENT
REMARK Flexibility Score: 80.00
ROOT
ATOM      1  C   UNL     1      81.517   2.702  30.567  1.00  0.00     0.048 C 
ATOM      2  C   UNL     1      81.987   3.559  29.415  1.00  0.00    -0.008 C 
ATOM      3  C   UNL     1      82.161   4.879  29.647  1.00  0.00     0.007 C 
ENDROOT
BRANCH   2   4
ATOM      4  C   UNL     1      82.293   2.866  28.138  1.00  0.00     0.159 C 
ATOM      5  O   UNL     1      82.328   1.606  28.125  1.00  0.00    -0.295 OA
BRANCH   4   6
ATOM      6  C   UNL     1      82.551   3.585  26.850  1.00  0.00     0.091 CG0
ATOM      7  G   UNL     1      83.752   4.553  26.923  1.00  0.00     0.000 G0
ENDBRANCH   4   6
ENDBRANCH   2   4
BRANCH   3   8
ATOM      8  C   UNL     1      82.631   5.950  28.738  1.00  0.00    -0.003 C 
ATOM      9  C   UNL     1      83.309   5.845  27.587  1.00  0.00    -0.020 C 
BRANCH   9  10
ATOM     10  C   UNL     1      83.743   4.563  26.916  1.00  0.00    -0.010 CG0
ATOM     11  C   UNL     1      84.176   4.896  25.470  1.00  0.00     0.016 C 
ATOM     12  C   UNL     1      84.964   3.966  27.655  1.00  0.00     0.016 C 
ATOM     13  G   UNL     1      82.551   3.582  26.847  1.00  0.00     0.000 G0
ENDBRANCH   9  10
ENDBRANCH   3   8
TORSDOF 0
ENDMDL
MODEL 3
REMARK VINA RESULT:    -4.429      1.574      3.013
REMARK INTER + INTRA:          -4.411
REMARK INTER:                  -5.151
REMARK INTRA:                   0.740
REMARK UNBOUND:                 1.053
REMARK SMILES CC1=CC=CC(C)(C)CC1=O
REMARK SMILES IDX 1 1 2 2 3 3 10 4 11 5 9 6 4 8 5 9 6 10 7 11 8 12
REMARK H PARENT
REMARK Flexibility Score: 80.00
ROOT
ATOM      1  C   UNL     1      81.473   3.765  31.175  1.00  0.00     0.048 C 
ATOM      2  C   UNL     1      82.156   3.831  29.829  1.00  0.00    -0.008 C 
ATOM      3  C   UNL     1      82.234   2.688  29.111  1.00  0.00     0.007 C 
ENDROOT
BRANCH   2   4
ATOM      4  C   UNL     1      82.618   5.164  29.370  1.00  0.00     0.159 C 
ATOM      5  O   UNL     1      82.245   6.188  30.005  1.00  0.00    -0.295 OA
BRANCH   4   6
ATOM      6  C   UNL     1      83.524   5.365  28.195  1.00  0.00     0.091 CG0
ATOM      7  G   UNL     1      82.930   4.833  26.871  1.00  0.00     0.000 G0
ENDBRANCH   4   6
ENDBRANCH   2   4
BRANCH   3   8
ATOM      8  C   UNL     1      82.812   2.448  27.768  1.00  0.00    -0.003 C 
ATOM      9  C   UNL     1      83.104   3.331  26.803  1.00  0.00    -0.020 C 
BRANCH   9  10
ATOM     10  C   UNL     1      82.931   4.830  26.877  1.00  0.00    -0.010 CG0
ATOM     11  C   UNL     1      83.734   5.467  25.720  1.00  0.00     0.016 C 
ATOM     12  C   UNL     1      81.442   5.200  26.685  1.00  0.00     0.016 C 
ATOM     13  G   UNL     1      83.509   5.356  28.210  1.00  0.00     0.000 G0
ENDBRANCH   9  10
ENDBRANCH   3   8
TORSDOF 0
ENDMDL
MODEL 4
REMARK VINA RESULT:    -4.372      1.620      2.946
REMARK INTER + INTRA:          -4.341
REMARK INTER:                  -5.096
REMARK INTRA:                   0.755
REMARK UNBOUND:                 1.053
REMARK SMILES CC1=CC=CC(C)(C)CC1=O
REMARK SMILES IDX 1 1 2 2 3 3 10 4 11 5 9 6 4 8 5 9 6 10 7 11 8 12
REMARK H PARENT
REMARK Flexibility Score: 80.00
ROOT
ATOM      1  C   UNL     1      84.118   4.497  24.483  1.00  0.00     0.048 C 
ATOM      2  C   UNL     1      83.444   5.029  25.726  1.00  0.00    -0.008 C 
ATOM      3  C   UNL     1      82.178   5.486  25.604  1.00  0.00     0.007 C 
ENDROOT
BRANCH   2   4
ATOM      4  C   UNL     1      84.202   4.936  26.999  1.00  0.00     0.159 C 
ATOM      5  O   UNL     1      85.268   4.262  27.023  1.00  0.00    -0.295 OA
BRANCH   4   6
ATOM      6  C   UNL     1      83.777   5.613  28.265  1.00  0.00     0.091 CG0
ATOM      7  G   UNL     1      82.372   5.185  28.743  1.00  0.00     0.000 G0
ENDBRANCH   4   6
ENDBRANCH   2   4
BRANCH   3   8
ATOM      8  C   UNL     1      81.262   6.034  26.632  1.00  0.00    -0.003 C 
ATOM      9  C   UNL     1      81.318   5.912  27.965  1.00  0.00    -0.020 C 
BRANCH   9  10
ATOM     10  C   UNL     1      82.379   5.184  28.755  1.00  0.00    -0.010 CG0
ATOM     11  C   UNL     1      82.249   5.600  30.238  1.00  0.00     0.016 C 
ATOM     12  C   UNL     1      82.152   3.657  28.666  1.00  0.00     0.016 C 
ATOM     13  G   UNL     1      83.780   5.608  28.259  1.00  0.00     0.000 G0
ENDBRANCH   9  10
ENDBRANCH   3   8
TORSDOF 0
ENDMDL
MODEL 5
REMARK VINA RESULT:    -4.323      1.546      2.478
REMARK INTER + INTRA:          -4.281
REMARK INTER:                  -5.042
REMARK INTRA:                   0.761
REMARK UNBOUND:                 1.053
REMARK SMILES CC1=CC=CC(C)(C)CC1=O
REMARK SMILES IDX 1 1 2 2 3 3 10 4 11 5 9 6 4 8 5 9 6 10 7 11 8 12
REMARK H PARENT
REMARK Flexibility Score: 80.00
ROOT
ATOM      1  C   UNL     1      80.611   6.449  26.164  1.00  0.00     0.048 C 
ATOM      2  C   UNL     1      81.688   5.819  27.015  1.00  0.00    -0.008 C 
ATOM      3  C   UNL     1      81.482   5.770  28.350  1.00  0.00     0.007 C 
ENDROOT
BRANCH   2   4
ATOM      4  C   UNL     1      82.855   5.236  26.307  1.00  0.00     0.159 C 
ATOM      5  O   UNL     1      82.814   5.133  25.051  1.00  0.00    -0.295 OA
BRANCH   4   6
ATOM      6  C   UNL     1      84.097   4.772  27.004  1.00  0.00     0.091 CG0
ATOM      7  G   UNL     1      83.829   3.678  28.062  1.00  0.00     0.000 G0
ENDBRANCH   4   6
ENDBRANCH   2   4
BRANCH   3   8
ATOM      8  C   UNL     1      82.330   5.200  29.422  1.00  0.00    -0.003 C 
ATOM      9  C   UNL     1      83.324   4.307  29.329  1.00  0.00    -0.020 C 
BRANCH   9  10
ATOM     10  C   UNL     1      83.845   3.675  28.060  1.00  0.00    -0.010 CG0
ATOM     11  C   UNL     1      85.199   2.998  28.376  1.00  0.00     0.016 C 
ATOM     12  C   UNL     1      82.867   2.581  27.574  1.00  0.00     0.016 C 
ATOM     13  G   UNL     1      84.092   4.768  26.997  1.00  0.00     0.000 G0
ENDBRANCH   9  10
ENDBRANCH   3   8
TORSDOF 0
ENDMDL
MODEL 6
REMARK VINA RESULT:    -3.994      1.554      3.545
REMARK INTER + INTRA:          -3.876
REMARK INTER:                  -4.921
REMARK INTRA:                   1.046
REMARK UNBOUND:                 1.053
REMARK SMILES CC1=CC=CC(C)(C)CC1=O
REMARK SMILES IDX 1 1 2 2 3 3 10 4 11 5 9 6 4 8 5 9 6 10 7 11 8 12
REMARK H PARENT
REMARK Flexibility Score: 80.00
ROOT
ATOM      1  C   UNL     1      85.496   3.000  28.722  1.00  0.00     0.048 C 
ATOM      2  C   UNL     1      84.456   3.805  27.978  1.00  0.00    -0.008 C 
ATOM      3  C   UNL     1      84.888   4.636  27.004  1.00  0.00     0.007 C 
ENDROOT
BRANCH   2   4
ATOM      4  C   UNL     1      83.034   3.562  28.329  1.00  0.00     0.159 C 
ATOM      5  O   UNL     1      82.769   2.960  29.405  1.00  0.00    -0.295 OA
BRANCH   4   6
ATOM      6  C   UNL     1      81.886   4.005  27.476  1.00  0.00     0.091 CG0
ATOM      7  G   UNL     1      81.845   5.534  27.257  1.00  0.00     0.000 G0
ENDBRANCH   4   6
ENDBRANCH   2   4
BRANCH   3   8
ATOM      8  C   UNL     1      84.117   5.519  26.098  1.00  0.00    -0.003 C 
ATOM      9  C   UNL     1      82.835   5.899  26.177  1.00  0.00    -0.020 C 
BRANCH   9  10
ATOM     10  C   UNL     1      81.853   5.522  27.261  1.00  0.00    -0.010 CG0
ATOM     11  C   UNL     1      82.289   6.215  28.572  1.00  0.00     0.016 C 
ATOM     12  C   UNL     1      80.440   6.034  26.897  1.00  0.00     0.016 C 
ATOM     13  G   UNL     1      81.892   3.994  27.490  1.00  0.00     0.000 G0
ENDBRANCH   9  10
ENDBRANCH   3   8
TORSDOF 0
ENDMDL
MODEL 7
REMARK VINA RESULT:    -3.790      1.941      3.056
REMARK INTER + INTRA:          -3.624
REMARK INTER:                  -4.385
REMARK INTRA:                   0.761
REMARK UNBOUND:                 1.053
REMARK SMILES CC1=CC=CC(C)(C)CC1=O
REMARK SMILES IDX 1 1 2 2 3 3 10 4 11 5 9 6 4 8 5 9 6 10 7 11 8 12
REMARK H PARENT
REMARK Flexibility Score: 80.00
ROOT
ATOM      1  C   UNL     1      84.125   5.971  25.474  1.00  0.00     0.048 C 
ATOM      2  C   UNL     1      83.910   4.904  26.522  1.00  0.00    -0.008 C 
ATOM      3  C   UNL     1      84.991   4.480  27.213  1.00  0.00     0.007 C 
ENDROOT
BRANCH   2   4
ATOM      4  C   UNL     1      82.513   4.462  26.760  1.00  0.00     0.159 C 
ATOM      5  O   UNL     1      81.571   5.121  26.242  1.00  0.00    -0.295 OA
BRANCH   4   6
ATOM      6  C   UNL     1      82.155   3.258  27.575  1.00  0.00     0.091 CG0
ATOM      7  G   UNL     1      82.644   3.346  29.039  1.00  0.00     0.000 G0
ENDBRANCH   4   6
ENDBRANCH   2   4
BRANCH   3   8
ATOM      8  C   UNL     1      85.089   3.480  28.303  1.00  0.00    -0.003 C 
ATOM      9  C   UNL     1      84.124   2.994  29.094  1.00  0.00    -0.020 C 
BRANCH   9  10
ATOM     10  C   UNL     1      82.656   3.346  29.037  1.00  0.00    -0.010 CG0
ATOM     11  C   UNL     1      81.875   2.304  29.870  1.00  0.00     0.016 C 
ATOM     12  C   UNL     1      82.420   4.737  29.670  1.00  0.00     0.016 C 
ATOM     13  G   UNL     1      82.157   3.264  27.577  1.00  0.00     0.000 G0
ENDBRANCH   9  10
ENDBRANCH   3   8
TORSDOF 0
ENDMDL
MODEL 8
REMARK VINA RESULT:    -3.542      1.796      3.907
REMARK INTER + INTRA:          -3.317
REMARK INTER:                  -4.091
REMARK INTRA:                   0.774
REMARK UNBOUND:                 1.053
REMARK SMILES CC1=CC=CC(C)(C)CC1=O
REMARK SMILES IDX 1 1 2 2 3 3 10 4 11 5 9 6 4 8 5 9 6 10 7 11 8 12
REMARK H PARENT
REMARK Flexibility Score: 80.00
ROOT
ATOM      1  C   UNL     1      85.990   2.997  28.213  1.00  0.00     0.048 C 
ATOM      2  C   UNL     1      84.541   3.421  28.134  1.00  0.00    -0.008 C 
ATOM      3  C   UNL     1      83.714   3.006  29.119  1.00  0.00     0.007 C 
ENDROOT
BRANCH   2   4
ATOM      4  C   UNL     1      84.161   4.324  27.019  1.00  0.00     0.159 C 
ATOM      5  O   UNL     1      85.073   4.849  26.325  1.00  0.00    -0.295 OA
BRANCH   4   6
ATOM      6  C   UNL     1      82.742   4.639  26.660  1.00  0.00     0.091 CG0
ATOM      7  G   UNL     1      81.955   5.304  27.811  1.00  0.00     0.000 G0
ENDBRANCH   4   6
ENDBRANCH   2   4
BRANCH   3   8
ATOM      8  C   UNL     1      82.272   3.277  29.325  1.00  0.00    -0.003 C 
ATOM      9  C   UNL     1      81.510   4.244  28.799  1.00  0.00    -0.020 C 
BRANCH   9  10
ATOM     10  C   UNL     1      81.956   5.303  27.817  1.00  0.00    -0.010 CG0
ATOM     11  C   UNL     1      80.696   5.975  27.225  1.00  0.00     0.016 C 
ATOM     12  C   UNL     1      82.778   6.389  28.548  1.00  0.00     0.016 C 
ATOM     13  G   UNL     1      82.737   4.642  26.659  1.00  0.00     0.000 G0
ENDBRANCH   9  10
ENDBRANCH   3   8
TORSDOF 0
ENDMDL
MODEL 9
REMARK VINA RESULT:    -2.841     13.324     14.465
REMARK INTER + INTRA:          -2.453
REMARK INTER:                  -3.208
REMARK INTRA:                   0.756
REMARK UNBOUND:                 1.053
REMARK SMILES CC1=CC=CC(C)(C)CC1=O
REMARK SMILES IDX 1 1 2 2 3 3 10 4 11 5 9 6 4 8 5 9 6 10 7 11 8 12
REMARK H PARENT
REMARK Flexibility Score: 80.00
ROOT
ATOM      1  C   UNL     1      80.753  -9.919  22.249  1.00  0.00     0.048 C 
ATOM      2  C   UNL     1      81.243  -9.428  23.591  1.00  0.00    -0.008 C 
ATOM      3  C   UNL     1      80.577  -9.846  24.690  1.00  0.00     0.007 C 
ENDROOT
BRANCH   2   4
ATOM      4  C   UNL     1      82.465  -8.587  23.598  1.00  0.00     0.159 C 
ATOM      5  O   UNL     1      83.129  -8.470  22.532  1.00  0.00    -0.295 OA
BRANCH   4   6
ATOM      6  C   UNL     1      82.952  -7.849  24.806  1.00  0.00     0.091 CG0
ATOM      7  G   UNL     1      83.255  -8.775  26.005  1.00  0.00     0.000 G0
ENDBRANCH   4   6
ENDBRANCH   2   4
BRANCH   3   8
ATOM      8  C   UNL     1      80.832  -9.560  26.122  1.00  0.00    -0.003 C 
ATOM      9  C   UNL     1      81.952  -9.116  26.708  1.00  0.00    -0.020 C 
BRANCH   9  10
ATOM     10  C   UNL     1      83.249  -8.768  26.017  1.00  0.00    -0.010 CG0
ATOM     11  C   UNL     1      84.129  -7.975  27.010  1.00  0.00     0.016 C 
ATOM     12  C   UNL     1      84.007 -10.059  25.633  1.00  0.00     0.016 C 
ATOM     13  G   UNL     1      82.962  -7.861  24.799  1.00  0.00     0.000 G0
ENDBRANCH   9  10
ENDBRANCH   3   8
TORSDOF 0
ENDMDL
