MODEL 1
REMARK VINA RESULT:    -3.759      0.000      0.000
REMARK INTER + INTRA:          -6.541
REMARK INTER:                  -5.736
REMARK INTRA:                  -0.804
REMARK UNBOUND:                -0.804
REMARK SMILES O=C([O-])CCCCCCCCC(=O)[O-]
REMARK SMILES IDX 7 1 6 2 5 3 4 4 2 5 1 6 3 7 8 8 9 9 10 10 11 11 12 12 13 13
REMARK SMILES IDX 14 14
REMARK H PARENT
REMARK Flexibility Score: inf
ROOT
ATOM      1  C   UNL     1      13.386  63.807   7.600  1.00  0.00     0.000 C 
ENDROOT
BRANCH   1   2
ATOM      2  C   UNL     1      13.359  64.971   6.595  1.00  0.00     0.000 C 
BRANCH   2   3
ATOM      3  C   UNL     1      12.438  64.694   5.396  1.00  0.00     0.006 C 
BRANCH   3   4
ATOM      4  C   UNL     1      11.752  65.962   4.871  1.00  0.00     0.053 C 
BRANCH   4   5
ATOM      5  C   UNL     1      11.500  65.847   3.400  1.00  0.00     0.041 C 
ATOM      6  O   UNL     1      12.448  65.978   2.582  1.00  0.00    -0.550 OA
ATOM      7  O   UNL     1      10.226  65.548   2.934  1.00  0.00    -0.550 OA
ENDBRANCH   4   5
ENDBRANCH   3   4
ENDBRANCH   2   3
ENDBRANCH   1   2
BRANCH   1   8
ATOM      8  C   UNL     1      12.735  62.530   7.042  1.00  0.00     0.000 C 
BRANCH   8   9
ATOM      9  C   UNL     1      11.594  62.008   7.933  1.00  0.00     0.000 C 
BRANCH   9  10
ATOM     10  C   UNL     1      11.059  63.082   8.895  1.00  0.00     0.006 C 
BRANCH  10  11
ATOM     11  C   UNL     1       9.617  63.493   8.576  1.00  0.00     0.053 C 
BRANCH  11  12
ATOM     12  C   UNL     1       9.489  64.983   8.565  1.00  0.00     0.041 C 
ATOM     13  O   UNL     1      10.519  65.708   8.547  1.00  0.00    -0.550 OA
ATOM     14  O   UNL     1       8.233  65.574   8.627  1.00  0.00    -0.550 OA
ENDBRANCH  11  12
ENDBRANCH  10  11
ENDBRANCH   9  10
ENDBRANCH   8   9
ENDBRANCH   1   8
TORSDOF 9
ENDMDL
MODEL 2
REMARK VINA RESULT:    -3.706      0.488      4.695
REMARK INTER + INTRA:          -6.460
REMARK INTER:                  -5.521
REMARK INTRA:                  -0.939
REMARK UNBOUND:                -0.804
REMARK SMILES O=C([O-])CCCCCCCCC(=O)[O-]
REMARK SMILES IDX 7 1 6 2 5 3 4 4 2 5 1 6 3 7 8 8 9 9 10 10 11 11 12 12 13 13
REMARK SMILES IDX 14 14
REMARK H PARENT
REMARK Flexibility Score: inf
ROOT
ATOM      1  C   UNL     1      12.640  62.507   7.080  1.00  0.00     0.000 C 
ENDROOT
BRANCH   1   2
ATOM      2  C   UNL     1      11.517  62.008   8.005  1.00  0.00     0.000 C 
BRANCH   2   3
ATOM      3  C   UNL     1      11.014  63.099   8.963  1.00  0.00     0.006 C 
BRANCH   3   4
ATOM      4  C   UNL     1       9.775  63.830   8.431  1.00  0.00     0.053 C 
BRANCH   4   5
ATOM      5  C   UNL     1       9.970  65.313   8.512  1.00  0.00     0.041 C 
ATOM      6  O   UNL     1      10.928  65.791   9.172  1.00  0.00    -0.550 OA
ATOM      7  O   UNL     1       9.120  66.164   7.816  1.00  0.00    -0.550 OA
ENDBRANCH   4   5
ENDBRANCH   3   4
ENDBRANCH   2   3
ENDBRANCH   1   2
BRANCH   1   8
ATOM      8  C   UNL     1      13.364  63.742   7.642  1.00  0.00     0.000 C 
BRANCH   8   9
ATOM      9  C   UNL     1      13.416  64.907   6.638  1.00  0.00     0.000 C 
BRANCH   9  10
ATOM     10  C   UNL     1      12.628  64.612   5.352  1.00  0.00     0.006 C 
BRANCH  10  11
ATOM     11  C   UNL     1      11.587  65.694   5.037  1.00  0.00     0.053 C 
BRANCH  11  12
ATOM     12  C   UNL     1      11.315  65.745   3.567  1.00  0.00     0.041 C 
ATOM     13  O   UNL     1      12.268  65.839   2.749  1.00  0.00    -0.550 OA
ATOM     14  O   UNL     1      10.006  65.740   3.102  1.00  0.00    -0.550 OA
ENDBRANCH  11  12
ENDBRANCH  10  11
ENDBRANCH   9  10
ENDBRANCH   8   9
ENDBRANCH   1   8
TORSDOF 9
ENDMDL
MODEL 3
REMARK VINA RESULT:    -3.636      0.809      1.401
REMARK INTER + INTRA:          -6.353
REMARK INTER:                  -5.616
REMARK INTRA:                  -0.737
REMARK UNBOUND:                -0.804
REMARK SMILES O=C([O-])CCCCCCCCC(=O)[O-]
REMARK SMILES IDX 7 1 6 2 5 3 4 4 2 5 1 6 3 7 8 8 9 9 10 10 11 11 12 12 13 13
REMARK SMILES IDX 14 14
REMARK H PARENT
REMARK Flexibility Score: inf
ROOT
ATOM      1  C   UNL     1      13.679  64.656   6.583  1.00  0.00     0.000 C 
ENDROOT
BRANCH   1   2
ATOM      2  C   UNL     1      12.601  64.645   5.485  1.00  0.00     0.000 C 
BRANCH   2   3
ATOM      3  C   UNL     1      11.592  65.794   5.638  1.00  0.00     0.006 C 
BRANCH   3   4
ATOM      4  C   UNL     1      11.685  66.819   4.501  1.00  0.00     0.053 C 
BRANCH   4   5
ATOM      5  C   UNL     1      11.507  66.146   3.175  1.00  0.00     0.041 C 
ATOM      6  O   UNL     1      12.437  66.157   2.329  1.00  0.00    -0.550 OA
ATOM      7  O   UNL     1      10.329  65.464   2.895  1.00  0.00    -0.550 OA
ENDBRANCH   4   5
ENDBRANCH   3   4
ENDBRANCH   2   3
ENDBRANCH   1   2
BRANCH   1   8
ATOM      8  C   UNL     1      13.386  63.649   7.708  1.00  0.00     0.000 C 
BRANCH   8   9
ATOM      9  C   UNL     1      12.574  62.435   7.220  1.00  0.00     0.000 C 
BRANCH   9  10
ATOM     10  C   UNL     1      11.367  62.132   8.122  1.00  0.00     0.006 C 
BRANCH  10  11
ATOM     11  C   UNL     1      11.061  63.273   9.100  1.00  0.00     0.053 C 
BRANCH  11  12
ATOM     12  C   UNL     1       9.760  63.923   8.754  1.00  0.00     0.041 C 
ATOM     13  O   UNL     1       8.731  63.222   8.568  1.00  0.00    -0.550 OA
ATOM     14  O   UNL     1       9.693  65.301   8.588  1.00  0.00    -0.550 OA
ENDBRANCH  11  12
ENDBRANCH  10  11
ENDBRANCH   9  10
ENDBRANCH   8   9
ENDBRANCH   1   8
TORSDOF 9
ENDMDL
MODEL 4
REMARK VINA RESULT:    -3.600      2.037      4.938
REMARK INTER + INTRA:          -6.299
REMARK INTER:                  -5.385
REMARK INTRA:                  -0.914
REMARK UNBOUND:                -0.804
REMARK SMILES O=C([O-])CCCCCCCCC(=O)[O-]
REMARK SMILES IDX 7 1 6 2 5 3 4 4 2 5 1 6 3 7 8 8 9 9 10 10 11 11 12 12 13 13
REMARK SMILES IDX 14 14
REMARK H PARENT
REMARK Flexibility Score: inf
ROOT
ATOM      1  C   UNL     1       9.384  65.006   8.563  1.00  0.00     0.000 C 
ENDROOT
BRANCH   1   2
ATOM      2  C   UNL     1       9.499  63.475   8.655  1.00  0.00     0.000 C 
BRANCH   2   3
ATOM      3  C   UNL     1      10.917  63.012   9.025  1.00  0.00     0.006 C 
BRANCH   3   4
ATOM      4  C   UNL     1      11.565  62.156   7.930  1.00  0.00     0.053 C 
BRANCH   4   5
ATOM      5  C   UNL     1      12.728  62.878   7.323  1.00  0.00     0.041 C 
ATOM      6  O   UNL     1      13.486  63.578   8.045  1.00  0.00    -0.550 OA
ATOM      7  O   UNL     1      13.004  62.738   5.969  1.00  0.00    -0.550 OA
ENDBRANCH   4   5
ENDBRANCH   3   4
ENDBRANCH   2   3
ENDBRANCH   1   2
BRANCH   1   8
ATOM      8  C   UNL     1      10.744  65.710   8.699  1.00  0.00     0.000 C 
BRANCH   8   9
ATOM      9  C   UNL     1      11.084  66.584   7.479  1.00  0.00     0.000 C 
BRANCH   9  10
ATOM     10  C   UNL     1      10.806  65.870   6.146  1.00  0.00     0.006 C 
BRANCH  10  11
ATOM     11  C   UNL     1      11.904  66.117   5.105  1.00  0.00     0.053 C 
BRANCH  11  12
ATOM     12  C   UNL     1      11.541  65.479   3.802  1.00  0.00     0.041 C 
ATOM     13  O   UNL     1      12.258  64.560   3.324  1.00  0.00    -0.550 OA
ATOM     14  O   UNL     1      10.440  65.934   3.088  1.00  0.00    -0.550 OA
ENDBRANCH  11  12
ENDBRANCH  10  11
ENDBRANCH   9  10
ENDBRANCH   8   9
ENDBRANCH   1   8
TORSDOF 9
ENDMDL
MODEL 5
REMARK VINA RESULT:    -3.527      0.869      5.088
REMARK INTER + INTRA:          -6.187
REMARK INTER:                  -5.522
REMARK INTRA:                  -0.665
REMARK UNBOUND:                -0.804
REMARK SMILES O=C([O-])CCCCCCCCC(=O)[O-]
REMARK SMILES IDX 7 1 6 2 5 3 4 4 2 5 1 6 3 7 8 8 9 9 10 10 11 11 12 12 13 13
REMARK SMILES IDX 14 14
REMARK H PARENT
REMARK Flexibility Score: inf
ROOT
ATOM      1  C   UNL     1      13.499  63.625   7.625  1.00  0.00     0.000 C 
ENDROOT
BRANCH   1   2
ATOM      2  C   UNL     1      12.476  62.688   6.961  1.00  0.00     0.000 C 
BRANCH   2   3
ATOM      3  C   UNL     1      11.528  62.035   7.979  1.00  0.00     0.006 C 
BRANCH   3   4
ATOM      4  C   UNL     1      11.015  63.026   9.032  1.00  0.00     0.053 C 
BRANCH   4   5
ATOM      5  C   UNL     1       9.821  63.766   8.513  1.00  0.00     0.041 C 
ATOM      6  O   UNL     1       9.965  64.877   7.939  1.00  0.00    -0.550 OA
ATOM      7  O   UNL     1       8.555  63.206   8.621  1.00  0.00    -0.550 OA
ENDBRANCH   4   5
ENDBRANCH   3   4
ENDBRANCH   2   3
ENDBRANCH   1   2
BRANCH   1   8
ATOM      8  C   UNL     1      13.682  64.942   6.852  1.00  0.00     0.000 C 
BRANCH   8   9
ATOM      9  C   UNL     1      12.618  65.139   5.757  1.00  0.00     0.000 C 
BRANCH   9  10
ATOM     10  C   UNL     1      12.524  66.599   5.283  1.00  0.00     0.006 C 
BRANCH  10  11
ATOM     11  C   UNL     1      11.286  66.858   4.416  1.00  0.00     0.053 C 
BRANCH  11  12
ATOM     12  C   UNL     1      11.345  66.044   3.163  1.00  0.00     0.041 C 
ATOM     13  O   UNL     1      10.385  65.290   2.851  1.00  0.00    -0.550 OA
ATOM     14  O   UNL     1      12.481  66.078   2.365  1.00  0.00    -0.550 OA
ENDBRANCH  11  12
ENDBRANCH  10  11
ENDBRANCH   9  10
ENDBRANCH   8   9
ENDBRANCH   1   8
TORSDOF 9
ENDMDL
MODEL 6
REMARK VINA RESULT:    -3.515      2.244      5.426
REMARK INTER + INTRA:          -6.169
REMARK INTER:                  -5.699
REMARK INTRA:                  -0.470
REMARK UNBOUND:                -0.804
REMARK SMILES O=C([O-])CCCCCCCCC(=O)[O-]
REMARK SMILES IDX 7 1 6 2 5 3 4 4 2 5 1 6 3 7 8 8 9 9 10 10 11 11 12 12 13 13
REMARK SMILES IDX 14 14
REMARK H PARENT
REMARK Flexibility Score: inf
ROOT
ATOM      1  C   UNL     1       9.725  63.427   8.575  1.00  0.00     0.000 C 
ENDROOT
BRANCH   1   2
ATOM      2  C   UNL     1       9.548  64.939   8.791  1.00  0.00     0.000 C 
BRANCH   2   3
ATOM      3  C   UNL     1       8.074  65.372   8.756  1.00  0.00     0.006 C 
BRANCH   3   4
ATOM      4  C   UNL     1       7.109  64.181   8.689  1.00  0.00     0.053 C 
BRANCH   4   5
ATOM      5  C   UNL     1       5.696  64.661   8.566  1.00  0.00     0.041 C 
ATOM      6  O   UNL     1       4.740  63.900   8.866  1.00  0.00    -0.550 OA
ATOM      7  O   UNL     1       5.438  65.967   8.167  1.00  0.00    -0.550 OA
ENDBRANCH   4   5
ENDBRANCH   3   4
ENDBRANCH   2   3
ENDBRANCH   1   2
BRANCH   1   8
ATOM      8  C   UNL     1      11.175  62.964   8.792  1.00  0.00     0.000 C 
BRANCH   8   9
ATOM      9  C   UNL     1      11.667  62.016   7.684  1.00  0.00     0.000 C 
BRANCH   9  10
ATOM     10  C   UNL     1      12.830  62.611   6.872  1.00  0.00     0.006 C 
BRANCH  10  11
ATOM     11  C   UNL     1      13.401  63.884   7.508  1.00  0.00     0.053 C 
BRANCH  11  12
ATOM     12  C   UNL     1      13.345  65.022   6.539  1.00  0.00     0.041 C 
ATOM     13  O   UNL     1      13.951  66.098   6.789  1.00  0.00    -0.550 OA
ATOM     14  O   UNL     1      12.583  64.915   5.383  1.00  0.00    -0.550 OA
ENDBRANCH  11  12
ENDBRANCH  10  11
ENDBRANCH   9  10
ENDBRANCH   8   9
ENDBRANCH   1   8
TORSDOF 9
ENDMDL
MODEL 7
REMARK VINA RESULT:    -3.501      1.935      2.373
REMARK INTER + INTRA:          -6.147
REMARK INTER:                  -5.271
REMARK INTRA:                  -0.876
REMARK UNBOUND:                -0.804
REMARK SMILES O=C([O-])CCCCCCCCC(=O)[O-]
REMARK SMILES IDX 7 1 6 2 5 3 4 4 2 5 1 6 3 7 8 8 9 9 10 10 11 11 12 12 13 13
REMARK SMILES IDX 14 14
REMARK H PARENT
REMARK Flexibility Score: inf
ROOT
ATOM      1  C   UNL     1      12.905  62.982   6.500  1.00  0.00     0.000 C 
ENDROOT
BRANCH   1   2
ATOM      2  C   UNL     1      13.701  64.181   7.043  1.00  0.00     0.000 C 
BRANCH   2   3
ATOM      3  C   UNL     1      13.296  65.507   6.379  1.00  0.00     0.006 C 
BRANCH   3   4
ATOM      4  C   UNL     1      11.924  65.433   5.697  1.00  0.00     0.053 C 
BRANCH   4   5
ATOM      5  C   UNL     1      12.049  65.741   4.237  1.00  0.00     0.041 C 
ATOM      6  O   UNL     1      12.082  64.808   3.393  1.00  0.00    -0.550 OA
ATOM      7  O   UNL     1      12.079  67.061   3.806  1.00  0.00    -0.550 OA
ENDBRANCH   4   5
ENDBRANCH   3   4
ENDBRANCH   2   3
ENDBRANCH   1   2
BRANCH   1   8
ATOM      8  C   UNL     1      12.161  62.217   7.607  1.00  0.00     0.000 C 
BRANCH   8   9
ATOM      9  C   UNL     1      10.929  62.977   8.129  1.00  0.00     0.000 C 
BRANCH   9  10
ATOM     10  C   UNL     1      11.125  63.508   9.558  1.00  0.00     0.006 C 
BRANCH  10  11
ATOM     11  C   UNL     1      11.165  65.039   9.619  1.00  0.00     0.053 C 
BRANCH  11  12
ATOM     12  C   UNL     1      12.187  65.497  10.610  1.00  0.00     0.041 C 
ATOM     13  O   UNL     1      11.900  65.555  11.835  1.00  0.00    -0.550 OA
ATOM     14  O   UNL     1      13.441  65.908  10.176  1.00  0.00    -0.550 OA
ENDBRANCH  11  12
ENDBRANCH  10  11
ENDBRANCH   9  10
ENDBRANCH   8   9
ENDBRANCH   1   8
TORSDOF 9
ENDMDL
MODEL 8
REMARK VINA RESULT:    -3.480      1.194      4.683
REMARK INTER + INTRA:          -6.116
REMARK INTER:                  -5.028
REMARK INTRA:                  -1.087
REMARK UNBOUND:                -0.804
REMARK SMILES O=C([O-])CCCCCCCCC(=O)[O-]
REMARK SMILES IDX 7 1 6 2 5 3 4 4 2 5 1 6 3 7 8 8 9 9 10 10 11 11 12 12 13 13
REMARK SMILES IDX 14 14
REMARK H PARENT
REMARK Flexibility Score: inf
ROOT
ATOM      1  C   UNL     1      11.505  62.019   8.005  1.00  0.00     0.000 C 
ENDROOT
BRANCH   1   2
ATOM      2  C   UNL     1      11.087  63.106   9.009  1.00  0.00     0.000 C 
BRANCH   2   3
ATOM      3  C   UNL     1       9.764  63.787   8.625  1.00  0.00     0.006 C 
BRANCH   3   4
ATOM      4  C   UNL     1       9.970  65.166   7.987  1.00  0.00     0.053 C 
BRANCH   4   5
ATOM      5  C   UNL     1      10.378  66.165   9.024  1.00  0.00     0.041 C 
ATOM      6  O   UNL     1       9.557  66.542   9.900  1.00  0.00    -0.550 OA
ATOM      7  O   UNL     1      11.683  66.643   9.054  1.00  0.00    -0.550 OA
ENDBRANCH   4   5
ENDBRANCH   3   4
ENDBRANCH   2   3
ENDBRANCH   1   2
BRANCH   1   8
ATOM      8  C   UNL     1      12.624  62.486   7.060  1.00  0.00     0.000 C 
BRANCH   8   9
ATOM      9  C   UNL     1      13.396  63.699   7.610  1.00  0.00     0.000 C 
BRANCH   9  10
ATOM     10  C   UNL     1      13.462  64.861   6.606  1.00  0.00     0.006 C 
BRANCH  10  11
ATOM     11  C   UNL     1      12.567  64.633   5.382  1.00  0.00     0.053 C 
BRANCH  11  12
ATOM     12  C   UNL     1      12.168  65.941   4.776  1.00  0.00     0.041 C 
ATOM     13  O   UNL     1      11.890  66.923   5.514  1.00  0.00    -0.550 OA
ATOM     14  O   UNL     1      12.053  66.062   3.397  1.00  0.00    -0.550 OA
ENDBRANCH  11  12
ENDBRANCH  10  11
ENDBRANCH   9  10
ENDBRANCH   8   9
ENDBRANCH   1   8
TORSDOF 9
ENDMDL
MODEL 9
REMARK VINA RESULT:    -3.459      1.386      2.284
REMARK INTER + INTRA:          -6.083
REMARK INTER:                  -5.197
REMARK INTRA:                  -0.886
REMARK UNBOUND:                -0.804
REMARK SMILES O=C([O-])CCCCCCCCC(=O)[O-]
REMARK SMILES IDX 7 1 6 2 5 3 4 4 2 5 1 6 3 7 8 8 9 9 10 10 11 11 12 12 13 13
REMARK SMILES IDX 14 14
REMARK H PARENT
REMARK Flexibility Score: inf
ROOT
ATOM      1  C   UNL     1      13.286  66.270   6.447  1.00  0.00     0.000 C 
ENDROOT
BRANCH   1   2
ATOM      2  C   UNL     1      11.869  66.435   7.024  1.00  0.00     0.000 C 
BRANCH   2   3
ATOM      3  C   UNL     1      10.773  66.133   5.990  1.00  0.00     0.006 C 
BRANCH   3   4
ATOM      4  C   UNL     1      11.060  66.763   4.621  1.00  0.00     0.053 C 
BRANCH   4   5
ATOM      5  C   UNL     1      11.016  65.720   3.548  1.00  0.00     0.041 C 
ATOM      6  O   UNL     1      12.012  64.978   3.344  1.00  0.00    -0.550 OA
ATOM      7  O   UNL     1       9.856  65.535   2.805  1.00  0.00    -0.550 OA
ENDBRANCH   4   5
ENDBRANCH   3   4
ENDBRANCH   2   3
ENDBRANCH   1   2
BRANCH   1   8
ATOM      8  C   UNL     1      13.969  64.977   6.922  1.00  0.00     0.000 C 
BRANCH   8   9
ATOM      9  C   UNL     1      13.243  63.709   6.437  1.00  0.00     0.000 C 
BRANCH   9  10
ATOM     10  C   UNL     1      13.032  62.683   7.562  1.00  0.00     0.006 C 
BRANCH  10  11
ATOM     11  C   UNL     1      11.564  62.266   7.711  1.00  0.00     0.053 C 
BRANCH  11  12
ATOM     12  C   UNL     1      10.835  63.228   8.595  1.00  0.00     0.041 C 
ATOM     13  O   UNL     1       9.620  63.485   8.385  1.00  0.00    -0.550 OA
ATOM     14  O   UNL     1      11.509  63.878   9.620  1.00  0.00    -0.550 OA
ENDBRANCH  11  12
ENDBRANCH  10  11
ENDBRANCH   9  10
ENDBRANCH   8   9
ENDBRANCH   1   8
TORSDOF 9
ENDMDL
