MODEL 1
REMARK VINA RESULT:    -2.960      0.000      0.000
REMARK INTER + INTRA:          -3.537
REMARK INTER:                  -3.479
REMARK INTRA:                  -0.058
REMARK UNBOUND:                -0.058
REMARK SMILES O=C([O-])CCC(=O)[O-]
REMARK SMILES IDX 4 1 2 2 1 3 3 4 5 5 6 6 7 7 8 8
REMARK H PARENT
REMARK Flexibility Score: inf
ROOT
ATOM      1  C   UNL     1      35.564 -52.011   3.506  1.00  0.00     0.059 C 
ENDROOT
BRANCH   1   2
ATOM      2  C   UNL     1      36.309 -52.114   4.800  1.00  0.00     0.042 C 
ATOM      3  O   UNL     1      36.733 -53.231   5.199  1.00  0.00    -0.550 OA
ATOM      4  O   UNL     1      36.579 -50.970   5.540  1.00  0.00    -0.550 OA
ENDBRANCH   1   2
BRANCH   1   5
ATOM      5  C   UNL     1      35.776 -50.634   2.875  1.00  0.00     0.059 C 
BRANCH   5   6
ATOM      6  C   UNL     1      34.467 -50.047   2.448  1.00  0.00     0.042 C 
ATOM      7  O   UNL     1      34.330 -48.799   2.364  1.00  0.00    -0.550 OA
ATOM      8  O   UNL     1      33.413 -50.881   2.095  1.00  0.00    -0.550 OA
ENDBRANCH   5   6
ENDBRANCH   1   5
TORSDOF 3
ENDMDL
MODEL 2
REMARK VINA RESULT:    -2.950      0.094      1.148
REMARK INTER + INTRA:          -3.525
REMARK INTER:                  -3.470
REMARK INTRA:                  -0.055
REMARK UNBOUND:                -0.058
REMARK SMILES O=C([O-])CCC(=O)[O-]
REMARK SMILES IDX 4 1 2 2 1 3 3 4 5 5 6 6 7 7 8 8
REMARK H PARENT
REMARK Flexibility Score: inf
ROOT
ATOM      1  C   UNL     1      35.472 -52.001   3.554  1.00  0.00     0.059 C 
ENDROOT
BRANCH   1   2
ATOM      2  C   UNL     1      36.281 -52.119   4.807  1.00  0.00     0.042 C 
ATOM      3  O   UNL     1      36.725 -53.240   5.171  1.00  0.00    -0.550 OA
ATOM      4  O   UNL     1      36.587 -50.983   5.546  1.00  0.00    -0.550 OA
ENDBRANCH   1   2
BRANCH   1   5
ATOM      5  C   UNL     1      35.744 -50.663   2.865  1.00  0.00     0.059 C 
BRANCH   5   6
ATOM      6  C   UNL     1      34.462 -50.038   2.412  1.00  0.00     0.042 C 
ATOM      7  O   UNL     1      33.503 -50.762   2.035  1.00  0.00    -0.550 OA
ATOM      8  O   UNL     1      34.308 -48.658   2.452  1.00  0.00    -0.550 OA
ENDBRANCH   5   6
ENDBRANCH   1   5
TORSDOF 3
ENDMDL
MODEL 3
REMARK VINA RESULT:    -2.936      0.191      4.081
REMARK INTER + INTRA:          -3.509
REMARK INTER:                  -3.452
REMARK INTRA:                  -0.056
REMARK UNBOUND:                -0.058
REMARK SMILES O=C([O-])CCC(=O)[O-]
REMARK SMILES IDX 4 1 2 2 1 3 3 4 5 5 6 6 7 7 8 8
REMARK H PARENT
REMARK Flexibility Score: inf
ROOT
ATOM      1  C   UNL     1      35.781 -50.476   2.901  1.00  0.00     0.059 C 
ENDROOT
BRANCH   1   2
ATOM      2  C   UNL     1      34.500 -49.894   2.394  1.00  0.00     0.042 C 
ATOM      3  O   UNL     1      33.590 -50.647   1.958  1.00  0.00    -0.550 OA
ATOM      4  O   UNL     1      34.289 -48.521   2.449  1.00  0.00    -0.550 OA
ENDBRANCH   1   2
BRANCH   1   5
ATOM      5  C   UNL     1      35.543 -51.871   3.479  1.00  0.00     0.059 C 
BRANCH   5   6
ATOM      6  C   UNL     1      36.261 -52.027   4.783  1.00  0.00     0.042 C 
ATOM      7  O   UNL     1      36.648 -53.164   5.162  1.00  0.00    -0.550 OA
ATOM      8  O   UNL     1      36.548 -50.909   5.557  1.00  0.00    -0.550 OA
ENDBRANCH   5   6
ENDBRANCH   1   5
TORSDOF 3
ENDMDL
MODEL 4
REMARK VINA RESULT:    -2.923      1.727      2.332
REMARK INTER + INTRA:          -3.494
REMARK INTER:                  -3.431
REMARK INTRA:                  -0.063
REMARK UNBOUND:                -0.058
REMARK SMILES O=C([O-])CCC(=O)[O-]
REMARK SMILES IDX 4 1 2 2 1 3 3 4 5 5 6 6 7 7 8 8
REMARK H PARENT
REMARK Flexibility Score: inf
ROOT
ATOM      1  C   UNL     1      35.505 -50.462   2.697  1.00  0.00     0.059 C 
ENDROOT
BRANCH   1   2
ATOM      2  C   UNL     1      35.953 -49.862   3.992  1.00  0.00     0.042 C 
ATOM      3  O   UNL     1      36.340 -50.604   4.934  1.00  0.00    -0.550 OA
ATOM      4  O   UNL     1      35.990 -48.482   4.143  1.00  0.00    -0.550 OA
ENDBRANCH   1   2
BRANCH   1   5
ATOM      5  C   UNL     1      34.345 -49.658   2.108  1.00  0.00     0.059 C 
BRANCH   5   6
ATOM      6  C   UNL     1      33.191 -50.558   1.794  1.00  0.00     0.042 C 
ATOM      7  O   UNL     1      33.015 -51.615   2.454  1.00  0.00    -0.550 OA
ATOM      8  O   UNL     1      32.282 -50.204   0.804  1.00  0.00    -0.550 OA
ENDBRANCH   5   6
ENDBRANCH   1   5
TORSDOF 3
ENDMDL
MODEL 5
REMARK VINA RESULT:    -2.915      0.167      4.120
REMARK INTER + INTRA:          -3.484
REMARK INTER:                  -3.431
REMARK INTRA:                  -0.054
REMARK UNBOUND:                -0.058
REMARK SMILES O=C([O-])CCC(=O)[O-]
REMARK SMILES IDX 4 1 2 2 1 3 3 4 5 5 6 6 7 7 8 8
REMARK H PARENT
REMARK Flexibility Score: inf
ROOT
ATOM      1  C   UNL     1      35.653 -50.557   2.908  1.00  0.00     0.059 C 
ENDROOT
BRANCH   1   2
ATOM      2  C   UNL     1      34.337 -50.087   2.373  1.00  0.00     0.042 C 
ATOM      3  O   UNL     1      34.160 -48.870   2.105  1.00  0.00    -0.550 OA
ATOM      4  O   UNL     1      33.321 -51.001   2.125  1.00  0.00    -0.550 OA
ENDBRANCH   1   2
BRANCH   1   5
ATOM      5  C   UNL     1      35.510 -51.946   3.533  1.00  0.00     0.059 C 
BRANCH   5   6
ATOM      6  C   UNL     1      36.350 -52.052   4.768  1.00  0.00     0.042 C 
ATOM      7  O   UNL     1      36.539 -51.041   5.494  1.00  0.00    -0.550 OA
ATOM      8  O   UNL     1      36.884 -53.278   5.143  1.00  0.00    -0.550 OA
ENDBRANCH   5   6
ENDBRANCH   1   5
TORSDOF 3
ENDMDL
MODEL 6
REMARK VINA RESULT:    -2.812      2.983      3.582
REMARK INTER + INTRA:          -3.363
REMARK INTER:                  -3.259
REMARK INTRA:                  -0.104
REMARK UNBOUND:                -0.058
REMARK SMILES O=C([O-])CCC(=O)[O-]
REMARK SMILES IDX 4 1 2 2 1 3 3 4 5 5 6 6 7 7 8 8
REMARK H PARENT
REMARK Flexibility Score: inf
ROOT
ATOM      1  C   UNL     1      35.511 -49.249   2.319  1.00  0.00     0.059 C 
ENDROOT
BRANCH   1   2
ATOM      2  C   UNL     1      35.265 -48.031   3.152  1.00  0.00     0.042 C 
ATOM      3  O   UNL     1      35.826 -47.906   4.273  1.00  0.00    -0.550 OA
ATOM      4  O   UNL     1      34.455 -47.011   2.670  1.00  0.00    -0.550 OA
ENDBRANCH   1   2
BRANCH   1   5
ATOM      5  C   UNL     1      34.272 -50.147   2.307  1.00  0.00     0.059 C 
BRANCH   5   6
ATOM      6  C   UNL     1      33.475 -49.921   1.061  1.00  0.00     0.042 C 
ATOM      7  O   UNL     1      34.015 -49.401   0.049  1.00  0.00    -0.550 OA
ATOM      8  O   UNL     1      32.148 -50.329   1.000  1.00  0.00    -0.550 OA
ENDBRANCH   5   6
ENDBRANCH   1   5
TORSDOF 3
ENDMDL
MODEL 7
REMARK VINA RESULT:    -2.811      1.813      2.147
REMARK INTER + INTRA:          -3.362
REMARK INTER:                  -3.272
REMARK INTRA:                  -0.089
REMARK UNBOUND:                -0.058
REMARK SMILES O=C([O-])CCC(=O)[O-]
REMARK SMILES IDX 4 1 2 2 1 3 3 4 5 5 6 6 7 7 8 8
REMARK H PARENT
REMARK Flexibility Score: inf
ROOT
ATOM      1  C   UNL     1      36.649 -50.471   5.532  1.00  0.00     0.059 C 
ENDROOT
BRANCH   1   2
ATOM      2  C   UNL     1      36.848 -51.842   4.965  1.00  0.00     0.042 C 
ATOM      3  O   UNL     1      35.997 -52.745   5.178  1.00  0.00    -0.550 OA
ATOM      4  O   UNL     1      37.949 -52.109   4.161  1.00  0.00    -0.550 OA
ENDBRANCH   1   2
BRANCH   1   5
ATOM      5  C   UNL     1      37.068 -49.407   4.516  1.00  0.00     0.059 C 
BRANCH   5   6
ATOM      6  C   UNL     1      35.862 -48.781   3.888  1.00  0.00     0.042 C 
ATOM      7  O   UNL     1      35.616 -47.560   4.069  1.00  0.00    -0.550 OA
ATOM      8  O   UNL     1      35.036 -49.535   3.063  1.00  0.00    -0.550 OA
ENDBRANCH   5   6
ENDBRANCH   1   5
TORSDOF 3
ENDMDL
MODEL 8
REMARK VINA RESULT:    -2.778      2.826      4.857
REMARK INTER + INTRA:          -3.323
REMARK INTER:                  -3.208
REMARK INTRA:                  -0.116
REMARK UNBOUND:                -0.058
REMARK SMILES O=C([O-])CCC(=O)[O-]
REMARK SMILES IDX 4 1 2 2 1 3 3 4 5 5 6 6 7 7 8 8
REMARK H PARENT
REMARK Flexibility Score: inf
ROOT
ATOM      1  C   UNL     1      34.179 -48.811   0.723  1.00  0.00     0.059 C 
ENDROOT
BRANCH   1   2
ATOM      2  C   UNL     1      33.858 -47.506   1.383  1.00  0.00     0.042 C 
ATOM      3  O   UNL     1      34.313 -47.246   2.528  1.00  0.00    -0.550 OA
ATOM      4  O   UNL     1      33.098 -46.556   0.712  1.00  0.00    -0.550 OA
ENDBRANCH   1   2
BRANCH   1   5
ATOM      5  C   UNL     1      33.086 -49.840   1.015  1.00  0.00     0.059 C 
BRANCH   5   6
ATOM      6  C   UNL     1      33.531 -50.784   2.088  1.00  0.00     0.042 C 
ATOM      7  O   UNL     1      32.792 -51.744   2.433  1.00  0.00    -0.550 OA
ATOM      8  O   UNL     1      34.783 -50.634   2.672  1.00  0.00    -0.550 OA
ENDBRANCH   5   6
ENDBRANCH   1   5
TORSDOF 3
ENDMDL
MODEL 9
REMARK VINA RESULT:    -2.767      2.141      4.227
REMARK INTER + INTRA:          -3.311
REMARK INTER:                  -3.265
REMARK INTRA:                  -0.046
REMARK UNBOUND:                -0.058
REMARK SMILES O=C([O-])CCC(=O)[O-]
REMARK SMILES IDX 4 1 2 2 1 3 3 4 5 5 6 6 7 7 8 8
REMARK H PARENT
REMARK Flexibility Score: inf
ROOT
ATOM      1  C   UNL     1      34.367 -50.343   2.486  1.00  0.00     0.059 C 
ENDROOT
BRANCH   1   2
ATOM      2  C   UNL     1      33.661 -50.011   1.210  1.00  0.00     0.042 C 
ATOM      3  O   UNL     1      34.289 -49.474   0.259  1.00  0.00    -0.550 OA
ATOM      4  O   UNL     1      32.320 -50.340   1.051  1.00  0.00    -0.550 OA
ENDBRANCH   1   2
BRANCH   1   5
ATOM      5  C   UNL     1      35.732 -49.654   2.537  1.00  0.00     0.059 C 
BRANCH   5   6
ATOM      6  C   UNL     1      35.979 -49.084   3.899  1.00  0.00     0.042 C 
ATOM      7  O   UNL     1      35.817 -47.853   4.109  1.00  0.00    -0.550 OA
ATOM      8  O   UNL     1      36.341 -49.921   4.948  1.00  0.00    -0.550 OA
ENDBRANCH   5   6
ENDBRANCH   1   5
TORSDOF 3
ENDMDL
