MODEL 1
REMARK VINA RESULT:    -5.089      0.000      0.000
REMARK INTER + INTRA:         -12.026
REMARK INTER:                  -9.850
REMARK INTRA:                  -2.176
REMARK UNBOUND:                -2.176
REMARK SMILES CCCCCCCCCCCCCCCCCC(=O)[O-]
REMARK SMILES IDX 10 1 11 2 12 3 13 4 14 5 15 6 16 7 17 8 18 9 19 10 20 11
REMARK SMILES IDX 9 12 8 13 7 14 6 15 5 16 4 17 3 18 2 19 1 20
REMARK H PARENT
REMARK Flexibility Score: inf
ROOT
ATOM      1  C   UNL     1      43.112  50.473  10.008  1.00  0.00     0.000 C 
ENDROOT
BRANCH   1   2
ATOM      2  C   UNL     1      43.362  49.064   9.449  1.00  0.00     0.000 C 
BRANCH   2   3
ATOM      3  C   UNL     1      42.255  48.066   9.832  1.00  0.00     0.000 C 
BRANCH   3   4
ATOM      4  C   UNL     1      42.605  47.268  11.107  1.00  0.00     0.000 C 
BRANCH   4   5
ATOM      5  C   UNL     1      41.872  47.763  12.369  1.00  0.00     0.000 C 
BRANCH   5   6
ATOM      6  C   UNL     1      42.760  48.498  13.387  1.00  0.00     0.000 C 
BRANCH   6   7
ATOM      7  C   UNL     1      42.225  49.897  13.742  1.00  0.00     0.006 C 
BRANCH   7   8
ATOM      8  C   UNL     1      40.909  50.212  13.018  1.00  0.00     0.053 C 
BRANCH   8   9
ATOM      9  C   UNL     1      39.957  50.965  13.895  1.00  0.00     0.041 C 
ATOM     10  O   UNL     1      38.799  51.243  13.484  1.00  0.00    -0.550 OA
ATOM     11  O   UNL     1      40.338  51.333  15.179  1.00  0.00    -0.550 OA
ENDBRANCH   8   9
ENDBRANCH   7   8
ENDBRANCH   6   7
ENDBRANCH   5   6
ENDBRANCH   4   5
ENDBRANCH   3   4
ENDBRANCH   2   3
ENDBRANCH   1   2
BRANCH   1  12
ATOM     12  C   UNL     1      44.357  51.068  10.690  1.00  0.00     0.000 C 
BRANCH  12  13
ATOM     13  C   UNL     1      45.220  49.998  11.375  1.00  0.00    -0.000 C 
BRANCH  13  14
ATOM     14  C   UNL     1      46.728  50.240  11.187  1.00  0.00    -0.000 C 
BRANCH  14  15
ATOM     15  C   UNL     1      47.490  48.963  10.796  1.00  0.00    -0.000 C 
BRANCH  15  16
ATOM     16  C   UNL     1      46.673  48.053   9.862  1.00  0.00    -0.000 C 
BRANCH  16  17
ATOM     17  C   UNL     1      46.749  46.571  10.269  1.00  0.00    -0.000 C 
BRANCH  17  18
ATOM     18  C   UNL     1      46.311  45.627   9.136  1.00  0.00    -0.000 C 
BRANCH  18  19
ATOM     19  C   UNL     1      47.502  45.041   8.364  1.00  0.00    -0.003 C 
ATOM     20  C   UNL     1      47.179  43.704   7.698  1.00  0.00     0.004 C 
ENDBRANCH  18  19
ENDBRANCH  17  18
ENDBRANCH  16  17
ENDBRANCH  15  16
ENDBRANCH  14  15
ENDBRANCH  13  14
ENDBRANCH  12  13
ENDBRANCH   1  12
TORSDOF 16
ENDMDL
MODEL 2
REMARK VINA RESULT:    -4.914      3.439      7.150
REMARK INTER + INTRA:         -11.686
REMARK INTER:                  -9.258
REMARK INTRA:                  -2.428
REMARK UNBOUND:                -2.176
REMARK SMILES CCCCCCCCCCCCCCCCCC(=O)[O-]
REMARK SMILES IDX 10 1 11 2 12 3 13 4 14 5 15 6 16 7 17 8 18 9 19 10 20 11
REMARK SMILES IDX 9 12 8 13 7 14 6 15 5 16 4 17 3 18 2 19 1 20
REMARK H PARENT
REMARK Flexibility Score: inf
ROOT
ATOM      1  C   UNL     1      42.975  49.927   9.376  1.00  0.00     0.000 C 
ENDROOT
BRANCH   1   2
ATOM      2  C   UNL     1      43.668  50.922  10.321  1.00  0.00     0.000 C 
BRANCH   2   3
ATOM      3  C   UNL     1      44.663  50.240  11.278  1.00  0.00     0.000 C 
BRANCH   3   4
ATOM      4  C   UNL     1      45.984  51.031  11.406  1.00  0.00     0.000 C 
BRANCH   4   5
ATOM      5  C   UNL     1      47.233  50.219  11.014  1.00  0.00     0.000 C 
BRANCH   5   6
ATOM      6  C   UNL     1      47.023  49.225   9.859  1.00  0.00     0.000 C 
BRANCH   6   7
ATOM      7  C   UNL     1      47.255  47.764  10.282  1.00  0.00     0.006 C 
BRANCH   7   8
ATOM      8  C   UNL     1      46.941  46.778   9.149  1.00  0.00     0.053 C 
BRANCH   8   9
ATOM      9  C   UNL     1      46.724  45.389   9.665  1.00  0.00     0.041 C 
ATOM     10  O   UNL     1      46.568  44.430   8.862  1.00  0.00    -0.550 OA
ATOM     11  O   UNL     1      46.725  45.146  11.032  1.00  0.00    -0.550 OA
ENDBRANCH   8   9
ENDBRANCH   7   8
ENDBRANCH   6   7
ENDBRANCH   5   6
ENDBRANCH   4   5
ENDBRANCH   3   4
ENDBRANCH   2   3
ENDBRANCH   1   2
BRANCH   1  12
ATOM     12  C   UNL     1      43.713  48.579   9.292  1.00  0.00     0.000 C 
BRANCH  12  13
ATOM     13  C   UNL     1      42.873  47.415   9.841  1.00  0.00    -0.000 C 
BRANCH  13  14
ATOM     14  C   UNL     1      43.536  46.717  11.042  1.00  0.00    -0.000 C 
BRANCH  14  15
ATOM     15  C   UNL     1      42.805  46.994  12.366  1.00  0.00    -0.000 C 
BRANCH  15  16
ATOM     16  C   UNL     1      41.569  47.890  12.179  1.00  0.00    -0.000 C 
BRANCH  16  17
ATOM     17  C   UNL     1      41.654  49.189  12.999  1.00  0.00    -0.000 C 
BRANCH  17  18
ATOM     18  C   UNL     1      40.666  50.261  12.507  1.00  0.00    -0.000 C 
BRANCH  18  19
ATOM     19  C   UNL     1      39.659  50.676  13.590  1.00  0.00    -0.003 C 
ATOM     20  C   UNL     1      40.314  51.409  14.760  1.00  0.00     0.004 C 
ENDBRANCH  18  19
ENDBRANCH  17  18
ENDBRANCH  16  17
ENDBRANCH  15  16
ENDBRANCH  14  15
ENDBRANCH  13  14
ENDBRANCH  12  13
ENDBRANCH   1  12
TORSDOF 16
ENDMDL
MODEL 3
REMARK VINA RESULT:    -4.887      1.533      3.798
REMARK INTER + INTRA:         -11.635
REMARK INTER:                  -9.126
REMARK INTRA:                  -2.509
REMARK UNBOUND:                -2.176
REMARK SMILES CCCCCCCCCCCCCCCCCC(=O)[O-]
REMARK SMILES IDX 10 1 11 2 12 3 13 4 14 5 15 6 16 7 17 8 18 9 19 10 20 11
REMARK SMILES IDX 9 12 8 13 7 14 6 15 5 16 4 17 3 18 2 19 1 20
REMARK H PARENT
REMARK Flexibility Score: inf
ROOT
ATOM      1  C   UNL     1      45.445  47.646   9.111  1.00  0.00     0.000 C 
ENDROOT
BRANCH   1   2
ATOM      2  C   UNL     1      45.042  46.222   9.524  1.00  0.00     0.000 C 
BRANCH   2   3
ATOM      3  C   UNL     1      44.277  46.182  10.859  1.00  0.00     0.000 C 
BRANCH   3   4
ATOM      4  C   UNL     1      43.708  47.565  11.246  1.00  0.00     0.000 C 
BRANCH   4   5
ATOM      5  C   UNL     1      42.557  47.498  12.268  1.00  0.00     0.000 C 
BRANCH   5   6
ATOM      6  C   UNL     1      42.792  48.297  13.561  1.00  0.00     0.000 C 
BRANCH   6   7
ATOM      7  C   UNL     1      42.664  49.817  13.351  1.00  0.00     0.006 C 
BRANCH   7   8
ATOM      8  C   UNL     1      42.096  50.525  14.589  1.00  0.00     0.053 C 
BRANCH   8   9
ATOM      9  C   UNL     1      40.649  50.870  14.417  1.00  0.00     0.041 C 
ATOM     10  O   UNL     1      40.092  50.729  13.296  1.00  0.00    -0.550 OA
ATOM     11  O   UNL     1      39.908  51.318  15.503  1.00  0.00    -0.550 OA
ENDBRANCH   8   9
ENDBRANCH   7   8
ENDBRANCH   6   7
ENDBRANCH   5   6
ENDBRANCH   4   5
ENDBRANCH   3   4
ENDBRANCH   2   3
ENDBRANCH   1   2
BRANCH   1  12
ATOM     12  C   UNL     1      46.964  47.880   9.201  1.00  0.00     0.000 C 
BRANCH  12  13
ATOM     13  C   UNL     1      47.400  48.384  10.586  1.00  0.00    -0.000 C 
BRANCH  13  14
ATOM     14  C   UNL     1      47.358  49.918  10.701  1.00  0.00    -0.000 C 
BRANCH  14  15
ATOM     15  C   UNL     1      46.285  50.410  11.686  1.00  0.00    -0.000 C 
BRANCH  15  16
ATOM     16  C   UNL     1      45.245  51.324  11.015  1.00  0.00    -0.000 C 
BRANCH  16  17
ATOM     17  C   UNL     1      45.354  51.312   9.480  1.00  0.00    -0.000 C 
BRANCH  17  18
ATOM     18  C   UNL     1      43.998  51.549   8.793  1.00  0.00    -0.000 C 
BRANCH  18  19
ATOM     19  C   UNL     1      43.006  50.401   9.034  1.00  0.00    -0.003 C 
ATOM     20  C   UNL     1      41.832  50.808   9.925  1.00  0.00     0.004 C 
ENDBRANCH  18  19
ENDBRANCH  17  18
ENDBRANCH  16  17
ENDBRANCH  15  16
ENDBRANCH  14  15
ENDBRANCH  13  14
ENDBRANCH  12  13
ENDBRANCH   1  12
TORSDOF 16
ENDMDL
MODEL 4
REMARK VINA RESULT:    -4.881      2.264      5.221
REMARK INTER + INTRA:         -11.623
REMARK INTER:                  -9.319
REMARK INTRA:                  -2.304
REMARK UNBOUND:                -2.176
REMARK SMILES CCCCCCCCCCCCCCCCCC(=O)[O-]
REMARK SMILES IDX 10 1 11 2 12 3 13 4 14 5 15 6 16 7 17 8 18 9 19 10 20 11
REMARK SMILES IDX 9 12 8 13 7 14 6 15 5 16 4 17 3 18 2 19 1 20
REMARK H PARENT
REMARK Flexibility Score: inf
ROOT
ATOM      1  C   UNL     1      46.252  47.501  10.598  1.00  0.00     0.000 C 
ENDROOT
BRANCH   1   2
ATOM      2  C   UNL     1      47.512  48.375  10.503  1.00  0.00     0.000 C 
BRANCH   2   3
ATOM      3  C   UNL     1      47.216  49.793   9.984  1.00  0.00     0.000 C 
BRANCH   3   4
ATOM      4  C   UNL     1      47.124  50.825  11.130  1.00  0.00     0.000 C 
BRANCH   4   5
ATOM      5  C   UNL     1      45.702  50.997  11.697  1.00  0.00     0.000 C 
BRANCH   5   6
ATOM      6  C   UNL     1      44.586  51.051  10.640  1.00  0.00     0.000 C 
BRANCH   6   7
ATOM      7  C   UNL     1      43.366  50.191  11.019  1.00  0.00     0.006 C 
BRANCH   7   8
ATOM      8  C   UNL     1      43.495  49.597  12.428  1.00  0.00     0.053 C 
BRANCH   8   9
ATOM      9  C   UNL     1      42.280  49.868  13.259  1.00  0.00     0.041 C 
ATOM     10  O   UNL     1      42.390  50.435  14.379  1.00  0.00    -0.550 OA
ATOM     11  O   UNL     1      41.021  49.525  12.783  1.00  0.00    -0.550 OA
ENDBRANCH   8   9
ENDBRANCH   7   8
ENDBRANCH   6   7
ENDBRANCH   5   6
ENDBRANCH   4   5
ENDBRANCH   3   4
ENDBRANCH   2   3
ENDBRANCH   1   2
BRANCH   1  12
ATOM     12  C   UNL     1      45.450  47.474   9.285  1.00  0.00     0.000 C 
BRANCH  12  13
ATOM     13  C   UNL     1      44.071  46.814   9.452  1.00  0.00    -0.000 C 
BRANCH  13  14
ATOM     14  C   UNL     1      43.949  46.017  10.763  1.00  0.00    -0.000 C 
BRANCH  14  15
ATOM     15  C   UNL     1      42.631  46.295  11.505  1.00  0.00    -0.000 C 
BRANCH  15  16
ATOM     16  C   UNL     1      41.570  46.941  10.598  1.00  0.00    -0.000 C 
BRANCH  16  17
ATOM     17  C   UNL     1      40.209  46.230  10.685  1.00  0.00    -0.000 C 
BRANCH  17  18
ATOM     18  C   UNL     1      39.914  45.370   9.443  1.00  0.00    -0.000 C 
BRANCH  18  19
ATOM     19  C   UNL     1      38.607  45.773   8.744  1.00  0.00    -0.003 C 
ATOM     20  C   UNL     1      38.609  45.452   7.250  1.00  0.00     0.004 C 
ENDBRANCH  18  19
ENDBRANCH  17  18
ENDBRANCH  16  17
ENDBRANCH  15  16
ENDBRANCH  14  15
ENDBRANCH  13  14
ENDBRANCH  12  13
ENDBRANCH   1  12
TORSDOF 16
ENDMDL
MODEL 5
REMARK VINA RESULT:    -4.855      1.529      2.625
REMARK INTER + INTRA:         -11.572
REMARK INTER:                  -9.067
REMARK INTRA:                  -2.505
REMARK UNBOUND:                -2.176
REMARK SMILES CCCCCCCCCCCCCCCCCC(=O)[O-]
REMARK SMILES IDX 10 1 11 2 12 3 13 4 14 5 15 6 16 7 17 8 18 9 19 10 20 11
REMARK SMILES IDX 9 12 8 13 7 14 6 15 5 16 4 17 3 18 2 19 1 20
REMARK H PARENT
REMARK Flexibility Score: inf
ROOT
ATOM      1  C   UNL     1      42.060  48.117   7.967  1.00  0.00     0.000 C 
ENDROOT
BRANCH   1   2
ATOM      2  C   UNL     1      42.134  46.881   8.878  1.00  0.00     0.000 C 
BRANCH   2   3
ATOM      3  C   UNL     1      41.476  47.112  10.250  1.00  0.00     0.000 C 
BRANCH   3   4
ATOM      4  C   UNL     1      42.394  46.685  11.417  1.00  0.00     0.000 C 
BRANCH   4   5
ATOM      5  C   UNL     1      43.253  47.832  11.982  1.00  0.00     0.000 C 
BRANCH   5   6
ATOM      6  C   UNL     1      42.739  48.438  13.299  1.00  0.00     0.000 C 
BRANCH   6   7
ATOM      7  C   UNL     1      42.128  49.838  13.110  1.00  0.00     0.006 C 
BRANCH   7   8
ATOM      8  C   UNL     1      41.977  50.586  14.442  1.00  0.00     0.053 C 
BRANCH   8   9
ATOM      9  C   UNL     1      40.576  51.074  14.650  1.00  0.00     0.041 C 
ATOM     10  O   UNL     1      39.791  51.186  13.671  1.00  0.00    -0.550 OA
ATOM     11  O   UNL     1      40.128  51.376  15.929  1.00  0.00    -0.550 OA
ENDBRANCH   8   9
ENDBRANCH   7   8
ENDBRANCH   6   7
ENDBRANCH   5   6
ENDBRANCH   4   5
ENDBRANCH   3   4
ENDBRANCH   2   3
ENDBRANCH   1   2
BRANCH   1  12
ATOM     12  C   UNL     1      42.035  49.435   8.760  1.00  0.00     0.000 C 
BRANCH  12  13
ATOM     13  C   UNL     1      43.407  50.126   8.796  1.00  0.00    -0.000 C 
BRANCH  13  14
ATOM     14  C   UNL     1      43.614  50.973  10.065  1.00  0.00    -0.000 C 
BRANCH  14  15
ATOM     15  C   UNL     1      45.036  50.848  10.636  1.00  0.00    -0.000 C 
BRANCH  15  16
ATOM     16  C   UNL     1      46.120  51.163   9.592  1.00  0.00    -0.000 C 
BRANCH  16  17
ATOM     17  C   UNL     1      47.184  50.056   9.495  1.00  0.00    -0.000 C 
BRANCH  17  18
ATOM     18  C   UNL     1      47.159  49.109  10.707  1.00  0.00    -0.000 C 
BRANCH  18  19
ATOM     19  C   UNL     1      47.012  47.635  10.300  1.00  0.00    -0.003 C 
ATOM     20  C   UNL     1      45.873  47.405   9.306  1.00  0.00     0.004 C 
ENDBRANCH  18  19
ENDBRANCH  17  18
ENDBRANCH  16  17
ENDBRANCH  15  16
ENDBRANCH  14  15
ENDBRANCH  13  14
ENDBRANCH  12  13
ENDBRANCH   1  12
TORSDOF 16
ENDMDL
MODEL 6
REMARK VINA RESULT:    -4.840      3.041      5.630
REMARK INTER + INTRA:         -11.543
REMARK INTER:                  -9.418
REMARK INTRA:                  -2.125
REMARK UNBOUND:                -2.176
REMARK SMILES CCCCCCCCCCCCCCCCCC(=O)[O-]
REMARK SMILES IDX 10 1 11 2 12 3 13 4 14 5 15 6 16 7 17 8 18 9 19 10 20 11
REMARK SMILES IDX 9 12 8 13 7 14 6 15 5 16 4 17 3 18 2 19 1 20
REMARK H PARENT
REMARK Flexibility Score: inf
ROOT
ATOM      1  C   UNL     1      46.334  46.879   9.194  1.00  0.00     0.000 C 
ENDROOT
BRANCH   1   2
ATOM      2  C   UNL     1      46.092  46.267  10.582  1.00  0.00     0.000 C 
BRANCH   2   3
ATOM      3  C   UNL     1      44.765  45.491  10.668  1.00  0.00     0.000 C 
BRANCH   3   4
ATOM      4  C   UNL     1      43.813  46.080  11.733  1.00  0.00     0.000 C 
BRANCH   4   5
ATOM      5  C   UNL     1      42.514  46.664  11.147  1.00  0.00     0.000 C 
BRANCH   5   6
ATOM      6  C   UNL     1      42.594  47.061   9.663  1.00  0.00     0.000 C 
BRANCH   6   7
ATOM      7  C   UNL     1      41.241  46.933   8.940  1.00  0.00     0.006 C 
BRANCH   7   8
ATOM      8  C   UNL     1      40.252  46.053   9.717  1.00  0.00     0.053 C 
BRANCH   8   9
ATOM      9  C   UNL     1      39.399  45.232   8.801  1.00  0.00     0.041 C 
ATOM     10  O   UNL     1      38.276  45.662   8.424  1.00  0.00    -0.550 OA
ATOM     11  O   UNL     1      39.857  44.006   8.337  1.00  0.00    -0.550 OA
ENDBRANCH   8   9
ENDBRANCH   7   8
ENDBRANCH   6   7
ENDBRANCH   5   6
ENDBRANCH   4   5
ENDBRANCH   3   4
ENDBRANCH   2   3
ENDBRANCH   1   2
BRANCH   1  12
ATOM     12  C   UNL     1      46.668  48.380   9.260  1.00  0.00     0.000 C 
BRANCH  12  13
ATOM     13  C   UNL     1      47.277  48.788  10.611  1.00  0.00    -0.000 C 
BRANCH  13  14
ATOM     14  C   UNL     1      47.427  50.313  10.759  1.00  0.00    -0.000 C 
BRANCH  14  15
ATOM     15  C   UNL     1      46.296  50.942  11.587  1.00  0.00    -0.000 C 
BRANCH  15  16
ATOM     16  C   UNL     1      45.098  51.369  10.721  1.00  0.00    -0.000 C 
BRANCH  16  17
ATOM     17  C   UNL     1      43.894  50.424  10.875  1.00  0.00    -0.000 C 
BRANCH  17  18
ATOM     18  C   UNL     1      43.786  49.835  12.292  1.00  0.00    -0.000 C 
BRANCH  18  19
ATOM     19  C   UNL     1      42.347  49.855  12.830  1.00  0.00    -0.003 C 
ATOM     20  C   UNL     1      42.273  50.226  14.312  1.00  0.00     0.004 C 
ENDBRANCH  18  19
ENDBRANCH  17  18
ENDBRANCH  16  17
ENDBRANCH  15  16
ENDBRANCH  14  15
ENDBRANCH  13  14
ENDBRANCH  12  13
ENDBRANCH   1  12
TORSDOF 16
ENDMDL
MODEL 7
REMARK VINA RESULT:    -4.834      3.898      6.810
REMARK INTER + INTRA:         -11.532
REMARK INTER:                  -9.447
REMARK INTRA:                  -2.085
REMARK UNBOUND:                -2.176
REMARK SMILES CCCCCCCCCCCCCCCCCC(=O)[O-]
REMARK SMILES IDX 10 1 11 2 12 3 13 4 14 5 15 6 16 7 17 8 18 9 19 10 20 11
REMARK SMILES IDX 9 12 8 13 7 14 6 15 5 16 4 17 3 18 2 19 1 20
REMARK H PARENT
REMARK Flexibility Score: inf
ROOT
ATOM      1  C   UNL     1      43.467  48.390  11.730  1.00  0.00     0.000 C 
ENDROOT
BRANCH   1   2
ATOM      2  C   UNL     1      43.645  49.886  12.034  1.00  0.00     0.000 C 
BRANCH   2   3
ATOM      3  C   UNL     1      44.645  50.572  11.087  1.00  0.00     0.000 C 
BRANCH   3   4
ATOM      4  C   UNL     1      46.066  50.639  11.690  1.00  0.00     0.000 C 
BRANCH   4   5
ATOM      5  C   UNL     1      47.102  49.791  10.927  1.00  0.00     0.000 C 
BRANCH   5   6
ATOM      6  C   UNL     1      46.761  49.525   9.451  1.00  0.00     0.000 C 
BRANCH   6   7
ATOM      7  C   UNL     1      46.636  48.024   9.131  1.00  0.00     0.006 C 
BRANCH   7   8
ATOM      8  C   UNL     1      46.578  47.166  10.402  1.00  0.00     0.053 C 
BRANCH   8   9
ATOM      9  C   UNL     1      45.977  45.821  10.138  1.00  0.00     0.041 C 
ATOM     10  O   UNL     1      46.289  45.179   9.100  1.00  0.00    -0.550 OA
ATOM     11  O   UNL     1      45.096  45.261  11.054  1.00  0.00    -0.550 OA
ENDBRANCH   8   9
ENDBRANCH   7   8
ENDBRANCH   6   7
ENDBRANCH   5   6
ENDBRANCH   4   5
ENDBRANCH   3   4
ENDBRANCH   2   3
ENDBRANCH   1   2
BRANCH   1  12
ATOM     12  C   UNL     1      42.883  48.136  10.329  1.00  0.00     0.000 C 
BRANCH  12  13
ATOM     13  C   UNL     1      41.996  46.882  10.280  1.00  0.00    -0.000 C 
BRANCH  13  14
ATOM     14  C   UNL     1      40.962  46.841  11.419  1.00  0.00    -0.000 C 
BRANCH  14  15
ATOM     15  C   UNL     1      39.675  46.097  11.024  1.00  0.00    -0.000 C 
BRANCH  15  16
ATOM     16  C   UNL     1      39.800  45.385   9.666  1.00  0.00    -0.000 C 
BRANCH  16  17
ATOM     17  C   UNL     1      38.464  45.333   8.904  1.00  0.00    -0.000 C 
BRANCH  17  18
ATOM     18  C   UNL     1      38.583  45.884   7.472  1.00  0.00    -0.000 C 
BRANCH  18  19
ATOM     19  C   UNL     1      39.750  46.870   7.316  1.00  0.00    -0.003 C 
ATOM     20  C   UNL     1      40.722  46.468   6.206  1.00  0.00     0.004 C 
ENDBRANCH  18  19
ENDBRANCH  17  18
ENDBRANCH  16  17
ENDBRANCH  15  16
ENDBRANCH  14  15
ENDBRANCH  13  14
ENDBRANCH  12  13
ENDBRANCH   1  12
TORSDOF 16
ENDMDL
MODEL 8
REMARK VINA RESULT:    -4.824      2.521      5.982
REMARK INTER + INTRA:         -11.512
REMARK INTER:                  -8.713
REMARK INTRA:                  -2.799
REMARK UNBOUND:                -2.176
REMARK SMILES CCCCCCCCCCCCCCCCCC(=O)[O-]
REMARK SMILES IDX 10 1 11 2 12 3 13 4 14 5 15 6 16 7 17 8 18 9 19 10 20 11
REMARK SMILES IDX 9 12 8 13 7 14 6 15 5 16 4 17 3 18 2 19 1 20
REMARK H PARENT
REMARK Flexibility Score: inf
ROOT
ATOM      1  C   UNL     1      46.833  46.597   9.105  1.00  0.00     0.000 C 
ENDROOT
BRANCH   1   2
ATOM      2  C   UNL     1      46.737  48.117   9.308  1.00  0.00     0.000 C 
BRANCH   2   3
ATOM      3  C   UNL     1      47.374  48.584  10.629  1.00  0.00     0.000 C 
BRANCH   3   4
ATOM      4  C   UNL     1      46.833  49.957  11.084  1.00  0.00     0.000 C 
BRANCH   4   5
ATOM      5  C   UNL     1      45.322  49.960  11.383  1.00  0.00     0.000 C 
BRANCH   5   6
ATOM      6  C   UNL     1      44.526  51.076  10.685  1.00  0.00     0.000 C 
BRANCH   6   7
ATOM      7  C   UNL     1      43.883  50.612   9.366  1.00  0.00     0.006 C 
BRANCH   7   8
ATOM      8  C   UNL     1      42.423  51.068   9.243  1.00  0.00     0.053 C 
BRANCH   8   9
ATOM      9  C   UNL     1      41.710  50.361   8.132  1.00  0.00     0.041 C 
ATOM     10  O   UNL     1      41.982  49.159   7.868  1.00  0.00    -0.550 OA
ATOM     11  O   UNL     1      40.723  51.018   7.410  1.00  0.00    -0.550 OA
ENDBRANCH   8   9
ENDBRANCH   7   8
ENDBRANCH   6   7
ENDBRANCH   5   6
ENDBRANCH   4   5
ENDBRANCH   3   4
ENDBRANCH   2   3
ENDBRANCH   1   2
BRANCH   1  12
ATOM     12  C   UNL     1      45.470  45.896   9.235  1.00  0.00     0.000 C 
BRANCH  12  13
ATOM     13  C   UNL     1      45.204  45.386  10.661  1.00  0.00    -0.000 C 
BRANCH  13  14
ATOM     14  C   UNL     1      44.129  46.206  11.395  1.00  0.00    -0.000 C 
BRANCH  14  15
ATOM     15  C   UNL     1      43.241  47.014  10.434  1.00  0.00    -0.000 C 
BRANCH  15  16
ATOM     16  C   UNL     1      42.166  47.830  11.172  1.00  0.00    -0.000 C 
BRANCH  16  17
ATOM     17  C   UNL     1      42.467  47.979  12.674  1.00  0.00    -0.000 C 
BRANCH  17  18
ATOM     18  C   UNL     1      42.159  49.393  13.198  1.00  0.00    -0.000 C 
BRANCH  18  19
ATOM     19  C   UNL     1      41.056  50.093  12.390  1.00  0.00    -0.003 C 
ATOM     20  C   UNL     1      39.738  50.202  13.155  1.00  0.00     0.004 C 
ENDBRANCH  18  19
ENDBRANCH  17  18
ENDBRANCH  16  17
ENDBRANCH  15  16
ENDBRANCH  14  15
ENDBRANCH  13  14
ENDBRANCH  12  13
ENDBRANCH   1  12
TORSDOF 16
ENDMDL
MODEL 9
REMARK VINA RESULT:    -4.816      2.423      5.841
REMARK INTER + INTRA:         -11.496
REMARK INTER:                  -9.153
REMARK INTRA:                  -2.343
REMARK UNBOUND:                -2.176
REMARK SMILES CCCCCCCCCCCCCCCCCC(=O)[O-]
REMARK SMILES IDX 10 1 11 2 12 3 13 4 14 5 15 6 16 7 17 8 18 9 19 10 20 11
REMARK SMILES IDX 9 12 8 13 7 14 6 15 5 16 4 17 3 18 2 19 1 20
REMARK H PARENT
REMARK Flexibility Score: inf
ROOT
ATOM      1  C   UNL     1      47.184  49.303  10.985  1.00  0.00     0.000 C 
ENDROOT
BRANCH   1   2
ATOM      2  C   UNL     1      47.348  48.726   9.570  1.00  0.00     0.000 C 
BRANCH   2   3
ATOM      3  C   UNL     1      46.316  47.628   9.251  1.00  0.00     0.000 C 
BRANCH   3   4
ATOM      4  C   UNL     1      45.380  47.343  10.447  1.00  0.00     0.000 C 
BRANCH   4   5
ATOM      5  C   UNL     1      44.304  46.281  10.150  1.00  0.00     0.000 C 
BRANCH   5   6
ATOM      6  C   UNL     1      43.349  46.632   8.996  1.00  0.00     0.000 C 
BRANCH   6   7
ATOM      7  C   UNL     1      41.887  46.258   9.299  1.00  0.00     0.006 C 
BRANCH   7   8
ATOM      8  C   UNL     1      41.257  47.193  10.340  1.00  0.00     0.053 C 
BRANCH   8   9
ATOM      9  C   UNL     1      40.920  46.469  11.607  1.00  0.00     0.041 C 
ATOM     10  O   UNL     1      39.815  45.876  11.724  1.00  0.00    -0.550 OA
ATOM     11  O   UNL     1      41.840  46.423  12.647  1.00  0.00    -0.550 OA
ENDBRANCH   8   9
ENDBRANCH   7   8
ENDBRANCH   6   7
ENDBRANCH   5   6
ENDBRANCH   4   5
ENDBRANCH   3   4
ENDBRANCH   2   3
ENDBRANCH   1   2
BRANCH   1  12
ATOM     12  C   UNL     1      46.774  50.786  10.975  1.00  0.00     0.000 C 
BRANCH  12  13
ATOM     13  C   UNL     1      45.382  51.015  11.584  1.00  0.00    -0.000 C 
BRANCH  13  14
ATOM     14  C   UNL     1      44.254  50.923  10.541  1.00  0.00    -0.000 C 
BRANCH  14  15
ATOM     15  C   UNL     1      42.995  50.231  11.089  1.00  0.00    -0.000 C 
BRANCH  15  16
ATOM     16  C   UNL     1      43.236  49.565  12.454  1.00  0.00    -0.000 C 
BRANCH  16  17
ATOM     17  C   UNL     1      42.169  49.950  13.494  1.00  0.00    -0.000 C 
BRANCH  17  18
ATOM     18  C   UNL     1      40.760  50.046  12.883  1.00  0.00    -0.000 C 
BRANCH  18  19
ATOM     19  C   UNL     1      39.826  50.952  13.697  1.00  0.00    -0.003 C 
ATOM     20  C   UNL     1      40.406  51.333  15.059  1.00  0.00     0.004 C 
ENDBRANCH  18  19
ENDBRANCH  17  18
ENDBRANCH  16  17
ENDBRANCH  15  16
ENDBRANCH  14  15
ENDBRANCH  13  14
ENDBRANCH  12  13
ENDBRANCH   1  12
TORSDOF 16
ENDMDL
