MODEL 1
REMARK VINA RESULT:    -2.533      0.000      0.000
REMARK INTER + INTRA:          -2.533
REMARK INTER:                  -2.533
REMARK INTRA:                   0.000
REMARK UNBOUND:                 0.000
REMARK SMILES C=C1CCC[C@]2(C)CC(=O)C(=C(C)C)C[C@H]12
REMARK SMILES IDX 13 1 12 2 11 3 15 4 16 5 2 6 1 7 3 8 4 9 5 10 6 11 8 12 9 13
REMARK SMILES IDX 10 14 7 15 14 16
REMARK H PARENT
REMARK Flexibility Score: inf
ROOT
ATOM      1  C   UNL     1      84.137  32.403  68.085  1.00  0.00     0.039 C 
ATOM      2  C   UNL     1      84.321  31.624  66.804  1.00  0.00    -0.070 C 
ATOM      3  C   UNL     1      85.559  31.243  66.376  1.00  0.00    -0.006 C 
ATOM      4  C   UNL     1      86.833  31.601  67.120  1.00  0.00     0.047 C 
ATOM      5  C   UNL     1      87.962  32.166  66.201  1.00  0.00     0.025 C 
ATOM      6  C   UNL     1      88.225  33.630  66.523  1.00  0.00    -0.073 C 
ATOM      7  C   UNL     1      89.125  33.971  67.459  1.00  0.00     0.008 C 
ATOM      8  C   UNL     1      87.357  34.684  65.885  1.00  0.00     0.031 C 
ATOM      9  C   UNL     1      87.315  34.484  64.373  1.00  0.00     0.005 C 
ATOM     10  C   UNL     1      86.856  33.065  64.019  1.00  0.00     0.008 C 
ATOM     11  C   UNL     1      87.747  31.946  64.656  1.00  0.00    -0.018 C 
ATOM     12  C   UNL     1      87.083  30.564  64.414  1.00  0.00     0.088 C 
ATOM     13  C   UNL     1      85.778  30.441  65.145  1.00  0.00     0.159 C 
ATOM     14  O   UNL     1      84.927  29.602  64.743  1.00  0.00    -0.295 OA
ATOM     15  C   UNL     1      89.125  31.933  63.947  1.00  0.00     0.012 C 
ATOM     16  C   UNL     1      83.081  31.327  65.993  1.00  0.00     0.039 C 
ENDROOT
TORSDOF 0
ENDMDL
MODEL 2
REMARK VINA RESULT:    -1.927      1.900      3.062
REMARK INTER + INTRA:          -1.927
REMARK INTER:                  -1.927
REMARK INTRA:                   0.000
REMARK UNBOUND:                 0.000
REMARK SMILES C=C1CCC[C@]2(C)CC(=O)C(=C(C)C)C[C@H]12
REMARK SMILES IDX 13 1 12 2 11 3 15 4 16 5 2 6 1 7 3 8 4 9 5 10 6 11 8 12 9 13
REMARK SMILES IDX 10 14 7 15 14 16
REMARK H PARENT
REMARK Flexibility Score: inf
ROOT
ATOM      1  C   UNL     1      84.119  29.756  64.979  1.00  0.00     0.039 C 
ATOM      2  C   UNL     1      84.303  31.209  64.609  1.00  0.00    -0.070 C 
ATOM      3  C   UNL     1      85.540  31.727  64.358  1.00  0.00    -0.006 C 
ATOM      4  C   UNL     1      86.813  30.908  64.468  1.00  0.00     0.047 C 
ATOM      5  C   UNL     1      87.952  31.617  65.267  1.00  0.00     0.025 C 
ATOM      6  C   UNL     1      88.227  30.879  66.568  1.00  0.00    -0.073 C 
ATOM      7  C   UNL     1      89.125  29.881  66.609  1.00  0.00     0.008 C 
ATOM      8  C   UNL     1      87.373  31.180  67.772  1.00  0.00     0.031 C 
ATOM      9  C   UNL     1      87.337  32.684  68.026  1.00  0.00     0.005 C 
ATOM     10  C   UNL     1      86.866  33.441  66.779  1.00  0.00     0.008 C 
ATOM     11  C   UNL     1      87.744  33.159  65.513  1.00  0.00    -0.018 C 
ATOM     12  C   UNL     1      87.068  33.798  64.270  1.00  0.00     0.088 C 
ATOM     13  C   UNL     1      85.757  33.139  63.951  1.00  0.00     0.159 C 
ATOM     14  O   UNL     1      84.901  33.773  63.277  1.00  0.00    -0.295 OA
ATOM     15  C   UNL     1      89.125  33.837  65.695  1.00  0.00     0.012 C 
ATOM     16  C   UNL     1      83.065  32.075  64.577  1.00  0.00     0.039 C 
ENDROOT
TORSDOF 0
ENDMDL
MODEL 3
REMARK VINA RESULT:    -1.543      2.049      4.529
REMARK INTER + INTRA:          -1.543
REMARK INTER:                  -1.543
REMARK INTRA:                   0.000
REMARK UNBOUND:                 0.000
REMARK SMILES C=C1CCC[C@]2(C)CC(=O)C(=C(C)C)C[C@H]12
REMARK SMILES IDX 13 1 12 2 11 3 15 4 16 5 2 6 1 7 3 8 4 9 5 10 6 11 8 12 9 13
REMARK SMILES IDX 10 14 7 15 14 16
REMARK H PARENT
REMARK Flexibility Score: inf
ROOT
ATOM      1  C   UNL     1      85.378  34.565  62.755  1.00  0.00     0.039 C 
ATOM      2  C   UNL     1      86.520  34.714  63.732  1.00  0.00    -0.070 C 
ATOM      3  C   UNL     1      87.169  33.626  64.237  1.00  0.00    -0.006 C 
ATOM      4  C   UNL     1      86.776  32.200  63.894  1.00  0.00     0.047 C 
ATOM      5  C   UNL     1      86.663  31.262  65.136  1.00  0.00     0.025 C 
ATOM      6  C   UNL     1      85.217  30.838  65.351  1.00  0.00    -0.073 C 
ATOM      7  C   UNL     1      84.734  29.736  64.754  1.00  0.00     0.008 C 
ATOM      8  C   UNL     1      84.296  31.750  66.119  1.00  0.00     0.031 C 
ATOM      9  C   UNL     1      84.930  32.130  67.454  1.00  0.00     0.005 C 
ATOM     10  C   UNL     1      86.317  32.750  67.247  1.00  0.00     0.008 C 
ATOM     11  C   UNL     1      87.302  31.818  66.463  1.00  0.00    -0.018 C 
ATOM     12  C   UNL     1      88.594  32.610  66.126  1.00  0.00     0.088 C 
ATOM     13  C   UNL     1      88.323  33.732  65.167  1.00  0.00     0.159 C 
ATOM     14  O   UNL     1      89.125  34.704  65.118  1.00  0.00    -0.295 OA
ATOM     15  C   UNL     1      87.706  30.630  67.372  1.00  0.00     0.012 C 
ATOM     16  C   UNL     1      86.879  36.117  64.164  1.00  0.00     0.039 C 
ENDROOT
TORSDOF 0
ENDMDL
MODEL 4
REMARK VINA RESULT:    -1.524      1.770      3.487
REMARK INTER + INTRA:          -1.524
REMARK INTER:                  -1.524
REMARK INTRA:                   0.000
REMARK UNBOUND:                 0.000
REMARK SMILES C=C1CCC[C@]2(C)CC(=O)C(=C(C)C)C[C@H]12
REMARK SMILES IDX 13 1 12 2 11 3 15 4 16 5 2 6 1 7 3 8 4 9 5 10 6 11 8 12 9 13
REMARK SMILES IDX 10 14 7 15 14 16
REMARK H PARENT
REMARK Flexibility Score: inf
ROOT
ATOM      1  C   UNL     1      83.784  30.495  63.998  1.00  0.00     0.039 C 
ATOM      2  C   UNL     1      84.023  30.983  65.407  1.00  0.00    -0.070 C 
ATOM      3  C   UNL     1      85.035  31.850  65.697  1.00  0.00    -0.006 C 
ATOM      4  C   UNL     1      86.013  32.353  64.650  1.00  0.00     0.047 C 
ATOM      5  C   UNL     1      87.507  32.275  65.094  1.00  0.00     0.025 C 
ATOM      6  C   UNL     1      88.258  31.252  64.254  1.00  0.00    -0.073 C 
ATOM      7  C   UNL     1      88.851  31.616  63.106  1.00  0.00     0.008 C 
ATOM      8  C   UNL     1      88.200  29.799  64.650  1.00  0.00     0.031 C 
ATOM      9  C   UNL     1      88.577  29.641  66.120  1.00  0.00     0.005 C 
ATOM     10  C   UNL     1      87.692  30.520  67.012  1.00  0.00     0.008 C 
ATOM     11  C   UNL     1      87.742  32.039  66.634  1.00  0.00    -0.018 C 
ATOM     12  C   UNL     1      86.665  32.804  67.448  1.00  0.00     0.088 C 
ATOM     13  C   UNL     1      85.276  32.385  67.062  1.00  0.00     0.159 C 
ATOM     14  O   UNL     1      84.332  32.569  67.876  1.00  0.00    -0.295 OA
ATOM     15  C   UNL     1      89.125  32.613  67.032  1.00  0.00     0.012 C 
ATOM     16  C   UNL     1      83.122  30.433  66.489  1.00  0.00     0.039 C 
ENDROOT
TORSDOF 0
ENDMDL
MODEL 5
REMARK VINA RESULT:    -1.498      1.458      3.868
REMARK INTER + INTRA:          -1.498
REMARK INTER:                  -1.498
REMARK INTRA:                   0.000
REMARK UNBOUND:                 0.000
REMARK SMILES C=C1CCC[C@]2(C)CC(=O)C(=C(C)C)C[C@H]12
REMARK SMILES IDX 13 1 12 2 11 3 15 4 16 5 2 6 1 7 3 8 4 9 5 10 6 11 8 12 9 13
REMARK SMILES IDX 10 14 7 15 14 16
REMARK H PARENT
REMARK Flexibility Score: inf
ROOT
ATOM      1  C   UNL     1      89.122  31.053  62.481  1.00  0.00     0.039 C 
ATOM      2  C   UNL     1      88.493  30.304  63.633  1.00  0.00    -0.070 C 
ATOM      3  C   UNL     1      87.470  30.844  64.357  1.00  0.00    -0.006 C 
ATOM      4  C   UNL     1      86.918  32.233  64.093  1.00  0.00     0.047 C 
ATOM      5  C   UNL     1      86.746  33.098  65.381  1.00  0.00     0.025 C 
ATOM      6  C   UNL     1      87.715  34.271  65.366  1.00  0.00    -0.073 C 
ATOM      7  C   UNL     1      87.364  35.439  64.805  1.00  0.00     0.008 C 
ATOM      8  C   UNL     1      89.125  34.058  65.854  1.00  0.00     0.031 C 
ATOM      9  C   UNL     1      89.108  33.415  67.238  1.00  0.00     0.005 C 
ATOM     10  C   UNL     1      88.297  32.115  67.230  1.00  0.00     0.008 C 
ATOM     11  C   UNL     1      86.821  32.306  66.740  1.00  0.00    -0.018 C 
ATOM     12  C   UNL     1      86.155  30.914  66.569  1.00  0.00     0.088 C 
ATOM     13  C   UNL     1      86.798  30.123  65.468  1.00  0.00     0.159 C 
ATOM     14  O   UNL     1      86.686  28.867  65.470  1.00  0.00    -0.295 OA
ATOM     15  C   UNL     1      86.025  33.076  67.823  1.00  0.00     0.012 C 
ATOM     16  C   UNL     1      89.077  28.954  63.979  1.00  0.00     0.039 C 
ENDROOT
TORSDOF 0
ENDMDL
MODEL 6
REMARK VINA RESULT:    -1.302      1.994      4.843
REMARK INTER + INTRA:          -1.302
REMARK INTER:                  -1.302
REMARK INTRA:                   0.000
REMARK UNBOUND:                 0.000
REMARK SMILES C=C1CCC[C@]2(C)CC(=O)C(=C(C)C)C[C@H]12
REMARK SMILES IDX 13 1 12 2 11 3 15 4 16 5 2 6 1 7 3 8 4 9 5 10 6 11 8 12 9 13
REMARK SMILES IDX 10 14 7 15 14 16
REMARK H PARENT
REMARK Flexibility Score: inf
ROOT
ATOM      1  C   UNL     1      88.766  31.249  63.373  1.00  0.00     0.039 C 
ATOM      2  C   UNL     1      88.512  32.155  64.555  1.00  0.00    -0.070 C 
ATOM      3  C   UNL     1      87.735  31.756  65.602  1.00  0.00    -0.006 C 
ATOM      4  C   UNL     1      87.041  30.406  65.645  1.00  0.00     0.047 C 
ATOM      5  C   UNL     1      85.539  30.482  66.063  1.00  0.00     0.025 C 
ATOM      6  C   UNL     1      84.643  30.092  64.897  1.00  0.00    -0.073 C 
ATOM      7  C   UNL     1      84.294  28.810  64.705  1.00  0.00     0.008 C 
ATOM      8  C   UNL     1      84.278  31.138  63.875  1.00  0.00     0.031 C 
ATOM      9  C   UNL     1      83.716  32.375  64.571  1.00  0.00     0.005 C 
ATOM     10  C   UNL     1      84.697  32.909  65.620  1.00  0.00     0.008 C 
ATOM     11  C   UNL     1      85.086  31.847  66.705  1.00  0.00    -0.018 C 
ATOM     12  C   UNL     1      86.231  32.414  67.586  1.00  0.00     0.088 C 
ATOM     13  C   UNL     1      87.496  32.601  66.800  1.00  0.00     0.159 C 
ATOM     14  O   UNL     1      88.362  33.417  67.218  1.00  0.00    -0.295 OA
ATOM     15  C   UNL     1      83.866  31.597  67.626  1.00  0.00     0.012 C 
ATOM     16  C   UNL     1      89.116  33.540  64.504  1.00  0.00     0.039 C 
ENDROOT
TORSDOF 0
ENDMDL
MODEL 7
REMARK VINA RESULT:    -0.882      1.548      3.757
REMARK INTER + INTRA:          -0.882
REMARK INTER:                  -0.882
REMARK INTRA:                   0.000
REMARK UNBOUND:                 0.000
REMARK SMILES C=C1CCC[C@]2(C)CC(=O)C(=C(C)C)C[C@H]12
REMARK SMILES IDX 13 1 12 2 11 3 15 4 16 5 2 6 1 7 3 8 4 9 5 10 6 11 8 12 9 13
REMARK SMILES IDX 10 14 7 15 14 16
REMARK H PARENT
REMARK Flexibility Score: inf
ROOT
ATOM      1  C   UNL     1      89.125  29.338  64.630  1.00  0.00     0.039 C 
ATOM      2  C   UNL     1      87.675  28.949  64.798  1.00  0.00    -0.070 C 
ATOM      3  C   UNL     1      86.667  29.817  64.496  1.00  0.00    -0.006 C 
ATOM      4  C   UNL     1      86.918  31.234  64.014  1.00  0.00     0.047 C 
ATOM      5  C   UNL     1      86.063  32.312  64.752  1.00  0.00     0.025 C 
ATOM      6  C   UNL     1      86.956  33.214  65.592  1.00  0.00    -0.073 C 
ATOM      7  C   UNL     1      87.493  34.325  65.063  1.00  0.00     0.008 C 
ATOM      8  C   UNL     1      87.350  32.766  66.976  1.00  0.00     0.031 C 
ATOM      9  C   UNL     1      86.109  32.376  67.773  1.00  0.00     0.005 C 
ATOM     10  C   UNL     1      85.292  31.312  67.032  1.00  0.00     0.008 C 
ATOM     11  C   UNL     1      84.855  31.753  65.594  1.00  0.00    -0.018 C 
ATOM     12  C   UNL     1      84.223  30.542  64.857  1.00  0.00     0.088 C 
ATOM     13  C   UNL     1      85.230  29.457  64.608  1.00  0.00     0.159 C 
ATOM     14  O   UNL     1      84.827  28.278  64.421  1.00  0.00    -0.295 OA
ATOM     15  C   UNL     1      83.766  32.849  65.712  1.00  0.00     0.012 C 
ATOM     16  C   UNL     1      87.390  27.575  65.360  1.00  0.00     0.039 C 
ENDROOT
TORSDOF 0
ENDMDL
MODEL 8
REMARK VINA RESULT:     0.276      2.071      4.031
REMARK INTER + INTRA:           0.276
REMARK INTER:                   0.276
REMARK INTRA:                   0.000
REMARK UNBOUND:                 0.000
REMARK SMILES C=C1CCC[C@]2(C)CC(=O)C(=C(C)C)C[C@H]12
REMARK SMILES IDX 13 1 12 2 11 3 15 4 16 5 2 6 1 7 3 8 4 9 5 10 6 11 8 12 9 13
REMARK SMILES IDX 10 14 7 15 14 16
REMARK H PARENT
REMARK Flexibility Score: inf
ROOT
ATOM      1  C   UNL     1      89.120  28.495  66.361  1.00  0.00     0.039 C 
ATOM      2  C   UNL     1      88.925  29.061  64.974  1.00  0.00    -0.070 C 
ATOM      3  C   UNL     1      88.657  30.384  64.778  1.00  0.00    -0.006 C 
ATOM      4  C   UNL     1      88.496  31.369  65.922  1.00  0.00     0.047 C 
ATOM      5  C   UNL     1      87.239  32.285  65.792  1.00  0.00     0.025 C 
ATOM      6  C   UNL     1      86.232  31.965  66.887  1.00  0.00    -0.073 C 
ATOM      7  C   UNL     1      86.291  32.592  68.073  1.00  0.00     0.008 C 
ATOM      8  C   UNL     1      85.265  30.828  66.679  1.00  0.00     0.031 C 
ATOM      9  C   UNL     1      84.545  30.992  65.344  1.00  0.00     0.005 C 
ATOM     10  C   UNL     1      85.547  31.117  64.191  1.00  0.00     0.008 C 
ATOM     11  C   UNL     1      86.558  32.300  64.372  1.00  0.00    -0.018 C 
ATOM     12  C   UNL     1      87.649  32.212  63.271  1.00  0.00     0.088 C 
ATOM     13  C   UNL     1      88.500  30.986  63.429  1.00  0.00     0.159 C 
ATOM     14  O   UNL     1      89.125  30.541  62.429  1.00  0.00    -0.295 OA
ATOM     15  C   UNL     1      85.806  33.641  64.180  1.00  0.00     0.012 C 
ATOM     16  C   UNL     1      88.991  28.091  63.817  1.00  0.00     0.039 C 
ENDROOT
TORSDOF 0
ENDMDL
