MODEL 1
REMARK VINA RESULT:    -4.840      0.000      0.000
REMARK INTER + INTRA:          -5.621
REMARK INTER:                  -5.548
REMARK INTRA:                  -0.073
REMARK UNBOUND:                -0.073
REMARK SMILES COc1cc(C(=O)[O-])ccc1O
REMARK SMILES IDX 5 1 9 2 4 3 10 4 3 5 11 6 6 7 7 8 8 9 2 10 1 11 12 12
REMARK H PARENT 12 13
REMARK Flexibility Score: inf
ROOT
ATOM      1  C   UNL     1     -14.800  -5.380  39.883  1.00  0.00     0.001 A 
ATOM      2  C   UNL     1     -14.929  -5.758  38.537  1.00  0.00     0.014 A 
ATOM      3  C   UNL     1     -15.802  -5.752  40.797  1.00  0.00     0.060 A 
ATOM      4  C   UNL     1     -16.037  -6.494  38.112  1.00  0.00     0.051 A 
ATOM      5  C   UNL     1     -16.923  -6.495  40.373  1.00  0.00     0.161 A 
ATOM      6  C   UNL     1     -17.032  -6.863  39.021  1.00  0.00     0.157 A 
ENDROOT
BRANCH   1   7
ATOM      7  C   UNL     1     -13.622  -4.601  40.327  1.00  0.00     0.072 C 
ATOM      8  O   UNL     1     -13.668  -3.343  40.379  1.00  0.00    -0.545 OA
ATOM      9  O   UNL     1     -12.447  -5.247  40.694  1.00  0.00    -0.545 OA
ENDBRANCH   1   7
BRANCH   5  10
ATOM     10  O   UNL     1     -17.939  -6.880  41.262  1.00  0.00    -0.493 OA
ATOM     11  C   UNL     1     -18.002  -6.498  42.634  1.00  0.00     0.278 C 
ENDBRANCH   5  10
BRANCH   6  12
ATOM     12  O   UNL     1     -18.125  -7.598  38.559  1.00  0.00    -0.504 OA
ATOM     13  H   UNL     1     -18.531  -8.354  39.095  1.00  0.00     0.293 HD
ENDBRANCH   6  12
TORSDOF 3
ENDMDL
MODEL 2
REMARK VINA RESULT:    -4.835      3.513      4.389
REMARK INTER + INTRA:          -5.615
REMARK INTER:                  -5.513
REMARK INTRA:                  -0.102
REMARK UNBOUND:                -0.073
REMARK SMILES COc1cc(C(=O)[O-])ccc1O
REMARK SMILES IDX 5 1 9 2 4 3 10 4 3 5 11 6 6 7 7 8 8 9 2 10 1 11 12 12
REMARK H PARENT 12 13
REMARK Flexibility Score: inf
ROOT
ATOM      1  C   UNL     1     -11.893  -7.851  39.376  1.00  0.00     0.001 A 
ATOM      2  C   UNL     1     -11.579  -8.458  38.151  1.00  0.00     0.014 A 
ATOM      3  C   UNL     1     -12.907  -6.876  39.418  1.00  0.00     0.060 A 
ATOM      4  C   UNL     1     -12.263  -8.099  36.988  1.00  0.00     0.051 A 
ATOM      5  C   UNL     1     -13.601  -6.510  38.246  1.00  0.00     0.161 A 
ATOM      6  C   UNL     1     -13.270  -7.130  37.029  1.00  0.00     0.157 A 
ENDROOT
BRANCH   1   7
ATOM      7  C   UNL     1     -11.165  -8.236  40.606  1.00  0.00     0.072 C 
ATOM      8  O   UNL     1     -11.414  -7.669  41.703  1.00  0.00    -0.545 OA
ATOM      9  O   UNL     1     -10.194  -9.231  40.568  1.00  0.00    -0.545 OA
ENDBRANCH   1   7
BRANCH   5  10
ATOM     10  O   UNL     1     -14.617  -5.541  38.256  1.00  0.00    -0.493 OA
ATOM     11  C   UNL     1     -15.979  -5.800  38.582  1.00  0.00     0.278 C 
ENDBRANCH   5  10
BRANCH   6  12
ATOM     12  O   UNL     1     -13.931  -6.797  35.846  1.00  0.00    -0.504 OA
ATOM     13  H   UNL     1     -13.876  -5.872  35.440  1.00  0.00     0.293 HD
ENDBRANCH   6  12
TORSDOF 3
ENDMDL
MODEL 3
REMARK VINA RESULT:    -4.803      2.800      4.184
REMARK INTER + INTRA:          -5.578
REMARK INTER:                  -5.504
REMARK INTRA:                  -0.074
REMARK UNBOUND:                -0.073
REMARK SMILES COc1cc(C(=O)[O-])ccc1O
REMARK SMILES IDX 5 1 9 2 4 3 10 4 3 5 11 6 6 7 7 8 8 9 2 10 1 11 12 12
REMARK H PARENT 12 13
REMARK Flexibility Score: inf
ROOT
ATOM      1  C   UNL     1     -14.302  -5.872  39.708  1.00  0.00     0.001 A 
ATOM      2  C   UNL     1     -15.246  -5.414  38.776  1.00  0.00     0.014 A 
ATOM      3  C   UNL     1     -13.233  -6.672  39.264  1.00  0.00     0.060 A 
ATOM      4  C   UNL     1     -15.125  -5.748  37.426  1.00  0.00     0.051 A 
ATOM      5  C   UNL     1     -13.108  -7.013  37.901  1.00  0.00     0.161 A 
ATOM      6  C   UNL     1     -14.064  -6.543  36.984  1.00  0.00     0.157 A 
ENDROOT
BRANCH   1   7
ATOM      7  C   UNL     1     -14.434  -5.514  41.138  1.00  0.00     0.072 C 
ATOM      8  O   UNL     1     -15.220  -6.151  41.889  1.00  0.00    -0.545 OA
ATOM      9  O   UNL     1     -13.691  -4.467  41.674  1.00  0.00    -0.545 OA
ENDBRANCH   1   7
BRANCH   5  10
ATOM     10  O   UNL     1     -12.053  -7.810  37.429  1.00  0.00    -0.493 OA
ATOM     11  C   UNL     1     -11.304  -8.720  38.229  1.00  0.00     0.278 C 
ENDBRANCH   5  10
BRANCH   6  12
ATOM     12  O   UNL     1     -13.978  -6.857  35.628  1.00  0.00    -0.504 OA
ATOM     13  H   UNL     1     -13.184  -6.587  35.061  1.00  0.00     0.293 HD
ENDBRANCH   6  12
TORSDOF 3
ENDMDL
MODEL 4
REMARK VINA RESULT:    -4.770      4.629      6.522
REMARK INTER + INTRA:          -5.540
REMARK INTER:                  -5.438
REMARK INTRA:                  -0.102
REMARK UNBOUND:                -0.073
REMARK SMILES COc1cc(C(=O)[O-])ccc1O
REMARK SMILES IDX 5 1 9 2 4 3 10 4 3 5 11 6 6 7 7 8 8 9 2 10 1 11 12 12
REMARK H PARENT 12 13
REMARK Flexibility Score: inf
ROOT
ATOM      1  C   UNL     1     -12.826  -7.308  37.996  1.00  0.00     0.001 A 
ATOM      2  C   UNL     1     -12.522  -7.262  39.365  1.00  0.00     0.014 A 
ATOM      3  C   UNL     1     -12.093  -8.172  37.161  1.00  0.00     0.060 A 
ATOM      4  C   UNL     1     -11.506  -8.063  39.892  1.00  0.00     0.051 A 
ATOM      5  C   UNL     1     -11.065  -8.981  37.687  1.00  0.00     0.161 A 
ATOM      6  C   UNL     1     -10.778  -8.920  39.062  1.00  0.00     0.157 A 
ENDROOT
BRANCH   1   7
ATOM      7  C   UNL     1     -13.904  -6.458  37.443  1.00  0.00     0.072 C 
ATOM      8  O   UNL     1     -14.206  -6.517  36.221  1.00  0.00    -0.545 OA
ATOM      9  O   UNL     1     -14.602  -5.581  38.267  1.00  0.00    -0.545 OA
ENDBRANCH   1   7
BRANCH   5  10
ATOM     10  O   UNL     1     -10.317  -9.851  36.879  1.00  0.00    -0.493 OA
ATOM     11  C   UNL     1      -9.297  -9.439  35.973  1.00  0.00     0.278 C 
ENDBRANCH   5  10
BRANCH   6  12
ATOM     12  O   UNL     1      -9.770  -9.703  39.624  1.00  0.00    -0.504 OA
ATOM     13  H   UNL     1      -9.112  -9.333  40.298  1.00  0.00     0.293 HD
ENDBRANCH   6  12
TORSDOF 3
ENDMDL
MODEL 5
REMARK VINA RESULT:    -4.686      3.096      4.639
REMARK INTER + INTRA:          -5.444
REMARK INTER:                  -5.364
REMARK INTRA:                  -0.080
REMARK UNBOUND:                -0.073
REMARK SMILES COc1cc(C(=O)[O-])ccc1O
REMARK SMILES IDX 5 1 9 2 4 3 10 4 3 5 11 6 6 7 7 8 8 9 2 10 1 11 12 12
REMARK H PARENT 12 13
REMARK Flexibility Score: inf
ROOT
ATOM      1  C   UNL     1     -14.234  -6.185  38.883  1.00  0.00     0.001 A 
ATOM      2  C   UNL     1     -14.461  -6.230  37.498  1.00  0.00     0.014 A 
ATOM      3  C   UNL     1     -13.126  -6.867  39.418  1.00  0.00     0.060 A 
ATOM      4  C   UNL     1     -13.597  -6.943  36.663  1.00  0.00     0.051 A 
ATOM      5  C   UNL     1     -12.252  -7.589  38.579  1.00  0.00     0.161 A 
ATOM      6  C   UNL     1     -12.497  -7.621  37.195  1.00  0.00     0.157 A 
ENDROOT
BRANCH   1   7
ATOM      7  C   UNL     1     -15.152  -5.428  39.763  1.00  0.00     0.072 C 
ATOM      8  O   UNL     1     -14.789  -5.072  40.915  1.00  0.00    -0.545 OA
ATOM      9  O   UNL     1     -16.432  -5.098  39.329  1.00  0.00    -0.545 OA
ENDBRANCH   1   7
BRANCH   5  10
ATOM     10  O   UNL     1     -11.139  -8.279  39.084  1.00  0.00    -0.493 OA
ATOM     11  C   UNL     1     -10.865  -8.470  40.469  1.00  0.00     0.278 C 
ENDBRANCH   5  10
BRANCH   6  12
ATOM     12  O   UNL     1     -11.657  -8.322  36.330  1.00  0.00    -0.504 OA
ATOM     13  H   UNL     1     -11.469  -8.006  35.387  1.00  0.00     0.293 HD
ENDBRANCH   6  12
TORSDOF 3
ENDMDL
MODEL 6
REMARK VINA RESULT:    -4.680      5.467      7.156
REMARK INTER + INTRA:          -5.436
REMARK INTER:                  -5.342
REMARK INTRA:                  -0.095
REMARK UNBOUND:                -0.073
REMARK SMILES COc1cc(C(=O)[O-])ccc1O
REMARK SMILES IDX 5 1 9 2 4 3 10 4 3 5 11 6 6 7 7 8 8 9 2 10 1 11 12 12
REMARK H PARENT 12 13
REMARK Flexibility Score: inf
ROOT
ATOM      1  C   UNL     1     -15.542  -9.728  46.575  1.00  0.00     0.001 A 
ATOM      2  C   UNL     1     -15.511 -10.904  45.810  1.00  0.00     0.014 A 
ATOM      3  C   UNL     1     -16.320  -8.643  46.131  1.00  0.00     0.060 A 
ATOM      4  C   UNL     1     -16.243 -10.996  44.624  1.00  0.00     0.051 A 
ATOM      5  C   UNL     1     -17.060  -8.730  44.934  1.00  0.00     0.161 A 
ATOM      6  C   UNL     1     -17.015  -9.918  44.183  1.00  0.00     0.157 A 
ENDROOT
BRANCH   1   7
ATOM      7  C   UNL     1     -14.765  -9.636  47.831  1.00  0.00     0.072 C 
ATOM      8  O   UNL     1     -13.972  -8.677  48.027  1.00  0.00    -0.545 OA
ATOM      9  O   UNL     1     -14.899 -10.610  48.815  1.00  0.00    -0.545 OA
ENDBRANCH   1   7
BRANCH   5  10
ATOM     10  O   UNL     1     -17.845  -7.665  44.465  1.00  0.00    -0.493 OA
ATOM     11  C   UNL     1     -17.358  -6.591  43.664  1.00  0.00     0.278 C 
ENDBRANCH   5  10
BRANCH   6  12
ATOM     12  O   UNL     1     -17.732 -10.047  42.993  1.00  0.00    -0.504 OA
ATOM     13  H   UNL     1     -18.502  -9.434  42.758  1.00  0.00     0.293 HD
ENDBRANCH   6  12
TORSDOF 3
ENDMDL
MODEL 7
REMARK VINA RESULT:    -4.625      4.003      5.463
REMARK INTER + INTRA:          -5.374
REMARK INTER:                  -5.294
REMARK INTRA:                  -0.080
REMARK UNBOUND:                -0.073
REMARK SMILES COc1cc(C(=O)[O-])ccc1O
REMARK SMILES IDX 5 1 9 2 4 3 10 4 3 5 11 6 6 7 7 8 8 9 2 10 1 11 12 12
REMARK H PARENT 12 13
REMARK Flexibility Score: inf
ROOT
ATOM      1  C   UNL     1     -12.885  -7.343  37.879  1.00  0.00     0.001 A 
ATOM      2  C   UNL     1     -12.251  -8.286  37.054  1.00  0.00     0.014 A 
ATOM      3  C   UNL     1     -12.522  -7.266  39.236  1.00  0.00     0.060 A 
ATOM      4  C   UNL     1     -11.275  -9.137  37.575  1.00  0.00     0.051 A 
ATOM      5  C   UNL     1     -11.537  -8.124  39.766  1.00  0.00     0.161 A 
ATOM      6  C   UNL     1     -10.915  -9.062  38.924  1.00  0.00     0.157 A 
ENDROOT
BRANCH   1   7
ATOM      7  C   UNL     1     -13.919  -6.442  37.321  1.00  0.00     0.072 C 
ATOM      8  O   UNL     1     -14.535  -5.634  38.065  1.00  0.00    -0.545 OA
ATOM      9  O   UNL     1     -14.225  -6.476  35.965  1.00  0.00    -0.545 OA
ENDBRANCH   1   7
BRANCH   5  10
ATOM     10  O   UNL     1     -11.155  -8.072  41.117  1.00  0.00    -0.493 OA
ATOM     11  C   UNL     1     -11.786  -7.264  42.106  1.00  0.00     0.278 C 
ENDBRANCH   5  10
BRANCH   6  12
ATOM     12  O   UNL     1      -9.935  -9.929  39.408  1.00  0.00    -0.504 OA
ATOM     13  H   UNL     1      -9.528 -10.657  38.834  1.00  0.00     0.293 HD
ENDBRANCH   6  12
TORSDOF 3
ENDMDL
MODEL 8
REMARK VINA RESULT:    -4.554      3.268      4.489
REMARK INTER + INTRA:          -5.292
REMARK INTER:                  -5.194
REMARK INTRA:                  -0.098
REMARK UNBOUND:                -0.073
REMARK SMILES COc1cc(C(=O)[O-])ccc1O
REMARK SMILES IDX 5 1 9 2 4 3 10 4 3 5 11 6 6 7 7 8 8 9 2 10 1 11 12 12
REMARK H PARENT 12 13
REMARK Flexibility Score: inf
ROOT
ATOM      1  C   UNL     1     -12.367  -7.671  37.781  1.00  0.00     0.001 A 
ATOM      2  C   UNL     1     -13.324  -7.193  36.873  1.00  0.00     0.014 A 
ATOM      3  C   UNL     1     -12.424  -7.248  39.122  1.00  0.00     0.060 A 
ATOM      4  C   UNL     1     -14.320  -6.309  37.295  1.00  0.00     0.051 A 
ATOM      5  C   UNL     1     -13.427  -6.356  39.553  1.00  0.00     0.161 A 
ATOM      6  C   UNL     1     -14.376  -5.889  38.627  1.00  0.00     0.157 A 
ENDROOT
BRANCH   1   7
ATOM      7  C   UNL     1     -11.314  -8.608  37.328  1.00  0.00     0.072 C 
ATOM      8  O   UNL     1     -10.652  -8.372  36.283  1.00  0.00    -0.545 OA
ATOM      9  O   UNL     1     -11.042  -9.764  38.051  1.00  0.00    -0.545 OA
ENDBRANCH   1   7
BRANCH   5  10
ATOM     10  O   UNL     1     -13.509  -5.916  40.884  1.00  0.00    -0.493 OA
ATOM     11  C   UNL     1     -12.772  -4.822  41.422  1.00  0.00     0.278 C 
ENDBRANCH   5  10
BRANCH   6  12
ATOM     12  O   UNL     1     -15.385  -5.005  39.011  1.00  0.00    -0.504 OA
ATOM     13  H   UNL     1     -16.033  -4.604  38.344  1.00  0.00     0.293 HD
ENDBRANCH   6  12
TORSDOF 3
ENDMDL
MODEL 9
REMARK VINA RESULT:    -4.494      6.550      8.744
REMARK INTER + INTRA:          -5.223
REMARK INTER:                  -5.127
REMARK INTRA:                  -0.097
REMARK UNBOUND:                -0.073
REMARK SMILES COc1cc(C(=O)[O-])ccc1O
REMARK SMILES IDX 5 1 9 2 4 3 10 4 3 5 11 6 6 7 7 8 8 9 2 10 1 11 12 12
REMARK H PARENT 12 13
REMARK Flexibility Score: inf
ROOT
ATOM      1  C   UNL     1     -16.650  -9.530  46.049  1.00  0.00     0.001 A 
ATOM      2  C   UNL     1     -15.896 -10.685  45.791  1.00  0.00     0.014 A 
ATOM      3  C   UNL     1     -16.659  -8.995  47.350  1.00  0.00     0.060 A 
ATOM      4  C   UNL     1     -15.165 -11.295  46.812  1.00  0.00     0.051 A 
ATOM      5  C   UNL     1     -15.923  -9.608  48.385  1.00  0.00     0.161 A 
ATOM      6  C   UNL     1     -15.174 -10.764  48.105  1.00  0.00     0.157 A 
ENDROOT
BRANCH   1   7
ATOM      7  C   UNL     1     -17.422  -8.887  44.962  1.00  0.00     0.072 C 
ATOM      8  O   UNL     1     -18.032  -7.803  45.163  1.00  0.00    -0.545 OA
ATOM      9  O   UNL     1     -17.484  -9.471  43.702  1.00  0.00    -0.545 OA
ENDBRANCH   1   7
BRANCH   5  10
ATOM     10  O   UNL     1     -15.914  -9.097  49.693  1.00  0.00    -0.493 OA
ATOM     11  C   UNL     1     -15.414  -7.814  50.058  1.00  0.00     0.278 C 
ENDBRANCH   5  10
BRANCH   6  12
ATOM     12  O   UNL     1     -14.432 -11.402  49.100  1.00  0.00    -0.504 OA
ATOM     13  H   UNL     1     -13.435 -11.555  49.014  1.00  0.00     0.293 HD
ENDBRANCH   6  12
TORSDOF 3
ENDMDL
