MODEL 1
REMARK VINA RESULT:    -3.999      0.000      0.000
REMARK INTER + INTRA:          -5.723
REMARK INTER:                  -5.401
REMARK INTRA:                  -0.322
REMARK UNBOUND:                -0.322
REMARK SMILES CCCCCCC=CC(=O)[O-]
REMARK SMILES IDX 5 1 6 2 7 3 8 4 9 5 10 6 11 7 4 8 3 9 2 10 1 11
REMARK H PARENT
REMARK Flexibility Score: inf
ROOT
ATOM      1  C   UNL     1    -104.385  16.373  17.067  1.00  0.00     0.004 C 
ENDROOT
BRANCH   1   2
ATOM      2  C   UNL     1    -103.442  17.071  16.079  1.00  0.00     0.027 C 
BRANCH   2   3
ATOM      3  C   UNL     1    -103.863  18.495  15.834  1.00  0.00    -0.025 C 
ATOM      4  C   UNL     1    -104.521  18.950  14.755  1.00  0.00     0.020 C 
BRANCH   4   5
ATOM      5  C   UNL     1    -105.002  18.145  13.613  1.00  0.00     0.064 C 
ATOM      6  O   UNL     1    -106.043  17.450  13.755  1.00  0.00    -0.545 OA
ATOM      7  O   UNL     1    -104.334  18.106  12.396  1.00  0.00    -0.545 OA
ENDBRANCH   4   5
ENDBRANCH   2   3
ENDBRANCH   1   2
BRANCH   1   8
ATOM      8  C   UNL     1    -105.026  17.385  18.024  1.00  0.00     0.000 C 
BRANCH   8   9
ATOM      9  C   UNL     1    -105.416  16.717  19.350  1.00  0.00    -0.000 C 
BRANCH   9  10
ATOM     10  C   UNL     1    -106.668  17.347  19.982  1.00  0.00    -0.003 C 
ATOM     11  C   UNL     1    -106.671  17.250  21.507  1.00  0.00     0.004 C 
ENDBRANCH   9  10
ENDBRANCH   8   9
ENDBRANCH   1   8
TORSDOF 6
ENDMDL
MODEL 2
REMARK VINA RESULT:    -3.773      6.013      7.690
REMARK INTER + INTRA:          -5.418
REMARK INTER:                  -5.005
REMARK INTRA:                  -0.413
REMARK UNBOUND:                -0.322
REMARK SMILES CCCCCCC=CC(=O)[O-]
REMARK SMILES IDX 5 1 6 2 7 3 8 4 9 5 10 6 11 7 4 8 3 9 2 10 1 11
REMARK H PARENT
REMARK Flexibility Score: inf
ROOT
ATOM      1  C   UNL     1    -103.144  22.744  11.900  1.00  0.00     0.004 C 
ENDROOT
BRANCH   1   2
ATOM      2  C   UNL     1    -102.817  23.655  13.090  1.00  0.00     0.027 C 
BRANCH   2   3
ATOM      3  C   UNL     1    -103.249  23.033  14.390  1.00  0.00    -0.025 C 
ATOM      4  C   UNL     1    -102.995  23.513  15.619  1.00  0.00     0.020 C 
BRANCH   4   5
ATOM      5  C   UNL     1    -102.283  24.767  15.944  1.00  0.00     0.064 C 
ATOM      6  O   UNL     1    -101.025  24.782  15.890  1.00  0.00    -0.545 OA
ATOM      7  O   UNL     1    -102.949  25.921  16.333  1.00  0.00    -0.545 OA
ENDBRANCH   4   5
ENDBRANCH   2   3
ENDBRANCH   1   2
BRANCH   1   8
ATOM      8  C   UNL     1    -104.525  22.099  12.065  1.00  0.00     0.000 C 
BRANCH   8   9
ATOM      9  C   UNL     1    -104.448  20.577  11.875  1.00  0.00    -0.000 C 
BRANCH   9  10
ATOM     10  C   UNL     1    -104.920  19.803  13.116  1.00  0.00    -0.003 C 
ATOM     11  C   UNL     1    -104.686  18.297  12.996  1.00  0.00     0.004 C 
ENDBRANCH   9  10
ENDBRANCH   8   9
ENDBRANCH   1   8
TORSDOF 6
ENDMDL
MODEL 3
REMARK VINA RESULT:    -3.730      3.510      6.018
REMARK INTER + INTRA:          -5.359
REMARK INTER:                  -4.792
REMARK INTRA:                  -0.568
REMARK UNBOUND:                -0.322
REMARK SMILES CCCCCCC=CC(=O)[O-]
REMARK SMILES IDX 5 1 6 2 7 3 8 4 9 5 10 6 11 7 4 8 3 9 2 10 1 11
REMARK H PARENT
REMARK Flexibility Score: inf
ROOT
ATOM      1  C   UNL     1    -104.593  19.407  12.257  1.00  0.00     0.004 C 
ENDROOT
BRANCH   1   2
ATOM      2  C   UNL     1    -104.649  18.430  13.439  1.00  0.00     0.027 C 
BRANCH   2   3
ATOM      3  C   UNL     1    -104.379  19.132  14.742  1.00  0.00    -0.025 C 
ATOM      4  C   UNL     1    -103.667  18.643  15.770  1.00  0.00     0.020 C 
BRANCH   4   5
ATOM      5  C   UNL     1    -102.969  17.341  15.818  1.00  0.00     0.064 C 
ATOM      6  O   UNL     1    -103.576  16.343  16.289  1.00  0.00    -0.545 OA
ATOM      7  O   UNL     1    -101.659  17.184  15.385  1.00  0.00    -0.545 OA
ENDBRANCH   4   5
ENDBRANCH   2   3
ENDBRANCH   1   2
BRANCH   1   8
ATOM      8  C   UNL     1    -104.825  20.849  12.724  1.00  0.00     0.000 C 
BRANCH   8   9
ATOM      9  C   UNL     1    -104.015  21.839  11.875  1.00  0.00    -0.000 C 
BRANCH   9  10
ATOM     10  C   UNL     1    -103.198  22.820  12.731  1.00  0.00    -0.003 C 
ATOM     11  C   UNL     1    -103.530  22.723  14.220  1.00  0.00     0.004 C 
ENDBRANCH   9  10
ENDBRANCH   8   9
ENDBRANCH   1   8
TORSDOF 6
ENDMDL
MODEL 4
REMARK VINA RESULT:    -3.699      1.436      2.091
REMARK INTER + INTRA:          -5.318
REMARK INTER:                  -4.815
REMARK INTRA:                  -0.503
REMARK UNBOUND:                -0.322
REMARK SMILES CCCCCCC=CC(=O)[O-]
REMARK SMILES IDX 5 1 6 2 7 3 8 4 9 5 10 6 11 7 4 8 3 9 2 10 1 11
REMARK H PARENT
REMARK Flexibility Score: inf
ROOT
ATOM      1  C   UNL     1    -103.201  17.282  15.865  1.00  0.00     0.004 C 
ENDROOT
BRANCH   1   2
ATOM      2  C   UNL     1    -104.063  18.487  15.467  1.00  0.00     0.027 C 
BRANCH   2   3
ATOM      3  C   UNL     1    -104.394  18.463  14.000  1.00  0.00    -0.025 C 
ATOM      4  C   UNL     1    -105.475  17.891  13.443  1.00  0.00     0.020 C 
BRANCH   4   5
ATOM      5  C   UNL     1    -106.576  17.210  14.156  1.00  0.00     0.064 C 
ATOM      6  O   UNL     1    -107.538  17.899  14.587  1.00  0.00    -0.545 OA
ATOM      7  O   UNL     1    -106.577  15.841  14.389  1.00  0.00    -0.545 OA
ENDBRANCH   4   5
ENDBRANCH   2   3
ENDBRANCH   1   2
BRANCH   1   8
ATOM      8  C   UNL     1    -103.974  16.333  16.787  1.00  0.00     0.000 C 
BRANCH   8   9
ATOM      9  C   UNL     1    -104.746  17.115  17.859  1.00  0.00    -0.000 C 
BRANCH   9  10
ATOM     10  C   UNL     1    -105.309  16.205  18.963  1.00  0.00    -0.003 C 
ATOM     11  C   UNL     1    -106.023  16.987  20.065  1.00  0.00     0.004 C 
ENDBRANCH   9  10
ENDBRANCH   8   9
ENDBRANCH   1   8
TORSDOF 6
ENDMDL
MODEL 5
REMARK VINA RESULT:    -3.682      2.806      5.467
REMARK INTER + INTRA:          -5.295
REMARK INTER:                  -4.946
REMARK INTRA:                  -0.349
REMARK UNBOUND:                -0.322
REMARK SMILES CCCCCCC=CC(=O)[O-]
REMARK SMILES IDX 5 1 6 2 7 3 8 4 9 5 10 6 11 7 4 8 3 9 2 10 1 11
REMARK H PARENT
REMARK Flexibility Score: inf
ROOT
ATOM      1  C   UNL     1    -104.625  17.183  17.627  1.00  0.00     0.004 C 
ENDROOT
BRANCH   1   2
ATOM      2  C   UNL     1    -105.213  16.172  18.620  1.00  0.00     0.027 C 
BRANCH   2   3
ATOM      3  C   UNL     1    -105.735  16.857  19.853  1.00  0.00    -0.025 C 
ATOM      4  C   UNL     1    -106.998  17.270  20.054  1.00  0.00     0.020 C 
BRANCH   4   5
ATOM      5  C   UNL     1    -108.137  17.098  19.128  1.00  0.00     0.064 C 
ATOM      6  O   UNL     1    -108.478  18.064  18.398  1.00  0.00    -0.545 OA
ATOM      7  O   UNL     1    -108.862  15.915  19.054  1.00  0.00    -0.545 OA
ENDBRANCH   4   5
ENDBRANCH   2   3
ENDBRANCH   1   2
BRANCH   1   8
ATOM      8  C   UNL     1    -103.721  16.486  16.603  1.00  0.00     0.000 C 
BRANCH   8   9
ATOM      9  C   UNL     1    -103.039  17.510  15.685  1.00  0.00    -0.000 C 
BRANCH   9  10
ATOM     10  C   UNL     1    -103.990  18.636  15.247  1.00  0.00    -0.003 C 
ATOM     11  C   UNL     1    -104.619  18.379  13.879  1.00  0.00     0.004 C 
ENDBRANCH   9  10
ENDBRANCH   8   9
ENDBRANCH   1   8
TORSDOF 6
ENDMDL
MODEL 6
REMARK VINA RESULT:    -3.648      1.186      1.723
REMARK INTER + INTRA:          -5.250
REMARK INTER:                  -4.903
REMARK INTRA:                  -0.347
REMARK UNBOUND:                -0.322
REMARK SMILES CCCCCCC=CC(=O)[O-]
REMARK SMILES IDX 5 1 6 2 7 3 8 4 9 5 10 6 11 7 4 8 3 9 2 10 1 11
REMARK H PARENT
REMARK Flexibility Score: inf
ROOT
ATOM      1  C   UNL     1    -104.310  15.374  17.717  1.00  0.00     0.004 C 
ENDROOT
BRANCH   1   2
ATOM      2  C   UNL     1    -104.586  16.150  16.422  1.00  0.00     0.027 C 
BRANCH   2   3
ATOM      3  C   UNL     1    -103.436  17.055  16.072  1.00  0.00    -0.025 C 
ATOM      4  C   UNL     1    -103.505  18.163  15.316  1.00  0.00     0.020 C 
BRANCH   4   5
ATOM      5  C   UNL     1    -104.723  18.744  14.713  1.00  0.00     0.064 C 
ATOM      6  O   UNL     1    -104.994  18.478  13.513  1.00  0.00    -0.545 OA
ATOM      7  O   UNL     1    -105.567  19.594  15.416  1.00  0.00    -0.545 OA
ENDBRANCH   4   5
ENDBRANCH   2   3
ENDBRANCH   1   2
BRANCH   1   8
ATOM      8  C   UNL     1    -105.436  15.587  18.736  1.00  0.00     0.000 C 
BRANCH   8   9
ATOM      9  C   UNL     1    -105.393  17.008  19.315  1.00  0.00    -0.000 C 
BRANCH   9  10
ATOM     10  C   UNL     1    -106.392  17.206  20.467  1.00  0.00    -0.003 C 
ATOM     11  C   UNL     1    -107.846  17.056  20.019  1.00  0.00     0.004 C 
ENDBRANCH   9  10
ENDBRANCH   8   9
ENDBRANCH   1   8
TORSDOF 6
ENDMDL
MODEL 7
REMARK VINA RESULT:    -3.636     16.686     18.316
REMARK INTER + INTRA:          -5.234
REMARK INTER:                  -4.868
REMARK INTRA:                  -0.366
REMARK UNBOUND:                -0.322
REMARK SMILES CCCCCCC=CC(=O)[O-]
REMARK SMILES IDX 5 1 6 2 7 3 8 4 9 5 10 6 11 7 4 8 3 9 2 10 1 11
REMARK H PARENT
REMARK Flexibility Score: inf
ROOT
ATOM      1  C   UNL     1    -109.979  31.619  24.847  1.00  0.00     0.004 C 
ENDROOT
BRANCH   1   2
ATOM      2  C   UNL     1    -110.470  32.030  26.242  1.00  0.00     0.027 C 
BRANCH   2   3
ATOM      3  C   UNL     1    -111.820  31.439  26.543  1.00  0.00    -0.025 C 
ATOM      4  C   UNL     1    -112.153  30.751  27.648  1.00  0.00     0.020 C 
BRANCH   4   5
ATOM      5  C   UNL     1    -111.280  30.473  28.808  1.00  0.00     0.064 C 
ATOM      6  O   UNL     1    -110.275  29.732  28.649  1.00  0.00    -0.545 OA
ATOM      7  O   UNL     1    -111.543  30.979  30.074  1.00  0.00    -0.545 OA
ENDBRANCH   4   5
ENDBRANCH   2   3
ENDBRANCH   1   2
BRANCH   1   8
ATOM      8  C   UNL     1    -108.462  31.399  24.841  1.00  0.00     0.000 C 
BRANCH   8   9
ATOM      9  C   UNL     1    -107.970  30.917  26.213  1.00  0.00    -0.000 C 
BRANCH   9  10
ATOM     10  C   UNL     1    -106.437  30.920  26.325  1.00  0.00    -0.003 C 
ATOM     11  C   UNL     1    -105.746  31.033  24.966  1.00  0.00     0.004 C 
ENDBRANCH   9  10
ENDBRANCH   8   9
ENDBRANCH   1   8
TORSDOF 6
ENDMDL
MODEL 8
REMARK VINA RESULT:    -3.625      2.300      3.903
REMARK INTER + INTRA:          -5.218
REMARK INTER:                  -4.489
REMARK INTRA:                  -0.729
REMARK UNBOUND:                -0.322
REMARK SMILES CCCCCCC=CC(=O)[O-]
REMARK SMILES IDX 5 1 6 2 7 3 8 4 9 5 10 6 11 7 4 8 3 9 2 10 1 11
REMARK H PARENT
REMARK Flexibility Score: inf
ROOT
ATOM      1  C   UNL     1    -106.475  17.207  20.523  1.00  0.00     0.004 C 
ENDROOT
BRANCH   1   2
ATOM      2  C   UNL     1    -105.539  17.138  19.309  1.00  0.00     0.027 C 
BRANCH   2   3
ATOM      3  C   UNL     1    -105.186  15.716  18.970  1.00  0.00    -0.025 C 
ATOM      4  C   UNL     1    -104.789  15.264  17.769  1.00  0.00     0.020 C 
BRANCH   4   5
ATOM      5  C   UNL     1    -104.574  16.074  16.551  1.00  0.00     0.064 C 
ATOM      6  O   UNL     1    -103.428  16.546  16.329  1.00  0.00    -0.545 OA
ATOM      7  O   UNL     1    -105.598  16.355  15.656  1.00  0.00    -0.545 OA
ENDBRANCH   4   5
ENDBRANCH   2   3
ENDBRANCH   1   2
BRANCH   1   8
ATOM      8  C   UNL     1    -107.939  17.048  20.097  1.00  0.00     0.000 C 
BRANCH   8   9
ATOM      9  C   UNL     1    -108.179  17.658  18.709  1.00  0.00    -0.000 C 
BRANCH   9  10
ATOM     10  C   UNL     1    -108.761  16.644  17.711  1.00  0.00    -0.003 C 
ATOM     11  C   UNL     1    -108.815  15.225  18.275  1.00  0.00     0.004 C 
ENDBRANCH   9  10
ENDBRANCH   8   9
ENDBRANCH   1   8
TORSDOF 6
ENDMDL
MODEL 9
REMARK VINA RESULT:    -3.522      7.670      9.038
REMARK INTER + INTRA:          -5.079
REMARK INTER:                  -4.164
REMARK INTRA:                  -0.915
REMARK UNBOUND:                -0.322
REMARK SMILES CCCCCCC=CC(=O)[O-]
REMARK SMILES IDX 5 1 6 2 7 3 8 4 9 5 10 6 11 7 4 8 3 9 2 10 1 11
REMARK H PARENT
REMARK Flexibility Score: inf
ROOT
ATOM      1  C   UNL     1    -102.736  23.807  16.470  1.00  0.00     0.004 C 
ENDROOT
BRANCH   1   2
ATOM      2  C   UNL     1    -103.516  24.668  17.472  1.00  0.00     0.027 C 
BRANCH   2   3
ATOM      3  C   UNL     1    -104.907  24.957  16.978  1.00  0.00    -0.025 C 
ATOM      4  C   UNL     1    -105.289  26.037  16.277  1.00  0.00     0.020 C 
BRANCH   4   5
ATOM      5  C   UNL     1    -104.418  27.137  15.811  1.00  0.00     0.064 C 
ATOM      6  O   UNL     1    -104.273  27.313  14.573  1.00  0.00    -0.545 OA
ATOM      7  O   UNL     1    -103.734  27.967  16.689  1.00  0.00    -0.545 OA
ENDBRANCH   4   5
ENDBRANCH   2   3
ENDBRANCH   1   2
BRANCH   1   8
ATOM      8  C   UNL     1    -101.732  24.656  15.680  1.00  0.00     0.000 C 
BRANCH   8   9
ATOM      9  C   UNL     1    -102.053  24.633  14.179  1.00  0.00    -0.000 C 
BRANCH   9  10
ATOM     10  C   UNL     1    -103.043  23.519  13.804  1.00  0.00    -0.003 C 
ATOM     11  C   UNL     1    -104.338  24.059  13.198  1.00  0.00     0.004 C 
ENDBRANCH   9  10
ENDBRANCH   8   9
ENDBRANCH   1   8
TORSDOF 6
ENDMDL
