MODEL 1
REMARK VINA RESULT:    -4.416      0.000      0.000
REMARK INTER + INTRA:          -4.971
REMARK INTER:                  -4.932
REMARK INTRA:                  -0.040
REMARK UNBOUND:                -0.040
REMARK SMILES O=C([O-])c1ccc(O)c(O)c1
REMARK SMILES IDX 4 1 11 2 5 3 9 4 6 5 7 6 2 7 1 8 3 9 10 10 8 12
REMARK H PARENT 10 11 8 13
REMARK Flexibility Score: inf
ROOT
ATOM      1  C   UNL     1      38.636 -39.934 -28.760  1.00  0.00     0.001 A 
ATOM      2  C   UNL     1      39.193 -40.571 -29.884  1.00  0.00     0.060 A 
ATOM      3  C   UNL     1      38.028 -40.717 -27.763  1.00  0.00     0.014 A 
ATOM      4  C   UNL     1      39.143 -41.967 -30.009  1.00  0.00     0.158 A 
ATOM      5  C   UNL     1      37.979 -42.108 -27.888  1.00  0.00     0.051 A 
ATOM      6  C   UNL     1      38.536 -42.737 -29.010  1.00  0.00     0.157 A 
ENDROOT
BRANCH   1   7
ATOM      7  C   UNL     1      38.686 -38.462 -28.624  1.00  0.00     0.072 C 
ATOM      8  O   UNL     1      38.368 -37.718 -29.590  1.00  0.00    -0.545 OA
ATOM      9  O   UNL     1      39.086 -37.877 -27.428  1.00  0.00    -0.545 OA
ENDBRANCH   1   7
BRANCH   4  10
ATOM     10  O   UNL     1      39.697 -42.595 -31.124  1.00  0.00    -0.504 OA
ATOM     11  H   UNL     1      40.527 -42.236 -31.577  1.00  0.00     0.293 HD
ENDBRANCH   4  10
BRANCH   6  12
ATOM     12  O   UNL     1      38.488 -44.124 -29.138  1.00  0.00    -0.504 OA
ATOM     13  H   UNL     1      38.847 -44.736 -28.414  1.00  0.00     0.293 HD
ENDBRANCH   6  12
TORSDOF 3
ENDMDL
MODEL 2
REMARK VINA RESULT:    -4.261     15.498     17.364
REMARK INTER + INTRA:          -4.799
REMARK INTER:                  -4.754
REMARK INTRA:                  -0.044
REMARK UNBOUND:                -0.040
REMARK SMILES O=C([O-])c1ccc(O)c(O)c1
REMARK SMILES IDX 4 1 11 2 5 3 9 4 6 5 7 6 2 7 1 8 3 9 10 10 8 12
REMARK H PARENT 10 11 8 13
REMARK Flexibility Score: inf
ROOT
ATOM      1  C   UNL     1      48.284 -27.473 -31.411  1.00  0.00     0.001 A 
ATOM      2  C   UNL     1      48.749 -28.098 -32.583  1.00  0.00     0.060 A 
ATOM      3  C   UNL     1      49.186 -26.733 -30.628  1.00  0.00     0.014 A 
ATOM      4  C   UNL     1      50.094 -27.984 -32.965  1.00  0.00     0.158 A 
ATOM      5  C   UNL     1      50.525 -26.619 -31.009  1.00  0.00     0.051 A 
ATOM      6  C   UNL     1      50.984 -27.243 -32.177  1.00  0.00     0.157 A 
ENDROOT
BRANCH   1   7
ATOM      7  C   UNL     1      46.866 -27.592 -31.004  1.00  0.00     0.072 C 
ATOM      8  O   UNL     1      46.459 -27.060 -29.936  1.00  0.00    -0.545 OA
ATOM      9  O   UNL     1      45.963 -28.294 -31.794  1.00  0.00    -0.545 OA
ENDBRANCH   1   7
BRANCH   4  10
ATOM     10  O   UNL     1      50.552 -28.603 -34.126  1.00  0.00    -0.504 OA
ATOM     11  H   UNL     1      50.979 -28.074 -34.877  1.00  0.00     0.293 HD
ENDBRANCH   4  10
BRANCH   6  12
ATOM     12  O   UNL     1      52.319 -27.132 -32.560  1.00  0.00    -0.504 OA
ATOM     13  H   UNL     1      52.596 -26.579 -33.363  1.00  0.00     0.293 HD
ENDBRANCH   6  12
TORSDOF 3
ENDMDL
MODEL 3
REMARK VINA RESULT:    -4.142     14.757     16.195
REMARK INTER + INTRA:          -4.666
REMARK INTER:                  -4.624
REMARK INTRA:                  -0.042
REMARK UNBOUND:                -0.040
REMARK SMILES O=C([O-])c1ccc(O)c(O)c1
REMARK SMILES IDX 4 1 11 2 5 3 9 4 6 5 7 6 2 7 1 8 3 9 10 10 8 12
REMARK H PARENT 10 11 8 13
REMARK Flexibility Score: inf
ROOT
ATOM      1  C   UNL     1      49.535 -29.146 -30.634  1.00  0.00     0.001 A 
ATOM      2  C   UNL     1      49.486 -28.397 -31.824  1.00  0.00     0.060 A 
ATOM      3  C   UNL     1      48.331 -29.553 -30.034  1.00  0.00     0.014 A 
ATOM      4  C   UNL     1      48.254 -28.061 -32.405  1.00  0.00     0.158 A 
ATOM      5  C   UNL     1      47.104 -29.219 -30.614  1.00  0.00     0.051 A 
ATOM      6  C   UNL     1      47.061 -28.473 -31.799  1.00  0.00     0.157 A 
ENDROOT
BRANCH   1   7
ATOM      7  C   UNL     1      50.833 -29.501 -30.019  1.00  0.00     0.072 C 
ATOM      8  O   UNL     1      50.942 -29.604 -28.767  1.00  0.00    -0.545 OA
ATOM      9  O   UNL     1      51.951 -29.726 -30.813  1.00  0.00    -0.545 OA
ENDBRANCH   1   7
BRANCH   4  10
ATOM     10  O   UNL     1      48.209 -27.319 -33.584  1.00  0.00    -0.504 OA
ATOM     11  H   UNL     1      48.520 -27.706 -34.467  1.00  0.00     0.293 HD
ENDBRANCH   4  10
BRANCH   6  12
ATOM     12  O   UNL     1      45.839 -28.137 -32.378  1.00  0.00    -0.504 OA
ATOM     13  H   UNL     1      45.784 -27.758 -33.317  1.00  0.00     0.293 HD
ENDBRANCH   6  12
TORSDOF 3
ENDMDL
MODEL 4
REMARK VINA RESULT:    -4.115     14.446     16.353
REMARK INTER + INTRA:          -4.636
REMARK INTER:                  -4.595
REMARK INTRA:                  -0.041
REMARK UNBOUND:                -0.040
REMARK SMILES O=C([O-])c1ccc(O)c(O)c1
REMARK SMILES IDX 4 1 11 2 5 3 9 4 6 5 7 6 2 7 1 8 3 9 10 10 8 12
REMARK H PARENT 10 11 8 13
REMARK Flexibility Score: inf
ROOT
ATOM      1  C   UNL     1      48.069 -28.891 -31.257  1.00  0.00     0.001 A 
ATOM      2  C   UNL     1      48.307 -28.370 -32.542  1.00  0.00     0.060 A 
ATOM      3  C   UNL     1      49.161 -29.142 -30.409  1.00  0.00     0.014 A 
ATOM      4  C   UNL     1      49.616 -28.103 -32.971  1.00  0.00     0.158 A 
ATOM      5  C   UNL     1      50.464 -28.875 -30.837  1.00  0.00     0.051 A 
ATOM      6  C   UNL     1      50.697 -28.356 -32.118  1.00  0.00     0.157 A 
ENDROOT
BRANCH   1   7
ATOM      7  C   UNL     1      46.690 -29.174 -30.801  1.00  0.00     0.072 C 
ATOM      8  O   UNL     1      45.739 -28.413 -31.124  1.00  0.00    -0.545 OA
ATOM      9  O   UNL     1      46.424 -30.284 -30.008  1.00  0.00    -0.545 OA
ENDBRANCH   1   7
BRANCH   4  10
ATOM     10  O   UNL     1      49.849 -27.587 -34.245  1.00  0.00    -0.504 OA
ATOM     11  H   UNL     1      50.051 -28.190 -35.033  1.00  0.00     0.293 HD
ENDBRANCH   4  10
BRANCH   6  12
ATOM     12  O   UNL     1      51.995 -28.091 -32.548  1.00  0.00    -0.504 OA
ATOM     13  H   UNL     1      52.232 -28.067 -33.534  1.00  0.00     0.293 HD
ENDBRANCH   6  12
TORSDOF 3
ENDMDL
MODEL 5
REMARK VINA RESULT:    -4.011     14.396     16.266
REMARK INTER + INTRA:          -4.519
REMARK INTER:                  -4.482
REMARK INTRA:                  -0.037
REMARK UNBOUND:                -0.040
REMARK SMILES O=C([O-])c1ccc(O)c(O)c1
REMARK SMILES IDX 4 1 11 2 5 3 9 4 6 5 7 6 2 7 1 8 3 9 10 10 8 12
REMARK H PARENT 10 11 8 13
REMARK Flexibility Score: inf
ROOT
ATOM      1  C   UNL     1      49.618 -28.471 -31.593  1.00  0.00     0.001 A 
ATOM      2  C   UNL     1      48.486 -28.041 -32.309  1.00  0.00     0.060 A 
ATOM      3  C   UNL     1      49.439 -29.233 -30.426  1.00  0.00     0.014 A 
ATOM      4  C   UNL     1      47.196 -28.367 -31.865  1.00  0.00     0.158 A 
ATOM      5  C   UNL     1      48.154 -29.558 -29.984  1.00  0.00     0.051 A 
ATOM      6  C   UNL     1      47.029 -29.127 -30.701  1.00  0.00     0.157 A 
ENDROOT
BRANCH   1   7
ATOM      7  C   UNL     1      50.980 -28.129 -32.058  1.00  0.00     0.072 C 
ATOM      8  O   UNL     1      51.359 -26.927 -32.106  1.00  0.00    -0.545 OA
ATOM      9  O   UNL     1      51.863 -29.128 -32.451  1.00  0.00    -0.545 OA
ENDBRANCH   1   7
BRANCH   4  10
ATOM     10  O   UNL     1      46.076 -27.940 -32.576  1.00  0.00    -0.504 OA
ATOM     11  H   UNL     1      45.748 -26.983 -32.524  1.00  0.00     0.293 HD
ENDBRANCH   4  10
BRANCH   6  12
ATOM     12  O   UNL     1      45.746 -29.449 -30.263  1.00  0.00    -0.504 OA
ATOM     13  H   UNL     1      45.002 -29.668 -30.916  1.00  0.00     0.293 HD
ENDBRANCH   6  12
TORSDOF 3
ENDMDL
MODEL 6
REMARK VINA RESULT:    -4.007     14.643     16.588
REMARK INTER + INTRA:          -4.515
REMARK INTER:                  -4.472
REMARK INTRA:                  -0.043
REMARK UNBOUND:                -0.040
REMARK SMILES O=C([O-])c1ccc(O)c(O)c1
REMARK SMILES IDX 4 1 11 2 5 3 9 4 6 5 7 6 2 7 1 8 3 9 10 10 8 12
REMARK H PARENT 10 11 8 13
REMARK Flexibility Score: inf
ROOT
ATOM      1  C   UNL     1      48.229 -28.749 -31.570  1.00  0.00     0.001 A 
ATOM      2  C   UNL     1      49.271 -29.097 -30.691  1.00  0.00     0.060 A 
ATOM      3  C   UNL     1      48.544 -28.125 -32.790  1.00  0.00     0.014 A 
ATOM      4  C   UNL     1      50.606 -28.826 -31.026  1.00  0.00     0.158 A 
ATOM      5  C   UNL     1      49.874 -27.857 -33.123  1.00  0.00     0.051 A 
ATOM      6  C   UNL     1      50.908 -28.205 -32.245  1.00  0.00     0.157 A 
ENDROOT
BRANCH   1   7
ATOM      7  C   UNL     1      46.819 -29.032 -31.220  1.00  0.00     0.072 C 
ATOM      8  O   UNL     1      45.881 -28.405 -31.781  1.00  0.00    -0.545 OA
ATOM      9  O   UNL     1      46.510 -29.995 -30.266  1.00  0.00    -0.545 OA
ENDBRANCH   1   7
BRANCH   4  10
ATOM     10  O   UNL     1      51.636 -29.172 -30.153  1.00  0.00    -0.504 OA
ATOM     11  H   UNL     1      51.488 -29.227 -29.153  1.00  0.00     0.293 HD
ENDBRANCH   4  10
BRANCH   6  12
ATOM     12  O   UNL     1      52.235 -27.937 -32.573  1.00  0.00    -0.504 OA
ATOM     13  H   UNL     1      52.697 -27.087 -32.267  1.00  0.00     0.293 HD
ENDBRANCH   6  12
TORSDOF 3
ENDMDL
MODEL 7
REMARK VINA RESULT:    -3.933     17.046     18.053
REMARK INTER + INTRA:          -4.432
REMARK INTER:                  -4.392
REMARK INTRA:                  -0.040
REMARK UNBOUND:                -0.040
REMARK SMILES O=C([O-])c1ccc(O)c(O)c1
REMARK SMILES IDX 4 1 11 2 5 3 9 4 6 5 7 6 2 7 1 8 3 9 10 10 8 12
REMARK H PARENT 10 11 8 13
REMARK Flexibility Score: inf
ROOT
ATOM      1  C   UNL     1      49.280 -26.513 -30.693  1.00  0.00     0.001 A 
ATOM      2  C   UNL     1      50.640 -26.546 -31.051  1.00  0.00     0.060 A 
ATOM      3  C   UNL     1      48.349 -27.207 -31.485  1.00  0.00     0.014 A 
ATOM      4  C   UNL     1      51.062 -27.261 -32.182  1.00  0.00     0.158 A 
ATOM      5  C   UNL     1      48.770 -27.920 -32.611  1.00  0.00     0.051 A 
ATOM      6  C   UNL     1      50.125 -27.949 -32.963  1.00  0.00     0.157 A 
ENDROOT
BRANCH   1   7
ATOM      7  C   UNL     1      48.831 -25.760 -29.501  1.00  0.00     0.072 C 
ATOM      8  O   UNL     1      47.956 -26.240 -28.732  1.00  0.00    -0.545 OA
ATOM      9  O   UNL     1      49.368 -24.511 -29.214  1.00  0.00    -0.545 OA
ENDBRANCH   1   7
BRANCH   4  10
ATOM     10  O   UNL     1      52.410 -27.292 -32.535  1.00  0.00    -0.504 OA
ATOM     11  H   UNL     1      53.027 -26.513 -32.339  1.00  0.00     0.293 HD
ENDBRANCH   4  10
BRANCH   6  12
ATOM     12  O   UNL     1      50.548 -28.658 -34.086  1.00  0.00    -0.504 OA
ATOM     13  H   UNL     1      51.214 -29.419 -34.013  1.00  0.00     0.293 HD
ENDBRANCH   6  12
TORSDOF 3
ENDMDL
MODEL 8
REMARK VINA RESULT:    -3.928     15.759     17.108
REMARK INTER + INTRA:          -4.427
REMARK INTER:                  -4.391
REMARK INTRA:                  -0.036
REMARK UNBOUND:                -0.040
REMARK SMILES O=C([O-])c1ccc(O)c(O)c1
REMARK SMILES IDX 4 1 11 2 5 3 9 4 6 5 7 6 2 7 1 8 3 9 10 10 8 12
REMARK H PARENT 10 11 8 13
REMARK Flexibility Score: inf
ROOT
ATOM      1  C   UNL     1      49.386 -28.487 -31.501  1.00  0.00     0.001 A 
ATOM      2  C   UNL     1      50.463 -28.208 -32.362  1.00  0.00     0.060 A 
ATOM      3  C   UNL     1      49.611 -29.272 -30.357  1.00  0.00     0.014 A 
ATOM      4  C   UNL     1      51.745 -28.704 -32.082  1.00  0.00     0.158 A 
ATOM      5  C   UNL     1      50.889 -29.765 -30.079  1.00  0.00     0.051 A 
ATOM      6  C   UNL     1      51.959 -29.484 -30.939  1.00  0.00     0.157 A 
ENDROOT
BRANCH   1   7
ATOM      7  C   UNL     1      48.032 -27.966 -31.792  1.00  0.00     0.072 C 
ATOM      8  O   UNL     1      47.743 -26.762 -31.555  1.00  0.00    -0.545 OA
ATOM      9  O   UNL     1      47.057 -28.797 -32.332  1.00  0.00    -0.545 OA
ENDBRANCH   1   7
BRANCH   4  10
ATOM     10  O   UNL     1      52.810 -28.426 -32.937  1.00  0.00    -0.504 OA
ATOM     11  H   UNL     1      53.190 -29.129 -33.559  1.00  0.00     0.293 HD
ENDBRANCH   4  10
BRANCH   6  12
ATOM     12  O   UNL     1      53.233 -29.976 -30.666  1.00  0.00    -0.504 OA
ATOM     13  H   UNL     1      53.630 -30.744 -31.196  1.00  0.00     0.293 HD
ENDBRANCH   6  12
TORSDOF 3
ENDMDL
MODEL 9
REMARK VINA RESULT:    -3.920     14.257     15.568
REMARK INTER + INTRA:          -4.417
REMARK INTER:                  -4.376
REMARK INTRA:                  -0.041
REMARK UNBOUND:                -0.040
REMARK SMILES O=C([O-])c1ccc(O)c(O)c1
REMARK SMILES IDX 4 1 11 2 5 3 9 4 6 5 7 6 2 7 1 8 3 9 10 10 8 12
REMARK H PARENT 10 11 8 13
REMARK Flexibility Score: inf
ROOT
ATOM      1  C   UNL     1      48.293 -29.564 -30.017  1.00  0.00     0.001 A 
ATOM      2  C   UNL     1      47.068 -29.223 -30.619  1.00  0.00     0.060 A 
ATOM      3  C   UNL     1      49.490 -29.145 -30.622  1.00  0.00     0.014 A 
ATOM      4  C   UNL     1      47.041 -28.475 -31.805  1.00  0.00     0.158 A 
ATOM      5  C   UNL     1      49.463 -28.399 -31.803  1.00  0.00     0.051 A 
ATOM      6  C   UNL     1      48.240 -28.062 -32.398  1.00  0.00     0.157 A 
ENDROOT
BRANCH   1   7
ATOM      7  C   UNL     1      48.326 -30.354 -28.766  1.00  0.00     0.072 C 
ATOM      8  O   UNL     1      47.447 -30.186 -27.879  1.00  0.00    -0.545 OA
ATOM      9  O   UNL     1      49.328 -31.292 -28.551  1.00  0.00    -0.545 OA
ENDBRANCH   1   7
BRANCH   4  10
ATOM     10  O   UNL     1      45.826 -28.138 -32.399  1.00  0.00    -0.504 OA
ATOM     11  H   UNL     1      45.257 -28.829 -32.873  1.00  0.00     0.293 HD
ENDBRANCH   4  10
BRANCH   6  12
ATOM     12  O   UNL     1      48.209 -27.319 -33.577  1.00  0.00    -0.504 OA
ATOM     13  H   UNL     1      47.652 -27.610 -34.372  1.00  0.00     0.293 HD
ENDBRANCH   6  12
TORSDOF 3
ENDMDL
