MODEL 1
REMARK VINA RESULT:    -4.220      0.000      0.000
REMARK INTER + INTRA:          -5.379
REMARK INTER:                  -5.207
REMARK INTRA:                  -0.173
REMARK UNBOUND:                -0.173
REMARK SMILES CCCCCC(=O)[O-]
REMARK SMILES IDX 4 1 5 2 6 3 7 4 8 5 3 6 2 7 1 8
REMARK H PARENT
REMARK Flexibility Score: inf
ROOT
ATOM      1  C   UNL     1      15.126   1.509  12.823  1.00  0.00     0.006 C 
ENDROOT
BRANCH   1   2
ATOM      2  C   UNL     1      14.438   0.526  13.775  1.00  0.00     0.053 C 
BRANCH   2   3
ATOM      3  C   UNL     1      15.443  -0.130  14.667  1.00  0.00     0.041 C 
ATOM      4  O   UNL     1      15.862   0.464  15.695  1.00  0.00    -0.550 OA
ATOM      5  O   UNL     1      15.882  -1.419  14.390  1.00  0.00    -0.550 OA
ENDBRANCH   2   3
ENDBRANCH   1   2
BRANCH   1   6
ATOM      6  C   UNL     1      15.470   0.835  11.489  1.00  0.00     0.000 C 
BRANCH   6   7
ATOM      7  C   UNL     1      16.982   0.623  11.354  1.00  0.00    -0.003 C 
ATOM      8  C   UNL     1      17.292  -0.681  10.624  1.00  0.00     0.004 C 
ENDBRANCH   6   7
ENDBRANCH   1   6
TORSDOF 4
ENDMDL
MODEL 2
REMARK VINA RESULT:    -4.201      0.175      1.155
REMARK INTER + INTRA:          -5.357
REMARK INTER:                  -5.218
REMARK INTRA:                  -0.138
REMARK UNBOUND:                -0.173
REMARK SMILES CCCCCC(=O)[O-]
REMARK SMILES IDX 4 1 5 2 6 3 7 4 8 5 3 6 2 7 1 8
REMARK H PARENT
REMARK Flexibility Score: inf
ROOT
ATOM      1  C   UNL     1      15.218   1.356  12.861  1.00  0.00     0.006 C 
ENDROOT
BRANCH   1   2
ATOM      2  C   UNL     1      14.509   0.279  13.687  1.00  0.00     0.053 C 
BRANCH   2   3
ATOM      3  C   UNL     1      15.453  -0.330  14.675  1.00  0.00     0.041 C 
ATOM      4  O   UNL     1      15.801  -1.535  14.560  1.00  0.00    -0.550 OA
ATOM      5  O   UNL     1      15.989   0.447  15.695  1.00  0.00    -0.550 OA
ENDBRANCH   2   3
ENDBRANCH   1   2
BRANCH   1   6
ATOM      6  C   UNL     1      15.521   0.852  11.445  1.00  0.00     0.000 C 
BRANCH   6   7
ATOM      7  C   UNL     1      17.030   0.673  11.235  1.00  0.00    -0.003 C 
ATOM      8  C   UNL     1      17.337  -0.656  10.549  1.00  0.00     0.004 C 
ENDBRANCH   6   7
ENDBRANCH   1   6
TORSDOF 4
ENDMDL
MODEL 3
REMARK VINA RESULT:    -4.174     13.793     15.467
REMARK INTER + INTRA:          -5.322
REMARK INTER:                  -5.136
REMARK INTRA:                  -0.186
REMARK UNBOUND:                -0.173
REMARK SMILES CCCCCC(=O)[O-]
REMARK SMILES IDX 4 1 5 2 6 3 7 4 8 5 3 6 2 7 1 8
REMARK H PARENT
REMARK Flexibility Score: inf
ROOT
ATOM      1  C   UNL     1      28.455  -3.735   5.732  1.00  0.00     0.006 C 
ENDROOT
BRANCH   1   2
ATOM      2  C   UNL     1      29.472  -4.738   6.285  1.00  0.00     0.053 C 
BRANCH   2   3
ATOM      3  C   UNL     1      30.664  -4.024   6.839  1.00  0.00     0.041 C 
ATOM      4  O   UNL     1      31.735  -3.972   6.178  1.00  0.00    -0.550 OA
ATOM      5  O   UNL     1      30.579  -3.374   8.063  1.00  0.00    -0.550 OA
ENDBRANCH   2   3
ENDBRANCH   1   2
BRANCH   1   6
ATOM      6  C   UNL     1      27.192  -3.695   6.601  1.00  0.00     0.000 C 
BRANCH   6   7
ATOM      7  C   UNL     1      26.739  -2.251   6.847  1.00  0.00    -0.003 C 
ATOM      8  C   UNL     1      27.535  -1.610   7.980  1.00  0.00     0.004 C 
ENDBRANCH   6   7
ENDBRANCH   1   6
TORSDOF 4
ENDMDL
MODEL 4
REMARK VINA RESULT:    -4.144      2.094      3.768
REMARK INTER + INTRA:          -5.286
REMARK INTER:                  -5.086
REMARK INTRA:                  -0.201
REMARK UNBOUND:                -0.173
REMARK SMILES CCCCCC(=O)[O-]
REMARK SMILES IDX 4 1 5 2 6 3 7 4 8 5 3 6 2 7 1 8
REMARK H PARENT
REMARK Flexibility Score: inf
ROOT
ATOM      1  C   UNL     1      15.476   0.901  11.512  1.00  0.00     0.006 C 
ENDROOT
BRANCH   1   2
ATOM      2  C   UNL     1      16.991   0.797  11.312  1.00  0.00     0.053 C 
BRANCH   2   3
ATOM      3  C   UNL     1      17.377  -0.603  10.953  1.00  0.00     0.041 C 
ATOM      4  O   UNL     1      17.454  -1.488  11.845  1.00  0.00    -0.550 OA
ATOM      5  O   UNL     1      17.603  -0.943   9.625  1.00  0.00    -0.550 OA
ENDBRANCH   2   3
ENDBRANCH   1   2
BRANCH   1   6
ATOM      6  C   UNL     1      15.142   1.491  12.888  1.00  0.00     0.000 C 
BRANCH   6   7
ATOM      7  C   UNL     1      14.440   0.455  13.774  1.00  0.00    -0.003 C 
ATOM      8  C   UNL     1      15.452  -0.367  14.568  1.00  0.00     0.004 C 
ENDBRANCH   6   7
ENDBRANCH   1   6
TORSDOF 4
ENDMDL
MODEL 5
REMARK VINA RESULT:    -4.129     13.855     15.729
REMARK INTER + INTRA:          -5.267
REMARK INTER:                  -5.064
REMARK INTRA:                  -0.203
REMARK UNBOUND:                -0.173
REMARK SMILES CCCCCC(=O)[O-]
REMARK SMILES IDX 4 1 5 2 6 3 7 4 8 5 3 6 2 7 1 8
REMARK H PARENT
REMARK Flexibility Score: inf
ROOT
ATOM      1  C   UNL     1      29.420  -4.731   6.332  1.00  0.00     0.006 C 
ENDROOT
BRANCH   1   2
ATOM      2  C   UNL     1      30.711  -3.915   6.446  1.00  0.00     0.053 C 
BRANCH   2   3
ATOM      3  C   UNL     1      31.065  -3.694   7.882  1.00  0.00     0.041 C 
ATOM      4  O   UNL     1      30.470  -2.810   8.553  1.00  0.00    -0.550 OA
ATOM      5  O   UNL     1      32.019  -4.497   8.495  1.00  0.00    -0.550 OA
ENDBRANCH   2   3
ENDBRANCH   1   2
BRANCH   1   6
ATOM      6  C   UNL     1      28.293  -3.895   5.713  1.00  0.00     0.000 C 
BRANCH   6   7
ATOM      7  C   UNL     1      27.092  -3.805   6.661  1.00  0.00    -0.003 C 
ATOM      8  C   UNL     1      27.054  -2.456   7.375  1.00  0.00     0.004 C 
ENDBRANCH   6   7
ENDBRANCH   1   6
TORSDOF 4
ENDMDL
MODEL 6
REMARK VINA RESULT:    -4.082     13.619     15.429
REMARK INTER + INTRA:          -5.209
REMARK INTER:                  -4.978
REMARK INTRA:                  -0.232
REMARK UNBOUND:                -0.173
REMARK SMILES CCCCCC(=O)[O-]
REMARK SMILES IDX 4 1 5 2 6 3 7 4 8 5 3 6 2 7 1 8
REMARK H PARENT
REMARK Flexibility Score: inf
ROOT
ATOM      1  C   UNL     1      29.550  -4.378   6.309  1.00  0.00     0.006 C 
ENDROOT
BRANCH   1   2
ATOM      2  C   UNL     1      30.562  -3.230   6.250  1.00  0.00     0.053 C 
BRANCH   2   3
ATOM      3  C   UNL     1      30.492  -2.405   7.496  1.00  0.00     0.041 C 
ATOM      4  O   UNL     1      30.967  -2.846   8.576  1.00  0.00    -0.550 OA
ATOM      5  O   UNL     1      29.946  -1.128   7.455  1.00  0.00    -0.550 OA
ENDBRANCH   2   3
ENDBRANCH   1   2
BRANCH   1   6
ATOM      6  C   UNL     1      28.232  -3.985   5.630  1.00  0.00     0.000 C 
BRANCH   6   7
ATOM      7  C   UNL     1      27.112  -3.813   6.663  1.00  0.00    -0.003 C 
ATOM      8  C   UNL     1      26.588  -2.380   6.673  1.00  0.00     0.004 C 
ENDBRANCH   6   7
ENDBRANCH   1   6
TORSDOF 4
ENDMDL
MODEL 7
REMARK VINA RESULT:    -4.042      2.734      3.462
REMARK INTER + INTRA:          -5.160
REMARK INTER:                  -5.110
REMARK INTRA:                  -0.050
REMARK UNBOUND:                -0.173
REMARK SMILES CCCCCC(=O)[O-]
REMARK SMILES IDX 4 1 5 2 6 3 7 4 8 5 3 6 2 7 1 8
REMARK H PARENT
REMARK Flexibility Score: inf
ROOT
ATOM      1  C   UNL     1      14.552   1.469  15.417  1.00  0.00     0.006 C 
ENDROOT
BRANCH   1   2
ATOM      2  C   UNL     1      13.121   1.661  15.929  1.00  0.00     0.053 C 
BRANCH   2   3
ATOM      3  C   UNL     1      13.088   1.603  17.424  1.00  0.00     0.041 C 
ATOM      4  O   UNL     1      12.973   2.661  18.097  1.00  0.00    -0.550 OA
ATOM      5  O   UNL     1      13.134   0.376  18.074  1.00  0.00    -0.550 OA
ENDBRANCH   2   3
ENDBRANCH   1   2
BRANCH   1   6
ATOM      6  C   UNL     1      14.557   0.823  14.027  1.00  0.00     0.000 C 
BRANCH   6   7
ATOM      7  C   UNL     1      15.153   1.772  12.981  1.00  0.00    -0.003 C 
ATOM      8  C   UNL     1      15.548   1.017  11.714  1.00  0.00     0.004 C 
ENDBRANCH   6   7
ENDBRANCH   1   6
TORSDOF 4
ENDMDL
MODEL 8
REMARK VINA RESULT:    -4.012      1.697      2.200
REMARK INTER + INTRA:          -5.122
REMARK INTER:                  -4.983
REMARK INTRA:                  -0.140
REMARK UNBOUND:                -0.173
REMARK SMILES CCCCCC(=O)[O-]
REMARK SMILES IDX 4 1 5 2 6 3 7 4 8 5 3 6 2 7 1 8
REMARK H PARENT
REMARK Flexibility Score: inf
ROOT
ATOM      1  C   UNL     1      14.418   0.249  13.606  1.00  0.00     0.006 C 
ENDROOT
BRANCH   1   2
ATOM      2  C   UNL     1      14.881   0.147  15.062  1.00  0.00     0.053 C 
BRANCH   2   3
ATOM      3  C   UNL     1      14.359   1.301  15.859  1.00  0.00     0.041 C 
ATOM      4  O   UNL     1      15.133   1.955  16.607  1.00  0.00    -0.550 OA
ATOM      5  O   UNL     1      13.030   1.686  15.738  1.00  0.00    -0.550 OA
ENDBRANCH   2   3
ENDBRANCH   1   2
BRANCH   1   6
ATOM      6  C   UNL     1      15.194   1.340  12.857  1.00  0.00     0.000 C 
BRANCH   6   7
ATOM      7  C   UNL     1      15.545   0.888  11.435  1.00  0.00    -0.003 C 
ATOM      8  C   UNL     1      17.000   0.437  11.343  1.00  0.00     0.004 C 
ENDBRANCH   6   7
ENDBRANCH   1   6
TORSDOF 4
ENDMDL
MODEL 9
REMARK VINA RESULT:    -4.007     12.991     14.809
REMARK INTER + INTRA:          -5.117
REMARK INTER:                  -4.956
REMARK INTRA:                  -0.161
REMARK UNBOUND:                -0.173
REMARK SMILES CCCCCC(=O)[O-]
REMARK SMILES IDX 4 1 5 2 6 3 7 4 8 5 3 6 2 7 1 8
REMARK H PARENT
REMARK Flexibility Score: inf
ROOT
ATOM      1  C   UNL     1      28.759  -3.766   5.902  1.00  0.00     0.006 C 
ENDROOT
BRANCH   1   2
ATOM      2  C   UNL     1      27.360  -3.944   6.499  1.00  0.00     0.053 C 
BRANCH   2   3
ATOM      3  C   UNL     1      26.778  -2.619   6.875  1.00  0.00     0.041 C 
ATOM      4  O   UNL     1      25.835  -2.126   6.201  1.00  0.00    -0.550 OA
ATOM      5  O   UNL     1      27.244  -1.949   7.999  1.00  0.00    -0.550 OA
ENDBRANCH   2   3
ENDBRANCH   1   2
BRANCH   1   6
ATOM      6  C   UNL     1      29.726  -4.828   6.438  1.00  0.00     0.000 C 
BRANCH   6   7
ATOM      7  C   UNL     1      30.999  -4.182   6.997  1.00  0.00    -0.003 C 
ATOM      8  C   UNL     1      30.666  -2.980   7.876  1.00  0.00     0.004 C 
ENDBRANCH   6   7
ENDBRANCH   1   6
TORSDOF 4
ENDMDL
