MODEL 1
REMARK VINA RESULT:    -4.340      0.000      0.000
REMARK INTER + INTRA:          -5.874
REMARK INTER:                  -6.370
REMARK INTRA:                   0.496
REMARK UNBOUND:                 0.496
REMARK SMILES C=C1CC=CC(C)(C)CC=C(C)CCC1
REMARK SMILES IDX 2 1 1 2 15 3 14 4 13 5 11 6 12 7 10 8 3 10 4 11 5 12 6 13
REMARK SMILES IDX 7 14 8 15 9 16
REMARK H PARENT
REMARK Flexibility Score: 60.00
ROOT
ATOM      1  C   UNL     1     111.466 106.559 128.202  1.00  0.00    -0.074 C 
ATOM      2  C   UNL     1     111.963 107.496 129.025  1.00  0.00     0.008 C 
ENDROOT
BRANCH   1   3
ATOM      3  C   UNL     1     111.351 105.122 128.670  1.00  0.00     0.031 C 
BRANCH   3   4
ATOM      4  C   UNL     1     110.048 104.899 129.475  1.00  0.00     0.009 C 
BRANCH   4   5
ATOM      5  C   UNL     1     108.724 105.205 128.733  1.00  0.00     0.030 C 
BRANCH   5   6
ATOM      6  C   UNL     1     108.246 104.148 127.745  1.00  0.00    -0.077 C 
ATOM      7  C   UNL     1     107.968 102.756 128.258  1.00  0.00     0.039 C 
ATOM      8  C   UNL     1     108.053 104.379 126.424  1.00  0.00    -0.027 CG0
ATOM      9  G   UNL     1     108.314 105.688 125.703  1.00  0.00     0.000 G0
ENDBRANCH   5   6
ENDBRANCH   4   5
ENDBRANCH   3   4
ENDBRANCH   1   3
BRANCH   1  10
ATOM     10  C   UNL     1     111.085 106.914 126.778  1.00  0.00     0.057 C 
BRANCH  10  11
ATOM     11  C   UNL     1     111.467 105.805 125.830  1.00  0.00    -0.026 C 
ATOM     12  C   UNL     1     110.703 105.224 124.877  1.00  0.00    -0.024 C 
BRANCH  12  13
ATOM     13  C   UNL     1     109.258 105.541 124.457  1.00  0.00    -0.014 C 
ATOM     14  C   UNL     1     108.724 104.475 123.472  1.00  0.00     0.016 C 
ATOM     15  C   UNL     1     109.275 106.882 123.675  1.00  0.00     0.016 C 
BRANCH  13  16
ATOM     16  C   UNL     1     108.297 105.686 125.681  1.00  0.00     0.038 CG0
ATOM     17  G   UNL     1     108.063 104.378 126.413  1.00  0.00     0.000 G0
ENDBRANCH  13  16
ENDBRANCH  12  13
ENDBRANCH  10  11
ENDBRANCH   1  10
TORSDOF 0
ENDMDL
MODEL 2
REMARK VINA RESULT:    -4.338      4.587      5.566
REMARK INTER + INTRA:          -5.871
REMARK INTER:                  -6.365
REMARK INTRA:                   0.494
REMARK UNBOUND:                 0.496
REMARK SMILES C=C1CC=CC(C)(C)CC=C(C)CCC1
REMARK SMILES IDX 2 1 1 2 15 3 14 4 13 5 11 6 12 7 10 8 3 10 4 11 5 12 6 13
REMARK SMILES IDX 7 14 8 15 9 16
REMARK H PARENT
REMARK Flexibility Score: 60.00
ROOT
ATOM      1  C   UNL     1     105.722 111.348 127.852  1.00  0.00    -0.074 C 
ATOM      2  C   UNL     1     104.721 111.306 128.747  1.00  0.00     0.008 C 
ENDROOT
BRANCH   1   3
ATOM      3  C   UNL     1     107.160 111.264 128.319  1.00  0.00     0.031 C 
BRANCH   3   4
ATOM      4  C   UNL     1     107.321 110.219 129.450  1.00  0.00     0.009 C 
BRANCH   4   5
ATOM      5  C   UNL     1     107.159 108.735 129.039  1.00  0.00     0.030 C 
BRANCH   5   6
ATOM      6  C   UNL     1     108.158 108.206 128.018  1.00  0.00    -0.077 C 
ATOM      7  C   UNL     1     109.569 107.921 128.472  1.00  0.00     0.039 C 
ATOM      8  C   UNL     1     107.859 107.974 126.717  1.00  0.00    -0.027 CG0
ATOM      9  G   UNL     1     106.521 108.233 126.052  1.00  0.00     0.000 G0
ENDBRANCH   5   6
ENDBRANCH   4   5
ENDBRANCH   3   4
ENDBRANCH   1   3
BRANCH   1  10
ATOM     10  C   UNL     1     105.425 111.555 126.380  1.00  0.00     0.057 C 
BRANCH  10  11
ATOM     11  C   UNL     1     106.688 111.469 125.562  1.00  0.00    -0.026 C 
ATOM     12  C   UNL     1     107.170 110.404 124.883  1.00  0.00    -0.024 C 
BRANCH  12  13
ATOM     13  C   UNL     1     106.565 109.001 124.712  1.00  0.00    -0.014 C 
ATOM     14  C   UNL     1     107.348 108.188 123.654  1.00  0.00     0.016 C 
ATOM     15  C   UNL     1     105.128 109.169 124.150  1.00  0.00     0.016 C 
BRANCH  13  16
ATOM     16  C   UNL     1     106.488 108.213 126.060  1.00  0.00     0.038 CG0
ATOM     17  G   UNL     1     107.846 107.994 126.700  1.00  0.00     0.000 G0
ENDBRANCH  13  16
ENDBRANCH  12  13
ENDBRANCH  10  11
ENDBRANCH   1  10
TORSDOF 0
ENDMDL
MODEL 3
REMARK VINA RESULT:    -4.167      4.553      5.543
REMARK INTER + INTRA:          -5.619
REMARK INTER:                  -6.024
REMARK INTRA:                   0.404
REMARK UNBOUND:                 0.496
REMARK SMILES C=C1CC=CC(C)(C)CC=C(C)CCC1
REMARK SMILES IDX 2 1 1 2 15 3 14 4 13 5 11 6 12 7 10 8 3 10 4 11 5 12 6 13
REMARK SMILES IDX 7 14 8 15 9 16
REMARK H PARENT
REMARK Flexibility Score: 60.00
ROOT
ATOM      1  C   UNL     1     106.574 101.379 127.498  1.00  0.00    -0.074 C 
ATOM      2  C   UNL     1     107.612 101.131 128.313  1.00  0.00     0.008 C 
ENDROOT
BRANCH   1   3
ATOM      3  C   UNL     1     105.160 101.356 128.042  1.00  0.00     0.031 C 
BRANCH   3   4
ATOM      4  C   UNL     1     104.966 102.429 129.141  1.00  0.00     0.009 C 
BRANCH   4   5
ATOM      5  C   UNL     1     105.021 103.905 128.675  1.00  0.00     0.030 C 
BRANCH   5   6
ATOM      6  C   UNL     1     103.875 104.372 127.786  1.00  0.00    -0.077 C 
ATOM      7  C   UNL     1     102.499 104.500 128.391  1.00  0.00     0.039 C 
ATOM      8  C   UNL     1     104.014 104.684 126.475  1.00  0.00    -0.027 CG0
ATOM      9  G   UNL     1     105.295 104.583 125.667  1.00  0.00     0.000 G0
ENDBRANCH   5   6
ENDBRANCH   4   5
ENDBRANCH   3   4
ENDBRANCH   1   3
BRANCH   1  10
ATOM     10  C   UNL     1     106.801 101.611 126.017  1.00  0.00     0.057 C 
BRANCH  10  11
ATOM     11  C   UNL     1     105.527 101.398 125.241  1.00  0.00    -0.026 C 
ATOM     12  C   UNL     1     104.813 102.312 124.544  1.00  0.00    -0.024 C 
BRANCH  12  13
ATOM     13  C   UNL     1     105.104 103.803 124.308  1.00  0.00    -0.014 C 
ATOM     14  C   UNL     1     104.000 104.449 123.439  1.00  0.00     0.016 C 
ATOM     15  C   UNL     1     106.416 103.906 123.486  1.00  0.00     0.016 C 
BRANCH  13  16
ATOM     16  C   UNL     1     105.284 104.597 125.643  1.00  0.00     0.038 CG0
ATOM     17  G   UNL     1     104.010 104.678 126.464  1.00  0.00     0.000 G0
ENDBRANCH  13  16
ENDBRANCH  12  13
ENDBRANCH  10  11
ENDBRANCH   1  10
TORSDOF 0
ENDMDL
MODEL 4
REMARK VINA RESULT:    -3.996      5.836      7.984
REMARK INTER + INTRA:          -5.369
REMARK INTER:                  -6.040
REMARK INTRA:                   0.672
REMARK UNBOUND:                 0.496
REMARK SMILES C=C1CC=CC(C)(C)CC=C(C)CCC1
REMARK SMILES IDX 2 1 1 2 15 3 14 4 13 5 11 6 12 7 10 8 3 10 4 11 5 12 6 13
REMARK SMILES IDX 7 14 8 15 9 16
REMARK H PARENT
REMARK Flexibility Score: 60.00
ROOT
ATOM      1  C   UNL     1     102.499 107.373 124.460  1.00  0.00    -0.074 C 
ATOM      2  C   UNL     1     102.441 106.729 123.283  1.00  0.00     0.008 C 
ENDROOT
BRANCH   1   3
ATOM      3  C   UNL     1     103.722 108.193 124.817  1.00  0.00     0.031 C 
BRANCH   3   4
ATOM      4  C   UNL     1     104.018 108.122 126.336  1.00  0.00     0.009 C 
BRANCH   4   5
ATOM      5  C   UNL     1     105.127 107.133 126.771  1.00  0.00     0.030 C 
BRANCH   5   6
ATOM      6  C   UNL     1     104.787 105.652 126.667  1.00  0.00    -0.077 C 
ATOM      7  C   UNL     1     105.474 104.828 125.605  1.00  0.00     0.039 C 
ATOM      8  C   UNL     1     103.901 105.021 127.473  1.00  0.00    -0.027 CG0
ATOM      9  G   UNL     1     103.075 105.669 128.569  1.00  0.00     0.000 G0
ENDBRANCH   5   6
ENDBRANCH   4   5
ENDBRANCH   3   4
ENDBRANCH   1   3
BRANCH   1  10
ATOM     10  C   UNL     1     101.377 107.226 125.470  1.00  0.00     0.057 C 
BRANCH  10  11
ATOM     11  C   UNL     1     101.094 105.772 125.747  1.00  0.00    -0.026 C 
ATOM     12  C   UNL     1     101.174 105.118 126.929  1.00  0.00    -0.024 C 
BRANCH  12  13
ATOM     13  C   UNL     1     101.532 105.662 128.322  1.00  0.00    -0.014 C 
ATOM     14  C   UNL     1     100.791 104.875 129.428  1.00  0.00     0.016 C 
ATOM     15  C   UNL     1     101.014 107.122 128.409  1.00  0.00     0.016 C 
BRANCH  13  16
ATOM     16  C   UNL     1     103.073 105.660 128.588  1.00  0.00     0.038 CG0
ATOM     17  G   UNL     1     103.870 105.017 127.468  1.00  0.00     0.000 G0
ENDBRANCH  13  16
ENDBRANCH  12  13
ENDBRANCH  10  11
ENDBRANCH   1  10
TORSDOF 0
ENDMDL
MODEL 5
REMARK VINA RESULT:    -3.983      5.887      7.564
REMARK INTER + INTRA:          -5.350
REMARK INTER:                  -6.222
REMARK INTRA:                   0.872
REMARK UNBOUND:                 0.496
REMARK SMILES C=C1CC=CC(C)(C)CC=C(C)CCC1
REMARK SMILES IDX 2 1 1 2 15 3 14 4 13 5 11 6 12 7 10 8 3 10 4 11 5 12 6 13
REMARK SMILES IDX 7 14 8 15 9 16
REMARK H PARENT
REMARK Flexibility Score: 60.00
ROOT
ATOM      1  C   UNL     1     101.223 105.674 128.458  1.00  0.00    -0.074 C 
ATOM      2  C   UNL     1     100.955 104.861 129.493  1.00  0.00     0.008 C 
ENDROOT
BRANCH   1   3
ATOM      3  C   UNL     1     101.367 107.165 128.682  1.00  0.00     0.031 C 
BRANCH   3   4
ATOM      4  C   UNL     1     102.731 107.502 129.334  1.00  0.00     0.009 C 
BRANCH   4   5
ATOM      5  C   UNL     1     103.826 108.050 128.386  1.00  0.00     0.030 C 
BRANCH   5   6
ATOM      6  C   UNL     1     104.707 107.011 127.703  1.00  0.00    -0.077 C 
ATOM      7  C   UNL     1     105.659 106.205 128.552  1.00  0.00     0.039 C 
ATOM      8  C   UNL     1     104.690 106.763 126.372  1.00  0.00    -0.027 CG0
ATOM      9  G   UNL     1     103.844 107.487 125.341  1.00  0.00     0.000 G0
ENDBRANCH   5   6
ENDBRANCH   4   5
ENDBRANCH   3   4
ENDBRANCH   1   3
BRANCH   1  10
ATOM     10  C   UNL     1     101.308 105.118 127.050  1.00  0.00     0.057 C 
BRANCH  10  11
ATOM     11  C   UNL     1     100.755 106.103 126.052  1.00  0.00    -0.026 C 
ATOM     12  C   UNL     1     101.403 106.706 125.030  1.00  0.00    -0.024 C 
BRANCH  12  13
ATOM     13  C   UNL     1     102.860 106.541 124.565  1.00  0.00    -0.014 C 
ATOM     14  C   UNL     1     102.978 106.750 123.037  1.00  0.00     0.016 C 
ATOM     15  C   UNL     1     103.280 105.072 124.834  1.00  0.00     0.016 C 
BRANCH  13  16
ATOM     16  C   UNL     1     103.842 107.491 125.325  1.00  0.00     0.038 CG0
ATOM     17  G   UNL     1     104.679 106.773 126.366  1.00  0.00     0.000 G0
ENDBRANCH  13  16
ENDBRANCH  12  13
ENDBRANCH  10  11
ENDBRANCH   1  10
TORSDOF 0
ENDMDL
MODEL 6
REMARK VINA RESULT:    -3.927      5.888      7.644
REMARK INTER + INTRA:          -5.267
REMARK INTER:                  -5.803
REMARK INTRA:                   0.535
REMARK UNBOUND:                 0.496
REMARK SMILES C=C1CC=CC(C)(C)CC=C(C)CCC1
REMARK SMILES IDX 2 1 1 2 15 3 14 4 13 5 11 6 12 7 10 8 3 10 4 11 5 12 6 13
REMARK SMILES IDX 7 14 8 15 9 16
REMARK H PARENT
REMARK Flexibility Score: 60.00
ROOT
ATOM      1  C   UNL     1     102.476 106.415 125.406  1.00  0.00    -0.074 C 
ATOM      2  C   UNL     1     103.000 105.368 124.750  1.00  0.00     0.008 C 
ENDROOT
BRANCH   1   3
ATOM      3  C   UNL     1     101.084 106.322 125.996  1.00  0.00     0.031 C 
BRANCH   3   4
ATOM      4  C   UNL     1     100.977 105.144 126.995  1.00  0.00     0.009 C 
BRANCH   4   5
ATOM      5  C   UNL     1     101.793 105.282 128.304  1.00  0.00     0.030 C 
BRANCH   5   6
ATOM      6  C   UNL     1     101.808 106.663 128.946  1.00  0.00    -0.077 C 
ATOM      7  C   UNL     1     100.492 107.292 129.335  1.00  0.00     0.039 C 
ATOM      8  C   UNL     1     102.936 107.370 129.193  1.00  0.00    -0.027 CG0
ATOM      9  G   UNL     1     104.349 106.942 128.843  1.00  0.00     0.000 G0
ENDBRANCH   5   6
ENDBRANCH   4   5
ENDBRANCH   3   4
ENDBRANCH   1   3
BRANCH   1  10
ATOM     10  C   UNL     1     103.240 107.722 125.498  1.00  0.00     0.057 C 
BRANCH  10  11
ATOM     11  C   UNL     1     104.724 107.468 125.582  1.00  0.00    -0.026 C 
ATOM     12  C   UNL     1     105.535 107.615 126.654  1.00  0.00    -0.024 C 
BRANCH  12  13
ATOM     13  C   UNL     1     105.186 108.039 128.091  1.00  0.00    -0.014 C 
ATOM     14  C   UNL     1     104.435 109.391 128.100  1.00  0.00     0.016 C 
ATOM     15  C   UNL     1     106.517 108.279 128.851  1.00  0.00     0.016 C 
BRANCH  13  16
ATOM     16  C   UNL     1     104.362 106.950 128.852  1.00  0.00     0.038 CG0
ATOM     17  G   UNL     1     102.946 107.391 129.175  1.00  0.00     0.000 G0
ENDBRANCH  13  16
ENDBRANCH  12  13
ENDBRANCH  10  11
ENDBRANCH   1  10
TORSDOF 0
ENDMDL
MODEL 7
REMARK VINA RESULT:    -3.821      3.684      6.018
REMARK INTER + INTRA:          -5.112
REMARK INTER:                  -5.953
REMARK INTRA:                   0.841
REMARK UNBOUND:                 0.496
REMARK SMILES C=C1CC=CC(C)(C)CC=C(C)CCC1
REMARK SMILES IDX 2 1 1 2 15 3 14 4 13 5 11 6 12 7 10 8 3 10 4 11 5 12 6 13
REMARK SMILES IDX 7 14 8 15 9 16
REMARK H PARENT
REMARK Flexibility Score: 60.00
ROOT
ATOM      1  C   UNL     1     106.557 101.213 128.117  1.00  0.00    -0.074 C 
ATOM      2  C   UNL     1     107.184 100.747 129.210  1.00  0.00     0.008 C 
ENDROOT
BRANCH   1   3
ATOM      3  C   UNL     1     107.244 101.163 126.769  1.00  0.00     0.031 C 
BRANCH   3   4
ATOM      4  C   UNL     1     106.211 101.132 125.616  1.00  0.00     0.009 C 
BRANCH   4   5
ATOM      5  C   UNL     1     106.319 102.268 124.569  1.00  0.00     0.030 C 
BRANCH   5   6
ATOM      6  C   UNL     1     106.732 103.635 125.099  1.00  0.00    -0.077 C 
ATOM      7  C   UNL     1     108.126 104.131 124.805  1.00  0.00     0.039 C 
ATOM      8  C   UNL     1     105.920 104.442 125.824  1.00  0.00    -0.027 CG0
ATOM      9  G   UNL     1     104.505 104.117 126.263  1.00  0.00     0.000 G0
ENDBRANCH   5   6
ENDBRANCH   4   5
ENDBRANCH   3   4
ENDBRANCH   1   3
BRANCH   1  10
ATOM     10  C   UNL     1     105.190 101.858 128.236  1.00  0.00     0.057 C 
BRANCH  10  11
ATOM     11  C   UNL     1     105.254 103.089 129.105  1.00  0.00    -0.026 C 
ATOM     12  C   UNL     1     104.795 104.330 128.825  1.00  0.00    -0.024 C 
BRANCH  12  13
ATOM     13  C   UNL     1     104.052 104.838 127.578  1.00  0.00    -0.014 C 
ATOM     14  C   UNL     1     104.214 106.368 127.425  1.00  0.00     0.016 C 
ATOM     15  C   UNL     1     102.536 104.584 127.794  1.00  0.00     0.016 C 
BRANCH  13  16
ATOM     16  C   UNL     1     104.503 104.106 126.273  1.00  0.00     0.038 CG0
ATOM     17  G   UNL     1     105.912 104.468 125.844  1.00  0.00     0.000 G0
ENDBRANCH  13  16
ENDBRANCH  12  13
ENDBRANCH  10  11
ENDBRANCH   1  10
TORSDOF 0
ENDMDL
MODEL 8
REMARK VINA RESULT:    -3.782      3.064      3.883
REMARK INTER + INTRA:          -5.055
REMARK INTER:                  -5.497
REMARK INTRA:                   0.442
REMARK UNBOUND:                 0.496
REMARK SMILES C=C1CC=CC(C)(C)CC=C(C)CCC1
REMARK SMILES IDX 2 1 1 2 15 3 14 4 13 5 11 6 12 7 10 8 3 10 4 11 5 12 6 13
REMARK SMILES IDX 7 14 8 15 9 16
REMARK H PARENT
REMARK Flexibility Score: 60.00
ROOT
ATOM      1  C   UNL     1     110.314 106.449 128.432  1.00  0.00    -0.074 C 
ATOM      2  C   UNL     1     111.351 106.114 129.217  1.00  0.00     0.008 C 
ENDROOT
BRANCH   1   3
ATOM      3  C   UNL     1     109.685 105.413 127.523  1.00  0.00     0.031 C 
BRANCH   3   4
ATOM      4  C   UNL     1     108.968 104.312 128.343  1.00  0.00     0.009 C 
BRANCH   4   5
ATOM      5  C   UNL     1     107.873 104.794 129.326  1.00  0.00     0.030 C 
BRANCH   5   6
ATOM      6  C   UNL     1     106.518 105.128 128.713  1.00  0.00    -0.077 C 
ATOM      7  C   UNL     1     105.730 104.020 128.059  1.00  0.00     0.039 C 
ATOM      8  C   UNL     1     105.971 106.368 128.718  1.00  0.00    -0.027 CG0
ATOM      9  G   UNL     1     106.613 107.621 129.282  1.00  0.00     0.000 G0
ENDBRANCH   5   6
ENDBRANCH   4   5
ENDBRANCH   3   4
ENDBRANCH   1   3
BRANCH   1  10
ATOM     10  C   UNL     1     109.814 107.880 128.393  1.00  0.00     0.057 C 
BRANCH  10  11
ATOM     11  C   UNL     1     108.991 108.125 127.155  1.00  0.00    -0.026 C 
ATOM     12  C   UNL     1     107.689 108.484 127.078  1.00  0.00    -0.024 C 
BRANCH  12  13
ATOM     13  C   UNL     1     106.691 108.782 128.209  1.00  0.00    -0.014 C 
ATOM     14  C   UNL     1     105.286 109.087 127.639  1.00  0.00     0.016 C 
ATOM     15  C   UNL     1     107.157 110.078 128.924  1.00  0.00     0.016 C 
BRANCH  13  16
ATOM     16  C   UNL     1     106.615 107.629 129.261  1.00  0.00     0.038 CG0
ATOM     17  G   UNL     1     105.980 106.364 128.713  1.00  0.00     0.000 G0
ENDBRANCH  13  16
ENDBRANCH  12  13
ENDBRANCH  10  11
ENDBRANCH   1  10
TORSDOF 0
ENDMDL
MODEL 9
REMARK VINA RESULT:    -3.720      2.027      3.849
REMARK INTER + INTRA:          -4.963
REMARK INTER:                  -5.959
REMARK INTRA:                   0.995
REMARK UNBOUND:                 0.496
REMARK SMILES C=C1CC=CC(C)(C)CC=C(C)CCC1
REMARK SMILES IDX 2 1 1 2 15 3 14 4 13 5 11 6 12 7 10 8 3 10 4 11 5 12 6 13
REMARK SMILES IDX 7 14 8 15 9 16
REMARK H PARENT
REMARK Flexibility Score: 60.00
ROOT
ATOM      1  C   UNL     1     111.239 106.665 127.576  1.00  0.00    -0.074 C 
ATOM      2  C   UNL     1     111.885 107.354 128.531  1.00  0.00     0.008 C 
ENDROOT
BRANCH   1   3
ATOM      3  C   UNL     1     110.898 107.331 126.259  1.00  0.00     0.031 C 
BRANCH   3   4
ATOM      4  C   UNL     1     109.468 107.924 126.286  1.00  0.00     0.009 C 
BRANCH   4   5
ATOM      5  C   UNL     1     108.881 108.231 127.685  1.00  0.00     0.030 C 
BRANCH   5   6
ATOM      6  C   UNL     1     107.391 107.965 127.863  1.00  0.00    -0.077 C 
ATOM      7  C   UNL     1     106.508 109.096 128.331  1.00  0.00     0.039 C 
ATOM      8  C   UNL     1     106.803 106.768 127.627  1.00  0.00    -0.027 CG0
ATOM      9  G   UNL     1     107.512 105.498 127.195  1.00  0.00     0.000 G0
ENDBRANCH   5   6
ENDBRANCH   4   5
ENDBRANCH   3   4
ENDBRANCH   1   3
BRANCH   1  10
ATOM     10  C   UNL     1     110.780 105.243 127.835  1.00  0.00     0.057 C 
BRANCH  10  11
ATOM     11  C   UNL     1     110.045 105.149 129.148  1.00  0.00    -0.026 C 
ATOM     12  C   UNL     1     108.747 104.828 129.354  1.00  0.00    -0.024 C 
BRANCH  12  13
ATOM     13  C   UNL     1     107.666 104.433 128.334  1.00  0.00    -0.014 C 
ATOM     14  C   UNL     1     106.309 104.189 129.036  1.00  0.00     0.016 C 
ATOM     15  C   UNL     1     108.078 103.075 127.707  1.00  0.00     0.016 C 
BRANCH  13  16
ATOM     16  C   UNL     1     107.508 105.487 127.191  1.00  0.00     0.038 CG0
ATOM     17  G   UNL     1     106.806 106.755 127.641  1.00  0.00     0.000 G0
ENDBRANCH  13  16
ENDBRANCH  12  13
ENDBRANCH  10  11
ENDBRANCH   1  10
TORSDOF 0
ENDMDL
