MODEL 1
REMARK VINA RESULT:    -3.655      0.000      0.000
REMARK INTER + INTRA:          -4.353
REMARK INTER:                  -4.296
REMARK INTRA:                  -0.057
REMARK UNBOUND:                -0.057
REMARK SMILES CCCCC(=O)[O-]
REMARK SMILES IDX 4 1 5 2 6 3 7 4 3 5 2 6 1 7
REMARK H PARENT
REMARK Flexibility Score: inf
ROOT
ATOM      1  C   UNL     1     -27.167  44.007  90.966  1.00  0.00     0.053 C 
ENDROOT
BRANCH   1   2
ATOM      2  C   UNL     1     -28.258  43.108  90.469  1.00  0.00     0.041 C 
ATOM      3  O   UNL     1     -29.154  42.701  91.255  1.00  0.00    -0.550 OA
ATOM      4  O   UNL     1     -28.269  42.697  89.142  1.00  0.00    -0.550 OA
ENDBRANCH   1   2
BRANCH   1   5
ATOM      5  C   UNL     1     -26.443  44.749  89.829  1.00  0.00     0.006 C 
BRANCH   5   6
ATOM      6  C   UNL     1     -26.497  46.282  89.951  1.00  0.00    -0.003 C 
ATOM      7  C   UNL     1     -27.824  46.796  90.505  1.00  0.00     0.004 C 
ENDBRANCH   5   6
ENDBRANCH   1   5
TORSDOF 3
ENDMDL
MODEL 2
REMARK VINA RESULT:    -3.585      0.846      1.268
REMARK INTER + INTRA:          -4.270
REMARK INTER:                  -4.176
REMARK INTRA:                  -0.094
REMARK UNBOUND:                -0.057
REMARK SMILES CCCCC(=O)[O-]
REMARK SMILES IDX 4 1 5 2 6 3 7 4 3 5 2 6 1 7
REMARK H PARENT
REMARK Flexibility Score: inf
ROOT
ATOM      1  C   UNL     1     -27.095  44.011  90.956  1.00  0.00     0.053 C 
ENDROOT
BRANCH   1   2
ATOM      2  C   UNL     1     -28.187  43.117  90.452  1.00  0.00     0.041 C 
ATOM      3  O   UNL     1     -29.097  42.724  91.231  1.00  0.00    -0.550 OA
ATOM      4  O   UNL     1     -28.186  42.695  89.130  1.00  0.00    -0.550 OA
ENDBRANCH   1   2
BRANCH   1   5
ATOM      5  C   UNL     1     -27.308  45.485  90.571  1.00  0.00     0.006 C 
BRANCH   5   6
ATOM      6  C   UNL     1     -26.142  46.096  89.774  1.00  0.00    -0.003 C 
ATOM      7  C   UNL     1     -26.080  45.607  88.328  1.00  0.00     0.004 C 
ENDBRANCH   5   6
ENDBRANCH   1   5
TORSDOF 3
ENDMDL
MODEL 3
REMARK VINA RESULT:    -3.558      0.879      1.766
REMARK INTER + INTRA:          -4.239
REMARK INTER:                  -4.152
REMARK INTRA:                  -0.087
REMARK UNBOUND:                -0.057
REMARK SMILES CCCCC(=O)[O-]
REMARK SMILES IDX 4 1 5 2 6 3 7 4 3 5 2 6 1 7
REMARK H PARENT
REMARK Flexibility Score: inf
ROOT
ATOM      1  C   UNL     1     -26.978  43.928  90.568  1.00  0.00     0.053 C 
ENDROOT
BRANCH   1   2
ATOM      2  C   UNL     1     -28.133  43.042  90.213  1.00  0.00     0.041 C 
ATOM      3  O   UNL     1     -28.277  42.630  89.031  1.00  0.00    -0.550 OA
ATOM      4  O   UNL     1     -29.065  42.694  91.181  1.00  0.00    -0.550 OA
ENDBRANCH   1   2
BRANCH   1   5
ATOM      5  C   UNL     1     -27.343  45.423  90.534  1.00  0.00     0.006 C 
BRANCH   5   6
ATOM      6  C   UNL     1     -26.422  46.271  89.639  1.00  0.00    -0.003 C 
ATOM      7  C   UNL     1     -26.130  45.618  88.289  1.00  0.00     0.004 C 
ENDBRANCH   5   6
ENDBRANCH   1   5
TORSDOF 3
ENDMDL
MODEL 4
REMARK VINA RESULT:    -3.484     16.937     17.294
REMARK INTER + INTRA:          -4.152
REMARK INTER:                  -4.123
REMARK INTRA:                  -0.029
REMARK UNBOUND:                -0.057
REMARK SMILES CCCCC(=O)[O-]
REMARK SMILES IDX 4 1 5 2 6 3 7 4 3 5 2 6 1 7
REMARK H PARENT
REMARK Flexibility Score: inf
ROOT
ATOM      1  C   UNL     1     -21.422  28.992  87.295  1.00  0.00     0.053 C 
ENDROOT
BRANCH   1   2
ATOM      2  C   UNL     1     -22.028  28.676  85.961  1.00  0.00     0.041 C 
ATOM      3  O   UNL     1     -21.882  29.469  84.993  1.00  0.00    -0.550 OA
ATOM      4  O   UNL     1     -22.777  27.519  85.795  1.00  0.00    -0.550 OA
ENDBRANCH   1   2
BRANCH   1   5
ATOM      5  C   UNL     1     -22.050  28.180  88.441  1.00  0.00     0.006 C 
BRANCH   5   6
ATOM      6  C   UNL     1     -21.407  28.439  89.815  1.00  0.00    -0.003 C 
ATOM      7  C   UNL     1     -20.024  29.080  89.720  1.00  0.00     0.004 C 
ENDBRANCH   5   6
ENDBRANCH   1   5
TORSDOF 3
ENDMDL
MODEL 5
REMARK VINA RESULT:    -3.387      9.501     10.361
REMARK INTER + INTRA:          -4.037
REMARK INTER:                  -3.953
REMARK INTRA:                  -0.084
REMARK UNBOUND:                -0.057
REMARK SMILES CCCCC(=O)[O-]
REMARK SMILES IDX 4 1 5 2 6 3 7 4 3 5 2 6 1 7
REMARK H PARENT
REMARK Flexibility Score: inf
ROOT
ATOM      1  C   UNL     1     -18.299  44.653  85.320  1.00  0.00     0.053 C 
ENDROOT
BRANCH   1   2
ATOM      2  C   UNL     1     -19.561  43.844  85.337  1.00  0.00     0.041 C 
ATOM      3  O   UNL     1     -19.550  42.659  85.763  1.00  0.00    -0.550 OA
ATOM      4  O   UNL     1     -20.743  44.391  84.856  1.00  0.00    -0.550 OA
ENDBRANCH   1   2
BRANCH   1   5
ATOM      5  C   UNL     1     -18.037  45.316  83.957  1.00  0.00     0.006 C 
BRANCH   5   6
ATOM      6  C   UNL     1     -18.429  46.804  83.902  1.00  0.00    -0.003 C 
ATOM      7  C   UNL     1     -19.422  47.124  82.786  1.00  0.00     0.004 C 
ENDBRANCH   5   6
ENDBRANCH   1   5
TORSDOF 3
ENDMDL
MODEL 6
REMARK VINA RESULT:    -3.367     16.407     17.175
REMARK INTER + INTRA:          -4.015
REMARK INTER:                  -3.970
REMARK INTRA:                  -0.044
REMARK UNBOUND:                -0.057
REMARK SMILES CCCCC(=O)[O-]
REMARK SMILES IDX 4 1 5 2 6 3 7 4 3 5 2 6 1 7
REMARK H PARENT
REMARK Flexibility Score: inf
ROOT
ATOM      1  C   UNL     1     -19.848  28.769  89.879  1.00  0.00     0.053 C 
ENDROOT
BRANCH   1   2
ATOM      2  C   UNL     1     -18.792  29.536  90.616  1.00  0.00     0.041 C 
ATOM      3  O   UNL     1     -18.449  30.682  90.223  1.00  0.00    -0.550 OA
ATOM      4  O   UNL     1     -18.168  28.972  91.721  1.00  0.00    -0.550 OA
ENDBRANCH   1   2
BRANCH   1   5
ATOM      5  C   UNL     1     -20.663  29.653  88.919  1.00  0.00     0.006 C 
BRANCH   5   6
ATOM      6  C   UNL     1     -22.162  29.306  88.872  1.00  0.00    -0.003 C 
ATOM      7  C   UNL     1     -22.537  28.135  89.778  1.00  0.00     0.004 C 
ENDBRANCH   5   6
ENDBRANCH   1   5
TORSDOF 3
ENDMDL
MODEL 7
REMARK VINA RESULT:    -3.303      9.083      9.957
REMARK INTER + INTRA:          -3.939
REMARK INTER:                  -3.848
REMARK INTRA:                  -0.091
REMARK UNBOUND:                -0.057
REMARK SMILES CCCCC(=O)[O-]
REMARK SMILES IDX 4 1 5 2 6 3 7 4 3 5 2 6 1 7
REMARK H PARENT
REMARK Flexibility Score: inf
ROOT
ATOM      1  C   UNL     1     -19.369  43.920  85.305  1.00  0.00     0.053 C 
ENDROOT
BRANCH   1   2
ATOM      2  C   UNL     1     -20.591  44.737  85.595  1.00  0.00     0.041 C 
ATOM      3  O   UNL     1     -20.980  44.900  86.782  1.00  0.00    -0.550 OA
ATOM      4  O   UNL     1     -21.317  45.295  84.551  1.00  0.00    -0.550 OA
ENDBRANCH   1   2
BRANCH   1   5
ATOM      5  C   UNL     1     -18.495  44.531  84.195  1.00  0.00     0.006 C 
BRANCH   5   6
ATOM      6  C   UNL     1     -17.427  45.512  84.711  1.00  0.00    -0.003 C 
ATOM      7  C   UNL     1     -17.649  46.947  84.234  1.00  0.00     0.004 C 
ENDBRANCH   5   6
ENDBRANCH   1   5
TORSDOF 3
ENDMDL
MODEL 8
REMARK VINA RESULT:    -3.283      2.550      3.647
REMARK INTER + INTRA:          -3.915
REMARK INTER:                  -3.833
REMARK INTRA:                  -0.083
REMARK UNBOUND:                -0.057
REMARK SMILES CCCCC(=O)[O-]
REMARK SMILES IDX 4 1 5 2 6 3 7 4 3 5 2 6 1 7
REMARK H PARENT
REMARK Flexibility Score: inf
ROOT
ATOM      1  C   UNL     1     -26.293  44.583  90.223  1.00  0.00     0.053 C 
ENDROOT
BRANCH   1   2
ATOM      2  C   UNL     1     -26.511  46.066  90.237  1.00  0.00     0.041 C 
ATOM      3  O   UNL     1     -27.615  46.542  90.612  1.00  0.00    -0.550 OA
ATOM      4  O   UNL     1     -25.503  46.921  89.811  1.00  0.00    -0.550 OA
ENDBRANCH   1   2
BRANCH   1   5
ATOM      5  C   UNL     1     -27.137  43.848  91.279  1.00  0.00     0.006 C 
BRANCH   5   6
ATOM      6  C   UNL     1     -28.351  43.101  90.698  1.00  0.00    -0.003 C 
ATOM      7  C   UNL     1     -28.159  42.683  89.241  1.00  0.00     0.004 C 
ENDBRANCH   5   6
ENDBRANCH   1   5
TORSDOF 3
ENDMDL
MODEL 9
REMARK VINA RESULT:    -3.239      9.727     10.463
REMARK INTER + INTRA:          -3.863
REMARK INTER:                  -3.758
REMARK INTRA:                  -0.105
REMARK UNBOUND:                -0.057
REMARK SMILES CCCCC(=O)[O-]
REMARK SMILES IDX 4 1 5 2 6 3 7 4 3 5 2 6 1 7
REMARK H PARENT
REMARK Flexibility Score: inf
ROOT
ATOM      1  C   UNL     1     -18.418  45.293  84.120  1.00  0.00     0.053 C 
ENDROOT
BRANCH   1   2
ATOM      2  C   UNL     1     -19.305  44.604  85.112  1.00  0.00     0.041 C 
ATOM      3  O   UNL     1     -19.174  43.371  85.332  1.00  0.00    -0.550 OA
ATOM      4  O   UNL     1     -20.296  45.319  85.772  1.00  0.00    -0.550 OA
ENDBRANCH   1   2
BRANCH   1   5
ATOM      5  C   UNL     1     -18.894  46.718  83.785  1.00  0.00     0.006 C 
BRANCH   5   6
ATOM      6  C   UNL     1     -19.571  46.842  82.408  1.00  0.00    -0.003 C 
ATOM      7  C   UNL     1     -21.066  46.529  82.443  1.00  0.00     0.004 C 
ENDBRANCH   5   6
ENDBRANCH   1   5
TORSDOF 3
ENDMDL
