MODEL 1
REMARK VINA RESULT:    -3.320      0.000      0.000
REMARK INTER + INTRA:          -3.348
REMARK INTER:                  -4.096
REMARK INTRA:                   0.748
REMARK UNBOUND:                 0.748
REMARK SMILES CC1=CC=CC(C)(C)CC1=O
REMARK SMILES IDX 1 1 2 2 3 3 10 4 11 5 9 6 4 8 5 9 6 10 7 11 8 12
REMARK H PARENT
REMARK Flexibility Score: 80.00
ROOT
ATOM      1  C   UNL     1       4.935  68.981 -32.898  1.00  0.00     0.048 C 
ATOM      2  C   UNL     1       4.983  67.765 -32.004  1.00  0.00    -0.008 C 
ATOM      3  C   UNL     1       4.752  66.561 -32.572  1.00  0.00     0.007 C 
ENDROOT
BRANCH   2   4
ATOM      4  C   UNL     1       5.205  67.999 -30.556  1.00  0.00     0.159 C 
ATOM      5  O   UNL     1       5.110  69.175 -30.108  1.00  0.00    -0.295 OA
BRANCH   4   6
ATOM      6  C   UNL     1       5.551  66.910 -29.586  1.00  0.00     0.091 CG0
ATOM      7  G   UNL     1       4.466  65.816 -29.485  1.00  0.00     0.000 G0
ENDBRANCH   4   6
ENDBRANCH   2   4
BRANCH   3   8
ATOM      8  C   UNL     1       4.707  65.213 -31.959  1.00  0.00    -0.003 C 
ATOM      9  C   UNL     1       4.574  64.876 -30.671  1.00  0.00    -0.020 C 
BRANCH   9  10
ATOM     10  C   UNL     1       4.464  65.825 -29.501  1.00  0.00    -0.010 CG0
ATOM     11  C   UNL     1       3.035  66.413 -29.431  1.00  0.00     0.016 C 
ATOM     12  C   UNL     1       4.714  65.025 -28.203  1.00  0.00     0.016 C 
ATOM     13  G   UNL     1       5.552  66.916 -29.612  1.00  0.00     0.000 G0
ENDBRANCH   9  10
ENDBRANCH   3   8
TORSDOF 0
ENDMDL
MODEL 2
REMARK VINA RESULT:    -3.143     12.885     13.715
REMARK INTER + INTRA:          -3.130
REMARK INTER:                  -3.876
REMARK INTRA:                   0.746
REMARK UNBOUND:                 0.748
REMARK SMILES CC1=CC=CC(C)(C)CC1=O
REMARK SMILES IDX 1 1 2 2 3 3 10 4 11 5 9 6 4 8 5 9 6 10 7 11 8 12
REMARK H PARENT
REMARK Flexibility Score: 80.00
ROOT
ATOM      1  C   UNL     1      -0.283  79.614 -32.434  1.00  0.00     0.048 C 
ATOM      2  C   UNL     1       0.549  79.730 -31.178  1.00  0.00    -0.008 C 
ATOM      3  C   UNL     1       1.818  79.269 -31.225  1.00  0.00     0.007 C 
ENDROOT
BRANCH   2   4
ATOM      4  C   UNL     1      -0.121  80.273 -29.972  1.00  0.00     0.159 C 
ATOM      5  O   UNL     1      -1.373  80.431 -29.989  1.00  0.00    -0.295 OA
BRANCH   4   6
ATOM      6  C   UNL     1       0.612  80.661 -28.724  1.00  0.00     0.091 CG0
ATOM      7  G   UNL     1       1.403  79.494 -28.094  1.00  0.00     0.000 G0
ENDBRANCH   4   6
ENDBRANCH   2   4
BRANCH   3   8
ATOM      8  C   UNL     1       2.851  79.222 -30.165  1.00  0.00    -0.003 C 
ATOM      9  C   UNL     1       2.703  79.304 -28.837  1.00  0.00    -0.020 C 
BRANCH   9  10
ATOM     10  C   UNL     1       1.406  79.497 -28.089  1.00  0.00    -0.010 CG0
ATOM     11  C   UNL     1       0.618  78.167 -28.047  1.00  0.00     0.016 C 
ATOM     12  C   UNL     1       1.740  79.899 -26.634  1.00  0.00     0.016 C 
ATOM     13  G   UNL     1       0.600  80.647 -28.733  1.00  0.00     0.000 G0
ENDBRANCH   9  10
ENDBRANCH   3   8
TORSDOF 0
ENDMDL
MODEL 3
REMARK VINA RESULT:    -3.036     14.447     15.410
REMARK INTER + INTRA:          -2.999
REMARK INTER:                  -3.752
REMARK INTRA:                   0.753
REMARK UNBOUND:                 0.748
REMARK SMILES CC1=CC=CC(C)(C)CC1=O
REMARK SMILES IDX 1 1 2 2 3 3 10 4 11 5 9 6 4 8 5 9 6 10 7 11 8 12
REMARK H PARENT
REMARK Flexibility Score: 80.00
ROOT
ATOM      1  C   UNL     1       0.110  74.612 -19.166  1.00  0.00     0.048 C 
ATOM      2  C   UNL     1      -0.265  75.761 -20.073  1.00  0.00    -0.008 C 
ATOM      3  C   UNL     1      -1.065  75.490 -21.127  1.00  0.00     0.007 C 
ENDROOT
BRANCH   2   4
ATOM      4  C   UNL     1       0.339  77.082 -19.774  1.00  0.00     0.159 C 
ATOM      5  O   UNL     1       1.287  77.144 -18.943  1.00  0.00    -0.295 OA
BRANCH   4   6
ATOM      6  C   UNL     1      -0.122  78.363 -20.400  1.00  0.00     0.091 CG0
ATOM      7  G   UNL     1       0.017  78.374 -21.938  1.00  0.00     0.000 G0
ENDBRANCH   4   6
ENDBRANCH   2   4
BRANCH   3   8
ATOM      8  C   UNL     1      -1.574  76.388 -22.189  1.00  0.00    -0.003 C 
ATOM      9  C   UNL     1      -1.129  77.595 -22.559  1.00  0.00    -0.020 C 
BRANCH   9  10
ATOM     10  C   UNL     1       0.017  78.358 -21.939  1.00  0.00    -0.010 CG0
ATOM     11  C   UNL     1       1.364  77.772 -22.423  1.00  0.00     0.016 C 
ATOM     12  C   UNL     1      -0.063  79.826 -22.416  1.00  0.00     0.016 C 
ATOM     13  G   UNL     1      -0.120  78.344 -20.401  1.00  0.00     0.000 G0
ENDBRANCH   9  10
ENDBRANCH   3   8
TORSDOF 0
ENDMDL
MODEL 4
REMARK VINA RESULT:    -3.034      8.201      9.971
REMARK INTER + INTRA:          -2.996
REMARK INTER:                  -3.757
REMARK INTRA:                   0.761
REMARK UNBOUND:                 0.748
REMARK SMILES CC1=CC=CC(C)(C)CC1=O
REMARK SMILES IDX 1 1 2 2 3 3 10 4 11 5 9 6 4 8 5 9 6 10 7 11 8 12
REMARK H PARENT
REMARK Flexibility Score: 80.00
ROOT
ATOM      1  C   UNL     1       7.657  72.202 -30.458  1.00  0.00     0.048 C 
ATOM      2  C   UNL     1       8.202  73.608 -30.548  1.00  0.00    -0.008 C 
ATOM      3  C   UNL     1       9.536  73.752 -30.705  1.00  0.00     0.007 C 
ENDROOT
BRANCH   2   4
ATOM      4  C   UNL     1       7.235  74.720 -30.382  1.00  0.00     0.159 C 
ATOM      5  O   UNL     1       6.074  74.459 -29.962  1.00  0.00    -0.295 OA
BRANCH   4   6
ATOM      6  C   UNL     1       7.556  76.149 -30.699  1.00  0.00     0.091 CG0
ATOM      7  G   UNL     1       8.733  76.707 -29.869  1.00  0.00     0.000 G0
ENDBRANCH   4   6
ENDBRANCH   2   4
BRANCH   3   8
ATOM      8  C   UNL     1      10.355  74.983 -30.798  1.00  0.00    -0.003 C 
ATOM      9  C   UNL     1      10.042  76.234 -30.440  1.00  0.00    -0.020 C 
BRANCH   9  10
ATOM     10  C   UNL     1       8.726  76.700 -29.864  1.00  0.00    -0.010 CG0
ATOM     11  C   UNL     1       8.632  76.303 -28.372  1.00  0.00     0.016 C 
ATOM     12  C   UNL     1       8.678  78.242 -29.951  1.00  0.00     0.016 C 
ATOM     13  G   UNL     1       7.560  76.134 -30.705  1.00  0.00     0.000 G0
ENDBRANCH   9  10
ENDBRANCH   3   8
TORSDOF 0
ENDMDL
MODEL 5
REMARK VINA RESULT:    -2.950     16.958     18.101
REMARK INTER + INTRA:          -2.892
REMARK INTER:                  -3.654
REMARK INTRA:                   0.762
REMARK UNBOUND:                 0.748
REMARK SMILES CC1=CC=CC(C)(C)CC1=O
REMARK SMILES IDX 1 1 2 2 3 3 10 4 11 5 9 6 4 8 5 9 6 10 7 11 8 12
REMARK H PARENT
REMARK Flexibility Score: 80.00
ROOT
ATOM      1  C   UNL     1       6.284  75.219 -15.189  1.00  0.00     0.048 C 
ATOM      2  C   UNL     1       5.682  76.511 -15.690  1.00  0.00    -0.008 C 
ATOM      3  C   UNL     1       4.362  76.708 -15.482  1.00  0.00     0.007 C 
ENDROOT
BRANCH   2   4
ATOM      4  C   UNL     1       6.576  77.428 -16.438  1.00  0.00     0.159 C 
ATOM      5  O   UNL     1       7.703  77.005 -16.817  1.00  0.00    -0.295 OA
BRANCH   4   6
ATOM      6  C   UNL     1       6.221  78.846 -16.764  1.00  0.00     0.091 CG0
ATOM      7  G   UNL     1       4.951  78.972 -17.635  1.00  0.00     0.000 G0
ENDBRANCH   4   6
ENDBRANCH   2   4
BRANCH   3   8
ATOM      8  C   UNL     1       3.497  77.845 -15.874  1.00  0.00    -0.003 C 
ATOM      9  C   UNL     1       3.716  78.796 -16.789  1.00  0.00    -0.020 C 
BRANCH   9  10
ATOM     10  C   UNL     1       4.952  78.952 -17.643  1.00  0.00    -0.010 CG0
ATOM     11  C   UNL     1       4.933  77.918 -18.793  1.00  0.00     0.016 C 
ATOM     12  C   UNL     1       4.933  80.364 -18.272  1.00  0.00     0.016 C 
ATOM     13  G   UNL     1       6.214  78.836 -16.759  1.00  0.00     0.000 G0
ENDBRANCH   9  10
ENDBRANCH   3   8
TORSDOF 0
ENDMDL
MODEL 6
REMARK VINA RESULT:    -2.945      8.167      8.968
REMARK INTER + INTRA:          -2.886
REMARK INTER:                  -3.645
REMARK INTRA:                   0.759
REMARK UNBOUND:                 0.748
REMARK SMILES CC1=CC=CC(C)(C)CC1=O
REMARK SMILES IDX 1 1 2 2 3 3 10 4 11 5 9 6 4 8 5 9 6 10 7 11 8 12
REMARK H PARENT
REMARK Flexibility Score: 80.00
ROOT
ATOM      1  C   UNL     1      15.250  69.500 -29.473  1.00  0.00     0.048 C 
ATOM      2  C   UNL     1      14.661  68.180 -29.033  1.00  0.00    -0.008 C 
ATOM      3  C   UNL     1      15.250  67.052 -29.483  1.00  0.00     0.007 C 
ENDROOT
BRANCH   2   4
ATOM      4  C   UNL     1      13.435  68.232 -28.199  1.00  0.00     0.159 C 
ATOM      5  O   UNL     1      12.847  69.339 -28.049  1.00  0.00    -0.295 OA
BRANCH   4   6
ATOM      6  C   UNL     1      12.853  67.036 -27.509  1.00  0.00     0.091 CG0
ATOM      7  G   UNL     1      12.476  65.896 -28.481  1.00  0.00     0.000 G0
ENDBRANCH   4   6
ENDBRANCH   2   4
BRANCH   3   8
ATOM      8  C   UNL     1      14.891  65.634 -29.250  1.00  0.00    -0.003 C 
ATOM      9  C   UNL     1      13.728  65.114 -28.837  1.00  0.00    -0.020 C 
BRANCH   9  10
ATOM     10  C   UNL     1      12.479  65.883 -28.476  1.00  0.00    -0.010 CG0
ATOM     11  C   UNL     1      11.768  66.368 -29.761  1.00  0.00     0.016 C 
ATOM     12  C   UNL     1      11.519  64.927 -27.732  1.00  0.00     0.016 C 
ATOM     13  G   UNL     1      12.840  67.042 -27.521  1.00  0.00     0.000 G0
ENDBRANCH   9  10
ENDBRANCH   3   8
TORSDOF 0
ENDMDL
MODEL 7
REMARK VINA RESULT:    -2.915      1.560      2.579
REMARK INTER + INTRA:          -2.849
REMARK INTER:                  -3.598
REMARK INTRA:                   0.749
REMARK UNBOUND:                 0.748
REMARK SMILES CC1=CC=CC(C)(C)CC1=O
REMARK SMILES IDX 1 1 2 2 3 3 10 4 11 5 9 6 4 8 5 9 6 10 7 11 8 12
REMARK H PARENT
REMARK Flexibility Score: 80.00
ROOT
ATOM      1  C   UNL     1       4.931  68.417 -32.724  1.00  0.00     0.048 C 
ATOM      2  C   UNL     1       4.794  67.866 -31.325  1.00  0.00    -0.008 C 
ATOM      3  C   UNL     1       5.017  68.711 -30.295  1.00  0.00     0.007 C 
ENDROOT
BRANCH   2   4
ATOM      4  C   UNL     1       4.498  66.418 -31.195  1.00  0.00     0.159 C 
ATOM      5  O   UNL     1       4.552  65.691 -32.225  1.00  0.00    -0.295 OA
BRANCH   4   6
ATOM      6  C   UNL     1       4.124  65.763 -29.900  1.00  0.00     0.091 CG0
ATOM      7  G   UNL     1       5.191  65.940 -28.797  1.00  0.00     0.000 G0
ENDBRANCH   4   6
ENDBRANCH   2   4
BRANCH   3   8
ATOM      8  C   UNL     1       4.984  68.460 -28.835  1.00  0.00    -0.003 C 
ATOM      9  C   UNL     1       5.062  67.298 -28.176  1.00  0.00    -0.020 C 
BRANCH   9  10
ATOM     10  C   UNL     1       5.178  65.924 -28.791  1.00  0.00    -0.010 CG0
ATOM     11  C   UNL     1       6.625  65.685 -29.281  1.00  0.00     0.016 C 
ATOM     12  C   UNL     1       4.865  64.876 -27.699  1.00  0.00     0.016 C 
ATOM     13  G   UNL     1       4.134  65.769 -29.919  1.00  0.00     0.000 G0
ENDBRANCH   9  10
ENDBRANCH   3   8
TORSDOF 0
ENDMDL
MODEL 8
REMARK VINA RESULT:    -2.771     13.567     14.959
REMARK INTER + INTRA:          -2.671
REMARK INTER:                  -3.424
REMARK INTRA:                   0.753
REMARK UNBOUND:                 0.748
REMARK SMILES CC1=CC=CC(C)(C)CC1=O
REMARK SMILES IDX 1 1 2 2 3 3 10 4 11 5 9 6 4 8 5 9 6 10 7 11 8 12
REMARK H PARENT
REMARK Flexibility Score: 80.00
ROOT
ATOM      1  C   UNL     1      13.830  74.209 -26.391  1.00  0.00     0.048 C 
ATOM      2  C   UNL     1      13.941  75.662 -25.994  1.00  0.00    -0.008 C 
ATOM      3  C   UNL     1      14.508  75.942 -24.801  1.00  0.00     0.007 C 
ENDROOT
BRANCH   2   4
ATOM      4  C   UNL     1      13.348  76.661 -26.916  1.00  0.00     0.159 C 
ATOM      5  O   UNL     1      12.630  76.257 -27.872  1.00  0.00    -0.295 OA
BRANCH   4   6
ATOM      6  C   UNL     1      13.563  78.138 -26.784  1.00  0.00     0.091 CG0
ATOM      7  G   UNL     1      13.092  78.703 -25.426  1.00  0.00     0.000 G0
ENDBRANCH   4   6
ENDBRANCH   2   4
BRANCH   3   8
ATOM      8  C   UNL     1      14.730  77.248 -24.137  1.00  0.00    -0.003 C 
ATOM      9  C   UNL     1      14.141  78.426 -24.374  1.00  0.00    -0.020 C 
BRANCH   9  10
ATOM     10  C   UNL     1      13.098  78.712 -25.428  1.00  0.00    -0.010 CG0
ATOM     11  C   UNL     1      11.724  78.164 -24.974  1.00  0.00     0.016 C 
ATOM     12  C   UNL     1      12.973  80.245 -25.583  1.00  0.00     0.016 C 
ATOM     13  G   UNL     1      13.554  78.128 -26.783  1.00  0.00     0.000 G0
ENDBRANCH   9  10
ENDBRANCH   3   8
TORSDOF 0
ENDMDL
MODEL 9
REMARK VINA RESULT:    -2.729     10.426     12.193
REMARK INTER + INTRA:          -2.620
REMARK INTER:                  -3.379
REMARK INTRA:                   0.759
REMARK UNBOUND:                 0.748
REMARK SMILES CC1=CC=CC(C)(C)CC1=O
REMARK SMILES IDX 1 1 2 2 3 3 10 4 11 5 9 6 4 8 5 9 6 10 7 11 8 12
REMARK H PARENT
REMARK Flexibility Score: 80.00
ROOT
ATOM      1  C   UNL     1       9.606  74.158 -30.827  1.00  0.00     0.048 C 
ATOM      2  C   UNL     1       9.914  75.624 -30.631  1.00  0.00    -0.008 C 
ATOM      3  C   UNL     1      11.121  75.946 -30.116  1.00  0.00     0.007 C 
ENDROOT
BRANCH   2   4
ATOM      4  C   UNL     1       8.835  76.590 -30.950  1.00  0.00     0.159 C 
ATOM      5  O   UNL     1       7.674  76.151 -31.182  1.00  0.00    -0.295 OA
BRANCH   4   6
ATOM      6  C   UNL     1       9.046  78.071 -31.025  1.00  0.00     0.091 CG0
ATOM      7  G   UNL     1       9.578  78.679 -29.708  1.00  0.00     0.000 G0
ENDBRANCH   4   6
ENDBRANCH   2   4
BRANCH   3   8
ATOM      8  C   UNL     1      11.692  77.273 -29.790  1.00  0.00    -0.003 C 
ATOM      9  C   UNL     1      11.063  78.439 -29.600  1.00  0.00    -0.020 C 
BRANCH   9  10
ATOM     10  C   UNL     1       9.576  78.685 -29.707  1.00  0.00    -0.010 CG0
ATOM     11  C   UNL     1       8.859  78.134 -28.451  1.00  0.00     0.016 C 
ATOM     12  C   UNL     1       9.340  80.211 -29.759  1.00  0.00     0.016 C 
ATOM     13  G   UNL     1       9.039  78.069 -31.017  1.00  0.00     0.000 G0
ENDBRANCH   9  10
ENDBRANCH   3   8
TORSDOF 0
ENDMDL
