MODEL 1
REMARK VINA RESULT:    -4.882      0.000      0.000
REMARK INTER + INTRA:          -5.184
REMARK INTER:                  -5.168
REMARK INTRA:                  -0.016
REMARK UNBOUND:                -0.016
REMARK SMILES O=C([O-])c1cccnc1
REMARK SMILES IDX 4 1 5 2 9 3 6 4 8 5 7 6 2 7 1 8 3 9
REMARK H PARENT
REMARK Flexibility Score: inf
ROOT
ATOM      1  C   UNL     1       1.163  -7.976   7.485  1.00  0.00     0.016 A 
ATOM      2  C   UNL     1       1.363  -8.737   6.320  1.00  0.00     0.013 A 
ATOM      3  C   UNL     1       2.286  -7.624   8.253  1.00  0.00     0.120 A 
ATOM      4  C   UNL     1       2.652  -9.125   5.949  1.00  0.00     0.021 A 
ATOM      5  N   UNL     1       3.531  -8.016   7.869  1.00  0.00    -0.264 NA
ATOM      6  C   UNL     1       3.734  -8.752   6.745  1.00  0.00     0.111 A 
ENDROOT
BRANCH   1   7
ATOM      7  C   UNL     1      -0.193  -7.554   7.895  1.00  0.00     0.073 C 
ATOM      8  O   UNL     1      -0.981  -8.372   8.442  1.00  0.00    -0.545 OA
ATOM      9  O   UNL     1      -0.619  -6.248   7.682  1.00  0.00    -0.545 OA
ENDBRANCH   1   7
TORSDOF 1
ENDMDL
MODEL 2
REMARK VINA RESULT:    -4.872      1.237      2.047
REMARK INTER + INTRA:          -5.174
REMARK INTER:                  -5.157
REMARK INTRA:                  -0.016
REMARK UNBOUND:                -0.016
REMARK SMILES O=C([O-])c1cccnc1
REMARK SMILES IDX 4 1 5 2 9 3 6 4 8 5 7 6 2 7 1 8 3 9
REMARK H PARENT
REMARK Flexibility Score: inf
ROOT
ATOM      1  C   UNL     1       0.819  -7.933   7.317  1.00  0.00     0.016 A 
ATOM      2  C   UNL     1       2.115  -8.038   7.852  1.00  0.00     0.013 A 
ATOM      3  C   UNL     1       0.586  -8.442   6.027  1.00  0.00     0.120 A 
ATOM      4  C   UNL     1       3.134  -8.636   7.109  1.00  0.00     0.021 A 
ATOM      5  N   UNL     1       1.597  -9.019   5.325  1.00  0.00    -0.264 NA
ATOM      6  C   UNL     1       2.853  -9.125   5.833  1.00  0.00     0.111 A 
ENDROOT
BRANCH   1   7
ATOM      7  C   UNL     1      -0.274  -7.304   8.088  1.00  0.00     0.073 C 
ATOM      8  O   UNL     1      -0.629  -6.119   7.848  1.00  0.00    -0.545 OA
ATOM      9  O   UNL     1      -0.928  -8.013   9.090  1.00  0.00    -0.545 OA
ENDBRANCH   1   7
TORSDOF 1
ENDMDL
MODEL 3
REMARK VINA RESULT:    -4.611      1.818      2.490
REMARK INTER + INTRA:          -4.897
REMARK INTER:                  -4.880
REMARK INTRA:                  -0.017
REMARK UNBOUND:                -0.016
REMARK SMILES O=C([O-])c1cccnc1
REMARK SMILES IDX 4 1 5 2 9 3 6 4 8 5 7 6 2 7 1 8 3 9
REMARK H PARENT
REMARK Flexibility Score: inf
ROOT
ATOM      1  C   UNL     1       1.028  -8.027   7.914  1.00  0.00     0.016 A 
ATOM      2  C   UNL     1       2.414  -7.968   7.687  1.00  0.00     0.013 A 
ATOM      3  C   UNL     1       0.576  -8.286   9.219  1.00  0.00     0.120 A 
ATOM      4  C   UNL     1       3.306  -8.162   8.743  1.00  0.00     0.021 A 
ATOM      5  N   UNL     1       1.467  -8.472  10.230  1.00  0.00    -0.264 NA
ATOM      6  C   UNL     1       2.809  -8.417  10.020  1.00  0.00     0.111 A 
ENDROOT
BRANCH   1   7
ATOM      7  C   UNL     1       0.067  -7.824   6.809  1.00  0.00     0.073 C 
ATOM      8  O   UNL     1      -0.679  -6.808   6.788  1.00  0.00    -0.545 OA
ATOM      9  O   UNL     1      -0.028  -8.751   5.778  1.00  0.00    -0.545 OA
ENDBRANCH   1   7
TORSDOF 1
ENDMDL
MODEL 4
REMARK VINA RESULT:    -4.592      2.807      3.351
REMARK INTER + INTRA:          -4.877
REMARK INTER:                  -4.854
REMARK INTRA:                  -0.023
REMARK UNBOUND:                -0.016
REMARK SMILES O=C([O-])c1cccnc1
REMARK SMILES IDX 4 1 5 2 9 3 6 4 8 5 7 6 2 7 1 8 3 9
REMARK H PARENT
REMARK Flexibility Score: inf
ROOT
ATOM      1  C   UNL     1       2.070  -7.996   7.521  1.00  0.00     0.016 A 
ATOM      2  C   UNL     1       2.096  -8.799   6.367  1.00  0.00     0.013 A 
ATOM      3  C   UNL     1       0.861  -7.372   7.873  1.00  0.00     0.120 A 
ATOM      4  C   UNL     1       0.940  -8.963   5.601  1.00  0.00     0.021 A 
ATOM      5  N   UNL     1      -0.250  -7.548   7.108  1.00  0.00    -0.264 NA
ATOM      6  C   UNL     1      -0.235  -8.322   5.991  1.00  0.00     0.111 A 
ENDROOT
BRANCH   1   7
ATOM      7  C   UNL     1       3.282  -7.810   8.346  1.00  0.00     0.073 C 
ATOM      8  O   UNL     1       3.212  -7.239   9.468  1.00  0.00    -0.545 OA
ATOM      9  O   UNL     1       4.517  -8.264   7.897  1.00  0.00    -0.545 OA
ENDBRANCH   1   7
TORSDOF 1
ENDMDL
MODEL 5
REMARK VINA RESULT:    -4.347      1.455      2.389
REMARK INTER + INTRA:          -4.618
REMARK INTER:                  -4.594
REMARK INTRA:                  -0.024
REMARK UNBOUND:                -0.016
REMARK SMILES O=C([O-])c1cccnc1
REMARK SMILES IDX 4 1 5 2 9 3 6 4 8 5 7 6 2 7 1 8 3 9
REMARK H PARENT
REMARK Flexibility Score: inf
ROOT
ATOM      1  C   UNL     1       1.116  -8.071   8.574  1.00  0.00     0.016 A 
ATOM      2  C   UNL     1       1.307  -8.718   9.807  1.00  0.00     0.013 A 
ATOM      3  C   UNL     1       2.248  -7.607   7.881  1.00  0.00     0.120 A 
ATOM      4  C   UNL     1       2.595  -8.889  10.317  1.00  0.00     0.021 A 
ATOM      5  N   UNL     1       3.492  -7.786   8.402  1.00  0.00    -0.264 NA
ATOM      6  C   UNL     1       3.686  -8.410   9.593  1.00  0.00     0.111 A 
ENDROOT
BRANCH   1   7
ATOM      7  C   UNL     1      -0.239  -7.882   8.015  1.00  0.00     0.073 C 
ATOM      8  O   UNL     1      -0.408  -7.235   6.946  1.00  0.00    -0.545 OA
ATOM      9  O   UNL     1      -1.349  -8.414   8.663  1.00  0.00    -0.545 OA
ENDBRANCH   1   7
TORSDOF 1
ENDMDL
MODEL 6
REMARK VINA RESULT:    -4.159     15.157     15.828
REMARK INTER + INTRA:          -4.418
REMARK INTER:                  -4.401
REMARK INTRA:                  -0.017
REMARK UNBOUND:                -0.016
REMARK SMILES O=C([O-])c1cccnc1
REMARK SMILES IDX 4 1 5 2 9 3 6 4 8 5 7 6 2 7 1 8 3 9
REMARK H PARENT
REMARK Flexibility Score: inf
ROOT
ATOM      1  C   UNL     1      -5.154  -0.924  -4.410  1.00  0.00     0.016 A 
ATOM      2  C   UNL     1      -6.330  -0.486  -3.776  1.00  0.00     0.013 A 
ATOM      3  C   UNL     1      -4.391   0.017  -5.123  1.00  0.00     0.120 A 
ATOM      4  C   UNL     1      -6.716   0.853  -3.862  1.00  0.00     0.021 A 
ATOM      5  N   UNL     1      -4.791   1.315  -5.191  1.00  0.00    -0.264 NA
ATOM      6  C   UNL     1      -5.926   1.747  -4.582  1.00  0.00     0.111 A 
ENDROOT
BRANCH   1   7
ATOM      7  C   UNL     1      -4.727  -2.337  -4.330  1.00  0.00     0.073 C 
ATOM      8  O   UNL     1      -5.396  -3.241  -4.898  1.00  0.00    -0.545 OA
ATOM      9  O   UNL     1      -3.580  -2.688  -3.627  1.00  0.00    -0.545 OA
ENDBRANCH   1   7
TORSDOF 1
ENDMDL
MODEL 7
REMARK VINA RESULT:    -4.145     11.734     12.435
REMARK INTER + INTRA:          -4.404
REMARK INTER:                  -4.381
REMARK INTRA:                  -0.022
REMARK UNBOUND:                -0.016
REMARK SMILES O=C([O-])c1cccnc1
REMARK SMILES IDX 4 1 5 2 9 3 6 4 8 5 7 6 2 7 1 8 3 9
REMARK H PARENT
REMARK Flexibility Score: inf
ROOT
ATOM      1  C   UNL     1      -9.451  -6.304   3.041  1.00  0.00     0.016 A 
ATOM      2  C   UNL     1     -10.607  -6.032   3.794  1.00  0.00     0.013 A 
ATOM      3  C   UNL     1      -8.657  -5.223   2.624  1.00  0.00     0.120 A 
ATOM      4  C   UNL     1     -10.943  -4.715   4.111  1.00  0.00     0.021 A 
ATOM      5  N   UNL     1      -9.007  -3.949   2.946  1.00  0.00    -0.264 NA
ATOM      6  C   UNL     1     -10.123  -3.676   3.673  1.00  0.00     0.111 A 
ENDROOT
BRANCH   1   7
ATOM      7  C   UNL     1      -9.078  -7.692   2.695  1.00  0.00     0.073 C 
ATOM      8  O   UNL     1      -8.335  -7.928   1.704  1.00  0.00    -0.545 OA
ATOM      9  O   UNL     1      -9.540  -8.758   3.459  1.00  0.00    -0.545 OA
ENDBRANCH   1   7
TORSDOF 1
ENDMDL
MODEL 8
REMARK VINA RESULT:    -4.115     15.043     15.630
REMARK INTER + INTRA:          -4.372
REMARK INTER:                  -4.350
REMARK INTRA:                  -0.022
REMARK UNBOUND:                -0.016
REMARK SMILES O=C([O-])c1cccnc1
REMARK SMILES IDX 4 1 5 2 9 3 6 4 8 5 7 6 2 7 1 8 3 9
REMARK H PARENT
REMARK Flexibility Score: inf
ROOT
ATOM      1  C   UNL     1      -4.026  -0.455  -5.185  1.00  0.00     0.016 A 
ATOM      2  C   UNL     1      -2.876  -1.134  -5.624  1.00  0.00     0.013 A 
ATOM      3  C   UNL     1      -4.874  -1.101  -4.270  1.00  0.00     0.120 A 
ATOM      4  C   UNL     1      -2.597  -2.418  -5.151  1.00  0.00     0.021 A 
ATOM      5  N   UNL     1      -4.579  -2.352  -3.826  1.00  0.00    -0.264 NA
ATOM      6  C   UNL     1      -3.470  -3.017  -4.244  1.00  0.00     0.111 A 
ENDROOT
BRANCH   1   7
ATOM      7  C   UNL     1      -4.339   0.905  -5.673  1.00  0.00     0.073 C 
ATOM      8  O   UNL     1      -3.964   1.278  -6.817  1.00  0.00    -0.545 OA
ATOM      9  O   UNL     1      -5.052   1.793  -4.875  1.00  0.00    -0.545 OA
ENDBRANCH   1   7
TORSDOF 1
ENDMDL
MODEL 9
REMARK VINA RESULT:    -4.087     15.205     15.775
REMARK INTER + INTRA:          -4.342
REMARK INTER:                  -4.318
REMARK INTRA:                  -0.024
REMARK UNBOUND:                -0.016
REMARK SMILES O=C([O-])c1cccnc1
REMARK SMILES IDX 4 1 5 2 9 3 6 4 8 5 7 6 2 7 1 8 3 9
REMARK H PARENT
REMARK Flexibility Score: inf
ROOT
ATOM      1  C   UNL     1      -3.364  -1.140  -5.263  1.00  0.00     0.016 A 
ATOM      2  C   UNL     1      -2.856  -0.532  -6.424  1.00  0.00     0.013 A 
ATOM      3  C   UNL     1      -4.366  -0.468  -4.542  1.00  0.00     0.120 A 
ATOM      4  C   UNL     1      -3.346   0.708  -6.838  1.00  0.00     0.021 A 
ATOM      5  N   UNL     1      -4.825   0.740  -4.967  1.00  0.00    -0.264 NA
ATOM      6  C   UNL     1      -4.340   1.336  -6.088  1.00  0.00     0.111 A 
ENDROOT
BRANCH   1   7
ATOM      7  C   UNL     1      -2.860  -2.453  -4.808  1.00  0.00     0.073 C 
ATOM      8  O   UNL     1      -3.248  -2.945  -3.714  1.00  0.00    -0.545 OA
ATOM      9  O   UNL     1      -1.949  -3.164  -5.581  1.00  0.00    -0.545 OA
ENDBRANCH   1   7
TORSDOF 1
ENDMDL
