MODEL 1
REMARK VINA RESULT:    -7.451      0.000      0.000
REMARK INTER + INTRA:          -9.066
REMARK INTER:                  -8.758
REMARK INTRA:                  -0.308
REMARK UNBOUND:                -0.308
REMARK SMILES O=c1c(O)c(-c2ccc(O)c(O)c2)oc2cc(O)ccc12
REMARK SMILES IDX 5 1 3 2 2 3 1 4 21 5 15 6 14 7 16 8 17 9 19 10 20 11 6 12
REMARK SMILES IDX 7 13 8 14 9 15 13 16 11 17 10 18 12 20 4 22 18 24
REMARK H PARENT 10 19 12 21 4 23 18 25
REMARK Flexibility Score: inf
ROOT
ATOM      1  C   UNL     1     -32.901  24.959   2.471  1.00  0.00     0.180 A 
ATOM      2  C   UNL     1     -32.397  25.526   3.660  1.00  0.00     0.208 A 
ATOM      3  C   UNL     1     -31.080  26.011   3.672  1.00  0.00     0.235 A 
ATOM      4  O   UNL     1     -30.602  26.512   4.727  1.00  0.00    -0.285 OA
ATOM      5  C   UNL     1     -30.307  25.940   2.503  1.00  0.00     0.069 A 
ATOM      6  C   UNL     1     -30.893  25.381   1.347  1.00  0.00     0.142 A 
ATOM      7  O   UNL     1     -32.139  24.925   1.378  1.00  0.00    -0.452 OA
ATOM      8  C   UNL     1     -30.158  25.302   0.158  1.00  0.00     0.094 A 
ATOM      9  C   UNL     1     -28.842  25.774   0.109  1.00  0.00     0.119 A 
ATOM     10  C   UNL     1     -28.256  26.328   1.256  1.00  0.00     0.047 A 
ATOM     11  C   UNL     1     -28.983  26.413   2.448  1.00  0.00     0.020 A 
ENDROOT
BRANCH   1  12
ATOM     12  C   UNL     1     -34.272  24.409   2.382  1.00  0.00     0.025 A 
ATOM     13  C   UNL     1     -35.342  25.267   2.081  1.00  0.00     0.016 A 
ATOM     14  C   UNL     1     -36.642  24.766   1.972  1.00  0.00     0.051 A 
ATOM     15  C   UNL     1     -36.891  23.402   2.147  1.00  0.00     0.157 A 
ATOM     16  C   UNL     1     -34.522  23.033   2.536  1.00  0.00     0.062 A 
ATOM     17  C   UNL     1     -35.826  22.529   2.426  1.00  0.00     0.158 A 
BRANCH  15  18
ATOM     18  O   UNL     1     -38.199  22.931   2.035  1.00  0.00    -0.504 OA
ATOM     19  H   UNL     1     -38.969  23.354   2.540  1.00  0.00     0.293 HD
ENDBRANCH  15  18
BRANCH  17  20
ATOM     20  O   UNL     1     -36.065  21.165   2.587  1.00  0.00    -0.504 OA
ATOM     21  H   UNL     1     -35.574  20.472   2.035  1.00  0.00     0.293 HD
ENDBRANCH  17  20
ENDBRANCH   1  12
BRANCH   2  22
ATOM     22  O   UNL     1     -33.206  25.627   4.794  1.00  0.00    -0.502 OA
ATOM     23  H   UNL     1     -33.134  24.980   5.570  1.00  0.00     0.293 HD
ENDBRANCH   2  22
BRANCH   9  24
ATOM     24  O   UNL     1     -28.125  25.686  -1.081  1.00  0.00    -0.508 OA
ATOM     25  H   UNL     1     -27.219  26.128  -1.187  1.00  0.00     0.293 HD
ENDBRANCH   9  24
TORSDOF 5
ENDMDL
MODEL 2
REMARK VINA RESULT:    -7.339      1.854      3.423
REMARK INTER + INTRA:          -8.935
REMARK INTER:                  -8.682
REMARK INTRA:                  -0.253
REMARK UNBOUND:                -0.308
REMARK SMILES O=c1c(O)c(-c2ccc(O)c(O)c2)oc2cc(O)ccc12
REMARK SMILES IDX 5 1 3 2 2 3 1 4 21 5 15 6 14 7 16 8 17 9 19 10 20 11 6 12
REMARK SMILES IDX 7 13 8 14 9 15 13 16 11 17 10 18 12 20 4 22 18 24
REMARK H PARENT 10 19 12 21 4 23 18 25
REMARK Flexibility Score: inf
ROOT
ATOM      1  C   UNL     1     -32.226  23.766   0.831  1.00  0.00     0.180 A 
ATOM      2  C   UNL     1     -31.650  23.273  -0.359  1.00  0.00     0.208 A 
ATOM      3  C   UNL     1     -30.398  23.765  -0.758  1.00  0.00     0.235 A 
ATOM      4  O   UNL     1     -29.867  23.348  -1.824  1.00  0.00    -0.285 OA
ATOM      5  C   UNL     1     -29.742  24.713   0.042  1.00  0.00     0.069 A 
ATOM      6  C   UNL     1     -30.373  25.138   1.231  1.00  0.00     0.142 A 
ATOM      7  O   UNL     1     -31.563  24.655   1.569  1.00  0.00    -0.452 OA
ATOM      8  C   UNL     1     -29.747  26.076   2.060  1.00  0.00     0.094 A 
ATOM      9  C   UNL     1     -28.495  26.597   1.716  1.00  0.00     0.119 A 
ATOM     10  C   UNL     1     -27.866  26.179   0.535  1.00  0.00     0.047 A 
ATOM     11  C   UNL     1     -28.483  25.242  -0.300  1.00  0.00     0.020 A 
ENDROOT
BRANCH   1  12
ATOM     12  C   UNL     1     -33.551  23.312   1.310  1.00  0.00     0.025 A 
ATOM     13  C   UNL     1     -33.671  22.052   1.918  1.00  0.00     0.016 A 
ATOM     14  C   UNL     1     -34.908  21.612   2.396  1.00  0.00     0.051 A 
ATOM     15  C   UNL     1     -36.038  22.427   2.287  1.00  0.00     0.157 A 
ATOM     16  C   UNL     1     -34.686  24.139   1.220  1.00  0.00     0.062 A 
ATOM     17  C   UNL     1     -35.928  23.699   1.701  1.00  0.00     0.158 A 
BRANCH  15  18
ATOM     18  O   UNL     1     -37.260  21.960   2.771  1.00  0.00    -0.504 OA
ATOM     19  H   UNL     1     -38.067  22.564   2.868  1.00  0.00     0.293 HD
ENDBRANCH  15  18
BRANCH  17  20
ATOM     20  O   UNL     1     -37.048  24.523   1.602  1.00  0.00    -0.504 OA
ATOM     21  H   UNL     1     -37.713  24.425   0.845  1.00  0.00     0.293 HD
ENDBRANCH  17  20
ENDBRANCH   1  12
BRANCH   2  22
ATOM     22  O   UNL     1     -32.305  22.293  -1.108  1.00  0.00    -0.502 OA
ATOM     23  H   UNL     1     -32.921  21.608  -0.685  1.00  0.00     0.293 HD
ENDBRANCH   2  22
BRANCH   9  24
ATOM     24  O   UNL     1     -27.886  27.529   2.552  1.00  0.00    -0.508 OA
ATOM     25  H   UNL     1     -28.119  28.515   2.504  1.00  0.00     0.293 HD
ENDBRANCH   9  24
TORSDOF 5
ENDMDL
MODEL 3
REMARK VINA RESULT:    -7.285      2.130      7.244
REMARK INTER + INTRA:          -8.871
REMARK INTER:                  -8.976
REMARK INTRA:                   0.105
REMARK UNBOUND:                -0.308
REMARK SMILES O=c1c(O)c(-c2ccc(O)c(O)c2)oc2cc(O)ccc12
REMARK SMILES IDX 5 1 3 2 2 3 1 4 21 5 15 6 14 7 16 8 17 9 19 10 20 11 6 12
REMARK SMILES IDX 7 13 8 14 9 15 13 16 11 17 10 18 12 20 4 22 18 24
REMARK H PARENT 10 19 12 21 4 23 18 25
REMARK Flexibility Score: inf
ROOT
ATOM      1  C   UNL     1     -30.904  24.720   0.918  1.00  0.00     0.180 A 
ATOM      2  C   UNL     1     -31.063  23.389   0.479  1.00  0.00     0.208 A 
ATOM      3  C   UNL     1     -32.326  22.787   0.590  1.00  0.00     0.235 A 
ATOM      4  O   UNL     1     -32.491  21.593   0.215  1.00  0.00    -0.285 OA
ATOM      5  C   UNL     1     -33.400  23.525   1.111  1.00  0.00     0.069 A 
ATOM      6  C   UNL     1     -33.165  24.860   1.505  1.00  0.00     0.142 A 
ATOM      7  O   UNL     1     -31.953  25.390   1.393  1.00  0.00    -0.452 OA
ATOM      8  C   UNL     1     -34.212  25.633   2.020  1.00  0.00     0.094 A 
ATOM      9  C   UNL     1     -35.494  25.087   2.149  1.00  0.00     0.119 A 
ATOM     10  C   UNL     1     -35.731  23.762   1.760  1.00  0.00     0.047 A 
ATOM     11  C   UNL     1     -34.691  22.982   1.243  1.00  0.00     0.020 A 
ENDROOT
BRANCH   1  12
ATOM     12  C   UNL     1     -29.601  25.418   0.853  1.00  0.00     0.025 A 
ATOM     13  C   UNL     1     -28.837  25.346  -0.323  1.00  0.00     0.016 A 
ATOM     14  C   UNL     1     -27.613  26.015  -0.414  1.00  0.00     0.051 A 
ATOM     15  C   UNL     1     -27.142  26.776   0.659  1.00  0.00     0.157 A 
ATOM     16  C   UNL     1     -29.135  26.202   1.924  1.00  0.00     0.062 A 
ATOM     17  C   UNL     1     -27.907  26.875   1.833  1.00  0.00     0.158 A 
BRANCH  15  18
ATOM     18  O   UNL     1     -25.916  27.430   0.540  1.00  0.00    -0.504 OA
ATOM     19  H   UNL     1     -25.041  26.985   0.792  1.00  0.00     0.293 HD
ENDBRANCH  15  18
BRANCH  17  20
ATOM     20  O   UNL     1     -27.450  27.645   2.903  1.00  0.00    -0.504 OA
ATOM     21  H   UNL     1     -26.864  28.458   2.759  1.00  0.00     0.293 HD
ENDBRANCH  17  20
ENDBRANCH   1  12
BRANCH   2  22
ATOM     22  O   UNL     1     -29.987  22.695  -0.080  1.00  0.00    -0.502 OA
ATOM     23  H   UNL     1     -29.461  22.002   0.439  1.00  0.00     0.293 HD
ENDBRANCH   2  22
BRANCH   9  24
ATOM     24  O   UNL     1     -36.524  25.870   2.664  1.00  0.00    -0.508 OA
ATOM     25  H   UNL     1     -36.675  26.821   2.348  1.00  0.00     0.293 HD
ENDBRANCH   9  24
TORSDOF 5
ENDMDL
MODEL 4
REMARK VINA RESULT:    -7.256      2.227      3.893
REMARK INTER + INTRA:          -8.837
REMARK INTER:                  -8.631
REMARK INTRA:                  -0.206
REMARK UNBOUND:                -0.308
REMARK SMILES O=c1c(O)c(-c2ccc(O)c(O)c2)oc2cc(O)ccc12
REMARK SMILES IDX 5 1 3 2 2 3 1 4 21 5 15 6 14 7 16 8 17 9 19 10 20 11 6 12
REMARK SMILES IDX 7 13 8 14 9 15 13 16 11 17 10 18 12 20 4 22 18 24
REMARK H PARENT 10 19 12 21 4 23 18 25
REMARK Flexibility Score: inf
ROOT
ATOM      1  C   UNL     1     -30.442  24.979   0.784  1.00  0.00     0.180 A 
ATOM      2  C   UNL     1     -30.051  24.092  -0.240  1.00  0.00     0.208 A 
ATOM      3  C   UNL     1     -28.777  24.239  -0.812  1.00  0.00     0.235 A 
ATOM      4  O   UNL     1     -28.408  23.465  -1.738  1.00  0.00    -0.285 OA
ATOM      5  C   UNL     1     -27.920  25.245  -0.339  1.00  0.00     0.069 A 
ATOM      6  C   UNL     1     -28.377  26.076   0.706  1.00  0.00     0.142 A 
ATOM      7  O   UNL     1     -29.592  25.910   1.214  1.00  0.00    -0.452 OA
ATOM      8  C   UNL     1     -27.548  27.084   1.212  1.00  0.00     0.094 A 
ATOM      9  C   UNL     1     -26.266  27.274   0.685  1.00  0.00     0.119 A 
ATOM     10  C   UNL     1     -25.810  26.452  -0.355  1.00  0.00     0.047 A 
ATOM     11  C   UNL     1     -26.630  25.441  -0.866  1.00  0.00     0.020 A 
ENDROOT
BRANCH   1  12
ATOM     12  C   UNL     1     -31.774  24.901   1.424  1.00  0.00     0.025 A 
ATOM     13  C   UNL     1     -32.731  25.893   1.150  1.00  0.00     0.016 A 
ATOM     14  C   UNL     1     -34.002  25.829   1.726  1.00  0.00     0.051 A 
ATOM     15  C   UNL     1     -34.342  24.769   2.572  1.00  0.00     0.157 A 
ATOM     16  C   UNL     1     -32.126  23.825   2.259  1.00  0.00     0.062 A 
ATOM     17  C   UNL     1     -33.402  23.759   2.837  1.00  0.00     0.158 A 
BRANCH  15  18
ATOM     18  O   UNL     1     -35.618  24.733   3.135  1.00  0.00    -0.504 OA
ATOM     19  H   UNL     1     -35.770  24.842   4.130  1.00  0.00     0.293 HD
ENDBRANCH  15  18
BRANCH  17  20
ATOM     20  O   UNL     1     -33.740  22.691   3.667  1.00  0.00    -0.504 OA
ATOM     21  H   UNL     1     -33.441  21.745   3.464  1.00  0.00     0.293 HD
ENDBRANCH  17  20
ENDBRANCH   1  12
BRANCH   2  22
ATOM     22  O   UNL     1     -30.907  23.070  -0.656  1.00  0.00    -0.502 OA
ATOM     23  H   UNL     1     -30.742  22.534  -1.501  1.00  0.00     0.293 HD
ENDBRANCH   2  22
BRANCH   9  24
ATOM     24  O   UNL     1     -25.455  28.282   1.199  1.00  0.00    -0.508 OA
ATOM     25  H   UNL     1     -25.782  29.239   1.272  1.00  0.00     0.293 HD
ENDBRANCH   9  24
TORSDOF 5
ENDMDL
MODEL 5
REMARK VINA RESULT:    -7.165      1.865      6.831
REMARK INTER + INTRA:          -8.729
REMARK INTER:                  -8.718
REMARK INTRA:                  -0.011
REMARK UNBOUND:                -0.308
REMARK SMILES O=c1c(O)c(-c2ccc(O)c(O)c2)oc2cc(O)ccc12
REMARK SMILES IDX 5 1 3 2 2 3 1 4 21 5 15 6 14 7 16 8 17 9 19 10 20 11 6 12
REMARK SMILES IDX 7 13 8 14 9 15 13 16 11 17 10 18 12 20 4 22 18 24
REMARK H PARENT 10 19 12 21 4 23 18 25
REMARK Flexibility Score: inf
ROOT
ATOM      1  C   UNL     1     -31.778  24.796   1.577  1.00  0.00     0.180 A 
ATOM      2  C   UNL     1     -32.822  25.705   1.847  1.00  0.00     0.208 A 
ATOM      3  C   UNL     1     -34.100  25.199   2.137  1.00  0.00     0.235 A 
ATOM      4  O   UNL     1     -35.053  25.991   2.372  1.00  0.00    -0.285 OA
ATOM      5  C   UNL     1     -34.300  23.810   2.173  1.00  0.00     0.069 A 
ATOM      6  C   UNL     1     -33.198  22.968   1.915  1.00  0.00     0.142 A 
ATOM      7  O   UNL     1     -32.008  23.485   1.635  1.00  0.00    -0.452 OA
ATOM      8  C   UNL     1     -33.356  21.577   1.950  1.00  0.00     0.094 A 
ATOM      9  C   UNL     1     -34.605  21.016   2.239  1.00  0.00     0.119 A 
ATOM     10  C   UNL     1     -35.702  21.850   2.494  1.00  0.00     0.047 A 
ATOM     11  C   UNL     1     -35.554  23.240   2.462  1.00  0.00     0.020 A 
ENDROOT
BRANCH   1  12
ATOM     12  C   UNL     1     -30.409  25.250   1.244  1.00  0.00     0.025 A 
ATOM     13  C   UNL     1     -29.804  24.806   0.056  1.00  0.00     0.016 A 
ATOM     14  C   UNL     1     -28.521  25.238  -0.288  1.00  0.00     0.051 A 
ATOM     15  C   UNL     1     -27.829  26.129   0.537  1.00  0.00     0.157 A 
ATOM     16  C   UNL     1     -29.719  26.163   2.062  1.00  0.00     0.062 A 
ATOM     17  C   UNL     1     -28.431  26.598   1.717  1.00  0.00     0.158 A 
BRANCH  15  18
ATOM     18  O   UNL     1     -26.548  26.541   0.169  1.00  0.00    -0.504 OA
ATOM     19  H   UNL     1     -25.821  25.880  -0.078  1.00  0.00     0.293 HD
ENDBRANCH  15  18
BRANCH  17  20
ATOM     20  O   UNL     1     -27.753  27.498   2.538  1.00  0.00    -0.504 OA
ATOM     21  H   UNL     1     -27.799  27.434   3.547  1.00  0.00     0.293 HD
ENDBRANCH  17  20
ENDBRANCH   1  12
BRANCH   2  22
ATOM     22  O   UNL     1     -32.580  27.080   1.853  1.00  0.00    -0.502 OA
ATOM     23  H   UNL     1     -31.966  27.525   1.180  1.00  0.00     0.293 HD
ENDBRANCH   2  22
BRANCH   9  24
ATOM     24  O   UNL     1     -34.744  19.631   2.269  1.00  0.00    -0.508 OA
ATOM     25  H   UNL     1     -34.025  19.035   2.664  1.00  0.00     0.293 HD
ENDBRANCH   9  24
TORSDOF 5
ENDMDL
MODEL 6
REMARK VINA RESULT:    -7.149      2.684      3.804
REMARK INTER + INTRA:          -8.711
REMARK INTER:                  -8.813
REMARK INTRA:                   0.102
REMARK UNBOUND:                -0.308
REMARK SMILES O=c1c(O)c(-c2ccc(O)c(O)c2)oc2cc(O)ccc12
REMARK SMILES IDX 5 1 3 2 2 3 1 4 21 5 15 6 14 7 16 8 17 9 19 10 20 11 6 12
REMARK SMILES IDX 7 13 8 14 9 15 13 16 11 17 10 18 12 20 4 22 18 24
REMARK H PARENT 10 19 12 21 4 23 18 25
REMARK Flexibility Score: inf
ROOT
ATOM      1  C   UNL     1     -33.632  22.712   1.400  1.00  0.00     0.180 A 
ATOM      2  C   UNL     1     -34.535  23.723   1.787  1.00  0.00     0.208 A 
ATOM      3  C   UNL     1     -34.060  25.037   1.928  1.00  0.00     0.235 A 
ATOM      4  O   UNL     1     -34.846  25.957   2.283  1.00  0.00    -0.285 OA
ATOM      5  C   UNL     1     -32.710  25.315   1.661  1.00  0.00     0.069 A 
ATOM      6  C   UNL     1     -31.876  24.251   1.255  1.00  0.00     0.142 A 
ATOM      7  O   UNL     1     -32.362  23.021   1.142  1.00  0.00    -0.452 OA
ATOM      8  C   UNL     1     -30.526  24.490   0.971  1.00  0.00     0.094 A 
ATOM      9  C   UNL     1     -29.998  25.780   1.088  1.00  0.00     0.119 A 
ATOM     10  C   UNL     1     -30.823  26.838   1.494  1.00  0.00     0.047 A 
ATOM     11  C   UNL     1     -32.173  26.610   1.778  1.00  0.00     0.020 A 
ENDROOT
BRANCH   1  12
ATOM     12  C   UNL     1     -34.050  21.300   1.248  1.00  0.00     0.025 A 
ATOM     13  C   UNL     1     -34.869  20.714   2.227  1.00  0.00     0.016 A 
ATOM     14  C   UNL     1     -35.293  19.389   2.094  1.00  0.00     0.051 A 
ATOM     15  C   UNL     1     -34.920  18.636   0.978  1.00  0.00     0.157 A 
ATOM     16  C   UNL     1     -33.694  20.547   0.115  1.00  0.00     0.062 A 
ATOM     17  C   UNL     1     -34.121  19.218  -0.020  1.00  0.00     0.158 A 
BRANCH  15  18
ATOM     18  O   UNL     1     -35.357  17.316   0.873  1.00  0.00    -0.504 OA
ATOM     19  H   UNL     1     -34.813  16.539   1.229  1.00  0.00     0.293 HD
ENDBRANCH  15  18
BRANCH  17  20
ATOM     20  O   UNL     1     -33.757  18.477  -1.144  1.00  0.00    -0.504 OA
ATOM     21  H   UNL     1     -33.309  18.910  -1.943  1.00  0.00     0.293 HD
ENDBRANCH  17  20
ENDBRANCH   1  12
BRANCH   2  22
ATOM     22  O   UNL     1     -35.883  23.425   1.997  1.00  0.00    -0.502 OA
ATOM     23  H   UNL     1     -36.270  23.292   2.924  1.00  0.00     0.293 HD
ENDBRANCH   2  22
BRANCH   9  24
ATOM     24  O   UNL     1     -28.653  26.000   0.803  1.00  0.00    -0.508 OA
ATOM     25  H   UNL     1     -28.190  25.525   0.035  1.00  0.00     0.293 HD
ENDBRANCH   9  24
TORSDOF 5
ENDMDL
MODEL 7
REMARK VINA RESULT:    -7.054      1.771      7.052
REMARK INTER + INTRA:          -8.599
REMARK INTER:                  -8.827
REMARK INTRA:                   0.228
REMARK UNBOUND:                -0.308
REMARK SMILES O=c1c(O)c(-c2ccc(O)c(O)c2)oc2cc(O)ccc12
REMARK SMILES IDX 5 1 3 2 2 3 1 4 21 5 15 6 14 7 16 8 17 9 19 10 20 11 6 12
REMARK SMILES IDX 7 13 8 14 9 15 13 16 11 17 10 18 12 20 4 22 18 24
REMARK H PARENT 10 19 12 21 4 23 18 25
REMARK Flexibility Score: inf
ROOT
ATOM      1  C   UNL     1     -30.166  25.638   1.533  1.00  0.00     0.180 A 
ATOM      2  C   UNL     1     -30.305  25.824   2.924  1.00  0.00     0.208 A 
ATOM      3  C   UNL     1     -31.562  25.611   3.512  1.00  0.00     0.235 A 
ATOM      4  O   UNL     1     -31.714  25.782   4.753  1.00  0.00    -0.285 OA
ATOM      5  C   UNL     1     -32.638  25.200   2.711  1.00  0.00     0.069 A 
ATOM      6  C   UNL     1     -32.411  25.012   1.330  1.00  0.00     0.142 A 
ATOM      7  O   UNL     1     -31.210  25.233   0.811  1.00  0.00    -0.452 OA
ATOM      8  C   UNL     1     -33.457  24.593   0.500  1.00  0.00     0.094 A 
ATOM      9  C   UNL     1     -34.730  24.360   1.032  1.00  0.00     0.119 A 
ATOM     10  C   UNL     1     -34.959  24.548   2.401  1.00  0.00     0.047 A 
ATOM     11  C   UNL     1     -33.921  24.964   3.240  1.00  0.00     0.020 A 
ENDROOT
BRANCH   1  12
ATOM     12  C   UNL     1     -28.880  25.861   0.835  1.00  0.00     0.025 A 
ATOM     13  C   UNL     1     -28.592  25.134  -0.332  1.00  0.00     0.016 A 
ATOM     14  C   UNL     1     -27.393  25.343  -1.018  1.00  0.00     0.051 A 
ATOM     15  C   UNL     1     -26.472  26.290  -0.560  1.00  0.00     0.157 A 
ATOM     16  C   UNL     1     -27.961  26.828   1.281  1.00  0.00     0.062 A 
ATOM     17  C   UNL     1     -26.758  27.040   0.592  1.00  0.00     0.158 A 
BRANCH  15  18
ATOM     18  O   UNL     1     -25.283  26.475  -1.265  1.00  0.00    -0.504 OA
ATOM     19  H   UNL     1     -24.379  26.263  -0.860  1.00  0.00     0.293 HD
ENDBRANCH  15  18
BRANCH  17  20
ATOM     20  O   UNL     1     -25.850  27.997   1.046  1.00  0.00    -0.504 OA
ATOM     21  H   UNL     1     -24.860  27.922   0.851  1.00  0.00     0.293 HD
ENDBRANCH  17  20
ENDBRANCH   1  12
BRANCH   2  22
ATOM     22  O   UNL     1     -29.204  26.186   3.703  1.00  0.00    -0.502 OA
ATOM     23  H   UNL     1     -28.301  25.735   3.609  1.00  0.00     0.293 HD
ENDBRANCH   2  22
BRANCH   9  24
ATOM     24  O   UNL     1     -35.759  23.945   0.191  1.00  0.00    -0.508 OA
ATOM     25  H   UNL     1     -36.510  24.571  -0.076  1.00  0.00     0.293 HD
ENDBRANCH   9  24
TORSDOF 5
ENDMDL
MODEL 8
REMARK VINA RESULT:    -7.028      2.199      3.301
REMARK INTER + INTRA:          -8.569
REMARK INTER:                  -8.300
REMARK INTRA:                  -0.269
REMARK UNBOUND:                -0.308
REMARK SMILES O=c1c(O)c(-c2ccc(O)c(O)c2)oc2cc(O)ccc12
REMARK SMILES IDX 5 1 3 2 2 3 1 4 21 5 15 6 14 7 16 8 17 9 19 10 20 11 6 12
REMARK SMILES IDX 7 13 8 14 9 15 13 16 11 17 10 18 12 20 4 22 18 24
REMARK H PARENT 10 19 12 21 4 23 18 25
REMARK Flexibility Score: inf
ROOT
ATOM      1  C   UNL     1     -29.820  25.566   1.489  1.00  0.00     0.180 A 
ATOM      2  C   UNL     1     -29.254  25.983   2.712  1.00  0.00     0.208 A 
ATOM      3  C   UNL     1     -27.913  26.397   2.730  1.00  0.00     0.235 A 
ATOM      4  O   UNL     1     -27.381  26.764   3.814  1.00  0.00    -0.285 OA
ATOM      5  C   UNL     1     -27.178  26.408   1.535  1.00  0.00     0.069 A 
ATOM      6  C   UNL     1     -27.823  25.999   0.348  1.00  0.00     0.142 A 
ATOM      7  O   UNL     1     -29.091  25.605   0.375  1.00  0.00    -0.452 OA
ATOM      8  C   UNL     1     -27.126  26.004  -0.865  1.00  0.00     0.094 A 
ATOM      9  C   UNL     1     -25.789  26.413  -0.909  1.00  0.00     0.119 A 
ATOM     10  C   UNL     1     -25.144  26.817   0.268  1.00  0.00     0.047 A 
ATOM     11  C   UNL     1     -25.832  26.816   1.485  1.00  0.00     0.020 A 
ENDROOT
BRANCH   1  12
ATOM     12  C   UNL     1     -31.220  25.097   1.391  1.00  0.00     0.025 A 
ATOM     13  C   UNL     1     -32.263  26.037   1.370  1.00  0.00     0.016 A 
ATOM     14  C   UNL     1     -33.592  25.618   1.257  1.00  0.00     0.051 A 
ATOM     15  C   UNL     1     -33.897  24.258   1.148  1.00  0.00     0.157 A 
ATOM     16  C   UNL     1     -31.529  23.731   1.259  1.00  0.00     0.062 A 
ATOM     17  C   UNL     1     -32.861  23.309   1.144  1.00  0.00     0.158 A 
BRANCH  15  18
ATOM     18  O   UNL     1     -35.232  23.870   1.038  1.00  0.00    -0.504 OA
ATOM     19  H   UNL     1     -35.752  23.968   0.174  1.00  0.00     0.293 HD
ENDBRANCH  15  18
BRANCH  17  20
ATOM     20  O   UNL     1     -33.158  21.952   1.021  1.00  0.00    -0.504 OA
ATOM     21  H   UNL     1     -32.539  21.239   1.387  1.00  0.00     0.293 HD
ENDBRANCH  17  20
ENDBRANCH   1  12
BRANCH   2  22
ATOM     22  O   UNL     1     -30.026  26.008   3.876  1.00  0.00    -0.502 OA
ATOM     23  H   UNL     1     -30.418  25.168   4.284  1.00  0.00     0.293 HD
ENDBRANCH   2  22
BRANCH   9  24
ATOM     24  O   UNL     1     -25.110  26.411  -2.125  1.00  0.00    -0.508 OA
ATOM     25  H   UNL     1     -24.933  27.270  -2.633  1.00  0.00     0.293 HD
ENDBRANCH   9  24
TORSDOF 5
ENDMDL
MODEL 9
REMARK VINA RESULT:    -7.011      1.554      2.271
REMARK INTER + INTRA:          -8.548
REMARK INTER:                  -8.461
REMARK INTRA:                  -0.087
REMARK UNBOUND:                -0.308
REMARK SMILES O=c1c(O)c(-c2ccc(O)c(O)c2)oc2cc(O)ccc12
REMARK SMILES IDX 5 1 3 2 2 3 1 4 21 5 15 6 14 7 16 8 17 9 19 10 20 11 6 12
REMARK SMILES IDX 7 13 8 14 9 15 13 16 11 17 10 18 12 20 4 22 18 24
REMARK H PARENT 10 19 12 21 4 23 18 25
REMARK Flexibility Score: inf
ROOT
ATOM      1  C   UNL     1     -32.187  24.259   1.381  1.00  0.00     0.180 A 
ATOM      2  C   UNL     1     -31.822  25.492   1.960  1.00  0.00     0.208 A 
ATOM      3  C   UNL     1     -30.588  26.064   1.611  1.00  0.00     0.235 A 
ATOM      4  O   UNL     1     -30.234  27.161   2.124  1.00  0.00    -0.285 OA
ATOM      5  C   UNL     1     -29.763  25.410   0.684  1.00  0.00     0.069 A 
ATOM      6  C   UNL     1     -30.211  24.191   0.131  1.00  0.00     0.142 A 
ATOM      7  O   UNL     1     -31.381  23.679   0.494  1.00  0.00    -0.452 OA
ATOM      8  C   UNL     1     -29.420  23.514  -0.804  1.00  0.00     0.094 A 
ATOM      9  C   UNL     1     -28.183  24.039  -1.194  1.00  0.00     0.119 A 
ATOM     10  C   UNL     1     -27.734  25.247  -0.645  1.00  0.00     0.047 A 
ATOM     11  C   UNL     1     -28.517  25.933   0.289  1.00  0.00     0.020 A 
ENDROOT
BRANCH   1  12
ATOM     12  C   UNL     1     -33.462  23.582   1.712  1.00  0.00     0.025 A 
ATOM     13  C   UNL     1     -33.434  22.307   2.301  1.00  0.00     0.016 A 
ATOM     14  C   UNL     1     -34.624  21.659   2.640  1.00  0.00     0.051 A 
ATOM     15  C   UNL     1     -35.857  22.278   2.412  1.00  0.00     0.157 A 
ATOM     16  C   UNL     1     -34.702  24.212   1.503  1.00  0.00     0.062 A 
ATOM     17  C   UNL     1     -35.898  23.562   1.845  1.00  0.00     0.158 A 
BRANCH  15  18
ATOM     18  O   UNL     1     -37.028  21.605   2.759  1.00  0.00    -0.504 OA
ATOM     19  H   UNL     1     -37.507  21.775   3.635  1.00  0.00     0.293 HD
ENDBRANCH  15  18
BRANCH  17  20
ATOM     20  O   UNL     1     -37.123  24.192   1.627  1.00  0.00    -0.504 OA
ATOM     21  H   UNL     1     -37.603  24.687   2.368  1.00  0.00     0.293 HD
ENDBRANCH  17  20
ENDBRANCH   1  12
BRANCH   2  22
ATOM     22  O   UNL     1     -32.687  26.143   2.843  1.00  0.00    -0.502 OA
ATOM     23  H   UNL     1     -32.351  26.717   3.607  1.00  0.00     0.293 HD
ENDBRANCH   2  22
BRANCH   9  24
ATOM     24  O   UNL     1     -27.409  23.351  -2.125  1.00  0.00    -0.508 OA
ATOM     25  H   UNL     1     -26.724  22.661  -1.838  1.00  0.00     0.293 HD
ENDBRANCH   9  24
TORSDOF 5
ENDMDL
