MODEL 1
REMARK VINA RESULT:    -4.038      0.000      0.000
REMARK INTER + INTRA:          -6.172
REMARK INTER:                  -6.162
REMARK INTRA:                  -0.010
REMARK UNBOUND:                -0.010
REMARK SMILES CC1=CCC[C@@H](C)C(=O)C[C@@H](C(C)C)C(=O)C1
REMARK SMILES IDX 8 1 9 2 6 3 7 4 5 5 4 6 3 7 2 8 1 9 10 11 11 12 15 13 16 14
REMARK SMILES IDX 17 15 12 17 13 18 14 19
REMARK H PARENT
REMARK Flexibility Score: 70.00
ROOT
ATOM      1  C   UNL     1      -9.636  18.288   8.548  1.00  0.00     0.136 C 
ATOM      2  O   UNL     1      -9.234  18.539   9.674  1.00  0.00    -0.299 OA
ENDROOT
BRANCH   1   3
ATOM      3  C   UNL     1      -9.583  16.862   8.036  1.00  0.00     0.053 C 
ATOM      4  C   UNL     1      -9.534  15.898   9.226  1.00  0.00     0.016 C 
BRANCH   3   5
ATOM      5  C   UNL     1      -8.372  16.617   7.102  1.00  0.00     0.015 C 
BRANCH   5   6
ATOM      6  C   UNL     1      -7.052  17.221   7.609  1.00  0.00     0.028 C 
BRANCH   6   7
ATOM      7  C   UNL     1      -6.245  17.814   6.478  1.00  0.00    -0.028 C 
ATOM      8  C   UNL     1      -6.378  19.076   6.006  1.00  0.00    -0.070 CG0
ATOM      9  C   UNL     1      -5.496  19.542   4.876  1.00  0.00     0.039 C 
ATOM     10  G   UNL     1      -7.365  20.076   6.581  1.00  0.00     0.000 G0
ENDBRANCH   6   7
ENDBRANCH   5   6
ENDBRANCH   3   5
ENDBRANCH   1   3
BRANCH   1  11
ATOM     11  C   UNL     1     -10.222  19.403   7.712  1.00  0.00     0.087 C 
BRANCH  11  12
ATOM     12  C   UNL     1      -9.849  19.299   6.210  1.00  0.00     0.066 C 
BRANCH  12  13
ATOM     13  C   UNL     1      -8.670  20.200   5.864  1.00  0.00     0.140 C 
ATOM     14  O   UNL     1      -8.771  20.987   4.934  1.00  0.00    -0.299 OA
BRANCH  13  15
ATOM     15  C   UNL     1      -7.343  20.110   6.584  1.00  0.00     0.106 CG0
ATOM     16  G   UNL     1      -6.394  19.079   5.999  1.00  0.00     0.000 G0
ENDBRANCH  13  15
ENDBRANCH  12  13
BRANCH  12  17
ATOM     17  C   UNL     1     -11.044  19.557   5.241  1.00  0.00    -0.006 C 
ATOM     18  C   UNL     1     -11.246  18.390   4.261  1.00  0.00     0.008 C 
ATOM     19  C   UNL     1     -12.369  19.885   5.949  1.00  0.00     0.008 C 
ENDBRANCH  12  17
ENDBRANCH  11  12
ENDBRANCH   1  11
TORSDOF 1
ENDMDL
MODEL 2
REMARK VINA RESULT:    -3.992      1.824      4.091
REMARK INTER + INTRA:          -6.103
REMARK INTER:                  -5.787
REMARK INTRA:                  -0.316
REMARK UNBOUND:                -0.010
REMARK SMILES CC1=CCC[C@@H](C)C(=O)C[C@@H](C(C)C)C(=O)C1
REMARK SMILES IDX 8 1 9 2 6 3 7 4 5 5 4 6 3 7 2 8 1 9 10 11 11 12 15 13 16 14
REMARK SMILES IDX 17 15 12 17 13 18 14 19
REMARK H PARENT
REMARK Flexibility Score: 70.00
ROOT
ATOM      1  C   UNL     1     -10.392  19.853   6.011  1.00  0.00     0.136 C 
ATOM      2  O   UNL     1     -11.325  20.627   6.173  1.00  0.00    -0.299 OA
ENDROOT
BRANCH   1   3
ATOM      3  C   UNL     1     -10.477  18.795   4.929  1.00  0.00     0.053 C 
ATOM      4  C   UNL     1     -11.565  19.186   3.924  1.00  0.00     0.016 C 
BRANCH   3   5
ATOM      5  C   UNL     1     -10.766  17.387   5.506  1.00  0.00     0.015 C 
BRANCH   5   6
ATOM      6  C   UNL     1      -9.676  16.346   5.202  1.00  0.00     0.028 C 
BRANCH   6   7
ATOM      7  C   UNL     1      -9.186  15.673   6.463  1.00  0.00    -0.028 C 
ATOM      8  C   UNL     1      -8.002  15.927   7.070  1.00  0.00    -0.070 CG0
ATOM      9  C   UNL     1      -7.644  15.189   8.334  1.00  0.00     0.039 C 
ATOM     10  G   UNL     1      -7.010  16.954   6.553  1.00  0.00     0.000 G0
ENDBRANCH   6   7
ENDBRANCH   5   6
ENDBRANCH   3   5
ENDBRANCH   1   3
BRANCH   1  11
ATOM     11  C   UNL     1      -9.154  20.008   6.866  1.00  0.00     0.087 C 
BRANCH  11  12
ATOM     12  C   UNL     1      -7.875  19.447   6.192  1.00  0.00     0.066 C 
BRANCH  12  13
ATOM     13  C   UNL     1      -7.216  18.374   7.049  1.00  0.00     0.140 C 
ATOM     14  O   UNL     1      -6.800  18.668   8.160  1.00  0.00    -0.299 OA
BRANCH  13  15
ATOM     15  C   UNL     1      -6.987  16.965   6.550  1.00  0.00     0.106 CG0
ATOM     16  G   UNL     1      -7.990  15.955   7.078  1.00  0.00     0.000 G0
ENDBRANCH  13  15
ENDBRANCH  12  13
BRANCH  12  17
ATOM     17  C   UNL     1      -6.841  20.542   5.786  1.00  0.00    -0.006 C 
ATOM     18  C   UNL     1      -5.822  20.015   4.763  1.00  0.00     0.008 C 
ATOM     19  C   UNL     1      -7.474  21.846   5.272  1.00  0.00     0.008 C 
ENDBRANCH  12  17
ENDBRANCH  11  12
ENDBRANCH   1  11
TORSDOF 1
ENDMDL
MODEL 3
REMARK VINA RESULT:    -3.979      2.274      4.508
REMARK INTER + INTRA:          -6.083
REMARK INTER:                  -6.594
REMARK INTRA:                   0.512
REMARK UNBOUND:                -0.010
REMARK SMILES CC1=CCC[C@@H](C)C(=O)C[C@@H](C(C)C)C(=O)C1
REMARK SMILES IDX 8 1 9 2 6 3 7 4 5 5 4 6 3 7 2 8 1 9 10 11 11 12 15 13 16 14
REMARK SMILES IDX 17 15 12 17 13 18 14 19
REMARK H PARENT
REMARK Flexibility Score: 70.00
ROOT
ATOM      1  C   UNL     1     -10.808  18.959   4.825  1.00  0.00     0.136 C 
ATOM      2  O   UNL     1     -10.616  19.711   3.881  1.00  0.00    -0.299 OA
ENDROOT
BRANCH   1   3
ATOM      3  C   UNL     1     -11.513  19.477   6.062  1.00  0.00     0.053 C 
ATOM      4  C   UNL     1     -12.943  19.887   5.696  1.00  0.00     0.016 C 
BRANCH   3   5
ATOM      5  C   UNL     1     -10.766  20.671   6.708  1.00  0.00     0.015 C 
BRANCH   5   6
ATOM      6  C   UNL     1      -9.559  20.268   7.572  1.00  0.00     0.028 C 
BRANCH   6   7
ATOM      7  C   UNL     1      -9.955  19.289   8.653  1.00  0.00    -0.028 C 
ATOM      8  C   UNL     1      -9.393  18.071   8.842  1.00  0.00    -0.070 CG0
ATOM      9  C   UNL     1      -9.878  17.199   9.971  1.00  0.00     0.039 C 
ATOM     10  G   UNL     1      -8.260  17.539   7.983  1.00  0.00     0.000 G0
ENDBRANCH   6   7
ENDBRANCH   5   6
ENDBRANCH   3   5
ENDBRANCH   1   3
BRANCH   1  11
ATOM     11  C   UNL     1     -10.379  17.513   4.710  1.00  0.00     0.087 C 
BRANCH  11  12
ATOM     12  C   UNL     1      -9.991  16.884   6.074  1.00  0.00     0.066 C 
BRANCH  12  13
ATOM     13  C   UNL     1      -8.608  17.337   6.525  1.00  0.00     0.140 C 
ATOM     14  O   UNL     1      -7.729  17.500   5.690  1.00  0.00    -0.299 OA
BRANCH  13  15
ATOM     15  C   UNL     1      -8.252  17.526   7.982  1.00  0.00     0.106 CG0
ATOM     16  G   UNL     1      -9.389  18.071   8.828  1.00  0.00     0.000 G0
ENDBRANCH  13  15
ENDBRANCH  12  13
BRANCH  12  17
ATOM     17  C   UNL     1     -10.100  15.328   6.108  1.00  0.00    -0.006 C 
ATOM     18  C   UNL     1     -10.019  14.720   4.698  1.00  0.00     0.008 C 
ATOM     19  C   UNL     1      -9.080  14.645   7.034  1.00  0.00     0.008 C 
ENDBRANCH  12  17
ENDBRANCH  11  12
ENDBRANCH   1  11
TORSDOF 1
ENDMDL
MODEL 4
REMARK VINA RESULT:    -3.797      2.611      3.929
REMARK INTER + INTRA:          -5.805
REMARK INTER:                  -5.772
REMARK INTRA:                  -0.034
REMARK UNBOUND:                -0.010
REMARK SMILES CC1=CCC[C@@H](C)C(=O)C[C@@H](C(C)C)C(=O)C1
REMARK SMILES IDX 8 1 9 2 6 3 7 4 5 5 4 6 3 7 2 8 1 9 10 11 11 12 15 13 16 14
REMARK SMILES IDX 17 15 12 17 13 18 14 19
REMARK H PARENT
REMARK Flexibility Score: 70.00
ROOT
ATOM      1  C   UNL     1      -9.606  18.356  10.933  1.00  0.00     0.136 C 
ATOM      2  O   UNL     1      -8.577  18.618  11.539  1.00  0.00    -0.299 OA
ENDROOT
BRANCH   1   3
ATOM      3  C   UNL     1     -10.551  17.306  11.483  1.00  0.00     0.053 C 
ATOM      4  C   UNL     1     -11.153  17.807  12.800  1.00  0.00     0.016 C 
BRANCH   3   5
ATOM      5  C   UNL     1      -9.852  15.942  11.702  1.00  0.00     0.015 C 
BRANCH   5   6
ATOM      6  C   UNL     1      -9.617  15.139  10.412  1.00  0.00     0.028 C 
BRANCH   6   7
ATOM      7  C   UNL     1      -8.144  14.985  10.116  1.00  0.00    -0.028 C 
ATOM      8  C   UNL     1      -7.521  15.448   9.005  1.00  0.00    -0.070 CG0
ATOM      9  C   UNL     1      -6.039  15.235   8.844  1.00  0.00     0.039 C 
ATOM     10  G   UNL     1      -8.243  16.211   7.908  1.00  0.00     0.000 G0
ENDBRANCH   6   7
ENDBRANCH   5   6
ENDBRANCH   3   5
ENDBRANCH   1   3
BRANCH   1  11
ATOM     11  C   UNL     1      -9.932  19.127   9.674  1.00  0.00     0.087 C 
BRANCH  11  12
ATOM     12  C   UNL     1      -9.870  18.254   8.393  1.00  0.00     0.066 C 
BRANCH  12  13
ATOM     13  C   UNL     1      -8.479  17.668   8.184  1.00  0.00     0.140 C 
ATOM     14  O   UNL     1      -7.509  18.413   8.186  1.00  0.00    -0.299 OA
BRANCH  13  15
ATOM     15  C   UNL     1      -8.252  16.200   7.900  1.00  0.00     0.106 CG0
ATOM     16  G   UNL     1      -7.507  15.468   9.002  1.00  0.00     0.000 G0
ENDBRANCH  13  15
ENDBRANCH  12  13
BRANCH  12  17
ATOM     17  C   UNL     1     -10.360  18.984   7.105  1.00  0.00    -0.006 C 
ATOM     18  C   UNL     1     -10.036  20.486   7.141  1.00  0.00     0.008 C 
ATOM     19  C   UNL     1      -9.842  18.366   5.795  1.00  0.00     0.008 C 
ENDBRANCH  12  17
ENDBRANCH  11  12
ENDBRANCH   1  11
TORSDOF 1
ENDMDL
MODEL 5
REMARK VINA RESULT:    -3.737      1.630      3.872
REMARK INTER + INTRA:          -5.714
REMARK INTER:                  -5.392
REMARK INTRA:                  -0.322
REMARK UNBOUND:                -0.010
REMARK SMILES CC1=CCC[C@@H](C)C(=O)C[C@@H](C(C)C)C(=O)C1
REMARK SMILES IDX 8 1 9 2 6 3 7 4 5 5 4 6 3 7 2 8 1 9 10 11 11 12 15 13 16 14
REMARK SMILES IDX 17 15 12 17 13 18 14 19
REMARK H PARENT
REMARK Flexibility Score: 70.00
ROOT
ATOM      1  C   UNL     1     -10.330  17.957   6.375  1.00  0.00     0.136 C 
ATOM      2  O   UNL     1     -11.088  17.438   5.569  1.00  0.00    -0.299 OA
ENDROOT
BRANCH   1   3
ATOM      3  C   UNL     1     -10.248  19.468   6.459  1.00  0.00     0.053 C 
ATOM      4  C   UNL     1     -11.665  20.050   6.514  1.00  0.00     0.016 C 
BRANCH   3   5
ATOM      5  C   UNL     1      -9.467  20.082   5.271  1.00  0.00     0.015 C 
BRANCH   5   6
ATOM      6  C   UNL     1      -8.370  19.168   4.698  1.00  0.00     0.028 C 
BRANCH   6   7
ATOM      7  C   UNL     1      -6.996  19.598   5.157  1.00  0.00    -0.028 C 
ATOM      8  C   UNL     1      -6.231  18.930   6.052  1.00  0.00    -0.070 CG0
ATOM      9  C   UNL     1      -4.870  19.469   6.412  1.00  0.00     0.039 C 
ATOM     10  G   UNL     1      -6.664  17.629   6.705  1.00  0.00     0.000 G0
ENDBRANCH   6   7
ENDBRANCH   5   6
ENDBRANCH   3   5
ENDBRANCH   1   3
BRANCH   1  11
ATOM     11  C   UNL     1      -9.529  17.073   7.305  1.00  0.00     0.087 C 
BRANCH  11  12
ATOM     12  C   UNL     1      -8.732  17.872   8.368  1.00  0.00     0.066 C 
BRANCH  12  13
ATOM     13  C   UNL     1      -7.233  17.807   8.108  1.00  0.00     0.140 C 
ATOM     14  O   UNL     1      -6.456  17.957   9.040  1.00  0.00    -0.299 OA
BRANCH  13  15
ATOM     15  C   UNL     1      -6.658  17.634   6.720  1.00  0.00     0.106 CG0
ATOM     16  G   UNL     1      -6.229  18.935   6.066  1.00  0.00     0.000 G0
ENDBRANCH  13  15
ENDBRANCH  12  13
BRANCH  12  17
ATOM     17  C   UNL     1      -9.055  17.465   9.839  1.00  0.00    -0.006 C 
ATOM     18  C   UNL     1     -10.009  18.465  10.512  1.00  0.00     0.008 C 
ATOM     19  C   UNL     1      -9.600  16.035   9.992  1.00  0.00     0.008 C 
ENDBRANCH  12  17
ENDBRANCH  11  12
ENDBRANCH   1  11
TORSDOF 1
ENDMDL
MODEL 6
REMARK VINA RESULT:    -3.687      4.629      6.677
REMARK INTER + INTRA:          -5.637
REMARK INTER:                  -5.239
REMARK INTRA:                  -0.397
REMARK UNBOUND:                -0.010
REMARK SMILES CC1=CCC[C@@H](C)C(=O)C[C@@H](C(C)C)C(=O)C1
REMARK SMILES IDX 8 1 9 2 6 3 7 4 5 5 4 6 3 7 2 8 1 9 10 11 11 12 15 13 16 14
REMARK SMILES IDX 17 15 12 17 13 18 14 19
REMARK H PARENT
REMARK Flexibility Score: 70.00
ROOT
ATOM      1  C   UNL     1     -10.840  17.324  12.359  1.00  0.00     0.136 C 
ATOM      2  O   UNL     1     -11.809  18.009  12.654  1.00  0.00    -0.299 OA
ENDROOT
BRANCH   1   3
ATOM      3  C   UNL     1     -10.839  15.846  12.696  1.00  0.00     0.053 C 
ATOM      4  C   UNL     1     -12.270  15.305  12.607  1.00  0.00     0.016 C 
BRANCH   3   5
ATOM      5  C   UNL     1     -10.251  15.564  14.101  1.00  0.00     0.015 C 
BRANCH   5   6
ATOM      6  C   UNL     1      -8.828  14.979  14.083  1.00  0.00     0.028 C 
BRANCH   6   7
ATOM      7  C   UNL     1      -7.838  15.910  14.743  1.00  0.00    -0.028 C 
ATOM      8  C   UNL     1      -6.797  16.507  14.116  1.00  0.00    -0.070 CG0
ATOM      9  C   UNL     1      -5.891  17.425  14.895  1.00  0.00     0.039 C 
ATOM     10  G   UNL     1      -6.503  16.323  12.638  1.00  0.00     0.000 G0
ENDBRANCH   6   7
ENDBRANCH   5   6
ENDBRANCH   3   5
ENDBRANCH   1   3
BRANCH   1  11
ATOM     11  C   UNL     1      -9.687  17.963  11.618  1.00  0.00     0.087 C 
BRANCH  11  12
ATOM     12  C   UNL     1      -8.619  16.939  11.155  1.00  0.00     0.066 C 
BRANCH  12  13
ATOM     13  C   UNL     1      -7.243  17.274  11.717  1.00  0.00     0.140 C 
ATOM     14  O   UNL     1      -6.696  18.314  11.378  1.00  0.00    -0.299 OA
BRANCH  13  15
ATOM     15  C   UNL     1      -6.487  16.333  12.627  1.00  0.00     0.106 CG0
ATOM     16  G   UNL     1      -6.802  16.517  14.101  1.00  0.00     0.000 G0
ENDBRANCH  13  15
ENDBRANCH  12  13
BRANCH  12  17
ATOM     17  C   UNL     1      -8.552  16.749   9.608  1.00  0.00    -0.006 C 
ATOM     18  C   UNL     1      -9.177  15.414   9.170  1.00  0.00     0.008 C 
ATOM     19  C   UNL     1      -9.168  17.906   8.805  1.00  0.00     0.008 C 
ENDBRANCH  12  17
ENDBRANCH  11  12
ENDBRANCH   1  11
TORSDOF 1
ENDMDL
MODEL 7
REMARK VINA RESULT:    -3.634      1.578      3.918
REMARK INTER + INTRA:          -5.556
REMARK INTER:                  -5.350
REMARK INTRA:                  -0.206
REMARK UNBOUND:                -0.010
REMARK SMILES CC1=CCC[C@@H](C)C(=O)C[C@@H](C(C)C)C(=O)C1
REMARK SMILES IDX 8 1 9 2 6 3 7 4 5 5 4 6 3 7 2 8 1 9 10 11 11 12 15 13 16 14
REMARK SMILES IDX 17 15 12 17 13 18 14 19
REMARK H PARENT
REMARK Flexibility Score: 70.00
ROOT
ATOM      1  C   UNL     1      -9.999  19.005   8.201  1.00  0.00     0.136 C 
ATOM      2  O   UNL     1      -9.732  19.294   9.358  1.00  0.00    -0.299 OA
ENDROOT
BRANCH   1   3
ATOM      3  C   UNL     1     -10.655  20.037   7.305  1.00  0.00     0.053 C 
ATOM      4  C   UNL     1     -11.112  19.364   6.007  1.00  0.00     0.016 C 
BRANCH   3   5
ATOM      5  C   UNL     1      -9.712  21.223   6.986  1.00  0.00     0.015 C 
BRANCH   5   6
ATOM      6  C   UNL     1      -8.844  21.019   5.732  1.00  0.00     0.028 C 
BRANCH   6   7
ATOM      7  C   UNL     1      -7.386  20.851   6.090  1.00  0.00    -0.028 C 
ATOM      8  C   UNL     1      -6.720  19.672   6.102  1.00  0.00    -0.070 CG0
ATOM      9  C   UNL     1      -5.258  19.650   6.469  1.00  0.00     0.039 C 
ATOM     10  G   UNL     1      -7.368  18.350   5.731  1.00  0.00     0.000 G0
ENDBRANCH   6   7
ENDBRANCH   5   6
ENDBRANCH   3   5
ENDBRANCH   1   3
BRANCH   1  11
ATOM     11  C   UNL     1      -9.621  17.637   7.679  1.00  0.00     0.087 C 
BRANCH  11  12
ATOM     12  C   UNL     1      -8.162  17.237   8.024  1.00  0.00     0.066 C 
BRANCH  12  13
ATOM     13  C   UNL     1      -7.272  17.254   6.788  1.00  0.00     0.140 C 
ATOM     14  O   UNL     1      -6.397  16.408   6.669  1.00  0.00    -0.299 OA
BRANCH  13  15
ATOM     15  C   UNL     1      -7.378  18.326   5.727  1.00  0.00     0.106 CG0
ATOM     16  G   UNL     1      -6.732  19.644   6.117  1.00  0.00     0.000 G0
ENDBRANCH  13  15
ENDBRANCH  12  13
BRANCH  12  17
ATOM     17  C   UNL     1      -8.039  15.875   8.774  1.00  0.00    -0.006 C 
ATOM     18  C   UNL     1      -6.899  15.892   9.805  1.00  0.00     0.008 C 
ATOM     19  C   UNL     1      -9.342  15.404   9.441  1.00  0.00     0.008 C 
ENDBRANCH  12  17
ENDBRANCH  11  12
ENDBRANCH   1  11
TORSDOF 1
ENDMDL
MODEL 8
REMARK VINA RESULT:    -3.606     12.361     14.209
REMARK INTER + INTRA:          -5.514
REMARK INTER:                  -5.065
REMARK INTRA:                  -0.449
REMARK UNBOUND:                -0.010
REMARK SMILES CC1=CCC[C@@H](C)C(=O)C[C@@H](C(C)C)C(=O)C1
REMARK SMILES IDX 8 1 9 2 6 3 7 4 5 5 4 6 3 7 2 8 1 9 10 11 11 12 15 13 16 14
REMARK SMILES IDX 17 15 12 17 13 18 14 19
REMARK H PARENT
REMARK Flexibility Score: 70.00
ROOT
ATOM      1  C   UNL     1      -7.682  19.390  18.447  1.00  0.00     0.136 C 
ATOM      2  O   UNL     1      -8.051  18.587  17.602  1.00  0.00    -0.299 OA
ENDROOT
BRANCH   1   3
ATOM      3  C   UNL     1      -6.421  20.196  18.211  1.00  0.00     0.053 C 
ATOM      4  C   UNL     1      -6.573  21.008  16.920  1.00  0.00     0.016 C 
BRANCH   3   5
ATOM      5  C   UNL     1      -5.158  19.304  18.133  1.00  0.00     0.015 C 
BRANCH   5   6
ATOM      6  C   UNL     1      -4.316  19.288  19.420  1.00  0.00     0.028 C 
BRANCH   6   7
ATOM      7  C   UNL     1      -4.840  18.275  20.412  1.00  0.00    -0.028 C 
ATOM      8  C   UNL     1      -5.548  18.574  21.527  1.00  0.00    -0.070 CG0
ATOM      9  C   UNL     1      -6.021  17.460  22.425  1.00  0.00     0.039 C 
ATOM     10  G   UNL     1      -5.925  19.993  21.914  1.00  0.00     0.000 G0
ENDBRANCH   6   7
ENDBRANCH   5   6
ENDBRANCH   3   5
ENDBRANCH   1   3
BRANCH   1  11
ATOM     11  C   UNL     1      -8.526  19.592  19.685  1.00  0.00     0.087 C 
BRANCH  11  12
ATOM     12  C   UNL     1      -8.052  20.784  20.557  1.00  0.00     0.066 C 
BRANCH  12  13
ATOM     13  C   UNL     1      -7.392  20.307  21.844  1.00  0.00     0.140 C 
ATOM     14  O   UNL     1      -8.061  20.222  22.864  1.00  0.00    -0.299 OA
BRANCH  13  15
ATOM     15  C   UNL     1      -5.914  19.999  21.932  1.00  0.00     0.106 CG0
ATOM     16  G   UNL     1      -5.555  18.581  21.528  1.00  0.00     0.000 G0
ENDBRANCH  13  15
ENDBRANCH  12  13
BRANCH  12  17
ATOM     17  C   UNL     1      -9.169  21.828  20.864  1.00  0.00    -0.006 C 
ATOM     18  C   UNL     1      -8.770  23.242  20.410  1.00  0.00     0.008 C 
ATOM     19  C   UNL     1     -10.548  21.462  20.289  1.00  0.00     0.008 C 
ENDBRANCH  12  17
ENDBRANCH  11  12
ENDBRANCH   1  11
TORSDOF 1
ENDMDL
MODEL 9
REMARK VINA RESULT:    -3.571      5.462      7.932
REMARK INTER + INTRA:          -5.460
REMARK INTER:                  -5.392
REMARK INTRA:                  -0.068
REMARK UNBOUND:                -0.010
REMARK SMILES CC1=CCC[C@@H](C)C(=O)C[C@@H](C(C)C)C(=O)C1
REMARK SMILES IDX 8 1 9 2 6 3 7 4 5 5 4 6 3 7 2 8 1 9 10 11 11 12 15 13 16 14
REMARK SMILES IDX 17 15 12 17 13 18 14 19
REMARK H PARENT
REMARK Flexibility Score: 70.00
ROOT
ATOM      1  C   UNL     1      -8.944  19.086  12.934  1.00  0.00     0.136 C 
ATOM      2  O   UNL     1      -8.185  20.020  12.718  1.00  0.00    -0.299 OA
ENDROOT
BRANCH   1   3
ATOM      3  C   UNL     1     -10.043  18.771  11.939  1.00  0.00     0.053 C 
ATOM      4  C   UNL     1     -11.145  17.968  12.639  1.00  0.00     0.016 C 
BRANCH   3   5
ATOM      5  C   UNL     1      -9.517  17.991  10.709  1.00  0.00     0.015 C 
BRANCH   5   6
ATOM      6  C   UNL     1      -9.553  16.462  10.869  1.00  0.00     0.028 C 
BRANCH   6   7
ATOM      7  C   UNL     1      -8.174  15.859  10.742  1.00  0.00    -0.028 C 
ATOM      8  C   UNL     1      -7.390  15.486  11.782  1.00  0.00    -0.070 CG0
ATOM      9  C   UNL     1      -6.036  14.885  11.511  1.00  0.00     0.039 C 
ATOM     10  G   UNL     1      -7.821  15.615  13.232  1.00  0.00     0.000 G0
ENDBRANCH   6   7
ENDBRANCH   5   6
ENDBRANCH   3   5
ENDBRANCH   1   3
BRANCH   1  11
ATOM     11  C   UNL     1      -8.732  18.238  14.168  1.00  0.00     0.087 C 
BRANCH  11  12
ATOM     12  C   UNL     1      -7.238  17.912  14.432  1.00  0.00     0.066 C 
BRANCH  12  13
ATOM     13  C   UNL     1      -6.913  16.465  14.086  1.00  0.00     0.140 C 
ATOM     14  O   UNL     1      -5.854  15.983  14.461  1.00  0.00    -0.299 OA
BRANCH  13  15
ATOM     15  C   UNL     1      -7.821  15.613  13.227  1.00  0.00     0.106 CG0
ATOM     16  G   UNL     1      -7.377  15.506  11.779  1.00  0.00     0.000 G0
ENDBRANCH  13  15
ENDBRANCH  12  13
BRANCH  12  17
ATOM     17  C   UNL     1      -6.761  18.254  15.877  1.00  0.00    -0.006 C 
ATOM     18  C   UNL     1      -6.600  19.769  16.082  1.00  0.00     0.008 C 
ATOM     19  C   UNL     1      -7.647  17.666  16.988  1.00  0.00     0.008 C 
ENDBRANCH  12  17
ENDBRANCH  11  12
ENDBRANCH   1  11
TORSDOF 1
ENDMDL
