MODEL 1
REMARK VINA RESULT:    -8.053      0.000      0.000
REMARK INTER + INTRA:         -12.204
REMARK INTER:                 -11.113
REMARK INTRA:                  -1.091
REMARK UNBOUND:                -1.091
REMARK SMILES O=C([O-])[C@@H]1O[C@@H](Oc2cc3oc(-c4ccccc4)cc(=O)c3c(O)c2O)[C@H](O)[C@@H](O)[C@@H]1O
REMARK SMILES IDX 7 1 6 2 4 3 31 4 5 5 29 6 27 7 2 8 1 9 3 10 32 11 30 13
REMARK SMILES IDX 28 15 8 17 25 18 9 19 23 20 10 21 22 22 11 23 20 24 12 25
REMARK SMILES IDX 19 26 21 27 26 28 24 30 13 32 14 33 18 34 15 35 17 36 16 37
REMARK H PARENT 32 12 30 14 28 16 26 29 24 31
REMARK Flexibility Score: inf
ROOT
ATOM      1  O   UNL     1     -37.412 -16.204  -8.189  1.00  0.00    -0.458 OA
ENDROOT
BRANCH   1   2
ATOM      2  C   UNL     1     -37.286 -16.570  -6.808  1.00  0.00     0.339 C 
ATOM      3  C   UNL     1     -36.902 -18.825  -7.340  1.00  0.00     0.199 C 
ATOM      4  C   UNL     1     -38.211 -19.315  -6.685  1.00  0.00     0.180 C 
ATOM      5  O   UNL     1     -36.404 -17.675  -6.674  1.00  0.00    -0.328 OA
ATOM      6  C   UNL     1     -39.257 -18.185  -6.711  1.00  0.00     0.181 C 
ATOM      7  C   UNL     1     -38.661 -16.877  -6.158  1.00  0.00     0.214 C 
BRANCH   3   8
ATOM      8  C   UNL     1     -35.861 -19.906  -7.313  1.00  0.00     0.073 C 
ATOM      9  O   UNL     1     -34.640 -19.623  -7.435  1.00  0.00    -0.547 OA
ATOM     10  O   UNL     1     -36.240 -21.225  -7.098  1.00  0.00    -0.547 OA
ENDBRANCH   3   8
BRANCH   4  11
ATOM     11  O   UNL     1     -37.981 -19.703  -5.352  1.00  0.00    -0.387 OA
ATOM     12  H   UNL     1     -37.274 -20.400  -5.367  1.00  0.00     0.211 HD
ENDBRANCH   4  11
BRANCH   6  13
ATOM     13  O   UNL     1     -39.709 -17.974  -8.025  1.00  0.00    -0.387 OA
ATOM     14  H   UNL     1     -40.221 -17.124  -8.020  1.00  0.00     0.211 HD
ENDBRANCH   6  13
BRANCH   7  15
ATOM     15  O   UNL     1     -38.513 -16.986  -4.766  1.00  0.00    -0.384 OA
ATOM     16  H   UNL     1     -37.576 -17.270  -4.597  1.00  0.00     0.211 HD
ENDBRANCH   7  15
ENDBRANCH   1   2
BRANCH   1  17
ATOM     17  C   UNL     1     -36.741 -15.172  -8.873  1.00  0.00     0.172 A 
ATOM     18  C   UNL     1     -36.224 -15.290 -10.186  1.00  0.00     0.201 A 
ATOM     19  C   UNL     1     -36.611 -13.962  -8.191  1.00  0.00     0.098 A 
ATOM     20  C   UNL     1     -35.509 -14.207 -10.762  1.00  0.00     0.176 A 
ATOM     21  C   UNL     1     -35.951 -12.878  -8.762  1.00  0.00     0.146 A 
ATOM     22  C   UNL     1     -35.387 -12.988 -10.051  1.00  0.00     0.111 A 
ATOM     23  O   UNL     1     -35.854 -11.746  -8.072  1.00  0.00    -0.456 OA
ATOM     24  C   UNL     1     -34.716 -11.857 -10.564  1.00  0.00     0.197 A 
ATOM     25  C   UNL     1     -35.240 -10.659  -8.532  1.00  0.00     0.138 A 
ATOM     26  C   UNL     1     -34.642 -10.691  -9.801  1.00  0.00     0.100 A 
ATOM     27  O   UNL     1     -34.175 -11.871 -11.703  1.00  0.00    -0.289 OA
BRANCH  18  28
ATOM     28  O   UNL     1     -36.459 -16.462 -10.908  1.00  0.00    -0.502 OA
ATOM     29  H   UNL     1     -35.853 -17.269 -10.904  1.00  0.00     0.293 HD
ENDBRANCH  18  28
BRANCH  20  30
ATOM     30  O   UNL     1     -34.907 -14.321 -12.020  1.00  0.00    -0.504 OA
ATOM     31  H   UNL     1     -35.236 -14.925 -12.759  1.00  0.00     0.293 HD
ENDBRANCH  20  30
BRANCH  25  32
ATOM     32  C   UNL     1     -35.194  -9.448  -7.673  1.00  0.00     0.017 A 
ATOM     33  C   UNL     1     -36.185  -9.188  -6.704  1.00  0.00     0.012 A 
ATOM     34  C   UNL     1     -34.121  -8.547  -7.803  1.00  0.00     0.012 A 
ATOM     35  C   UNL     1     -36.109  -8.043  -5.904  1.00  0.00     0.001 A 
ATOM     36  C   UNL     1     -34.051  -7.404  -7.000  1.00  0.00     0.001 A 
ATOM     37  C   UNL     1     -35.046  -7.150  -6.054  1.00  0.00     0.000 A 
ENDBRANCH  25  32
ENDBRANCH   1  17
TORSDOF 9
ENDMDL
MODEL 2
REMARK VINA RESULT:    -7.926      1.079      1.917
REMARK INTER + INTRA:         -12.030
REMARK INTER:                 -10.760
REMARK INTRA:                  -1.269
REMARK UNBOUND:                -1.091
REMARK SMILES O=C([O-])[C@@H]1O[C@@H](Oc2cc3oc(-c4ccccc4)cc(=O)c3c(O)c2O)[C@H](O)[C@@H](O)[C@@H]1O
REMARK SMILES IDX 7 1 6 2 4 3 31 4 5 5 29 6 27 7 2 8 1 9 3 10 32 11 30 13
REMARK SMILES IDX 28 15 8 17 25 18 9 19 23 20 10 21 22 22 11 23 20 24 12 25
REMARK SMILES IDX 19 26 21 27 26 28 24 30 13 32 14 33 18 34 15 35 17 36 16 37
REMARK H PARENT 32 12 30 14 28 16 26 29 24 31
REMARK Flexibility Score: inf
ROOT
ATOM      1  O   UNL     1     -36.843 -16.353  -7.522  1.00  0.00    -0.458 OA
ENDROOT
BRANCH   1   2
ATOM      2  C   UNL     1     -38.207 -16.696  -7.239  1.00  0.00     0.339 C 
ATOM      3  C   UNL     1     -37.580 -18.203  -5.551  1.00  0.00     0.199 C 
ATOM      4  C   UNL     1     -38.100 -19.442  -6.313  1.00  0.00     0.180 C 
ATOM      5  O   UNL     1     -38.347 -17.053  -5.872  1.00  0.00    -0.328 OA
ATOM      6  C   UNL     1     -38.055 -19.172  -7.828  1.00  0.00     0.181 C 
ATOM      7  C   UNL     1     -38.727 -17.828  -8.165  1.00  0.00     0.214 C 
BRANCH   3   8
ATOM      8  C   UNL     1     -37.628 -18.437  -4.069  1.00  0.00     0.073 C 
ATOM      9  O   UNL     1     -38.656 -18.136  -3.406  1.00  0.00    -0.547 OA
ATOM     10  O   UNL     1     -36.553 -19.039  -3.429  1.00  0.00    -0.547 OA
ENDBRANCH   3   8
BRANCH   4  11
ATOM     11  O   UNL     1     -39.424 -19.734  -5.933  1.00  0.00    -0.387 OA
ATOM     12  H   UNL     1     -39.874 -20.135  -6.722  1.00  0.00     0.211 HD
ENDBRANCH   4  11
BRANCH   6  13
ATOM     13  O   UNL     1     -36.724 -19.155  -8.278  1.00  0.00    -0.387 OA
ATOM     14  H   UNL     1     -36.279 -18.388  -7.833  1.00  0.00     0.211 HD
ENDBRANCH   6  13
BRANCH   7  15
ATOM     15  O   UNL     1     -40.118 -17.954  -8.021  1.00  0.00    -0.384 OA
ATOM     16  H   UNL     1     -40.353 -17.561  -7.140  1.00  0.00     0.211 HD
ENDBRANCH   7  15
ENDBRANCH   1   2
BRANCH   1  17
ATOM     17  C   UNL     1     -36.367 -15.323  -8.355  1.00  0.00     0.172 A 
ATOM     18  C   UNL     1     -36.052 -15.487  -9.726  1.00  0.00     0.201 A 
ATOM     19  C   UNL     1     -36.226 -14.067  -7.764  1.00  0.00     0.098 A 
ATOM     20  C   UNL     1     -35.520 -14.396 -10.463  1.00  0.00     0.176 A 
ATOM     21  C   UNL     1     -35.747 -12.978  -8.487  1.00  0.00     0.146 A 
ATOM     22  C   UNL     1     -35.383 -13.130  -9.843  1.00  0.00     0.111 A 
ATOM     23  O   UNL     1     -35.631 -11.801  -7.880  1.00  0.00    -0.456 OA
ATOM     24  C   UNL     1     -34.888 -11.990 -10.513  1.00  0.00     0.197 A 
ATOM     25  C   UNL     1     -35.179 -10.706  -8.486  1.00  0.00     0.138 A 
ATOM     26  C   UNL     1     -34.785 -10.777  -9.831  1.00  0.00     0.100 A 
ATOM     27  O   UNL     1     -34.530 -12.038 -11.721  1.00  0.00    -0.289 OA
BRANCH  18  28
ATOM     28  O   UNL     1     -36.306 -16.714 -10.341  1.00  0.00    -0.502 OA
ATOM     29  H   UNL     1     -37.221 -17.040 -10.615  1.00  0.00     0.293 HD
ENDBRANCH  18  28
BRANCH  20  30
ATOM     30  O   UNL     1     -35.113 -14.547 -11.793  1.00  0.00    -0.504 OA
ATOM     31  H   UNL     1     -35.365 -15.327 -12.382  1.00  0.00     0.293 HD
ENDBRANCH  20  30
BRANCH  25  32
ATOM     32  C   UNL     1     -35.094  -9.444  -7.708  1.00  0.00     0.017 A 
ATOM     33  C   UNL     1     -36.078  -9.085  -6.766  1.00  0.00     0.012 A 
ATOM     34  C   UNL     1     -33.988  -8.593  -7.889  1.00  0.00     0.012 A 
ATOM     35  C   UNL     1     -35.965  -7.894  -6.041  1.00  0.00     0.001 A 
ATOM     36  C   UNL     1     -33.880  -7.403  -7.162  1.00  0.00     0.001 A 
ATOM     37  C   UNL     1     -34.869  -7.052  -6.241  1.00  0.00     0.000 A 
ENDBRANCH  25  32
ENDBRANCH   1  17
TORSDOF 9
ENDMDL
MODEL 3
REMARK VINA RESULT:    -7.827      2.669      8.266
REMARK INTER + INTRA:         -11.893
REMARK INTER:                 -10.781
REMARK INTRA:                  -1.112
REMARK UNBOUND:                -1.091
REMARK SMILES O=C([O-])[C@@H]1O[C@@H](Oc2cc3oc(-c4ccccc4)cc(=O)c3c(O)c2O)[C@H](O)[C@@H](O)[C@@H]1O
REMARK SMILES IDX 7 1 6 2 4 3 31 4 5 5 29 6 27 7 2 8 1 9 3 10 32 11 30 13
REMARK SMILES IDX 28 15 8 17 25 18 9 19 23 20 10 21 22 22 11 23 20 24 12 25
REMARK SMILES IDX 19 26 21 27 26 28 24 30 13 32 14 33 18 34 15 35 17 36 16 37
REMARK H PARENT 32 12 30 14 28 16 26 29 24 31
REMARK Flexibility Score: inf
ROOT
ATOM      1  O   UNL     1     -37.661 -14.658  -7.320  1.00  0.00    -0.458 OA
ENDROOT
BRANCH   1   2
ATOM      2  C   UNL     1     -37.655 -13.841  -8.499  1.00  0.00     0.339 C 
ATOM      3  C   UNL     1     -35.623 -12.827  -7.905  1.00  0.00     0.199 C 
ATOM      4  C   UNL     1     -36.249 -11.428  -7.720  1.00  0.00     0.180 C 
ATOM      5  O   UNL     1     -36.320 -13.566  -8.896  1.00  0.00    -0.328 OA
ATOM      6  C   UNL     1     -37.733 -11.574  -7.335  1.00  0.00     0.181 C 
ATOM      7  C   UNL     1     -38.458 -12.527  -8.303  1.00  0.00     0.214 C 
BRANCH   3   8
ATOM      8  C   UNL     1     -34.178 -12.710  -8.295  1.00  0.00     0.073 C 
ATOM      9  O   UNL     1     -33.629 -13.601  -8.997  1.00  0.00    -0.547 OA
ATOM     10  O   UNL     1     -33.451 -11.585  -7.926  1.00  0.00    -0.547 OA
ENDBRANCH   3   8
BRANCH   4  11
ATOM     11  O   UNL     1     -36.150 -10.681  -8.909  1.00  0.00    -0.387 OA
ATOM     12  H   UNL     1     -36.024  -9.731  -8.649  1.00  0.00     0.211 HD
ENDBRANCH   4  11
BRANCH   6  13
ATOM     13  O   UNL     1     -37.848 -12.065  -6.023  1.00  0.00    -0.387 OA
ATOM     14  H   UNL     1     -36.928 -12.269  -5.711  1.00  0.00     0.211 HD
ENDBRANCH   6  13
BRANCH   7  15
ATOM     15  O   UNL     1     -38.630 -11.889  -9.543  1.00  0.00    -0.384 OA
ATOM     16  H   UNL     1     -39.479 -12.232  -9.927  1.00  0.00     0.211 HD
ENDBRANCH   7  15
ENDBRANCH   1   2
BRANCH   1  17
ATOM     17  C   UNL     1     -37.421 -16.042  -7.227  1.00  0.00     0.172 A 
ATOM     18  C   UNL     1     -38.435 -17.018  -7.067  1.00  0.00     0.201 A 
ATOM     19  C   UNL     1     -36.089 -16.444  -7.321  1.00  0.00     0.098 A 
ATOM     20  C   UNL     1     -38.080 -18.386  -6.922  1.00  0.00     0.176 A 
ATOM     21  C   UNL     1     -35.732 -17.786  -7.225  1.00  0.00     0.146 A 
ATOM     22  C   UNL     1     -36.721 -18.772  -7.019  1.00  0.00     0.111 A 
ATOM     23  O   UNL     1     -34.449 -18.120  -7.322  1.00  0.00    -0.456 OA
ATOM     24  C   UNL     1     -36.289 -20.112  -6.913  1.00  0.00     0.197 A 
ATOM     25  C   UNL     1     -34.011 -19.374  -7.238  1.00  0.00     0.138 A 
ATOM     26  C   UNL     1     -34.930 -20.411  -7.022  1.00  0.00     0.100 A 
ATOM     27  O   UNL     1     -37.103 -21.055  -6.719  1.00  0.00    -0.289 OA
BRANCH  18  28
ATOM     28  O   UNL     1     -39.773 -16.621  -7.091  1.00  0.00    -0.502 OA
ATOM     29  H   UNL     1     -40.133 -15.789  -6.647  1.00  0.00     0.293 HD
ENDBRANCH  18  28
BRANCH  20  30
ATOM     30  O   UNL     1     -39.048 -19.364  -6.672  1.00  0.00    -0.504 OA
ATOM     31  H   UNL     1     -39.176 -20.197  -7.228  1.00  0.00     0.293 HD
ENDBRANCH  20  30
BRANCH  25  32
ATOM     32  C   UNL     1     -32.553 -19.630  -7.363  1.00  0.00     0.017 A 
ATOM     33  C   UNL     1     -31.880 -19.503  -8.594  1.00  0.00     0.012 A 
ATOM     34  C   UNL     1     -31.811 -19.980  -6.219  1.00  0.00     0.012 A 
ATOM     35  C   UNL     1     -30.504 -19.741  -8.677  1.00  0.00     0.001 A 
ATOM     36  C   UNL     1     -30.437 -20.217  -6.308  1.00  0.00     0.001 A 
ATOM     37  C   UNL     1     -29.783 -20.101  -7.537  1.00  0.00     0.000 A 
ENDBRANCH  25  32
ENDBRANCH   1  17
TORSDOF 9
ENDMDL
MODEL 4
REMARK VINA RESULT:    -7.543     10.885     14.246
REMARK INTER + INTRA:         -11.500
REMARK INTER:                 -10.400
REMARK INTRA:                  -1.100
REMARK UNBOUND:                -1.091
REMARK SMILES O=C([O-])[C@@H]1O[C@@H](Oc2cc3oc(-c4ccccc4)cc(=O)c3c(O)c2O)[C@H](O)[C@@H](O)[C@@H]1O
REMARK SMILES IDX 7 1 6 2 4 3 31 4 5 5 29 6 27 7 2 8 1 9 3 10 32 11 30 13
REMARK SMILES IDX 28 15 8 17 25 18 9 19 23 20 10 21 22 22 11 23 20 24 12 25
REMARK SMILES IDX 19 26 21 27 26 28 24 30 13 32 14 33 18 34 15 35 17 36 16 37
REMARK H PARENT 32 12 30 14 28 16 26 29 24 31
REMARK Flexibility Score: inf
ROOT
ATOM      1  O   UNL     1     -26.968 -14.133  -0.636  1.00  0.00    -0.458 OA
ENDROOT
BRANCH   1   2
ATOM      2  C   UNL     1     -27.355 -13.549   0.616  1.00  0.00     0.339 C 
ATOM      3  C   UNL     1     -28.623 -11.880  -0.441  1.00  0.00     0.199 C 
ATOM      4  C   UNL     1     -27.712 -10.730   0.040  1.00  0.00     0.180 C 
ATOM      5  O   UNL     1     -28.633 -12.944   0.498  1.00  0.00    -0.328 OA
ATOM      6  C   UNL     1     -26.284 -11.262   0.264  1.00  0.00     0.181 C 
ATOM      7  C   UNL     1     -26.304 -12.532   1.135  1.00  0.00     0.214 C 
BRANCH   3   8
ATOM      8  C   UNL     1     -30.025 -11.388  -0.653  1.00  0.00     0.073 C 
ATOM      9  O   UNL     1     -30.453 -11.152  -1.814  1.00  0.00    -0.547 OA
ATOM     10  O   UNL     1     -30.878 -11.242   0.434  1.00  0.00    -0.547 OA
ENDBRANCH   3   8
BRANCH   4  11
ATOM     11  O   UNL     1     -28.198 -10.186   1.243  1.00  0.00    -0.387 OA
ATOM     12  H   UNL     1     -28.793 -10.866   1.654  1.00  0.00     0.211 HD
ENDBRANCH   4  11
BRANCH   6  13
ATOM     13  O   UNL     1     -25.676 -11.552  -0.970  1.00  0.00    -0.387 OA
ATOM     14  H   UNL     1     -26.299 -11.245  -1.678  1.00  0.00     0.211 HD
ENDBRANCH   6  13
BRANCH   7  15
ATOM     15  O   UNL     1     -26.602 -12.180   2.462  1.00  0.00    -0.384 OA
ATOM     16  H   UNL     1     -27.199 -12.889   2.820  1.00  0.00     0.211 HD
ENDBRANCH   7  15
ENDBRANCH   1   2
BRANCH   1  17
ATOM     17  C   UNL     1     -27.387 -15.360  -1.183  1.00  0.00     0.172 A 
ATOM     18  C   UNL     1     -27.900 -15.516  -2.494  1.00  0.00     0.201 A 
ATOM     19  C   UNL     1     -27.257 -16.479  -0.360  1.00  0.00     0.098 A 
ATOM     20  C   UNL     1     -28.352 -16.791  -2.927  1.00  0.00     0.176 A 
ATOM     21  C   UNL     1     -27.656 -17.742  -0.788  1.00  0.00     0.146 A 
ATOM     22  C   UNL     1     -28.213 -17.913  -2.074  1.00  0.00     0.111 A 
ATOM     23  O   UNL     1     -27.511 -18.777   0.033  1.00  0.00    -0.456 OA
ATOM     24  C   UNL     1     -28.613 -19.217  -2.440  1.00  0.00     0.197 A 
ATOM     25  C   UNL     1     -27.867 -20.019  -0.285  1.00  0.00     0.138 A 
ATOM     26  C   UNL     1     -28.439 -20.270  -1.541  1.00  0.00     0.100 A 
ATOM     27  O   UNL     1     -29.129 -19.458  -3.564  1.00  0.00    -0.289 OA
BRANCH  18  28
ATOM     28  O   UNL     1     -27.918 -14.416  -3.354  1.00  0.00    -0.502 OA
ATOM     29  H   UNL     1     -27.476 -14.391  -4.262  1.00  0.00     0.293 HD
ENDBRANCH  18  28
BRANCH  20  30
ATOM     30  O   UNL     1     -28.948 -16.962  -4.181  1.00  0.00    -0.504 OA
ATOM     31  H   UNL     1     -28.495 -16.764  -5.062  1.00  0.00     0.293 HD
ENDBRANCH  20  30
BRANCH  25  32
ATOM     32  C   UNL     1     -27.656 -21.099   0.712  1.00  0.00     0.017 A 
ATOM     33  C   UNL     1     -26.390 -21.681   0.920  1.00  0.00     0.012 A 
ATOM     34  C   UNL     1     -28.740 -21.537   1.496  1.00  0.00     0.012 A 
ATOM     35  C   UNL     1     -26.222 -22.690   1.875  1.00  0.00     0.001 A 
ATOM     36  C   UNL     1     -28.566 -22.546   2.448  1.00  0.00     0.001 A 
ATOM     37  C   UNL     1     -27.309 -23.125   2.635  1.00  0.00     0.000 A 
ENDBRANCH  25  32
ENDBRANCH   1  17
TORSDOF 9
ENDMDL
MODEL 5
REMARK VINA RESULT:    -7.280      9.880     12.739
REMARK INTER + INTRA:         -11.138
REMARK INTER:                  -9.791
REMARK INTRA:                  -1.347
REMARK UNBOUND:                -1.091
REMARK SMILES O=C([O-])[C@@H]1O[C@@H](Oc2cc3oc(-c4ccccc4)cc(=O)c3c(O)c2O)[C@H](O)[C@@H](O)[C@@H]1O
REMARK SMILES IDX 7 1 6 2 4 3 31 4 5 5 29 6 27 7 2 8 1 9 3 10 32 11 30 13
REMARK SMILES IDX 28 15 8 17 25 18 9 19 23 20 10 21 22 22 11 23 20 24 12 25
REMARK SMILES IDX 19 26 21 27 26 28 24 30 13 32 14 33 18 34 15 35 17 36 16 37
REMARK H PARENT 32 12 30 14 28 16 26 29 24 31
REMARK Flexibility Score: inf
ROOT
ATOM      1  O   UNL     1     -28.529 -13.174  -0.700  1.00  0.00    -0.458 OA
ENDROOT
BRANCH   1   2
ATOM      2  C   UNL     1     -27.636 -13.319   0.414  1.00  0.00     0.339 C 
ATOM      3  C   UNL     1     -29.023 -12.045   1.817  1.00  0.00     0.199 C 
ATOM      4  C   UNL     1     -27.999 -10.900   1.971  1.00  0.00     0.180 C 
ATOM      5  O   UNL     1     -28.366 -13.290   1.631  1.00  0.00    -0.328 OA
ATOM      6  C   UNL     1     -27.091 -10.848   0.728  1.00  0.00     0.181 C 
ATOM      7  C   UNL     1     -26.519 -12.242   0.410  1.00  0.00     0.214 C 
BRANCH   3   8
ATOM      8  C   UNL     1     -29.911 -12.125   3.025  1.00  0.00     0.073 C 
ATOM      9  O   UNL     1     -29.503 -12.670   4.085  1.00  0.00    -0.547 OA
ATOM     10  O   UNL     1     -31.174 -11.547   2.994  1.00  0.00    -0.547 OA
ENDBRANCH   3   8
BRANCH   4  11
ATOM     11  O   UNL     1     -27.205 -11.099   3.116  1.00  0.00    -0.387 OA
ATOM     12  H   UNL     1     -26.610 -10.309   3.202  1.00  0.00     0.211 HD
ENDBRANCH   4  11
BRANCH   6  13
ATOM     13  O   UNL     1     -27.815 -10.377  -0.381  1.00  0.00    -0.387 OA
ATOM     14  H   UNL     1     -27.766 -11.081  -1.078  1.00  0.00     0.211 HD
ENDBRANCH   6  13
BRANCH   7  15
ATOM     15  O   UNL     1     -25.541 -12.572   1.363  1.00  0.00    -0.384 OA
ATOM     16  H   UNL     1     -25.122 -11.719   1.652  1.00  0.00     0.211 HD
ENDBRANCH   7  15
ENDBRANCH   1   2
BRANCH   1  17
ATOM     17  C   UNL     1     -28.456 -13.811  -1.953  1.00  0.00     0.172 A 
ATOM     18  C   UNL     1     -27.955 -13.201  -3.129  1.00  0.00     0.201 A 
ATOM     19  C   UNL     1     -28.896 -15.133  -2.000  1.00  0.00     0.098 A 
ATOM     20  C   UNL     1     -27.982 -13.913  -4.359  1.00  0.00     0.176 A 
ATOM     21  C   UNL     1     -28.886 -15.857  -3.189  1.00  0.00     0.146 A 
ATOM     22  C   UNL     1     -28.435 -15.254  -4.383  1.00  0.00     0.111 A 
ATOM     23  O   UNL     1     -29.315 -17.115  -3.182  1.00  0.00    -0.456 OA
ATOM     24  C   UNL     1     -28.468 -16.037  -5.558  1.00  0.00     0.197 A 
ATOM     25  C   UNL     1     -29.348 -17.883  -4.269  1.00  0.00     0.138 A 
ATOM     26  C   UNL     1     -28.927 -17.354  -5.498  1.00  0.00     0.100 A 
ATOM     27  O   UNL     1     -28.093 -15.576  -6.670  1.00  0.00    -0.289 OA
BRANCH  18  28
ATOM     28  O   UNL     1     -27.408 -11.919  -3.053  1.00  0.00    -0.502 OA
ATOM     29  H   UNL     1     -27.288 -11.397  -2.197  1.00  0.00     0.293 HD
ENDBRANCH  18  28
BRANCH  20  30
ATOM     30  O   UNL     1     -27.581 -13.310  -5.555  1.00  0.00    -0.504 OA
ATOM     31  H   UNL     1     -28.131 -13.295  -6.401  1.00  0.00     0.293 HD
ENDBRANCH  20  30
BRANCH  25  32
ATOM     32  C   UNL     1     -29.846 -19.276  -4.142  1.00  0.00     0.017 A 
ATOM     33  C   UNL     1     -29.398 -20.134  -3.118  1.00  0.00     0.012 A 
ATOM     34  C   UNL     1     -30.813 -19.750  -5.048  1.00  0.00     0.012 A 
ATOM     35  C   UNL     1     -29.893 -21.439  -3.020  1.00  0.00     0.001 A 
ATOM     36  C   UNL     1     -31.304 -21.055  -4.944  1.00  0.00     0.001 A 
ATOM     37  C   UNL     1     -30.842 -21.900  -3.933  1.00  0.00     0.000 A 
ENDBRANCH  25  32
ENDBRANCH   1  17
TORSDOF 9
ENDMDL
MODEL 6
REMARK VINA RESULT:    -7.263      9.771     12.555
REMARK INTER + INTRA:         -11.114
REMARK INTER:                 -10.053
REMARK INTRA:                  -1.061
REMARK UNBOUND:                -1.091
REMARK SMILES O=C([O-])[C@@H]1O[C@@H](Oc2cc3oc(-c4ccccc4)cc(=O)c3c(O)c2O)[C@H](O)[C@@H](O)[C@@H]1O
REMARK SMILES IDX 7 1 6 2 4 3 31 4 5 5 29 6 27 7 2 8 1 9 3 10 32 11 30 13
REMARK SMILES IDX 28 15 8 17 25 18 9 19 23 20 10 21 22 22 11 23 20 24 12 25
REMARK SMILES IDX 19 26 21 27 26 28 24 30 13 32 14 33 18 34 15 35 17 36 16 37
REMARK H PARENT 32 12 30 14 28 16 26 29 24 31
REMARK Flexibility Score: inf
ROOT
ATOM      1  O   UNL     1     -27.081 -13.675  -0.059  1.00  0.00    -0.458 OA
ENDROOT
BRANCH   1   2
ATOM      2  C   UNL     1     -28.020 -13.612   1.024  1.00  0.00     0.339 C 
ATOM      3  C   UNL     1     -29.091 -11.731   0.115  1.00  0.00     0.199 C 
ATOM      4  C   UNL     1     -28.674 -10.798   1.272  1.00  0.00     0.180 C 
ATOM      5  O   UNL     1     -29.250 -13.065   0.572  1.00  0.00    -0.328 OA
ATOM      6  C   UNL     1     -27.364 -11.309   1.900  1.00  0.00     0.181 C 
ATOM      7  C   UNL     1     -27.465 -12.810   2.231  1.00  0.00     0.214 C 
BRANCH   3   8
ATOM      8  C   UNL     1     -30.375 -11.261  -0.504  1.00  0.00     0.073 C 
ATOM      9  O   UNL     1     -31.452 -11.293   0.150  1.00  0.00    -0.547 OA
ATOM     10  O   UNL     1     -30.372 -10.736  -1.790  1.00  0.00    -0.547 OA
ENDBRANCH   3   8
BRANCH   4  11
ATOM     11  O   UNL     1     -29.676 -10.758   2.259  1.00  0.00    -0.387 OA
ATOM     12  H   UNL     1     -29.693 -11.648   2.698  1.00  0.00     0.211 HD
ENDBRANCH   4  11
BRANCH   6  13
ATOM     13  O   UNL     1     -26.289 -11.096   1.020  1.00  0.00    -0.387 OA
ATOM     14  H   UNL     1     -26.180 -11.930   0.491  1.00  0.00     0.211 HD
ENDBRANCH   6  13
BRANCH   7  15
ATOM     15  O   UNL     1     -28.306 -12.985   3.342  1.00  0.00    -0.384 OA
ATOM     16  H   UNL     1     -27.757 -12.806   4.150  1.00  0.00     0.211 HD
ENDBRANCH   7  15
ENDBRANCH   1   2
BRANCH   1  17
ATOM     17  C   UNL     1     -27.339 -13.982  -1.409  1.00  0.00     0.172 A 
ATOM     18  C   UNL     1     -27.129 -13.085  -2.485  1.00  0.00     0.201 A 
ATOM     19  C   UNL     1     -27.813 -15.267  -1.669  1.00  0.00     0.098 A 
ATOM     20  C   UNL     1     -27.480 -13.474  -3.805  1.00  0.00     0.176 A 
ATOM     21  C   UNL     1     -28.120 -15.676  -2.964  1.00  0.00     0.146 A 
ATOM     22  C   UNL     1     -27.962 -14.784  -4.047  1.00  0.00     0.111 A 
ATOM     23  O   UNL     1     -28.569 -16.912  -3.161  1.00  0.00    -0.456 OA
ATOM     24  C   UNL     1     -28.307 -15.256  -5.332  1.00  0.00     0.197 A 
ATOM     25  C   UNL     1     -28.891 -17.390  -4.360  1.00  0.00     0.138 A 
ATOM     26  C   UNL     1     -28.774 -16.561  -5.486  1.00  0.00     0.100 A 
ATOM     27  O   UNL     1     -28.208 -14.523  -6.353  1.00  0.00    -0.289 OA
BRANCH  18  28
ATOM     28  O   UNL     1     -26.543 -11.843  -2.233  1.00  0.00    -0.502 OA
ATOM     29  H   UNL     1     -26.031 -11.302  -2.914  1.00  0.00     0.293 HD
ENDBRANCH  18  28
BRANCH  20  30
ATOM     30  O   UNL     1     -27.371 -12.582  -4.878  1.00  0.00    -0.504 OA
ATOM     31  H   UNL     1     -28.108 -12.393  -5.541  1.00  0.00     0.293 HD
ENDBRANCH  20  30
BRANCH  25  32
ATOM     32  C   UNL     1     -29.381 -18.788  -4.461  1.00  0.00     0.017 A 
ATOM     33  C   UNL     1     -29.990 -19.279  -5.634  1.00  0.00     0.012 A 
ATOM     34  C   UNL     1     -29.210 -19.662  -3.371  1.00  0.00     0.012 A 
ATOM     35  C   UNL     1     -30.432 -20.604  -5.702  1.00  0.00     0.001 A 
ATOM     36  C   UNL     1     -29.654 -20.986  -3.445  1.00  0.00     0.001 A 
ATOM     37  C   UNL     1     -30.268 -21.456  -4.608  1.00  0.00     0.000 A 
ENDBRANCH  25  32
ENDBRANCH   1  17
TORSDOF 9
ENDMDL
MODEL 7
REMARK VINA RESULT:    -7.206     10.704     14.034
REMARK INTER + INTRA:         -11.035
REMARK INTER:                  -9.941
REMARK INTRA:                  -1.094
REMARK UNBOUND:                -1.091
REMARK SMILES O=C([O-])[C@@H]1O[C@@H](Oc2cc3oc(-c4ccccc4)cc(=O)c3c(O)c2O)[C@H](O)[C@@H](O)[C@@H]1O
REMARK SMILES IDX 7 1 6 2 4 3 31 4 5 5 29 6 27 7 2 8 1 9 3 10 32 11 30 13
REMARK SMILES IDX 28 15 8 17 25 18 9 19 23 20 10 21 22 22 11 23 20 24 12 25
REMARK SMILES IDX 19 26 21 27 26 28 24 30 13 32 14 33 18 34 15 35 17 36 16 37
REMARK H PARENT 32 12 30 14 28 16 26 29 24 31
REMARK Flexibility Score: inf
ROOT
ATOM      1  O   UNL     1     -28.319 -14.371  -1.214  1.00  0.00    -0.458 OA
ENDROOT
BRANCH   1   2
ATOM      2  C   UNL     1     -27.152 -13.539  -1.274  1.00  0.00     0.339 C 
ATOM      3  C   UNL     1     -27.655 -12.516   0.779  1.00  0.00     0.199 C 
ATOM      4  C   UNL     1     -27.891 -11.125   0.152  1.00  0.00     0.180 C 
ATOM      5  O   UNL     1     -26.692 -13.248   0.038  1.00  0.00    -0.328 OA
ATOM      6  C   UNL     1     -28.349 -11.288  -1.309  1.00  0.00     0.181 C 
ATOM      7  C   UNL     1     -27.406 -12.234  -2.075  1.00  0.00     0.214 C 
BRANCH   3   8
ATOM      8  C   UNL     1     -27.194 -12.383   2.201  1.00  0.00     0.073 C 
ATOM      9  O   UNL     1     -27.515 -11.376   2.887  1.00  0.00    -0.547 OA
ATOM     10  O   UNL     1     -26.451 -13.401   2.786  1.00  0.00    -0.547 OA
ENDBRANCH   3   8
BRANCH   4  11
ATOM     11  O   UNL     1     -26.709 -10.362   0.186  1.00  0.00    -0.387 OA
ATOM     12  H   UNL     1     -26.777  -9.749   0.964  1.00  0.00     0.211 HD
ENDBRANCH   4  11
BRANCH   6  13
ATOM     13  O   UNL     1     -29.658 -11.797  -1.353  1.00  0.00    -0.387 OA
ATOM     14  H   UNL     1     -29.593 -12.774  -1.195  1.00  0.00     0.211 HD
ENDBRANCH   6  13
BRANCH   7  15
ATOM     15  O   UNL     1     -26.186 -11.581  -2.315  1.00  0.00    -0.384 OA
ATOM     16  H   UNL     1     -26.341 -10.947  -3.062  1.00  0.00     0.211 HD
ENDBRANCH   7  15
ENDBRANCH   1   2
BRANCH   1  17
ATOM     17  C   UNL     1     -28.472 -15.681  -1.706  1.00  0.00     0.172 A 
ATOM     18  C   UNL     1     -28.867 -15.994  -3.030  1.00  0.00     0.201 A 
ATOM     19  C   UNL     1     -28.189 -16.713  -0.812  1.00  0.00     0.098 A 
ATOM     20  C   UNL     1     -29.050 -17.351  -3.408  1.00  0.00     0.176 A 
ATOM     21  C   UNL     1     -28.322 -18.048  -1.184  1.00  0.00     0.146 A 
ATOM     22  C   UNL     1     -28.759 -18.383  -2.483  1.00  0.00     0.111 A 
ATOM     23  O   UNL     1     -28.039 -18.996  -0.295  1.00  0.00    -0.456 OA
ATOM     24  C   UNL     1     -28.890 -19.756  -2.789  1.00  0.00     0.197 A 
ATOM     25  C   UNL     1     -28.141 -20.296  -0.556  1.00  0.00     0.138 A 
ATOM     26  C   UNL     1     -28.581 -20.712  -1.822  1.00  0.00     0.100 A 
ATOM     27  O   UNL     1     -29.284 -20.144  -3.922  1.00  0.00    -0.289 OA
BRANCH  18  28
ATOM     28  O   UNL     1     -29.035 -14.962  -3.954  1.00  0.00    -0.502 OA
ATOM     29  H   UNL     1     -29.909 -14.728  -4.401  1.00  0.00     0.293 HD
ENDBRANCH  18  28
BRANCH  20  30
ATOM     30  O   UNL     1     -29.528 -17.693  -4.678  1.00  0.00    -0.504 OA
ATOM     31  H   UNL     1     -30.448 -18.064  -4.862  1.00  0.00     0.293 HD
ENDBRANCH  20  30
BRANCH  25  32
ATOM     32  C   UNL     1     -27.796 -21.267   0.514  1.00  0.00     0.017 A 
ATOM     33  C   UNL     1     -28.773 -21.785   1.388  1.00  0.00     0.012 A 
ATOM     34  C   UNL     1     -26.467 -21.709   0.646  1.00  0.00     0.012 A 
ATOM     35  C   UNL     1     -28.418 -22.706   2.380  1.00  0.00     0.001 A 
ATOM     36  C   UNL     1     -26.119 -22.629   1.639  1.00  0.00     0.001 A 
ATOM     37  C   UNL     1     -27.093 -23.125   2.508  1.00  0.00     0.000 A 
ENDBRANCH  25  32
ENDBRANCH   1  17
TORSDOF 9
ENDMDL
MODEL 8
REMARK VINA RESULT:    -7.103     10.772     14.215
REMARK INTER + INTRA:         -10.894
REMARK INTER:                  -9.714
REMARK INTRA:                  -1.179
REMARK UNBOUND:                -1.091
REMARK SMILES O=C([O-])[C@@H]1O[C@@H](Oc2cc3oc(-c4ccccc4)cc(=O)c3c(O)c2O)[C@H](O)[C@@H](O)[C@@H]1O
REMARK SMILES IDX 7 1 6 2 4 3 31 4 5 5 29 6 27 7 2 8 1 9 3 10 32 11 30 13
REMARK SMILES IDX 28 15 8 17 25 18 9 19 23 20 10 21 22 22 11 23 20 24 12 25
REMARK SMILES IDX 19 26 21 27 26 28 24 30 13 32 14 33 18 34 15 35 17 36 16 37
REMARK H PARENT 32 12 30 14 28 16 26 29 24 31
REMARK Flexibility Score: inf
ROOT
ATOM      1  O   UNL     1     -26.324 -14.549   0.587  1.00  0.00    -0.458 OA
ENDROOT
BRANCH   1   2
ATOM      2  C   UNL     1     -27.111 -13.469   1.108  1.00  0.00     0.339 C 
ATOM      3  C   UNL     1     -27.665 -12.705  -1.042  1.00  0.00     0.199 C 
ATOM      4  C   UNL     1     -26.900 -11.373  -0.884  1.00  0.00     0.180 C 
ATOM      5  O   UNL     1     -28.164 -13.153   0.209  1.00  0.00    -0.328 OA
ATOM      6  C   UNL     1     -25.747 -11.555   0.120  1.00  0.00     0.181 C 
ATOM      7  C   UNL     1     -26.250 -12.215   1.417  1.00  0.00     0.214 C 
BRANCH   3   8
ATOM      8  C   UNL     1     -28.805 -12.548  -2.006  1.00  0.00     0.073 C 
ATOM      9  O   UNL     1     -29.679 -11.659  -1.824  1.00  0.00    -0.547 OA
ATOM     10  O   UNL     1     -28.870 -13.351  -3.137  1.00  0.00    -0.547 OA
ENDBRANCH   3   8
BRANCH   4  11
ATOM     11  O   UNL     1     -27.762 -10.361  -0.421  1.00  0.00    -0.387 OA
ATOM     12  H   UNL     1     -27.257  -9.829   0.249  1.00  0.00     0.211 HD
ENDBRANCH   4  11
BRANCH   6  13
ATOM     13  O   UNL     1     -24.733 -12.349  -0.445  1.00  0.00    -0.387 OA
ATOM     14  H   UNL     1     -24.339 -12.882   0.293  1.00  0.00     0.211 HD
ENDBRANCH   6  13
BRANCH   7  15
ATOM     15  O   UNL     1     -27.010 -11.287   2.146  1.00  0.00    -0.384 OA
ATOM     16  H   UNL     1     -27.122 -11.661   3.060  1.00  0.00     0.211 HD
ENDBRANCH   7  15
ENDBRANCH   1   2
BRANCH   1  17
ATOM     17  C   UNL     1     -26.630 -15.923   0.598  1.00  0.00     0.172 A 
ATOM     18  C   UNL     1     -26.375 -16.788   1.691  1.00  0.00     0.201 A 
ATOM     19  C   UNL     1     -27.240 -16.429  -0.550  1.00  0.00     0.098 A 
ATOM     20  C   UNL     1     -26.667 -18.174   1.576  1.00  0.00     0.176 A 
ATOM     21  C   UNL     1     -27.571 -17.777  -0.658  1.00  0.00     0.146 A 
ATOM     22  C   UNL     1     -27.284 -18.666   0.400  1.00  0.00     0.111 A 
ATOM     23  O   UNL     1     -28.152 -18.211  -1.773  1.00  0.00    -0.456 OA
ATOM     24  C   UNL     1     -27.630 -20.023   0.218  1.00  0.00     0.197 A 
ATOM     25  C   UNL     1     -28.500 -19.479  -1.970  1.00  0.00     0.138 A 
ATOM     26  C   UNL     1     -28.238 -20.428  -0.970  1.00  0.00     0.100 A 
ATOM     27  O   UNL     1     -27.401 -20.887   1.107  1.00  0.00    -0.289 OA
BRANCH  18  28
ATOM     28  O   UNL     1     -25.874 -16.255   2.879  1.00  0.00    -0.502 OA
ATOM     29  H   UNL     1     -26.444 -15.905   3.636  1.00  0.00     0.293 HD
ENDBRANCH  18  28
BRANCH  20  30
ATOM     30  O   UNL     1     -26.345 -19.071   2.599  1.00  0.00    -0.504 OA
ATOM     31  H   UNL     1     -25.421 -19.443   2.764  1.00  0.00     0.293 HD
ENDBRANCH  20  30
BRANCH  25  32
ATOM     32  C   UNL     1     -29.145 -19.850  -3.255  1.00  0.00     0.017 A 
ATOM     33  C   UNL     1     -29.632 -21.151  -3.494  1.00  0.00     0.012 A 
ATOM     34  C   UNL     1     -29.305 -18.874  -4.256  1.00  0.00     0.012 A 
ATOM     35  C   UNL     1     -30.243 -21.467  -4.712  1.00  0.00     0.001 A 
ATOM     36  C   UNL     1     -29.917 -19.195  -5.471  1.00  0.00     0.001 A 
ATOM     37  C   UNL     1     -30.383 -20.492  -5.701  1.00  0.00     0.000 A 
ENDBRANCH  25  32
ENDBRANCH   1  17
TORSDOF 9
ENDMDL
MODEL 9
REMARK VINA RESULT:    -7.040     10.500     13.441
REMARK INTER + INTRA:         -10.806
REMARK INTER:                  -9.934
REMARK INTRA:                  -0.873
REMARK UNBOUND:                -1.091
REMARK SMILES O=C([O-])[C@@H]1O[C@@H](Oc2cc3oc(-c4ccccc4)cc(=O)c3c(O)c2O)[C@H](O)[C@@H](O)[C@@H]1O
REMARK SMILES IDX 7 1 6 2 4 3 31 4 5 5 29 6 27 7 2 8 1 9 3 10 32 11 30 13
REMARK SMILES IDX 28 15 8 17 25 18 9 19 23 20 10 21 22 22 11 23 20 24 12 25
REMARK SMILES IDX 19 26 21 27 26 28 24 30 13 32 14 33 18 34 15 35 17 36 16 37
REMARK H PARENT 32 12 30 14 28 16 26 29 24 31
REMARK Flexibility Score: inf
ROOT
ATOM      1  O   UNL     1     -29.779 -13.218  -0.830  1.00  0.00    -0.458 OA
ENDROOT
BRANCH   1   2
ATOM      2  C   UNL     1     -29.229 -11.961  -1.252  1.00  0.00     0.339 C 
ATOM      3  C   UNL     1     -27.052 -12.598  -0.646  1.00  0.00     0.199 C 
ATOM      4  C   UNL     1     -26.937 -11.541   0.474  1.00  0.00     0.180 C 
ATOM      5  O   UNL     1     -27.892 -12.137  -1.693  1.00  0.00    -0.328 OA
ATOM      6  C   UNL     1     -28.340 -11.210   1.017  1.00  0.00     0.181 C 
ATOM      7  C   UNL     1     -29.309 -10.886  -0.135  1.00  0.00     0.214 C 
BRANCH   3   8
ATOM      8  C   UNL     1     -25.697 -12.928  -1.201  1.00  0.00     0.073 C 
ATOM      9  O   UNL     1     -24.667 -12.350  -0.762  1.00  0.00    -0.547 OA
ATOM     10  O   UNL     1     -25.568 -13.915  -2.170  1.00  0.00    -0.547 OA
ENDBRANCH   3   8
BRANCH   4  11
ATOM     11  O   UNL     1     -26.340 -10.365  -0.017  1.00  0.00    -0.387 OA
ATOM     12  H   UNL     1     -25.615 -10.641  -0.637  1.00  0.00     0.211 HD
ENDBRANCH   4  11
BRANCH   6  13
ATOM     13  O   UNL     1     -28.841 -12.293   1.759  1.00  0.00    -0.387 OA
ATOM     14  H   UNL     1     -29.141 -12.976   1.105  1.00  0.00     0.211 HD
ENDBRANCH   6  13
BRANCH   7  15
ATOM     15  O   UNL     1     -28.993  -9.626  -0.669  1.00  0.00    -0.384 OA
ATOM     16  H   UNL     1     -29.831  -9.260  -1.058  1.00  0.00     0.211 HD
ENDBRANCH   7  15
ENDBRANCH   1   2
BRANCH   1  17
ATOM     17  C   UNL     1     -29.595 -14.482  -1.422  1.00  0.00     0.172 A 
ATOM     18  C   UNL     1     -29.933 -14.792  -2.762  1.00  0.00     0.201 A 
ATOM     19  C   UNL     1     -29.022 -15.464  -0.614  1.00  0.00     0.098 A 
ATOM     20  C   UNL     1     -29.762 -16.118  -3.243  1.00  0.00     0.176 A 
ATOM     21  C   UNL     1     -28.809 -16.756  -1.087  1.00  0.00     0.146 A 
ATOM     22  C   UNL     1     -29.181 -17.100  -2.404  1.00  0.00     0.111 A 
ATOM     23  O   UNL     1     -28.260 -17.656  -0.278  1.00  0.00    -0.456 OA
ATOM     24  C   UNL     1     -28.954 -18.432  -2.815  1.00  0.00     0.197 A 
ATOM     25  C   UNL     1     -28.022 -18.915  -0.638  1.00  0.00     0.138 A 
ATOM     26  C   UNL     1     -28.374 -19.339  -1.928  1.00  0.00     0.100 A 
ATOM     27  O   UNL     1     -29.265 -18.828  -3.971  1.00  0.00    -0.289 OA
BRANCH  18  28
ATOM     28  O   UNL     1     -30.394 -13.777  -3.601  1.00  0.00    -0.502 OA
ATOM     29  H   UNL     1     -30.071 -12.821  -3.577  1.00  0.00     0.293 HD
ENDBRANCH  18  28
BRANCH  20  30
ATOM     30  O   UNL     1     -30.170 -16.481  -4.531  1.00  0.00    -0.504 OA
ATOM     31  H   UNL     1     -30.918 -17.127  -4.733  1.00  0.00     0.293 HD
ENDBRANCH  20  30
BRANCH  25  32
ATOM     32  C   UNL     1     -27.402 -19.834   0.349  1.00  0.00     0.017 A 
ATOM     33  C   UNL     1     -27.280 -19.489   1.710  1.00  0.00     0.012 A 
ATOM     34  C   UNL     1     -26.947 -21.098  -0.071  1.00  0.00     0.012 A 
ATOM     35  C   UNL     1     -26.700 -20.381   2.618  1.00  0.00     0.001 A 
ATOM     36  C   UNL     1     -26.368 -21.985   0.841  1.00  0.00     0.001 A 
ATOM     37  C   UNL     1     -26.241 -21.626   2.184  1.00  0.00     0.000 A 
ENDBRANCH  25  32
ENDBRANCH   1  17
TORSDOF 9
ENDMDL
