MODEL 1
REMARK VINA RESULT:    -4.606      0.000      0.000
REMARK INTER + INTRA:          -6.474
REMARK INTER:                  -6.221
REMARK INTRA:                  -0.253
REMARK UNBOUND:                -0.253
REMARK SMILES CCCCCCC=CC(=O)[O-]
REMARK SMILES IDX 5 1 6 2 7 3 8 4 9 5 10 6 11 7 4 8 3 9 2 10 1 11
REMARK H PARENT
REMARK Flexibility Score: inf
ROOT
ATOM      1  C   UNL     1     115.230 117.725 107.105  1.00  0.00     0.004 C 
ENDROOT
BRANCH   1   2
ATOM      2  C   UNL     1     114.236 118.558 107.925  1.00  0.00     0.027 C 
BRANCH   2   3
ATOM      3  C   UNL     1     114.752 118.809 109.316  1.00  0.00    -0.025 C 
ATOM      4  C   UNL     1     114.353 119.793 110.140  1.00  0.00     0.020 C 
BRANCH   4   5
ATOM      5  C   UNL     1     113.362 120.848 109.839  1.00  0.00     0.064 C 
ATOM      6  O   UNL     1     112.320 120.921 110.541  1.00  0.00    -0.545 OA
ATOM      7  O   UNL     1     113.552 121.776 108.824  1.00  0.00    -0.545 OA
ENDBRANCH   4   5
ENDBRANCH   2   3
ENDBRANCH   1   2
BRANCH   1   8
ATOM      8  C   UNL     1     115.745 116.528 107.919  1.00  0.00     0.000 C 
BRANCH   8   9
ATOM      9  C   UNL     1     117.270 116.343 107.814  1.00  0.00    -0.000 C 
BRANCH   9  10
ATOM     10  C   UNL     1     117.722 115.200 106.888  1.00  0.00    -0.003 C 
ATOM     11  C   UNL     1     119.110 114.663 107.234  1.00  0.00     0.004 C 
ENDBRANCH   9  10
ENDBRANCH   8   9
ENDBRANCH   1   8
TORSDOF 6
ENDMDL
MODEL 2
REMARK VINA RESULT:    -4.455      1.976      2.990
REMARK INTER + INTRA:          -6.270
REMARK INTER:                  -6.027
REMARK INTRA:                  -0.244
REMARK UNBOUND:                -0.253
REMARK SMILES CCCCCCC=CC(=O)[O-]
REMARK SMILES IDX 5 1 6 2 7 3 8 4 9 5 10 6 11 7 4 8 3 9 2 10 1 11
REMARK H PARENT
REMARK Flexibility Score: inf
ROOT
ATOM      1  C   UNL     1     116.801 115.581 107.613  1.00  0.00     0.004 C 
ENDROOT
BRANCH   1   2
ATOM      2  C   UNL     1     116.653 117.096 107.421  1.00  0.00     0.027 C 
BRANCH   2   3
ATOM      3  C   UNL     1     115.208 117.491 107.290  1.00  0.00    -0.025 C 
ATOM      4  C   UNL     1     114.465 118.092 108.235  1.00  0.00     0.020 C 
BRANCH   4   5
ATOM      5  C   UNL     1     114.900 118.450 109.602  1.00  0.00     0.064 C 
ATOM      6  O   UNL     1     114.711 119.625 110.012  1.00  0.00    -0.545 OA
ATOM      7  O   UNL     1     115.487 117.529 110.460  1.00  0.00    -0.545 OA
ENDBRANCH   4   5
ENDBRANCH   2   3
ENDBRANCH   1   2
BRANCH   1   8
ATOM      8  C   UNL     1     117.932 115.025 106.735  1.00  0.00     0.000 C 
BRANCH   8   9
ATOM      9  C   UNL     1     119.177 114.620 107.544  1.00  0.00    -0.000 C 
BRANCH   9  10
ATOM     10  C   UNL     1     118.882 114.029 108.934  1.00  0.00    -0.003 C 
ATOM     11  C   UNL     1     119.468 112.630 109.126  1.00  0.00     0.004 C 
ENDBRANCH   9  10
ENDBRANCH   8   9
ENDBRANCH   1   8
TORSDOF 6
ENDMDL
MODEL 3
REMARK VINA RESULT:    -4.377      2.595      3.956
REMARK INTER + INTRA:          -6.166
REMARK INTER:                  -5.716
REMARK INTRA:                  -0.449
REMARK UNBOUND:                -0.253
REMARK SMILES CCCCCCC=CC(=O)[O-]
REMARK SMILES IDX 5 1 6 2 7 3 8 4 9 5 10 6 11 7 4 8 3 9 2 10 1 11
REMARK H PARENT
REMARK Flexibility Score: inf
ROOT
ATOM      1  C   UNL     1     118.204 114.763 106.657  1.00  0.00     0.004 C 
ENDROOT
BRANCH   1   2
ATOM      2  C   UNL     1     116.994 115.683 106.870  1.00  0.00     0.027 C 
BRANCH   2   3
ATOM      3  C   UNL     1     117.211 116.609 108.035  1.00  0.00    -0.025 C 
ATOM      4  C   UNL     1     116.277 117.381 108.615  1.00  0.00     0.020 C 
BRANCH   4   5
ATOM      5  C   UNL     1     114.862 117.510 108.205  1.00  0.00     0.064 C 
ATOM      6  O   UNL     1     114.050 116.606 108.532  1.00  0.00    -0.545 OA
ATOM      7  O   UNL     1     114.392 118.605 107.493  1.00  0.00    -0.545 OA
ENDBRANCH   4   5
ENDBRANCH   2   3
ENDBRANCH   1   2
BRANCH   1   8
ATOM      8  C   UNL     1     119.174 114.849 107.846  1.00  0.00     0.000 C 
BRANCH   8   9
ATOM      9  C   UNL     1     119.255 113.539 108.650  1.00  0.00    -0.000 C 
BRANCH   9  10
ATOM     10  C   UNL     1     118.503 113.555 109.992  1.00  0.00    -0.003 C 
ATOM     11  C   UNL     1     118.949 112.444 110.942  1.00  0.00     0.004 C 
ENDBRANCH   9  10
ENDBRANCH   8   9
ENDBRANCH   1   8
TORSDOF 6
ENDMDL
MODEL 4
REMARK VINA RESULT:    -4.351      5.246      7.473
REMARK INTER + INTRA:          -6.130
REMARK INTER:                  -5.849
REMARK INTRA:                  -0.282
REMARK UNBOUND:                -0.253
REMARK SMILES CCCCCCC=CC(=O)[O-]
REMARK SMILES IDX 5 1 6 2 7 3 8 4 9 5 10 6 11 7 4 8 3 9 2 10 1 11
REMARK H PARENT
REMARK Flexibility Score: inf
ROOT
ATOM      1  C   UNL     1     119.039 115.119 107.707  1.00  0.00     0.004 C 
ENDROOT
BRANCH   1   2
ATOM      2  C   UNL     1     118.805 114.329 109.002  1.00  0.00     0.027 C 
BRANCH   2   3
ATOM      3  C   UNL     1     119.248 112.900 108.857  1.00  0.00    -0.025 C 
ATOM      4  C   UNL     1     119.584 112.071 109.860  1.00  0.00     0.020 C 
BRANCH   4   5
ATOM      5  C   UNL     1     119.625 112.402 111.300  1.00  0.00     0.064 C 
ATOM      6  O   UNL     1     118.540 112.552 111.921  1.00  0.00    -0.545 OA
ATOM      7  O   UNL     1     120.818 112.530 111.999  1.00  0.00    -0.545 OA
ENDBRANCH   4   5
ENDBRANCH   2   3
ENDBRANCH   1   2
BRANCH   1   8
ATOM      8  C   UNL     1     117.736 115.251 106.903  1.00  0.00     0.000 C 
BRANCH   8   9
ATOM      9  C   UNL     1     116.559 115.771 107.748  1.00  0.00    -0.000 C 
BRANCH   9  10
ATOM     10  C   UNL     1     116.421 117.303 107.792  1.00  0.00    -0.003 C 
ATOM     11  C   UNL     1     115.356 117.836 106.834  1.00  0.00     0.004 C 
ENDBRANCH   9  10
ENDBRANCH   8   9
ENDBRANCH   1   8
TORSDOF 6
ENDMDL
MODEL 5
REMARK VINA RESULT:    -4.349      5.475      7.347
REMARK INTER + INTRA:          -6.128
REMARK INTER:                  -5.685
REMARK INTRA:                  -0.442
REMARK UNBOUND:                -0.253
REMARK SMILES CCCCCCC=CC(=O)[O-]
REMARK SMILES IDX 5 1 6 2 7 3 8 4 9 5 10 6 11 7 4 8 3 9 2 10 1 11
REMARK H PARENT
REMARK Flexibility Score: inf
ROOT
ATOM      1  C   UNL     1     117.684 115.248 107.281  1.00  0.00     0.004 C 
ENDROOT
BRANCH   1   2
ATOM      2  C   UNL     1     118.784 114.686 108.191  1.00  0.00     0.027 C 
BRANCH   2   3
ATOM      3  C   UNL     1     118.226 114.259 109.521  1.00  0.00    -0.025 C 
ATOM      4  C   UNL     1     118.647 113.215 110.255  1.00  0.00     0.020 C 
BRANCH   4   5
ATOM      5  C   UNL     1     119.709 112.253 109.892  1.00  0.00     0.064 C 
ATOM      6  O   UNL     1     120.732 112.173 110.621  1.00  0.00    -0.545 OA
ATOM      7  O   UNL     1     119.607 111.417 108.788  1.00  0.00    -0.545 OA
ENDBRANCH   4   5
ENDBRANCH   2   3
ENDBRANCH   1   2
BRANCH   1   8
ATOM      8  C   UNL     1     117.277 116.662 107.723  1.00  0.00     0.000 C 
BRANCH   8   9
ATOM      9  C   UNL     1     115.815 117.002 107.378  1.00  0.00    -0.000 C 
BRANCH   9  10
ATOM     10  C   UNL     1     114.945 117.415 108.577  1.00  0.00    -0.003 C 
ATOM     11  C   UNL     1     115.472 116.884 109.910  1.00  0.00     0.004 C 
ENDBRANCH   9  10
ENDBRANCH   8   9
ENDBRANCH   1   8
TORSDOF 6
ENDMDL
MODEL 6
REMARK VINA RESULT:    -4.331      3.956      6.231
REMARK INTER + INTRA:          -6.102
REMARK INTER:                  -5.850
REMARK INTRA:                  -0.253
REMARK UNBOUND:                -0.253
REMARK SMILES CCCCCCC=CC(=O)[O-]
REMARK SMILES IDX 5 1 6 2 7 3 8 4 9 5 10 6 11 7 4 8 3 9 2 10 1 11
REMARK H PARENT
REMARK Flexibility Score: inf
ROOT
ATOM      1  C   UNL     1     116.429 117.189 107.801  1.00  0.00     0.004 C 
ENDROOT
BRANCH   1   2
ATOM      2  C   UNL     1     116.656 115.741 107.346  1.00  0.00     0.027 C 
BRANCH   2   3
ATOM      3  C   UNL     1     118.122 115.417 107.267  1.00  0.00    -0.025 C 
ATOM      4  C   UNL     1     118.848 114.806 108.219  1.00  0.00     0.020 C 
BRANCH   4   5
ATOM      5  C   UNL     1     118.369 114.366 109.546  1.00  0.00     0.064 C 
ATOM      6  O   UNL     1     118.546 113.168 109.890  1.00  0.00    -0.545 OA
ATOM      7  O   UNL     1     117.752 115.233 110.438  1.00  0.00    -0.545 OA
ENDBRANCH   4   5
ENDBRANCH   2   3
ENDBRANCH   1   2
BRANCH   1   8
ATOM      8  C   UNL     1     115.269 117.831 107.025  1.00  0.00     0.000 C 
BRANCH   8   9
ATOM      9  C   UNL     1     114.033 118.097 107.905  1.00  0.00    -0.000 C 
BRANCH   9  10
ATOM     10  C   UNL     1     113.954 119.514 108.500  1.00  0.00    -0.003 C 
ATOM     11  C   UNL     1     114.410 119.578 109.957  1.00  0.00     0.004 C 
ENDBRANCH   9  10
ENDBRANCH   8   9
ENDBRANCH   1   8
TORSDOF 6
ENDMDL
MODEL 7
REMARK VINA RESULT:    -4.323      2.030      3.211
REMARK INTER + INTRA:          -6.092
REMARK INTER:                  -5.509
REMARK INTRA:                  -0.583
REMARK UNBOUND:                -0.253
REMARK SMILES CCCCCCC=CC(=O)[O-]
REMARK SMILES IDX 5 1 6 2 7 3 8 4 9 5 10 6 11 7 4 8 3 9 2 10 1 11
REMARK H PARENT
REMARK Flexibility Score: inf
ROOT
ATOM      1  C   UNL     1     117.780 116.129 109.839  1.00  0.00     0.004 C 
ENDROOT
BRANCH   1   2
ATOM      2  C   UNL     1     116.803 117.054 109.100  1.00  0.00     0.027 C 
BRANCH   2   3
ATOM      3  C   UNL     1     115.458 116.404 108.932  1.00  0.00    -0.025 C 
ATOM      4  C   UNL     1     114.401 116.932 108.291  1.00  0.00     0.020 C 
BRANCH   4   5
ATOM      5  C   UNL     1     114.330 118.266 107.658  1.00  0.00     0.064 C 
ATOM      6  O   UNL     1     114.627 118.378 106.440  1.00  0.00    -0.545 OA
ATOM      7  O   UNL     1     113.924 119.397 108.354  1.00  0.00    -0.545 OA
ENDBRANCH   4   5
ENDBRANCH   2   3
ENDBRANCH   1   2
BRANCH   1   8
ATOM      8  C   UNL     1     117.759 114.716 109.236  1.00  0.00     0.000 C 
BRANCH   8   9
ATOM      9  C   UNL     1     119.076 114.347 108.528  1.00  0.00    -0.000 C 
BRANCH   9  10
ATOM     10  C   UNL     1     119.137 114.721 107.037  1.00  0.00    -0.003 C 
ATOM     11  C   UNL     1     117.759 114.789 106.380  1.00  0.00     0.004 C 
ENDBRANCH   9  10
ENDBRANCH   8   9
ENDBRANCH   1   8
TORSDOF 6
ENDMDL
MODEL 8
REMARK VINA RESULT:    -4.061      4.116      5.741
REMARK INTER + INTRA:          -5.738
REMARK INTER:                  -5.453
REMARK INTRA:                  -0.286
REMARK UNBOUND:                -0.253
REMARK SMILES CCCCCCC=CC(=O)[O-]
REMARK SMILES IDX 5 1 6 2 7 3 8 4 9 5 10 6 11 7 4 8 3 9 2 10 1 11
REMARK H PARENT
REMARK Flexibility Score: inf
ROOT
ATOM      1  C   UNL     1     118.247 115.361 108.258  1.00  0.00     0.004 C 
ENDROOT
BRANCH   1   2
ATOM      2  C   UNL     1     117.710 115.536 109.685  1.00  0.00     0.027 C 
BRANCH   2   3
ATOM      3  C   UNL     1     118.127 114.392 110.569  1.00  0.00    -0.025 C 
ATOM      4  C   UNL     1     118.123 114.391 111.913  1.00  0.00     0.020 C 
BRANCH   4   5
ATOM      5  C   UNL     1     117.750 115.517 112.794  1.00  0.00     0.064 C 
ATOM      6  O   UNL     1     118.566 116.464 112.950  1.00  0.00    -0.545 OA
ATOM      7  O   UNL     1     116.522 115.581 113.438  1.00  0.00    -0.545 OA
ENDBRANCH   4   5
ENDBRANCH   2   3
ENDBRANCH   1   2
BRANCH   1   8
ATOM      8  C   UNL     1     117.216 115.837 107.223  1.00  0.00     0.000 C 
BRANCH   8   9
ATOM      9  C   UNL     1     116.151 116.772 107.824  1.00  0.00    -0.000 C 
BRANCH   9  10
ATOM     10  C   UNL     1     115.546 117.785 106.835  1.00  0.00    -0.003 C 
ATOM     11  C   UNL     1     114.189 118.324 107.285  1.00  0.00     0.004 C 
ENDBRANCH   9  10
ENDBRANCH   8   9
ENDBRANCH   1   8
TORSDOF 6
ENDMDL
MODEL 9
REMARK VINA RESULT:    -4.056      2.649      3.039
REMARK INTER + INTRA:          -5.732
REMARK INTER:                  -5.352
REMARK INTRA:                  -0.380
REMARK UNBOUND:                -0.253
REMARK SMILES CCCCCCC=CC(=O)[O-]
REMARK SMILES IDX 5 1 6 2 7 3 8 4 9 5 10 6 11 7 4 8 3 9 2 10 1 11
REMARK H PARENT
REMARK Flexibility Score: inf
ROOT
ATOM      1  C   UNL     1     114.849 117.359 108.421  1.00  0.00     0.004 C 
ENDROOT
BRANCH   1   2
ATOM      2  C   UNL     1     115.184 117.977 109.786  1.00  0.00     0.027 C 
BRANCH   2   3
ATOM      3  C   UNL     1     115.791 116.959 110.711  1.00  0.00    -0.025 C 
ATOM      4  C   UNL     1     115.737 116.981 112.054  1.00  0.00     0.020 C 
BRANCH   4   5
ATOM      5  C   UNL     1     115.109 118.023 112.893  1.00  0.00     0.064 C 
ATOM      6  O   UNL     1     113.916 117.868 113.264  1.00  0.00    -0.545 OA
ATOM      7  O   UNL     1     115.796 119.156 113.308  1.00  0.00    -0.545 OA
ENDBRANCH   4   5
ENDBRANCH   2   3
ENDBRANCH   1   2
BRANCH   1   8
ATOM      8  C   UNL     1     116.081 117.354 107.505  1.00  0.00     0.000 C 
BRANCH   8   9
ATOM      9  C   UNL     1     116.727 115.962 107.375  1.00  0.00    -0.000 C 
BRANCH   9  10
ATOM     10  C   UNL     1     118.178 115.872 107.881  1.00  0.00    -0.003 C 
ATOM     11  C   UNL     1     118.946 114.691 107.289  1.00  0.00     0.004 C 
ENDBRANCH   9  10
ENDBRANCH   8   9
ENDBRANCH   1   8
TORSDOF 6
ENDMDL
