MODEL 1
REMARK VINA RESULT:    -4.553      0.000      0.000
REMARK INTER + INTRA:          -7.942
REMARK INTER:                  -6.949
REMARK INTRA:                  -0.994
REMARK UNBOUND:                -0.994
REMARK SMILES CCCCCCCCCCC(=O)[O-]
REMARK SMILES IDX 7 1 8 2 9 3 10 4 11 5 12 6 13 7 6 8 5 9 4 10 3 11 2 12 1 13
REMARK H PARENT
REMARK Flexibility Score: inf
ROOT
ATOM      1  C   UNL     1      98.351  92.477  88.216  1.00  0.00     0.000 C 
ENDROOT
BRANCH   1   2
ATOM      2  C   UNL     1      99.622  92.098  88.987  1.00  0.00     0.000 C 
BRANCH   2   3
ATOM      3  C   UNL     1      99.524  90.719  89.663  1.00  0.00     0.006 C 
BRANCH   3   4
ATOM      4  C   UNL     1      98.368  90.598  90.674  1.00  0.00     0.053 C 
BRANCH   4   5
ATOM      5  C   UNL     1      98.819  90.096  92.013  1.00  0.00     0.041 C 
ATOM      6  O   UNL     1      98.644  90.794  93.047  1.00  0.00    -0.550 OA
ATOM      7  O   UNL     1      99.464  88.870  92.115  1.00  0.00    -0.550 OA
ENDBRANCH   4   5
ENDBRANCH   3   4
ENDBRANCH   2   3
ENDBRANCH   1   2
BRANCH   1   8
ATOM      8  C   UNL     1      98.430  92.020  86.753  1.00  0.00     0.000 C 
BRANCH   8   9
ATOM      9  C   UNL     1      99.868  92.018  86.206  1.00  0.00    -0.000 C 
BRANCH   9  10
ATOM     10  C   UNL     1     100.236  90.728  85.441  1.00  0.00    -0.000 C 
BRANCH  10  11
ATOM     11  C   UNL     1     100.951  89.703  86.341  1.00  0.00    -0.000 C 
BRANCH  11  12
ATOM     12  C   UNL     1     100.321  88.305  86.257  1.00  0.00    -0.003 C 
ATOM     13  C   UNL     1      99.112  88.145  87.179  1.00  0.00     0.004 C 
ENDBRANCH  11  12
ENDBRANCH  10  11
ENDBRANCH   9  10
ENDBRANCH   8   9
ENDBRANCH   1   8
TORSDOF 9
ENDMDL
MODEL 2
REMARK VINA RESULT:    -4.317      1.208      3.131
REMARK INTER + INTRA:          -7.582
REMARK INTER:                  -6.369
REMARK INTRA:                  -1.212
REMARK UNBOUND:                -0.994
REMARK SMILES CCCCCCCCCCC(=O)[O-]
REMARK SMILES IDX 7 1 8 2 9 3 10 4 11 5 12 6 13 7 6 8 5 9 4 10 3 11 2 12 1 13
REMARK H PARENT
REMARK Flexibility Score: inf
ROOT
ATOM      1  C   UNL     1     100.295  88.283  86.591  1.00  0.00     0.000 C 
ENDROOT
BRANCH   1   2
ATOM      2  C   UNL     1     100.784  88.773  87.960  1.00  0.00     0.000 C 
BRANCH   2   3
ATOM      3  C   UNL     1      99.633  89.045  88.945  1.00  0.00     0.006 C 
BRANCH   3   4
ATOM      4  C   UNL     1     100.098  89.519  90.335  1.00  0.00     0.053 C 
BRANCH   4   5
ATOM      5  C   UNL     1      98.955  89.812  91.260  1.00  0.00     0.041 C 
ATOM      6  O   UNL     1      98.964  89.378  92.442  1.00  0.00    -0.550 OA
ATOM      7  O   UNL     1      97.861  90.538  90.804  1.00  0.00    -0.550 OA
ENDBRANCH   4   5
ENDBRANCH   3   4
ENDBRANCH   2   3
ENDBRANCH   1   2
BRANCH   1   8
ATOM      8  C   UNL     1      99.882  89.458  85.694  1.00  0.00     0.000 C 
BRANCH   8   9
ATOM      9  C   UNL     1     100.824  90.668  85.825  1.00  0.00    -0.000 C 
BRANCH   9  10
ATOM     10  C   UNL     1     100.083  92.009  86.016  1.00  0.00    -0.000 C 
BRANCH  10  11
ATOM     11  C   UNL     1      98.654  91.813  86.557  1.00  0.00    -0.000 C 
BRANCH  11  12
ATOM     12  C   UNL     1      98.440  92.494  87.916  1.00  0.00    -0.003 C 
ATOM     13  C   UNL     1      99.749  92.752  88.662  1.00  0.00     0.004 C 
ENDBRANCH  11  12
ENDBRANCH  10  11
ENDBRANCH   9  10
ENDBRANCH   8   9
ENDBRANCH   1   8
TORSDOF 9
ENDMDL
MODEL 3
REMARK VINA RESULT:    -4.163      2.007      3.491
REMARK INTER + INTRA:          -7.347
REMARK INTER:                  -6.469
REMARK INTRA:                  -0.878
REMARK UNBOUND:                -0.994
REMARK SMILES CCCCCCCCCCC(=O)[O-]
REMARK SMILES IDX 7 1 8 2 9 3 10 4 11 5 12 6 13 7 6 8 5 9 4 10 3 11 2 12 1 13
REMARK H PARENT
REMARK Flexibility Score: inf
ROOT
ATOM      1  C   UNL     1      99.513  88.121  87.500  1.00  0.00     0.000 C 
ENDROOT
BRANCH   1   2
ATOM      2  C   UNL     1     100.095  88.714  88.790  1.00  0.00     0.000 C 
BRANCH   2   3
ATOM      3  C   UNL     1     101.338  87.957  89.290  1.00  0.00     0.006 C 
BRANCH   3   4
ATOM      4  C   UNL     1     101.064  87.024  90.485  1.00  0.00     0.053 C 
BRANCH   4   5
ATOM      5  C   UNL     1     100.996  87.758  91.790  1.00  0.00     0.041 C 
ATOM      6  O   UNL     1     101.782  88.714  92.026  1.00  0.00    -0.550 OA
ATOM      7  O   UNL     1     100.085  87.365  92.763  1.00  0.00    -0.550 OA
ENDBRANCH   4   5
ENDBRANCH   3   4
ENDBRANCH   2   3
ENDBRANCH   1   2
BRANCH   1   8
ATOM      8  C   UNL     1     100.520  88.206  86.345  1.00  0.00     0.000 C 
BRANCH   8   9
ATOM      9  C   UNL     1     100.708  89.641  85.822  1.00  0.00    -0.000 C 
BRANCH   9  10
ATOM     10  C   UNL     1      99.570  90.114  84.893  1.00  0.00    -0.000 C 
BRANCH  10  11
ATOM     11  C   UNL     1      98.901  91.404  85.403  1.00  0.00    -0.000 C 
BRANCH  11  12
ATOM     12  C   UNL     1      99.636  92.013  86.606  1.00  0.00    -0.003 C 
ATOM     13  C   UNL     1      98.722  92.226  87.813  1.00  0.00     0.004 C 
ENDBRANCH  11  12
ENDBRANCH  10  11
ENDBRANCH   9  10
ENDBRANCH   8   9
ENDBRANCH   1   8
TORSDOF 9
ENDMDL
MODEL 4
REMARK VINA RESULT:    -4.149      2.256      4.601
REMARK INTER + INTRA:          -7.325
REMARK INTER:                  -6.470
REMARK INTRA:                  -0.855
REMARK UNBOUND:                -0.994
REMARK SMILES CCCCCCCCCCC(=O)[O-]
REMARK SMILES IDX 7 1 8 2 9 3 10 4 11 5 12 6 13 7 6 8 5 9 4 10 3 11 2 12 1 13
REMARK H PARENT
REMARK Flexibility Score: inf
ROOT
ATOM      1  C   UNL     1     100.206  89.481  86.168  1.00  0.00     0.000 C 
ENDROOT
BRANCH   1   2
ATOM      2  C   UNL     1     100.998  90.752  85.838  1.00  0.00     0.000 C 
BRANCH   2   3
ATOM      3  C   UNL     1     100.141  92.029  85.913  1.00  0.00     0.006 C 
BRANCH   3   4
ATOM      4  C   UNL     1      98.826  91.855  86.696  1.00  0.00     0.053 C 
BRANCH   4   5
ATOM      5  C   UNL     1      98.788  92.672  87.953  1.00  0.00     0.041 C 
ATOM      6  O   UNL     1      97.723  93.238  88.313  1.00  0.00    -0.550 OA
ATOM      7  O   UNL     1      99.942  92.835  88.711  1.00  0.00    -0.550 OA
ENDBRANCH   4   5
ENDBRANCH   3   4
ENDBRANCH   2   3
ENDBRANCH   1   2
BRANCH   1   8
ATOM      8  C   UNL     1     101.100  88.424  86.830  1.00  0.00     0.000 C 
BRANCH   8   9
ATOM      9  C   UNL     1     100.732  88.168  88.302  1.00  0.00    -0.000 C 
BRANCH   9  10
ATOM     10  C   UNL     1      99.617  89.096  88.830  1.00  0.00    -0.000 C 
BRANCH  10  11
ATOM     11  C   UNL     1      99.943  89.663  90.224  1.00  0.00    -0.000 C 
BRANCH  11  12
ATOM     12  C   UNL     1      98.721  90.297  90.904  1.00  0.00    -0.003 C 
ATOM     13  C   UNL     1      98.856  90.359  92.425  1.00  0.00     0.004 C 
ENDBRANCH  11  12
ENDBRANCH  10  11
ENDBRANCH   9  10
ENDBRANCH   8   9
ENDBRANCH   1   8
TORSDOF 9
ENDMDL
MODEL 5
REMARK VINA RESULT:    -4.132      2.360      3.680
REMARK INTER + INTRA:          -7.300
REMARK INTER:                  -6.188
REMARK INTRA:                  -1.111
REMARK UNBOUND:                -0.994
REMARK SMILES CCCCCCCCCCC(=O)[O-]
REMARK SMILES IDX 7 1 8 2 9 3 10 4 11 5 12 6 13 7 6 8 5 9 4 10 3 11 2 12 1 13
REMARK H PARENT
REMARK Flexibility Score: inf
ROOT
ATOM      1  C   UNL     1      99.179  88.660  88.082  1.00  0.00     0.000 C 
ENDROOT
BRANCH   1   2
ATOM      2  C   UNL     1     100.242  88.991  89.137  1.00  0.00     0.000 C 
BRANCH   2   3
ATOM      3  C   UNL     1      99.905  90.252  89.953  1.00  0.00     0.006 C 
BRANCH   3   4
ATOM      4  C   UNL     1      98.612  90.960  89.505  1.00  0.00     0.053 C 
BRANCH   4   5
ATOM      5  C   UNL     1      98.878  92.212  88.724  1.00  0.00     0.041 C 
ATOM      6  O   UNL     1      99.999  92.781  88.795  1.00  0.00    -0.550 OA
ATOM      7  O   UNL     1      97.874  92.769  87.941  1.00  0.00    -0.550 OA
ENDBRANCH   4   5
ENDBRANCH   3   4
ENDBRANCH   2   3
ENDBRANCH   1   2
BRANCH   1   8
ATOM      8  C   UNL     1      99.744  87.736  86.994  1.00  0.00     0.000 C 
BRANCH   8   9
ATOM      9  C   UNL     1     100.309  88.509  85.790  1.00  0.00    -0.000 C 
BRANCH   9  10
ATOM     10  C   UNL     1      99.413  89.681  85.333  1.00  0.00    -0.000 C 
BRANCH  10  11
ATOM     11  C   UNL     1     100.145  91.034  85.404  1.00  0.00    -0.000 C 
BRANCH  11  12
ATOM     12  C   UNL     1     101.455  90.955  86.202  1.00  0.00    -0.003 C 
ATOM     13  C   UNL     1     102.404  92.114  85.899  1.00  0.00     0.004 C 
ENDBRANCH  11  12
ENDBRANCH  10  11
ENDBRANCH   9  10
ENDBRANCH   8   9
ENDBRANCH   1   8
TORSDOF 9
ENDMDL
MODEL 6
REMARK VINA RESULT:    -4.017     10.890     12.389
REMARK INTER + INTRA:          -7.124
REMARK INTER:                  -6.509
REMARK INTRA:                  -0.615
REMARK UNBOUND:                -0.994
REMARK SMILES CCCCCCCCCCC(=O)[O-]
REMARK SMILES IDX 7 1 8 2 9 3 10 4 11 5 12 6 13 7 6 8 5 9 4 10 3 11 2 12 1 13
REMARK H PARENT
REMARK Flexibility Score: inf
ROOT
ATOM      1  C   UNL     1     104.138  97.094  97.575  1.00  0.00     0.000 C 
ENDROOT
BRANCH   1   2
ATOM      2  C   UNL     1     105.375  96.914  96.686  1.00  0.00     0.000 C 
BRANCH   2   3
ATOM      3  C   UNL     1     105.215  97.561  95.299  1.00  0.00     0.006 C 
BRANCH   3   4
ATOM      4  C   UNL     1     103.851  98.243  95.080  1.00  0.00     0.053 C 
BRANCH   4   5
ATOM      5  C   UNL     1     103.970  99.725  94.882  1.00  0.00     0.041 C 
ATOM      6  O   UNL     1     104.895 100.371  95.441  1.00  0.00    -0.550 OA
ATOM      7  O   UNL     1     103.036 100.399  94.104  1.00  0.00    -0.550 OA
ENDBRANCH   4   5
ENDBRANCH   3   4
ENDBRANCH   2   3
ENDBRANCH   1   2
BRANCH   1   8
ATOM      8  C   UNL     1     103.743  95.775  98.253  1.00  0.00     0.000 C 
BRANCH   8   9
ATOM      9  C   UNL     1     102.474  95.902  99.113  1.00  0.00    -0.000 C 
BRANCH   9  10
ATOM     10  C   UNL     1     101.540  97.049  98.669  1.00  0.00    -0.000 C 
BRANCH  10  11
ATOM     11  C   UNL     1     100.612  96.629  97.514  1.00  0.00    -0.000 C 
BRANCH  11  12
ATOM     12  C   UNL     1      99.261  96.089  98.010  1.00  0.00    -0.003 C 
ATOM     13  C   UNL     1      99.066  94.606  97.695  1.00  0.00     0.004 C 
ENDBRANCH  11  12
ENDBRANCH  10  11
ENDBRANCH   9  10
ENDBRANCH   8   9
ENDBRANCH   1   8
TORSDOF 9
ENDMDL
MODEL 7
REMARK VINA RESULT:    -3.974      2.668      5.219
REMARK INTER + INTRA:          -7.059
REMARK INTER:                  -6.467
REMARK INTRA:                  -0.591
REMARK UNBOUND:                -0.994
REMARK SMILES CCCCCCCCCCC(=O)[O-]
REMARK SMILES IDX 7 1 8 2 9 3 10 4 11 5 12 6 13 7 6 8 5 9 4 10 3 11 2 12 1 13
REMARK H PARENT
REMARK Flexibility Score: inf
ROOT
ATOM      1  C   UNL     1      99.423  91.859  88.930  1.00  0.00     0.000 C 
ENDROOT
BRANCH   1   2
ATOM      2  C   UNL     1     100.032  91.667  87.535  1.00  0.00     0.000 C 
BRANCH   2   3
ATOM      3  C   UNL     1      99.055  91.018  86.538  1.00  0.00     0.006 C 
BRANCH   3   4
ATOM      4  C   UNL     1      99.706  89.966  85.620  1.00  0.00     0.053 C 
BRANCH   4   5
ATOM      5  C   UNL     1      99.951  88.661  86.316  1.00  0.00     0.041 C 
ATOM      6  O   UNL     1      99.048  88.134  87.017  1.00  0.00    -0.550 OA
ATOM      7  O   UNL     1     101.191  88.043  86.216  1.00  0.00    -0.550 OA
ENDBRANCH   4   5
ENDBRANCH   3   4
ENDBRANCH   2   3
ENDBRANCH   1   2
BRANCH   1   8
ATOM      8  C   UNL     1      99.268  90.518  89.659  1.00  0.00     0.000 C 
BRANCH   8   9
ATOM      9  C   UNL     1      98.233  90.573  90.796  1.00  0.00    -0.000 C 
BRANCH   9  10
ATOM     10  C   UNL     1      98.831  90.281  92.190  1.00  0.00    -0.000 C 
BRANCH  10  11
ATOM     11  C   UNL     1      99.621  88.959  92.218  1.00  0.00    -0.000 C 
BRANCH  11  12
ATOM     12  C   UNL     1     101.105  89.166  92.553  1.00  0.00    -0.003 C 
ATOM     13  C   UNL     1     102.003  88.084  91.954  1.00  0.00     0.004 C 
ENDBRANCH  11  12
ENDBRANCH  10  11
ENDBRANCH   9  10
ENDBRANCH   8   9
ENDBRANCH   1   8
TORSDOF 9
ENDMDL
MODEL 8
REMARK VINA RESULT:    -3.969     11.481     12.694
REMARK INTER + INTRA:          -7.050
REMARK INTER:                  -5.959
REMARK INTRA:                  -1.092
REMARK UNBOUND:                -0.994
REMARK SMILES CCCCCCCCCCC(=O)[O-]
REMARK SMILES IDX 7 1 8 2 9 3 10 4 11 5 12 6 13 7 6 8 5 9 4 10 3 11 2 12 1 13
REMARK H PARENT
REMARK Flexibility Score: inf
ROOT
ATOM      1  C   UNL     1     102.719  98.487  95.597  1.00  0.00     0.000 C 
ENDROOT
BRANCH   1   2
ATOM      2  C   UNL     1     103.992  98.546  96.452  1.00  0.00     0.000 C 
BRANCH   2   3
ATOM      3  C   UNL     1     104.892  97.310  96.273  1.00  0.00     0.006 C 
BRANCH   3   4
ATOM      4  C   UNL     1     105.866  97.412  95.085  1.00  0.00     0.053 C 
BRANCH   4   5
ATOM      5  C   UNL     1     106.801  98.579  95.200  1.00  0.00     0.041 C 
ATOM      6  O   UNL     1     106.798  99.487  94.328  1.00  0.00    -0.550 OA
ATOM      7  O   UNL     1     107.702  98.646  96.257  1.00  0.00    -0.550 OA
ENDBRANCH   4   5
ENDBRANCH   3   4
ENDBRANCH   2   3
ENDBRANCH   1   2
BRANCH   1   8
ATOM      8  C   UNL     1     101.462  98.670  96.458  1.00  0.00     0.000 C 
BRANCH   8   9
ATOM      9  C   UNL     1     100.609  97.393  96.547  1.00  0.00    -0.000 C 
BRANCH   9  10
ATOM     10  C   UNL     1     100.725  96.666  97.905  1.00  0.00    -0.000 C 
BRANCH  10  11
ATOM     11  C   UNL     1     101.408  97.539  98.974  1.00  0.00    -0.000 C 
BRANCH  11  12
ATOM     12  C   UNL     1     102.612  96.842  99.624  1.00  0.00    -0.003 C 
ATOM     13  C   UNL     1     102.976  95.527  98.935  1.00  0.00     0.004 C 
ENDBRANCH  11  12
ENDBRANCH  10  11
ENDBRANCH   9  10
ENDBRANCH   8   9
ENDBRANCH   1   8
TORSDOF 9
ENDMDL
MODEL 9
REMARK VINA RESULT:    -3.919      1.589      2.995
REMARK INTER + INTRA:          -6.974
REMARK INTER:                  -6.386
REMARK INTRA:                  -0.588
REMARK UNBOUND:                -0.994
REMARK SMILES CCCCCCCCCCC(=O)[O-]
REMARK SMILES IDX 7 1 8 2 9 3 10 4 11 5 12 6 13 7 6 8 5 9 4 10 3 11 2 12 1 13
REMARK H PARENT
REMARK Flexibility Score: inf
ROOT
ATOM      1  C   UNL     1      99.258  89.324  88.376  1.00  0.00     0.000 C 
ENDROOT
BRANCH   1   2
ATOM      2  C   UNL     1      99.889  90.039  89.577  1.00  0.00     0.000 C 
BRANCH   2   3
ATOM      3  C   UNL     1      98.877  90.332  90.700  1.00  0.00     0.006 C 
BRANCH   3   4
ATOM      4  C   UNL     1      99.106  89.506  91.980  1.00  0.00     0.053 C 
BRANCH   4   5
ATOM      5  C   UNL     1     100.384  88.722  91.943  1.00  0.00     0.041 C 
ATOM      6  O   UNL     1     100.373  87.501  91.635  1.00  0.00    -0.550 OA
ATOM      7  O   UNL     1     101.585  89.333  92.282  1.00  0.00    -0.550 OA
ENDBRANCH   4   5
ENDBRANCH   3   4
ENDBRANCH   2   3
ENDBRANCH   1   2
BRANCH   1   8
ATOM      8  C   UNL     1     100.074  88.089  87.971  1.00  0.00     0.000 C 
BRANCH   8   9
ATOM      9  C   UNL     1     100.540  88.137  86.505  1.00  0.00    -0.000 C 
BRANCH   9  10
ATOM     10  C   UNL     1     100.589  89.564  85.918  1.00  0.00    -0.000 C 
BRANCH  10  11
ATOM     11  C   UNL     1      99.456  89.817  84.907  1.00  0.00    -0.000 C 
BRANCH  11  12
ATOM     12  C   UNL     1      99.011  91.286  84.875  1.00  0.00    -0.003 C 
ATOM     13  C   UNL     1      99.626  92.115  86.003  1.00  0.00     0.004 C 
ENDBRANCH  11  12
ENDBRANCH  10  11
ENDBRANCH   9  10
ENDBRANCH   8   9
ENDBRANCH   1   8
TORSDOF 9
ENDMDL
