MODEL 1
REMARK VINA RESULT:     2.197      0.000      0.000
REMARK INTER + INTRA:           2.313
REMARK INTER:                   2.582
REMARK INTRA:                  -0.269
REMARK UNBOUND:                -0.269
REMARK SMILES O=c1cc(-c2ccc(O)c(O)c2)oc2cc(O)cc(O)c12
REMARK SMILES IDX 4 1 3 2 2 3 1 4 21 5 19 6 18 7 16 8 15 9 14 10 13 11 5 12
REMARK SMILES IDX 6 13 7 14 8 15 12 16 10 17 9 18 11 20 20 22 17 24
REMARK H PARENT 9 19 11 21 20 23 17 25
REMARK Flexibility Score: inf
ROOT
ATOM      1  C   UNL     1     -18.796   9.356  26.314  1.00  0.00     0.138 A 
ATOM      2  C   UNL     1     -17.417   9.347  26.563  1.00  0.00     0.100 A 
ATOM      3  C   UNL     1     -16.523   9.519  25.505  1.00  0.00     0.197 A 
ATOM      4  O   UNL     1     -15.291   9.451  25.752  1.00  0.00    -0.289 OA
ATOM      5  C   UNL     1     -17.016   9.734  24.196  1.00  0.00     0.107 A 
ATOM      6  C   UNL     1     -16.199   9.954  23.044  1.00  0.00     0.134 A 
ATOM      7  C   UNL     1     -16.800  10.057  21.783  1.00  0.00     0.093 A 
ATOM      8  C   UNL     1     -18.189  10.006  21.639  1.00  0.00     0.123 A 
ATOM      9  C   UNL     1     -18.995   9.842  22.762  1.00  0.00     0.094 A 
ATOM     10  C   UNL     1     -18.426   9.701  24.030  1.00  0.00     0.146 A 
ATOM     11  O   UNL     1     -19.232   9.528  25.071  1.00  0.00    -0.456 OA
ENDROOT
BRANCH   1  12
ATOM     12  C   UNL     1     -19.791   9.182  27.403  1.00  0.00     0.021 A 
ATOM     13  C   UNL     1     -20.811  10.125  27.631  1.00  0.00     0.016 A 
ATOM     14  C   UNL     1     -21.728   9.939  28.670  1.00  0.00     0.051 A 
ATOM     15  C   UNL     1     -21.637   8.817  29.502  1.00  0.00     0.157 A 
ATOM     16  C   UNL     1     -19.699   8.064  28.251  1.00  0.00     0.062 A 
ATOM     17  C   UNL     1     -20.616   7.876  29.292  1.00  0.00     0.158 A 
BRANCH  15  18
ATOM     18  O   UNL     1     -22.554   8.634  30.536  1.00  0.00    -0.504 OA
ATOM     19  H   UNL     1     -22.311   8.826  31.501  1.00  0.00     0.293 HD
ENDBRANCH  15  18
BRANCH  17  20
ATOM     20  O   UNL     1     -20.496   6.749  30.104  1.00  0.00    -0.504 OA
ATOM     21  H   UNL     1     -19.916   6.743  30.934  1.00  0.00     0.293 HD
ENDBRANCH  17  20
ENDBRANCH   1  12
BRANCH   6  22
ATOM     22  O   UNL     1     -14.811  10.101  23.085  1.00  0.00    -0.507 OA
ATOM     23  H   UNL     1     -14.281  10.763  22.539  1.00  0.00     0.293 HD
ENDBRANCH   6  22
BRANCH   8  24
ATOM     24  O   UNL     1     -18.777  10.125  20.381  1.00  0.00    -0.508 OA
ATOM     25  H   UNL     1     -18.220  10.134  19.535  1.00  0.00     0.293 HD
ENDBRANCH   8  24
TORSDOF 5
ENDMDL
MODEL 2
REMARK VINA RESULT:     2.327      1.434      6.963
REMARK INTER + INTRA:           2.466
REMARK INTER:                   2.751
REMARK INTRA:                  -0.285
REMARK UNBOUND:                -0.269
REMARK SMILES O=c1cc(-c2ccc(O)c(O)c2)oc2cc(O)cc(O)c12
REMARK SMILES IDX 4 1 3 2 2 3 1 4 21 5 19 6 18 7 16 8 15 9 14 10 13 11 5 12
REMARK SMILES IDX 6 13 7 14 8 15 12 16 10 17 9 18 11 20 20 22 17 24
REMARK H PARENT 9 19 11 21 20 23 17 25
REMARK Flexibility Score: inf
ROOT
ATOM      1  C   UNL     1     -18.679   8.921  26.723  1.00  0.00     0.138 A 
ATOM      2  C   UNL     1     -18.196   8.130  27.775  1.00  0.00     0.100 A 
ATOM      3  C   UNL     1     -19.022   7.852  28.865  1.00  0.00     0.197 A 
ATOM      4  O   UNL     1     -18.543   7.186  29.818  1.00  0.00    -0.289 OA
ATOM      5  C   UNL     1     -20.351   8.341  28.884  1.00  0.00     0.107 A 
ATOM      6  C   UNL     1     -21.295   8.094  29.927  1.00  0.00     0.134 A 
ATOM      7  C   UNL     1     -22.551   8.714  29.881  1.00  0.00     0.093 A 
ATOM      8  C   UNL     1     -22.916   9.525  28.804  1.00  0.00     0.123 A 
ATOM      9  C   UNL     1     -22.020   9.732  27.759  1.00  0.00     0.094 A 
ATOM     10  C   UNL     1     -20.748   9.156  27.790  1.00  0.00     0.146 A 
ATOM     11  O   UNL     1     -19.918   9.394  26.780  1.00  0.00    -0.456 OA
ENDROOT
BRANCH   1  12
ATOM     12  C   UNL     1     -17.844   9.244  25.538  1.00  0.00     0.021 A 
ATOM     13  C   UNL     1     -18.409   9.428  24.262  1.00  0.00     0.016 A 
ATOM     14  C   UNL     1     -17.596   9.722  23.164  1.00  0.00     0.051 A 
ATOM     15  C   UNL     1     -16.209   9.829  23.317  1.00  0.00     0.157 A 
ATOM     16  C   UNL     1     -16.448   9.341  25.682  1.00  0.00     0.062 A 
ATOM     17  C   UNL     1     -15.633   9.635  24.583  1.00  0.00     0.158 A 
BRANCH  15  18
ATOM     18  O   UNL     1     -15.402  10.125  22.220  1.00  0.00    -0.504 OA
ATOM     19  H   UNL     1     -15.293  11.074  21.882  1.00  0.00     0.293 HD
ENDBRANCH  15  18
BRANCH  17  20
ATOM     20  O   UNL     1     -14.254   9.732  24.770  1.00  0.00    -0.504 OA
ATOM     21  H   UNL     1     -13.695  10.432  24.298  1.00  0.00     0.293 HD
ENDBRANCH  17  20
ENDBRANCH   1  12
BRANCH   6  22
ATOM     22  O   UNL     1     -21.063   7.238  31.007  1.00  0.00    -0.507 OA
ATOM     23  H   UNL     1     -20.688   7.519  31.899  1.00  0.00     0.293 HD
ENDBRANCH   6  22
BRANCH   8  24
ATOM     24  O   UNL     1     -24.173  10.125  28.761  1.00  0.00    -0.508 OA
ATOM     25  H   UNL     1     -24.338  11.038  29.168  1.00  0.00     0.293 HD
ENDBRANCH   8  24
TORSDOF 5
ENDMDL
MODEL 3
REMARK VINA RESULT:     2.757      1.204      2.760
REMARK INTER + INTRA:           2.971
REMARK INTER:                   3.254
REMARK INTRA:                  -0.283
REMARK UNBOUND:                -0.269
REMARK SMILES O=c1cc(-c2ccc(O)c(O)c2)oc2cc(O)cc(O)c12
REMARK SMILES IDX 4 1 3 2 2 3 1 4 21 5 19 6 18 7 16 8 15 9 14 10 13 11 5 12
REMARK SMILES IDX 6 13 7 14 8 15 12 16 10 17 9 18 11 20 20 22 17 24
REMARK H PARENT 9 19 11 21 20 23 17 25
REMARK Flexibility Score: inf
ROOT
ATOM      1  C   UNL     1     -19.066   9.458  26.249  1.00  0.00     0.138 A 
ATOM      2  C   UNL     1     -19.544   9.601  24.939  1.00  0.00     0.100 A 
ATOM      3  C   UNL     1     -18.642   9.808  23.894  1.00  0.00     0.197 A 
ATOM      4  O   UNL     1     -19.104   9.988  22.738  1.00  0.00    -0.289 OA
ATOM      5  C   UNL     1     -17.251   9.837  24.161  1.00  0.00     0.107 A 
ATOM      6  C   UNL     1     -16.236  10.008  23.170  1.00  0.00     0.134 A 
ATOM      7  C   UNL     1     -14.897  10.119  23.567  1.00  0.00     0.093 A 
ATOM      8  C   UNL     1     -14.532  10.007  24.911  1.00  0.00     0.123 A 
ATOM      9  C   UNL     1     -15.510   9.791  25.878  1.00  0.00     0.094 A 
ATOM     10  C   UNL     1     -16.858   9.711  25.519  1.00  0.00     0.146 A 
ATOM     11  O   UNL     1     -17.759   9.521  26.477  1.00  0.00    -0.456 OA
ENDROOT
BRANCH   1  12
ATOM     12  C   UNL     1     -19.981   9.232  27.397  1.00  0.00     0.021 A 
ATOM     13  C   UNL     1     -21.027  10.125  27.697  1.00  0.00     0.016 A 
ATOM     14  C   UNL     1     -21.866   9.891  28.790  1.00  0.00     0.051 A 
ATOM     15  C   UNL     1     -21.671   8.770  29.606  1.00  0.00     0.157 A 
ATOM     16  C   UNL     1     -19.784   8.116  28.229  1.00  0.00     0.062 A 
ATOM     17  C   UNL     1     -20.622   7.880  29.324  1.00  0.00     0.158 A 
BRANCH  15  18
ATOM     18  O   UNL     1     -22.511   8.539  30.694  1.00  0.00    -0.504 OA
ATOM     19  H   UNL     1     -22.987   7.654  30.818  1.00  0.00     0.293 HD
ENDBRANCH  15  18
BRANCH  17  20
ATOM     20  O   UNL     1     -20.399   6.756  30.118  1.00  0.00    -0.504 OA
ATOM     21  H   UNL     1     -21.137   6.325  30.662  1.00  0.00     0.293 HD
ENDBRANCH  17  20
ENDBRANCH   1  12
BRANCH   6  22
ATOM     22  O   UNL     1     -16.482  10.051  21.795  1.00  0.00    -0.507 OA
ATOM     23  H   UNL     1     -17.338   9.758  21.350  1.00  0.00     0.293 HD
ENDBRANCH   6  22
BRANCH   8  24
ATOM     24  O   UNL     1     -13.196  10.104  25.294  1.00  0.00    -0.508 OA
ATOM     25  H   UNL     1     -12.932  10.280  26.256  1.00  0.00     0.293 HD
ENDBRANCH   8  24
TORSDOF 5
ENDMDL
MODEL 4
REMARK VINA RESULT:     3.162      1.505      2.094
REMARK INTER + INTRA:           3.447
REMARK INTER:                   3.765
REMARK INTRA:                  -0.318
REMARK UNBOUND:                -0.269
REMARK SMILES O=c1cc(-c2ccc(O)c(O)c2)oc2cc(O)cc(O)c12
REMARK SMILES IDX 4 1 3 2 2 3 1 4 21 5 19 6 18 7 16 8 15 9 14 10 13 11 5 12
REMARK SMILES IDX 6 13 7 14 8 15 12 16 10 17 9 18 11 20 20 22 17 24
REMARK H PARENT 9 19 11 21 20 23 17 25
REMARK Flexibility Score: inf
ROOT
ATOM      1  C   UNL     1     -19.327   9.115  27.495  1.00  0.00     0.138 A 
ATOM      2  C   UNL     1     -18.055   8.660  27.868  1.00  0.00     0.100 A 
ATOM      3  C   UNL     1     -17.039   8.592  26.913  1.00  0.00     0.197 A 
ATOM      4  O   UNL     1     -15.924   8.127  27.266  1.00  0.00    -0.289 OA
ATOM      5  C   UNL     1     -17.291   9.015  25.586  1.00  0.00     0.107 A 
ATOM      6  C   UNL     1     -16.323   9.021  24.536  1.00  0.00     0.134 A 
ATOM      7  C   UNL     1     -16.717   9.369  23.237  1.00  0.00     0.093 A 
ATOM      8  C   UNL     1     -18.028   9.765  22.963  1.00  0.00     0.123 A 
ATOM      9  C   UNL     1     -18.967   9.809  23.990  1.00  0.00     0.094 A 
ATOM     10  C   UNL     1     -18.615   9.436  25.289  1.00  0.00     0.146 A 
ATOM     11  O   UNL     1     -19.547   9.476  26.236  1.00  0.00    -0.456 OA
ENDROOT
BRANCH   1  12
ATOM     12  C   UNL     1     -20.443   9.212  28.471  1.00  0.00     0.021 A 
ATOM     13  C   UNL     1     -20.271   8.878  29.827  1.00  0.00     0.016 A 
ATOM     14  C   UNL     1     -21.343   8.970  30.720  1.00  0.00     0.051 A 
ATOM     15  C   UNL     1     -22.603   9.387  30.274  1.00  0.00     0.157 A 
ATOM     16  C   UNL     1     -21.714   9.617  28.028  1.00  0.00     0.062 A 
ATOM     17  C   UNL     1     -22.789   9.710  28.920  1.00  0.00     0.158 A 
BRANCH  15  18
ATOM     18  O   UNL     1     -23.669   9.478  31.167  1.00  0.00    -0.504 OA
ATOM     19  H   UNL     1     -24.497   8.904  31.065  1.00  0.00     0.293 HD
ENDBRANCH  15  18
BRANCH  17  20
ATOM     20  O   UNL     1     -24.031  10.125  28.442  1.00  0.00    -0.504 OA
ATOM     21  H   UNL     1     -24.809   9.485  28.338  1.00  0.00     0.293 HD
ENDBRANCH  17  20
ENDBRANCH   1  12
BRANCH   6  22
ATOM     22  O   UNL     1     -14.970   8.721  24.715  1.00  0.00    -0.507 OA
ATOM     23  H   UNL     1     -14.257   8.812  24.008  1.00  0.00     0.293 HD
ENDBRANCH   6  22
BRANCH   8  24
ATOM     24  O   UNL     1     -18.406  10.124  21.670  1.00  0.00    -0.508 OA
ATOM     25  H   UNL     1     -18.506  11.094  21.398  1.00  0.00     0.293 HD
ENDBRANCH   8  24
TORSDOF 5
ENDMDL
MODEL 5
REMARK VINA RESULT:     3.728      1.513      6.888
REMARK INTER + INTRA:           4.113
REMARK INTER:                   4.428
REMARK INTRA:                  -0.315
REMARK UNBOUND:                -0.269
REMARK SMILES O=c1cc(-c2ccc(O)c(O)c2)oc2cc(O)cc(O)c12
REMARK SMILES IDX 4 1 3 2 2 3 1 4 21 5 19 6 18 7 16 8 15 9 14 10 13 11 5 12
REMARK SMILES IDX 6 13 7 14 8 15 12 16 10 17 9 18 11 20 20 22 17 24
REMARK H PARENT 9 19 11 21 20 23 17 25
REMARK Flexibility Score: inf
ROOT
ATOM      1  C   UNL     1     -18.466   9.237  25.902  1.00  0.00     0.138 A 
ATOM      2  C   UNL     1     -17.556   8.736  26.843  1.00  0.00     0.100 A 
ATOM      3  C   UNL     1     -17.963   8.543  28.164  1.00  0.00     0.197 A 
ATOM      4  O   UNL     1     -17.109   8.145  28.996  1.00  0.00    -0.289 OA
ATOM      5  C   UNL     1     -19.301   8.823  28.535  1.00  0.00     0.107 A 
ATOM      6  C   UNL     1     -19.839   8.633  29.844  1.00  0.00     0.134 A 
ATOM      7  C   UNL     1     -21.152   9.038  30.116  1.00  0.00     0.093 A 
ATOM      8  C   UNL     1     -21.964   9.571  29.112  1.00  0.00     0.123 A 
ATOM      9  C   UNL     1     -21.464   9.714  27.820  1.00  0.00     0.094 A 
ATOM     10  C   UNL     1     -20.148   9.352  27.525  1.00  0.00     0.146 A 
ATOM     11  O   UNL     1     -19.706   9.521  26.283  1.00  0.00    -0.456 OA
ENDROOT
BRANCH   1  12
ATOM     12  C   UNL     1     -18.087   9.458  24.483  1.00  0.00     0.021 A 
ATOM     13  C   UNL     1     -16.740   9.511  24.076  1.00  0.00     0.016 A 
ATOM     14  C   UNL     1     -16.414   9.730  22.735  1.00  0.00     0.051 A 
ATOM     15  C   UNL     1     -17.422   9.908  21.780  1.00  0.00     0.157 A 
ATOM     16  C   UNL     1     -19.094   9.650  23.521  1.00  0.00     0.062 A 
ATOM     17  C   UNL     1     -18.769   9.869  22.177  1.00  0.00     0.158 A 
BRANCH  15  18
ATOM     18  O   UNL     1     -17.093  10.124  20.443  1.00  0.00    -0.504 OA
ATOM     19  H   UNL     1     -17.616   9.689  19.692  1.00  0.00     0.293 HD
ENDBRANCH  15  18
BRANCH  17  20
ATOM     20  O   UNL     1     -19.798  10.046  21.252  1.00  0.00    -0.504 OA
ATOM     21  H   UNL     1     -20.770  10.101  21.531  1.00  0.00     0.293 HD
ENDBRANCH  17  20
ENDBRANCH   1  12
BRANCH   6  22
ATOM     22  O   UNL     1     -19.142   8.036  30.899  1.00  0.00    -0.507 OA
ATOM     23  H   UNL     1     -18.139   8.013  30.991  1.00  0.00     0.293 HD
ENDBRANCH   6  22
BRANCH   8  24
ATOM     24  O   UNL     1     -23.274   9.957  29.388  1.00  0.00    -0.508 OA
ATOM     25  H   UNL     1     -23.480  10.823  29.872  1.00  0.00     0.293 HD
ENDBRANCH   8  24
TORSDOF 5
ENDMDL
