MODEL 1
REMARK VINA RESULT:    -3.561      0.000      0.000
REMARK INTER + INTRA:          -5.447
REMARK INTER:                  -5.019
REMARK INTRA:                  -0.428
REMARK UNBOUND:                -0.428
REMARK SMILES C=CCCCCCCC(=O)[O-]
REMARK SMILES IDX 6 1 7 2 8 3 9 4 10 5 11 6 5 7 4 8 3 9 2 10 1 11
REMARK H PARENT
REMARK Flexibility Score: inf
ROOT
ATOM      1  C   UNL     1      33.372 166.472 157.292  1.00  0.00     0.000 C 
ENDROOT
BRANCH   1   2
ATOM      2  C   UNL     1      32.473 166.035 158.462  1.00  0.00     0.006 C 
BRANCH   2   3
ATOM      3  C   UNL     1      31.420 167.080 158.868  1.00  0.00     0.053 C 
BRANCH   3   4
ATOM      4  C   UNL     1      30.901 166.866 160.257  1.00  0.00     0.041 C 
ATOM      5  O   UNL     1      31.453 166.029 161.018  1.00  0.00    -0.550 OA
ATOM      6  O   UNL     1      29.785 167.565 160.702  1.00  0.00    -0.550 OA
ENDBRANCH   3   4
ENDBRANCH   2   3
ENDBRANCH   1   2
BRANCH   1   7
ATOM      7  C   UNL     1      32.695 167.494 156.364  1.00  0.00     0.000 C 
BRANCH   7   8
ATOM      8  C   UNL     1      31.881 166.825 155.244  1.00  0.00     0.004 C 
BRANCH   8   9
ATOM      9  C   UNL     1      30.465 167.409 155.113  1.00  0.00     0.027 C 
BRANCH   9  10
ATOM     10  C   UNL     1      30.511 168.899 154.910  1.00  0.00    -0.035 C 
ATOM     11  C   UNL     1      29.409 169.652 154.982  1.00  0.00     0.004 C 
ENDBRANCH   9  10
ENDBRANCH   8   9
ENDBRANCH   7   8
ENDBRANCH   1   7
TORSDOF 7
ENDMDL
MODEL 2
REMARK VINA RESULT:    -3.545      3.338      5.037
REMARK INTER + INTRA:          -5.424
REMARK INTER:                  -4.832
REMARK INTRA:                  -0.592
REMARK UNBOUND:                -0.428
REMARK SMILES C=CCCCCCCC(=O)[O-]
REMARK SMILES IDX 6 1 7 2 8 3 9 4 10 5 11 6 5 7 4 8 3 9 2 10 1 11
REMARK H PARENT
REMARK Flexibility Score: inf
ROOT
ATOM      1  C   UNL     1      29.620 167.181 156.929  1.00  0.00     0.000 C 
ENDROOT
BRANCH   1   2
ATOM      2  C   UNL     1      28.410 168.040 156.522  1.00  0.00     0.006 C 
BRANCH   2   3
ATOM      3  C   UNL     1      28.480 168.580 155.083  1.00  0.00     0.053 C 
BRANCH   3   4
ATOM      4  C   UNL     1      28.939 170.004 155.024  1.00  0.00     0.041 C 
ATOM      5  O   UNL     1      30.169 170.274 155.023  1.00  0.00    -0.550 OA
ATOM      6  O   UNL     1      28.011 171.038 155.006  1.00  0.00    -0.550 OA
ENDBRANCH   3   4
ENDBRANCH   2   3
ENDBRANCH   1   2
BRANCH   1   7
ATOM      7  C   UNL     1      30.192 166.359 155.763  1.00  0.00     0.000 C 
BRANCH   7   8
ATOM      8  C   UNL     1      31.630 166.767 155.403  1.00  0.00     0.004 C 
BRANCH   8   9
ATOM      9  C   UNL     1      32.310 167.581 156.516  1.00  0.00     0.027 C 
BRANCH   9  10
ATOM     10  C   UNL     1      33.571 166.908 156.985  1.00  0.00    -0.035 C 
ATOM     11  C   UNL     1      33.543 165.884 157.843  1.00  0.00     0.004 C 
ENDBRANCH   9  10
ENDBRANCH   8   9
ENDBRANCH   7   8
ENDBRANCH   1   7
TORSDOF 7
ENDMDL
MODEL 3
REMARK VINA RESULT:    -3.532      2.415      4.473
REMARK INTER + INTRA:          -5.406
REMARK INTER:                  -4.867
REMARK INTRA:                  -0.538
REMARK UNBOUND:                -0.428
REMARK SMILES C=CCCCCCCC(=O)[O-]
REMARK SMILES IDX 6 1 7 2 8 3 9 4 10 5 11 6 5 7 4 8 3 9 2 10 1 11
REMARK H PARENT
REMARK Flexibility Score: inf
ROOT
ATOM      1  C   UNL     1      33.352 167.130 156.784  1.00  0.00     0.000 C 
ENDROOT
BRANCH   1   2
ATOM      2  C   UNL     1      32.118 166.724 155.958  1.00  0.00     0.006 C 
BRANCH   2   3
ATOM      3  C   UNL     1      31.625 167.814 154.991  1.00  0.00     0.053 C 
BRANCH   3   4
ATOM      4  C   UNL     1      30.407 168.525 155.496  1.00  0.00     0.041 C 
ATOM      5  O   UNL     1      29.644 167.964 156.326  1.00  0.00    -0.550 OA
ATOM      6  O   UNL     1      30.091 169.793 155.024  1.00  0.00    -0.550 OA
ENDBRANCH   3   4
ENDBRANCH   2   3
ENDBRANCH   1   2
BRANCH   1   7
ATOM      7  C   UNL     1      33.768 166.061 157.807  1.00  0.00     0.000 C 
BRANCH   7   8
ATOM      8  C   UNL     1      32.609 165.125 158.186  1.00  0.00     0.004 C 
BRANCH   8   9
ATOM      9  C   UNL     1      32.008 165.455 159.562  1.00  0.00     0.027 C 
BRANCH   9  10
ATOM     10  C   UNL     1      30.771 166.301 159.423  1.00  0.00    -0.035 C 
ATOM     11  C   UNL     1      30.525 167.325 160.245  1.00  0.00     0.004 C 
ENDBRANCH   9  10
ENDBRANCH   8   9
ENDBRANCH   7   8
ENDBRANCH   1   7
TORSDOF 7
ENDMDL
MODEL 4
REMARK VINA RESULT:    -3.497      1.201      1.701
REMARK INTER + INTRA:          -5.356
REMARK INTER:                  -4.851
REMARK INTRA:                  -0.505
REMARK UNBOUND:                -0.428
REMARK SMILES C=CCCCCCCC(=O)[O-]
REMARK SMILES IDX 6 1 7 2 8 3 9 4 10 5 11 6 5 7 4 8 3 9 2 10 1 11
REMARK H PARENT
REMARK Flexibility Score: inf
ROOT
ATOM      1  C   UNL     1      33.402 167.123 156.754  1.00  0.00     0.000 C 
ENDROOT
BRANCH   1   2
ATOM      2  C   UNL     1      33.584 166.295 158.039  1.00  0.00     0.006 C 
BRANCH   2   3
ATOM      3  C   UNL     1      32.322 165.533 158.478  1.00  0.00     0.053 C 
BRANCH   3   4
ATOM      4  C   UNL     1      31.635 166.179 159.642  1.00  0.00     0.041 C 
ATOM      5  O   UNL     1      30.889 167.178 159.464  1.00  0.00    -0.550 OA
ATOM      6  O   UNL     1      31.844 165.700 160.930  1.00  0.00    -0.550 OA
ENDBRANCH   3   4
ENDBRANCH   2   3
ENDBRANCH   1   2
BRANCH   1   7
ATOM      7  C   UNL     1      32.103 166.788 156.004  1.00  0.00     0.000 C 
BRANCH   7   8
ATOM      8  C   UNL     1      31.740 167.849 154.951  1.00  0.00     0.004 C 
BRANCH   8   9
ATOM      9  C   UNL     1      30.433 168.587 155.282  1.00  0.00     0.027 C 
BRANCH   9  10
ATOM     10  C   UNL     1      29.502 167.711 156.075  1.00  0.00    -0.035 C 
ATOM     11  C   UNL     1      28.296 168.136 156.462  1.00  0.00     0.004 C 
ENDBRANCH   9  10
ENDBRANCH   8   9
ENDBRANCH   7   8
ENDBRANCH   1   7
TORSDOF 7
ENDMDL
MODEL 5
REMARK VINA RESULT:    -3.480      1.521      1.869
REMARK INTER + INTRA:          -5.331
REMARK INTER:                  -4.581
REMARK INTRA:                  -0.750
REMARK UNBOUND:                -0.428
REMARK SMILES C=CCCCCCCC(=O)[O-]
REMARK SMILES IDX 6 1 7 2 8 3 9 4 10 5 11 6 5 7 4 8 3 9 2 10 1 11
REMARK H PARENT
REMARK Flexibility Score: inf
ROOT
ATOM      1  C   UNL     1      33.630 166.498 158.130  1.00  0.00     0.000 C 
ENDROOT
BRANCH   1   2
ATOM      2  C   UNL     1      33.163 165.036 158.249  1.00  0.00     0.006 C 
BRANCH   2   3
ATOM      3  C   UNL     1      31.758 164.875 158.855  1.00  0.00     0.053 C 
BRANCH   3   4
ATOM      4  C   UNL     1      31.501 165.835 159.977  1.00  0.00     0.041 C 
ATOM      5  O   UNL     1      31.993 165.624 161.116  1.00  0.00    -0.550 OA
ATOM      6  O   UNL     1      30.688 166.944 159.775  1.00  0.00    -0.550 OA
ENDBRANCH   3   4
ENDBRANCH   2   3
ENDBRANCH   1   2
BRANCH   1   7
ATOM      7  C   UNL     1      33.505 167.054 156.702  1.00  0.00     0.000 C 
BRANCH   7   8
ATOM      8  C   UNL     1      32.119 167.658 156.423  1.00  0.00     0.004 C 
BRANCH   8   9
ATOM      9  C   UNL     1      31.524 167.182 155.089  1.00  0.00     0.027 C 
BRANCH   9  10
ATOM     10  C   UNL     1      30.612 166.003 155.293  1.00  0.00    -0.035 C 
ATOM     11  C   UNL     1      29.575 166.055 156.134  1.00  0.00     0.004 C 
ENDBRANCH   9  10
ENDBRANCH   8   9
ENDBRANCH   7   8
ENDBRANCH   1   7
TORSDOF 7
ENDMDL
MODEL 6
REMARK VINA RESULT:    -3.454      2.688      4.859
REMARK INTER + INTRA:          -5.296
REMARK INTER:                  -4.841
REMARK INTRA:                  -0.454
REMARK UNBOUND:                -0.428
REMARK SMILES C=CCCCCCCC(=O)[O-]
REMARK SMILES IDX 6 1 7 2 8 3 9 4 10 5 11 6 5 7 4 8 3 9 2 10 1 11
REMARK H PARENT
REMARK Flexibility Score: inf
ROOT
ATOM      1  C   UNL     1      31.659 166.652 155.502  1.00  0.00     0.000 C 
ENDROOT
BRANCH   1   2
ATOM      2  C   UNL     1      30.358 167.401 155.161  1.00  0.00     0.006 C 
BRANCH   2   3
ATOM      3  C   UNL     1      30.554 168.900 154.877  1.00  0.00     0.053 C 
BRANCH   3   4
ATOM      4  C   UNL     1      29.341 169.713 155.209  1.00  0.00     0.041 C 
ATOM      5  O   UNL     1      29.334 170.955 155.002  1.00  0.00    -0.550 OA
ATOM      6  O   UNL     1      28.229 169.107 155.781  1.00  0.00    -0.550 OA
ENDBRANCH   3   4
ENDBRANCH   2   3
ENDBRANCH   1   2
BRANCH   1   7
ATOM      7  C   UNL     1      32.604 167.469 156.399  1.00  0.00     0.000 C 
BRANCH   7   8
ATOM      8  C   UNL     1      33.556 166.580 157.216  1.00  0.00     0.004 C 
BRANCH   8   9
ATOM      9  C   UNL     1      32.812 165.511 158.032  1.00  0.00     0.027 C 
BRANCH   9  10
ATOM     10  C   UNL     1      32.180 166.109 159.259  1.00  0.00    -0.035 C 
ATOM     11  C   UNL     1      30.859 166.289 159.352  1.00  0.00     0.004 C 
ENDBRANCH   9  10
ENDBRANCH   8   9
ENDBRANCH   7   8
ENDBRANCH   1   7
TORSDOF 7
ENDMDL
MODEL 7
REMARK VINA RESULT:    -3.407      0.846      1.326
REMARK INTER + INTRA:          -5.229
REMARK INTER:                  -4.777
REMARK INTRA:                  -0.453
REMARK UNBOUND:                -0.428
REMARK SMILES C=CCCCCCCC(=O)[O-]
REMARK SMILES IDX 6 1 7 2 8 3 9 4 10 5 11 6 5 7 4 8 3 9 2 10 1 11
REMARK H PARENT
REMARK Flexibility Score: inf
ROOT
ATOM      1  C   UNL     1      33.110 165.431 158.245  1.00  0.00     0.000 C 
ENDROOT
BRANCH   1   2
ATOM      2  C   UNL     1      31.977 165.363 159.285  1.00  0.00     0.006 C 
BRANCH   2   3
ATOM      3  C   UNL     1      31.231 166.693 159.486  1.00  0.00     0.053 C 
BRANCH   3   4
ATOM      4  C   UNL     1      30.559 166.779 160.823  1.00  0.00     0.041 C 
ATOM      5  O   UNL     1      31.069 166.215 161.826  1.00  0.00    -0.550 OA
ATOM      6  O   UNL     1      29.351 167.452 160.956  1.00  0.00    -0.550 OA
ENDBRANCH   3   4
ENDBRANCH   2   3
ENDBRANCH   1   2
BRANCH   1   7
ATOM      7  C   UNL     1      33.500 166.872 157.876  1.00  0.00     0.000 C 
BRANCH   7   8
ATOM      8  C   UNL     1      33.350 167.157 156.373  1.00  0.00     0.004 C 
BRANCH   8   9
ATOM      9  C   UNL     1      31.950 166.809 155.842  1.00  0.00     0.027 C 
BRANCH   9  10
ATOM     10  C   UNL     1      31.407 167.918 154.983  1.00  0.00    -0.035 C 
ATOM     11  C   UNL     1      30.395 168.691 155.390  1.00  0.00     0.004 C 
ENDBRANCH   9  10
ENDBRANCH   8   9
ENDBRANCH   7   8
ENDBRANCH   1   7
TORSDOF 7
ENDMDL
MODEL 8
REMARK VINA RESULT:    -3.372      1.450      1.999
REMARK INTER + INTRA:          -5.180
REMARK INTER:                  -4.604
REMARK INTRA:                  -0.576
REMARK UNBOUND:                -0.428
REMARK SMILES C=CCCCCCCC(=O)[O-]
REMARK SMILES IDX 6 1 7 2 8 3 9 4 10 5 11 6 5 7 4 8 3 9 2 10 1 11
REMARK H PARENT
REMARK Flexibility Score: inf
ROOT
ATOM      1  C   UNL     1      32.464 165.393 158.347  1.00  0.00     0.000 C 
ENDROOT
BRANCH   1   2
ATOM      2  C   UNL     1      31.824 165.885 159.657  1.00  0.00     0.006 C 
BRANCH   2   3
ATOM      3  C   UNL     1      30.868 167.076 159.479  1.00  0.00     0.053 C 
BRANCH   3   4
ATOM      4  C   UNL     1      29.492 166.653 159.065  1.00  0.00     0.041 C 
ATOM      5  O   UNL     1      28.988 165.596 159.527  1.00  0.00    -0.550 OA
ATOM      6  O   UNL     1      28.777 167.406 158.141  1.00  0.00    -0.550 OA
ENDBRANCH   3   4
ENDBRANCH   2   3
ENDBRANCH   1   2
BRANCH   1   7
ATOM      7  C   UNL     1      33.689 166.223 157.927  1.00  0.00     0.000 C 
BRANCH   7   8
ATOM      8  C   UNL     1      33.407 167.113 156.705  1.00  0.00     0.004 C 
BRANCH   8   9
ATOM      9  C   UNL     1      32.112 166.722 155.975  1.00  0.00     0.027 C 
BRANCH   9  10
ATOM     10  C   UNL     1      31.673 167.811 155.034  1.00  0.00    -0.035 C 
ATOM     11  C   UNL     1      30.582 168.546 155.271  1.00  0.00     0.004 C 
ENDBRANCH   9  10
ENDBRANCH   8   9
ENDBRANCH   7   8
ENDBRANCH   1   7
TORSDOF 7
ENDMDL
MODEL 9
REMARK VINA RESULT:    -3.365     20.985     22.724
REMARK INTER + INTRA:          -5.170
REMARK INTER:                  -4.471
REMARK INTRA:                  -0.699
REMARK UNBOUND:                -0.428
REMARK SMILES C=CCCCCCCC(=O)[O-]
REMARK SMILES IDX 6 1 7 2 8 3 9 4 10 5 11 6 5 7 4 8 3 9 2 10 1 11
REMARK H PARENT
REMARK Flexibility Score: inf
ROOT
ATOM      1  C   UNL     1      38.092 181.925 174.376  1.00  0.00     0.000 C 
ENDROOT
BRANCH   1   2
ATOM      2  C   UNL     1      37.295 181.203 173.275  1.00  0.00     0.006 C 
BRANCH   2   3
ATOM      3  C   UNL     1      37.571 181.727 171.855  1.00  0.00     0.053 C 
BRANCH   3   4
ATOM      4  C   UNL     1      36.318 182.107 171.127  1.00  0.00     0.041 C 
ATOM      5  O   UNL     1      35.206 181.644 171.495  1.00  0.00    -0.550 OA
ATOM      6  O   UNL     1      36.380 182.944 170.019  1.00  0.00    -0.550 OA
ENDBRANCH   3   4
ENDBRANCH   2   3
ENDBRANCH   1   2
BRANCH   1   7
ATOM      7  C   UNL     1      39.103 182.940 173.817  1.00  0.00     0.000 C 
BRANCH   7   8
ATOM      8  C   UNL     1      40.538 182.668 174.298  1.00  0.00     0.004 C 
BRANCH   8   9
ATOM      9  C   UNL     1      40.711 181.253 174.873  1.00  0.00     0.027 C 
BRANCH   9  10
ATOM     10  C   UNL     1      41.316 180.326 173.854  1.00  0.00    -0.035 C 
ATOM     11  C   UNL     1      40.584 179.403 173.223  1.00  0.00     0.004 C 
ENDBRANCH   9  10
ENDBRANCH   8   9
ENDBRANCH   7   8
ENDBRANCH   1   7
TORSDOF 7
ENDMDL
