MODEL 1
REMARK VINA RESULT:    -4.455      0.000      0.000
REMARK INTER + INTRA:          -7.046
REMARK INTER:                  -6.278
REMARK INTRA:                  -0.769
REMARK UNBOUND:                -0.769
REMARK SMILES CCCCCCCCC(=O)[O-]
REMARK SMILES IDX 6 1 7 2 8 3 9 4 10 5 11 6 5 7 4 8 3 9 2 10 1 11
REMARK H PARENT
REMARK Flexibility Score: inf
ROOT
ATOM      1  C   UNL     1      19.551  22.782   6.210  1.00  0.00     0.000 C 
ENDROOT
BRANCH   1   2
ATOM      2  C   UNL     1      20.568  22.173   7.188  1.00  0.00     0.006 C 
BRANCH   2   3
ATOM      3  C   UNL     1      21.094  23.195   8.204  1.00  0.00     0.053 C 
BRANCH   3   4
ATOM      4  C   UNL     1      20.646  22.834   9.586  1.00  0.00     0.041 C 
ATOM      5  O   UNL     1      19.803  21.915   9.759  1.00  0.00    -0.550 OA
ATOM      6  O   UNL     1      21.121  23.546  10.679  1.00  0.00    -0.550 OA
ENDBRANCH   3   4
ENDBRANCH   2   3
ENDBRANCH   1   2
BRANCH   1   7
ATOM      7  C   UNL     1      18.108  22.697   6.728  1.00  0.00     0.000 C 
BRANCH   7   8
ATOM      8  C   UNL     1      17.528  24.097   6.965  1.00  0.00    -0.000 C 
BRANCH   8   9
ATOM      9  C   UNL     1      17.393  24.389   8.468  1.00  0.00    -0.000 C 
BRANCH   9  10
ATOM     10  C   UNL     1      17.601  25.873   8.802  1.00  0.00    -0.003 C 
ATOM     11  C   UNL     1      19.076  26.252   8.925  1.00  0.00     0.004 C 
ENDBRANCH   9  10
ENDBRANCH   8   9
ENDBRANCH   7   8
ENDBRANCH   1   7
TORSDOF 7
ENDMDL
MODEL 2
REMARK VINA RESULT:    -4.441      2.280      4.423
REMARK INTER + INTRA:          -7.027
REMARK INTER:                  -6.290
REMARK INTRA:                  -0.736
REMARK UNBOUND:                -0.769
REMARK SMILES CCCCCCCCC(=O)[O-]
REMARK SMILES IDX 6 1 7 2 8 3 9 4 10 5 11 6 5 7 4 8 3 9 2 10 1 11
REMARK H PARENT
REMARK Flexibility Score: inf
ROOT
ATOM      1  C   UNL     1      19.984  22.860  10.519  1.00  0.00     0.000 C 
ENDROOT
BRANCH   1   2
ATOM      2  C   UNL     1      18.869  23.806  10.046  1.00  0.00     0.006 C 
BRANCH   2   3
ATOM      3  C   UNL     1      19.413  25.040   9.316  1.00  0.00     0.053 C 
BRANCH   3   4
ATOM      4  C   UNL     1      18.293  25.814   8.693  1.00  0.00     0.041 C 
ATOM      5  O   UNL     1      17.290  25.211   8.227  1.00  0.00    -0.550 OA
ATOM      6  O   UNL     1      18.378  27.195   8.582  1.00  0.00    -0.550 OA
ENDBRANCH   3   4
ENDBRANCH   2   3
ENDBRANCH   1   2
BRANCH   1   7
ATOM      7  C   UNL     1      21.325  23.131   9.823  1.00  0.00     0.000 C 
BRANCH   7   8
ATOM      8  C   UNL     1      21.636  22.043   8.788  1.00  0.00    -0.000 C 
BRANCH   8   9
ATOM      9  C   UNL     1      21.661  22.625   7.366  1.00  0.00    -0.000 C 
BRANCH   9  10
ATOM     10  C   UNL     1      20.609  21.987   6.447  1.00  0.00    -0.003 C 
ATOM     11  C   UNL     1      19.316  22.799   6.374  1.00  0.00     0.004 C 
ENDBRANCH   9  10
ENDBRANCH   8   9
ENDBRANCH   7   8
ENDBRANCH   1   7
TORSDOF 7
ENDMDL
MODEL 3
REMARK VINA RESULT:    -4.439      1.477      3.465
REMARK INTER + INTRA:          -7.025
REMARK INTER:                  -6.351
REMARK INTRA:                  -0.673
REMARK UNBOUND:                -0.769
REMARK SMILES CCCCCCCCC(=O)[O-]
REMARK SMILES IDX 6 1 7 2 8 3 9 4 10 5 11 6 5 7 4 8 3 9 2 10 1 11
REMARK H PARENT
REMARK Flexibility Score: inf
ROOT
ATOM      1  C   UNL     1      18.022  23.515   6.461  1.00  0.00     0.000 C 
ENDROOT
BRANCH   1   2
ATOM      2  C   UNL     1      17.131  24.026   7.604  1.00  0.00     0.006 C 
BRANCH   2   3
ATOM      3  C   UNL     1      17.701  25.278   8.283  1.00  0.00     0.053 C 
BRANCH   3   4
ATOM      4  C   UNL     1      18.341  24.919   9.587  1.00  0.00     0.041 C 
ATOM      5  O   UNL     1      17.970  23.890  10.212  1.00  0.00    -0.550 OA
ATOM      6  O   UNL     1      19.310  25.746  10.138  1.00  0.00    -0.550 OA
ENDBRANCH   3   4
ENDBRANCH   2   3
ENDBRANCH   1   2
BRANCH   1   7
ATOM      7  C   UNL     1      18.908  22.334   6.884  1.00  0.00     0.000 C 
BRANCH   7   8
ATOM      8  C   UNL     1      20.259  22.375   6.160  1.00  0.00    -0.000 C 
BRANCH   8   9
ATOM      9  C   UNL     1      21.423  22.325   7.163  1.00  0.00    -0.000 C 
BRANCH   9  10
ATOM     10  C   UNL     1      21.342  23.438   8.217  1.00  0.00    -0.003 C 
ATOM     11  C   UNL     1      21.619  22.934   9.633  1.00  0.00     0.004 C 
ENDBRANCH   9  10
ENDBRANCH   8   9
ENDBRANCH   7   8
ENDBRANCH   1   7
TORSDOF 7
ENDMDL
MODEL 4
REMARK VINA RESULT:    -4.382      1.009      3.173
REMARK INTER + INTRA:          -6.943
REMARK INTER:                  -6.107
REMARK INTRA:                  -0.836
REMARK UNBOUND:                -0.769
REMARK SMILES CCCCCCCCC(=O)[O-]
REMARK SMILES IDX 6 1 7 2 8 3 9 4 10 5 11 6 5 7 4 8 3 9 2 10 1 11
REMARK H PARENT
REMARK Flexibility Score: inf
ROOT
ATOM      1  C   UNL     1      18.323  25.620   8.274  1.00  0.00     0.000 C 
ENDROOT
BRANCH   1   2
ATOM      2  C   UNL     1      19.145  25.205   9.504  1.00  0.00     0.006 C 
BRANCH   2   3
ATOM      3  C   UNL     1      18.501  24.051  10.283  1.00  0.00     0.053 C 
BRANCH   3   4
ATOM      4  C   UNL     1      19.466  22.915  10.424  1.00  0.00     0.041 C 
ATOM      5  O   UNL     1      20.686  23.143  10.632  1.00  0.00    -0.550 OA
ATOM      6  O   UNL     1      19.026  21.606  10.277  1.00  0.00    -0.550 OA
ENDBRANCH   3   4
ENDBRANCH   2   3
ENDBRANCH   1   2
BRANCH   1   7
ATOM      7  C   UNL     1      17.215  24.612   7.935  1.00  0.00     0.000 C 
BRANCH   7   8
ATOM      8  C   UNL     1      17.498  23.914   6.599  1.00  0.00    -0.000 C 
BRANCH   8   9
ATOM      9  C   UNL     1      18.282  22.610   6.814  1.00  0.00    -0.000 C 
BRANCH   9  10
ATOM     10  C   UNL     1      19.644  22.616   6.104  1.00  0.00    -0.003 C 
ATOM     11  C   UNL     1      20.819  22.543   7.078  1.00  0.00     0.004 C 
ENDBRANCH   9  10
ENDBRANCH   8   9
ENDBRANCH   7   8
ENDBRANCH   1   7
TORSDOF 7
ENDMDL
MODEL 5
REMARK VINA RESULT:    -4.289      1.648      3.967
REMARK INTER + INTRA:          -6.813
REMARK INTER:                  -6.396
REMARK INTRA:                  -0.417
REMARK UNBOUND:                -0.769
REMARK SMILES CCCCCCCCC(=O)[O-]
REMARK SMILES IDX 6 1 7 2 8 3 9 4 10 5 11 6 5 7 4 8 3 9 2 10 1 11
REMARK H PARENT
REMARK Flexibility Score: inf
ROOT
ATOM      1  C   UNL     1      17.316  24.309   6.996  1.00  0.00     0.000 C 
ENDROOT
BRANCH   1   2
ATOM      2  C   UNL     1      17.145  24.290   8.523  1.00  0.00     0.006 C 
BRANCH   2   3
ATOM      3  C   UNL     1      17.312  25.679   9.153  1.00  0.00     0.053 C 
BRANCH   3   4
ATOM      4  C   UNL     1      18.763  25.998   9.336  1.00  0.00     0.041 C 
ATOM      5  O   UNL     1      19.295  26.929   8.676  1.00  0.00    -0.550 OA
ATOM      6  O   UNL     1      19.540  25.234  10.197  1.00  0.00    -0.550 OA
ENDBRANCH   3   4
ENDBRANCH   2   3
ENDBRANCH   1   2
BRANCH   1   7
ATOM      7  C   UNL     1      18.201  23.163   6.485  1.00  0.00     0.000 C 
BRANCH   7   8
ATOM      8  C   UNL     1      19.536  23.123   7.239  1.00  0.00    -0.000 C 
BRANCH   8   9
ATOM      9  C   UNL     1      20.600  22.359   6.435  1.00  0.00    -0.000 C 
BRANCH   9  10
ATOM     10  C   UNL     1      21.818  21.971   7.286  1.00  0.00    -0.003 C 
ATOM     11  C   UNL     1      21.777  22.574   8.689  1.00  0.00     0.004 C 
ENDBRANCH   9  10
ENDBRANCH   8   9
ENDBRANCH   7   8
ENDBRANCH   1   7
TORSDOF 7
ENDMDL
MODEL 6
REMARK VINA RESULT:    -4.268      2.303      3.027
REMARK INTER + INTRA:          -6.783
REMARK INTER:                  -6.190
REMARK INTRA:                  -0.593
REMARK UNBOUND:                -0.769
REMARK SMILES CCCCCCCCC(=O)[O-]
REMARK SMILES IDX 6 1 7 2 8 3 9 4 10 5 11 6 5 7 4 8 3 9 2 10 1 11
REMARK H PARENT
REMARK Flexibility Score: inf
ROOT
ATOM      1  C   UNL     1      20.669  23.306  10.622  1.00  0.00     0.000 C 
ENDROOT
BRANCH   1   2
ATOM      2  C   UNL     1      21.795  23.051   9.608  1.00  0.00     0.006 C 
BRANCH   2   3
ATOM      3  C   UNL     1      21.295  23.055   8.158  1.00  0.00     0.053 C 
BRANCH   3   4
ATOM      4  C   UNL     1      21.860  21.889   7.408  1.00  0.00     0.041 C 
ATOM      5  O   UNL     1      21.691  21.794   6.164  1.00  0.00    -0.550 OA
ATOM      6  O   UNL     1      22.528  20.881   8.091  1.00  0.00    -0.550 OA
ENDBRANCH   3   4
ENDBRANCH   2   3
ENDBRANCH   1   2
BRANCH   1   7
ATOM      7  C   UNL     1      19.429  22.438  10.361  1.00  0.00     0.000 C 
BRANCH   7   8
ATOM      8  C   UNL     1      18.174  23.306  10.209  1.00  0.00    -0.000 C 
BRANCH   8   9
ATOM      9  C   UNL     1      18.536  24.799  10.192  1.00  0.00    -0.000 C 
BRANCH   9  10
ATOM     10  C   UNL     1      18.238  25.464   8.841  1.00  0.00    -0.003 C 
ATOM     11  C   UNL     1      18.691  26.922   8.785  1.00  0.00     0.004 C 
ENDBRANCH   9  10
ENDBRANCH   8   9
ENDBRANCH   7   8
ENDBRANCH   1   7
TORSDOF 7
ENDMDL
MODEL 7
REMARK VINA RESULT:    -4.256      1.808      3.002
REMARK INTER + INTRA:          -6.767
REMARK INTER:                  -6.136
REMARK INTRA:                  -0.631
REMARK UNBOUND:                -0.769
REMARK SMILES CCCCCCCCC(=O)[O-]
REMARK SMILES IDX 6 1 7 2 8 3 9 4 10 5 11 6 5 7 4 8 3 9 2 10 1 11
REMARK H PARENT
REMARK Flexibility Score: inf
ROOT
ATOM      1  C   UNL     1      21.828  21.775   8.320  1.00  0.00     0.000 C 
ENDROOT
BRANCH   1   2
ATOM      2  C   UNL     1      21.588  23.209   8.818  1.00  0.00     0.006 C 
BRANCH   2   3
ATOM      3  C   UNL     1      20.972  23.251  10.222  1.00  0.00     0.053 C 
BRANCH   3   4
ATOM      4  C   UNL     1      19.586  23.812  10.167  1.00  0.00     0.041 C 
ATOM      5  O   UNL     1      18.591  23.056  10.322  1.00  0.00    -0.550 OA
ATOM      6  O   UNL     1      19.390  25.159   9.895  1.00  0.00    -0.550 OA
ENDBRANCH   3   4
ENDBRANCH   2   3
ENDBRANCH   1   2
BRANCH   1   7
ATOM      7  C   UNL     1      20.707  21.275   7.396  1.00  0.00     0.000 C 
BRANCH   7   8
ATOM      8  C   UNL     1      20.642  22.110   6.111  1.00  0.00    -0.000 C 
BRANCH   8   9
ATOM      9  C   UNL     1      19.185  22.403   5.719  1.00  0.00    -0.000 C 
BRANCH   9  10
ATOM     10  C   UNL     1      18.516  23.424   6.651  1.00  0.00    -0.003 C 
ATOM     11  C   UNL     1      17.019  23.173   6.827  1.00  0.00     0.004 C 
ENDBRANCH   9  10
ENDBRANCH   8   9
ENDBRANCH   7   8
ENDBRANCH   1   7
TORSDOF 7
ENDMDL
MODEL 8
REMARK VINA RESULT:    -4.246      2.221      3.852
REMARK INTER + INTRA:          -6.752
REMARK INTER:                  -5.894
REMARK INTRA:                  -0.857
REMARK UNBOUND:                -0.769
REMARK SMILES CCCCCCCCC(=O)[O-]
REMARK SMILES IDX 6 1 7 2 8 3 9 4 10 5 11 6 5 7 4 8 3 9 2 10 1 11
REMARK H PARENT
REMARK Flexibility Score: inf
ROOT
ATOM      1  C   UNL     1      18.183  22.963   7.209  1.00  0.00     0.000 C 
ENDROOT
BRANCH   1   2
ATOM      2  C   UNL     1      17.491  24.334   7.260  1.00  0.00     0.006 C 
BRANCH   2   3
ATOM      3  C   UNL     1      17.272  24.831   8.695  1.00  0.00     0.053 C 
BRANCH   3   4
ATOM      4  C   UNL     1      18.185  25.978   8.995  1.00  0.00     0.041 C 
ATOM      5  O   UNL     1      19.338  25.766   9.454  1.00  0.00    -0.550 OA
ATOM      6  O   UNL     1      17.746  27.283   8.815  1.00  0.00    -0.550 OA
ENDBRANCH   3   4
ENDBRANCH   2   3
ENDBRANCH   1   2
BRANCH   1   7
ATOM      7  C   UNL     1      19.693  23.071   6.954  1.00  0.00     0.000 C 
BRANCH   7   8
ATOM      8  C   UNL     1      20.490  22.698   8.211  1.00  0.00    -0.000 C 
BRANCH   8   9
ATOM      9  C   UNL     1      19.636  21.861   9.176  1.00  0.00    -0.000 C 
BRANCH   9  10
ATOM     10  C   UNL     1      19.590  22.455  10.591  1.00  0.00    -0.003 C 
ATOM     11  C   UNL     1      18.256  22.208  11.294  1.00  0.00     0.004 C 
ENDBRANCH   9  10
ENDBRANCH   8   9
ENDBRANCH   7   8
ENDBRANCH   1   7
TORSDOF 7
ENDMDL
MODEL 9
REMARK VINA RESULT:    -4.192      1.785      2.210
REMARK INTER + INTRA:          -6.676
REMARK INTER:                  -6.063
REMARK INTRA:                  -0.613
REMARK UNBOUND:                -0.769
REMARK SMILES CCCCCCCCC(=O)[O-]
REMARK SMILES IDX 6 1 7 2 8 3 9 4 10 5 11 6 5 7 4 8 3 9 2 10 1 11
REMARK H PARENT
REMARK Flexibility Score: inf
ROOT
ATOM      1  C   UNL     1      18.169  23.582   6.508  1.00  0.00     0.000 C 
ENDROOT
BRANCH   1   2
ATOM      2  C   UNL     1      19.439  22.746   6.289  1.00  0.00     0.006 C 
BRANCH   2   3
ATOM      3  C   UNL     1      20.376  22.766   7.504  1.00  0.00     0.053 C 
BRANCH   3   4
ATOM      4  C   UNL     1      21.620  21.984   7.216  1.00  0.00     0.041 C 
ATOM      5  O   UNL     1      21.883  21.624   6.039  1.00  0.00    -0.550 OA
ATOM      6  O   UNL     1      22.461  21.609   8.255  1.00  0.00    -0.550 OA
ENDBRANCH   3   4
ENDBRANCH   2   3
ENDBRANCH   1   2
BRANCH   1   7
ATOM      7  C   UNL     1      17.495  23.293   7.858  1.00  0.00     0.000 C 
BRANCH   7   8
ATOM      8  C   UNL     1      17.018  24.590   8.522  1.00  0.00    -0.000 C 
BRANCH   8   9
ATOM      9  C   UNL     1      17.816  24.878   9.803  1.00  0.00    -0.000 C 
BRANCH   9  10
ATOM     10  C   UNL     1      19.128  25.627   9.527  1.00  0.00    -0.003 C 
ATOM     11  C   UNL     1      18.922  26.901   8.708  1.00  0.00     0.004 C 
ENDBRANCH   9  10
ENDBRANCH   8   9
ENDBRANCH   7   8
ENDBRANCH   1   7
TORSDOF 7
ENDMDL
