MODEL 1
REMARK VINA RESULT:    -3.038      0.000      0.000
REMARK INTER + INTRA:          -3.686
REMARK INTER:                  -3.571
REMARK INTRA:                  -0.115
REMARK UNBOUND:                -0.115
REMARK SMILES O=C([O-])CCC(=O)[O-]
REMARK SMILES IDX 4 1 2 2 1 3 3 4 5 5 6 6 7 7 8 8
REMARK H PARENT
REMARK Flexibility Score: inf
ROOT
ATOM      1  C   UNL     1      12.786   6.850 -17.863  1.00  0.00     0.059 C 
ENDROOT
BRANCH   1   2
ATOM      2  C   UNL     1      13.130   5.874 -16.779  1.00  0.00     0.042 C 
ATOM      3  O   UNL     1      13.549   4.723 -17.072  1.00  0.00    -0.550 OA
ATOM      4  O   UNL     1      12.948   6.221 -15.446  1.00  0.00    -0.550 OA
ENDBRANCH   1   2
BRANCH   1   5
ATOM      5  C   UNL     1      11.450   7.550 -17.590  1.00  0.00     0.059 C 
BRANCH   5   6
ATOM      6  C   UNL     1      11.622   9.033 -17.451  1.00  0.00     0.042 C 
ATOM      7  O   UNL     1      12.099   9.519 -16.393  1.00  0.00    -0.550 OA
ATOM      8  O   UNL     1      11.216   9.878 -18.475  1.00  0.00    -0.550 OA
ENDBRANCH   5   6
ENDBRANCH   1   5
TORSDOF 3
ENDMDL
MODEL 2
REMARK VINA RESULT:    -2.833     18.352     18.653
REMARK INTER + INTRA:          -3.445
REMARK INTER:                  -3.356
REMARK INTRA:                  -0.089
REMARK UNBOUND:                -0.115
REMARK SMILES O=C([O-])CCC(=O)[O-]
REMARK SMILES IDX 4 1 2 2 1 3 3 4 5 5 6 6 7 7 8 8
REMARK H PARENT
REMARK Flexibility Score: inf
ROOT
ATOM      1  C   UNL     1      29.648  13.044 -18.372  1.00  0.00     0.059 C 
ENDROOT
BRANCH   1   2
ATOM      2  C   UNL     1      30.422  11.786 -18.123  1.00  0.00     0.042 C 
ATOM      3  O   UNL     1      30.688  11.006 -19.076  1.00  0.00    -0.550 OA
ATOM      4  O   UNL     1      30.815  11.454 -16.833  1.00  0.00    -0.550 OA
ENDBRANCH   1   2
BRANCH   1   5
ATOM      5  C   UNL     1      28.931  13.526 -17.105  1.00  0.00     0.059 C 
BRANCH   5   6
ATOM      6  C   UNL     1      29.598  14.732 -16.518  1.00  0.00     0.042 C 
ATOM      7  O   UNL     1      29.812  15.748 -17.230  1.00  0.00    -0.550 OA
ATOM      8  O   UNL     1      30.019  14.718 -15.195  1.00  0.00    -0.550 OA
ENDBRANCH   5   6
ENDBRANCH   1   5
TORSDOF 3
ENDMDL
MODEL 3
REMARK VINA RESULT:    -2.825     15.262     16.085
REMARK INTER + INTRA:          -3.436
REMARK INTER:                  -3.403
REMARK INTRA:                  -0.033
REMARK UNBOUND:                -0.115
REMARK SMILES O=C([O-])CCC(=O)[O-]
REMARK SMILES IDX 4 1 2 2 1 3 3 4 5 5 6 6 7 7 8 8
REMARK H PARENT
REMARK Flexibility Score: inf
ROOT
ATOM      1  C   UNL     1      25.024  15.291 -12.488  1.00  0.00     0.059 C 
ENDROOT
BRANCH   1   2
ATOM      2  C   UNL     1      23.661  15.889 -12.652  1.00  0.00     0.042 C 
ATOM      3  O   UNL     1      22.914  16.050 -11.651  1.00  0.00    -0.550 OA
ATOM      4  O   UNL     1      23.198  16.232 -13.917  1.00  0.00    -0.550 OA
ENDBRANCH   1   2
BRANCH   1   5
ATOM      5  C   UNL     1      25.086  14.350 -11.279  1.00  0.00     0.059 C 
BRANCH   5   6
ATOM      6  C   UNL     1      26.429  13.696 -11.155  1.00  0.00     0.042 C 
ATOM      7  O   UNL     1      26.528  12.537 -10.676  1.00  0.00    -0.550 OA
ATOM      8  O   UNL     1      27.574  14.386 -11.532  1.00  0.00    -0.550 OA
ENDBRANCH   5   6
ENDBRANCH   1   5
TORSDOF 3
ENDMDL
MODEL 4
REMARK VINA RESULT:    -2.800     18.336     18.906
REMARK INTER + INTRA:          -3.407
REMARK INTER:                  -3.325
REMARK INTRA:                  -0.082
REMARK UNBOUND:                -0.115
REMARK SMILES O=C([O-])CCC(=O)[O-]
REMARK SMILES IDX 4 1 2 2 1 3 3 4 5 5 6 6 7 7 8 8
REMARK H PARENT
REMARK Flexibility Score: inf
ROOT
ATOM      1  C   UNL     1      28.889  13.619 -17.134  1.00  0.00     0.059 C 
ENDROOT
BRANCH   1   2
ATOM      2  C   UNL     1      29.560  14.803 -16.510  1.00  0.00     0.042 C 
ATOM      3  O   UNL     1      29.855  15.807 -17.212  1.00  0.00    -0.550 OA
ATOM      4  O   UNL     1      29.898  14.784 -15.163  1.00  0.00    -0.550 OA
ENDBRANCH   1   2
BRANCH   1   5
ATOM      5  C   UNL     1      29.668  13.103 -18.350  1.00  0.00     0.059 C 
BRANCH   5   6
ATOM      6  C   UNL     1      30.372  11.815 -18.048  1.00  0.00     0.042 C 
ATOM      7  O   UNL     1      30.664  11.515 -16.861  1.00  0.00    -0.550 OA
ATOM      8  O   UNL     1      30.741  10.966 -19.084  1.00  0.00    -0.550 OA
ENDBRANCH   5   6
ENDBRANCH   1   5
TORSDOF 3
ENDMDL
MODEL 5
REMARK VINA RESULT:    -2.764     17.814     18.316
REMARK INTER + INTRA:          -3.364
REMARK INTER:                  -3.198
REMARK INTRA:                  -0.166
REMARK UNBOUND:                -0.115
REMARK SMILES O=C([O-])CCC(=O)[O-]
REMARK SMILES IDX 4 1 2 2 1 3 3 4 5 5 6 6 7 7 8 8
REMARK H PARENT
REMARK Flexibility Score: inf
ROOT
ATOM      1  C   UNL     1      28.462  13.134 -16.987  1.00  0.00     0.059 C 
ENDROOT
BRANCH   1   2
ATOM      2  C   UNL     1      29.685  13.917 -17.352  1.00  0.00     0.042 C 
ATOM      3  O   UNL     1      29.627  15.172 -17.453  1.00  0.00    -0.550 OA
ATOM      4  O   UNL     1      30.879  13.260 -17.621  1.00  0.00    -0.550 OA
ENDBRANCH   1   2
BRANCH   1   5
ATOM      5  C   UNL     1      28.769  12.068 -15.928  1.00  0.00     0.059 C 
BRANCH   5   6
ATOM      6  C   UNL     1      29.029  12.681 -14.586  1.00  0.00     0.042 C 
ATOM      7  O   UNL     1      28.085  13.197 -13.931  1.00  0.00    -0.550 OA
ATOM      8  O   UNL     1      30.321  12.718 -14.077  1.00  0.00    -0.550 OA
ENDBRANCH   5   6
ENDBRANCH   1   5
TORSDOF 3
ENDMDL
MODEL 6
REMARK VINA RESULT:    -2.759     18.230     18.613
REMARK INTER + INTRA:          -3.359
REMARK INTER:                  -3.234
REMARK INTRA:                  -0.125
REMARK UNBOUND:                -0.115
REMARK SMILES O=C([O-])CCC(=O)[O-]
REMARK SMILES IDX 4 1 2 2 1 3 3 4 5 5 6 6 7 7 8 8
REMARK H PARENT
REMARK Flexibility Score: inf
ROOT
ATOM      1  C   UNL     1      28.873  13.247 -16.441  1.00  0.00     0.059 C 
ENDROOT
BRANCH   1   2
ATOM      2  C   UNL     1      29.372  13.464 -17.836  1.00  0.00     0.042 C 
ATOM      3  O   UNL     1      30.020  12.558 -18.426  1.00  0.00    -0.550 OA
ATOM      4  O   UNL     1      29.158  14.680 -18.472  1.00  0.00    -0.550 OA
ENDBRANCH   1   2
BRANCH   1   5
ATOM      5  C   UNL     1      29.888  13.728 -15.397  1.00  0.00     0.059 C 
BRANCH   5   6
ATOM      6  C   UNL     1      29.526  15.078 -14.856  1.00  0.00     0.042 C 
ATOM      7  O   UNL     1      29.869  16.121 -15.472  1.00  0.00    -0.550 OA
ATOM      8  O   UNL     1      28.846  15.183 -13.649  1.00  0.00    -0.550 OA
ENDBRANCH   5   6
ENDBRANCH   1   5
TORSDOF 3
ENDMDL
MODEL 7
REMARK VINA RESULT:    -2.754      8.662      9.407
REMARK INTER + INTRA:          -3.353
REMARK INTER:                  -3.237
REMARK INTRA:                  -0.116
REMARK UNBOUND:                -0.115
REMARK SMILES O=C([O-])CCC(=O)[O-]
REMARK SMILES IDX 4 1 2 2 1 3 3 4 5 5 6 6 7 7 8 8
REMARK H PARENT
REMARK Flexibility Score: inf
ROOT
ATOM      1  C   UNL     1      14.228  -0.248 -12.435  1.00  0.00     0.059 C 
ENDROOT
BRANCH   1   2
ATOM      2  C   UNL     1      15.714  -0.157 -12.268  1.00  0.00     0.042 C 
ATOM      3  O   UNL     1      16.281  -0.745 -11.310  1.00  0.00    -0.550 OA
ATOM      4  O   UNL     1      16.468   0.610 -13.147  1.00  0.00    -0.550 OA
ENDBRANCH   1   2
BRANCH   1   5
ATOM      5  C   UNL     1      13.835  -1.384 -13.387  1.00  0.00     0.059 C 
BRANCH   5   6
ATOM      6  C   UNL     1      13.369  -0.860 -14.711  1.00  0.00     0.042 C 
ATOM      7  O   UNL     1      14.157  -0.214 -15.450  1.00  0.00    -0.550 OA
ATOM      8  O   UNL     1      12.052  -1.049 -15.108  1.00  0.00    -0.550 OA
ENDBRANCH   5   6
ENDBRANCH   1   5
TORSDOF 3
ENDMDL
MODEL 8
REMARK VINA RESULT:    -2.753     18.272     18.737
REMARK INTER + INTRA:          -3.351
REMARK INTER:                  -3.226
REMARK INTRA:                  -0.125
REMARK UNBOUND:                -0.115
REMARK SMILES O=C([O-])CCC(=O)[O-]
REMARK SMILES IDX 4 1 2 2 1 3 3 4 5 5 6 6 7 7 8 8
REMARK H PARENT
REMARK Flexibility Score: inf
ROOT
ATOM      1  C   UNL     1      29.943  13.822 -15.378  1.00  0.00     0.059 C 
ENDROOT
BRANCH   1   2
ATOM      2  C   UNL     1      29.555  15.170 -14.853  1.00  0.00     0.042 C 
ATOM      3  O   UNL     1      28.875  15.268 -13.798  1.00  0.00    -0.550 OA
ATOM      4  O   UNL     1      29.910  16.318 -15.551  1.00  0.00    -0.550 OA
ENDBRANCH   1   2
BRANCH   1   5
ATOM      5  C   UNL     1      28.914  13.289 -16.382  1.00  0.00     0.059 C 
BRANCH   5   6
ATOM      6  C   UNL     1      29.377  13.471 -17.796  1.00  0.00     0.042 C 
ATOM      7  O   UNL     1      29.984  12.542 -18.389  1.00  0.00    -0.550 OA
ATOM      8  O   UNL     1      29.173  14.683 -18.443  1.00  0.00    -0.550 OA
ENDBRANCH   5   6
ENDBRANCH   1   5
TORSDOF 3
ENDMDL
MODEL 9
REMARK VINA RESULT:    -2.750      8.657      9.588
REMARK INTER + INTRA:          -3.348
REMARK INTER:                  -3.230
REMARK INTRA:                  -0.118
REMARK UNBOUND:                -0.115
REMARK SMILES O=C([O-])CCC(=O)[O-]
REMARK SMILES IDX 4 1 2 2 1 3 3 4 5 5 6 6 7 7 8 8
REMARK H PARENT
REMARK Flexibility Score: inf
ROOT
ATOM      1  C   UNL     1      13.798  -1.406 -13.395  1.00  0.00     0.059 C 
ENDROOT
BRANCH   1   2
ATOM      2  C   UNL     1      13.297  -0.880 -14.705  1.00  0.00     0.042 C 
ATOM      3  O   UNL     1      14.059  -0.210 -15.451  1.00  0.00    -0.550 OA
ATOM      4  O   UNL     1      11.978  -1.094 -15.084  1.00  0.00    -0.550 OA
ENDBRANCH   1   2
BRANCH   1   5
ATOM      5  C   UNL     1      14.206  -0.270 -12.449  1.00  0.00     0.059 C 
BRANCH   5   6
ATOM      6  C   UNL     1      15.694  -0.191 -12.290  1.00  0.00     0.042 C 
ATOM      7  O   UNL     1      16.257  -0.751 -11.313  1.00  0.00    -0.550 OA
ATOM      8  O   UNL     1      16.452   0.535 -13.199  1.00  0.00    -0.550 OA
ENDBRANCH   5   6
ENDBRANCH   1   5
TORSDOF 3
ENDMDL
