MODEL 1
REMARK VINA RESULT:    -5.280      0.000      0.000
REMARK INTER + INTRA:          -5.588
REMARK INTER:                  -5.588
REMARK INTRA:                   0.000
REMARK UNBOUND:                 0.000
REMARK SMILES Cc1cc(O)c(C)c(C)c1O
REMARK SMILES IDX 1 1 2 2 3 3 4 4 6 5 8 6 10 7 9 8 7 9 11 10 5 12
REMARK H PARENT 11 11 5 13
REMARK Flexibility Score: inf
ROOT
ATOM      1  C   UNL     1      -8.185  -0.228 -11.251  1.00  0.00     0.048 C 
ATOM      2  C   UNL     1      -8.882  -1.421 -10.654  1.00  0.00    -0.005 A 
ATOM      3  C   UNL     1      -9.730  -2.190 -11.457  1.00  0.00     0.053 A 
ATOM      4  C   UNL     1     -10.389  -3.308 -10.950  1.00  0.00     0.119 A 
ATOM      5  C   UNL     1     -10.190  -3.700  -9.605  1.00  0.00    -0.003 A 
ATOM      6  C   UNL     1      -9.381  -2.890  -8.760  1.00  0.00    -0.002 A 
ATOM      7  C   UNL     1      -8.710  -1.767  -9.297  1.00  0.00     0.121 A 
ATOM      8  C   UNL     1      -9.208  -3.230  -7.295  1.00  0.00     0.049 C 
ATOM      9  C   UNL     1     -10.866  -4.953  -9.093  1.00  0.00     0.049 C 
ENDROOT
BRANCH   7  10
ATOM     10  O   UNL     1      -7.875  -1.010  -8.467  1.00  0.00    -0.507 OA
ATOM     11  H   UNL     1      -8.086  -0.066  -8.173  1.00  0.00     0.293 HD
ENDBRANCH   7  10
BRANCH   4  12
ATOM     12  O   UNL     1     -11.242  -4.004 -11.812  1.00  0.00    -0.508 OA
ATOM     13  H   UNL     1     -11.463  -3.696 -12.749  1.00  0.00     0.293 HD
ENDBRANCH   4  12
TORSDOF 2
ENDMDL
MODEL 2
REMARK VINA RESULT:    -5.275      1.755      2.789
REMARK INTER + INTRA:          -5.583
REMARK INTER:                  -5.583
REMARK INTRA:                   0.000
REMARK UNBOUND:                 0.000
REMARK SMILES Cc1cc(O)c(C)c(C)c1O
REMARK SMILES IDX 1 1 2 2 3 3 4 4 6 5 8 6 10 7 9 8 7 9 11 10 5 12
REMARK H PARENT 11 11 5 13
REMARK Flexibility Score: inf
ROOT
ATOM      1  C   UNL     1     -10.858  -3.256 -12.769  1.00  0.00     0.048 C 
ATOM      2  C   UNL     1     -10.385  -3.226 -11.340  1.00  0.00    -0.005 A 
ATOM      3  C   UNL     1     -10.801  -4.230 -10.461  1.00  0.00     0.053 A 
ATOM      4  C   UNL     1     -10.381  -4.248  -9.132  1.00  0.00     0.119 A 
ATOM      5  C   UNL     1      -9.498  -3.251  -8.653  1.00  0.00    -0.003 A 
ATOM      6  C   UNL     1      -9.119  -2.188  -9.520  1.00  0.00    -0.002 A 
ATOM      7  C   UNL     1      -9.544  -2.195 -10.868  1.00  0.00     0.121 A 
ATOM      8  C   UNL     1      -8.242  -1.059  -9.023  1.00  0.00     0.049 C 
ATOM      9  C   UNL     1      -9.006  -3.324  -7.224  1.00  0.00     0.049 C 
ENDROOT
BRANCH   7  10
ATOM     10  O   UNL     1      -9.119  -1.172 -11.723  1.00  0.00    -0.507 OA
ATOM     11  H   UNL     1      -9.752  -0.539 -12.194  1.00  0.00     0.293 HD
ENDBRANCH   7  10
BRANCH   4  12
ATOM     12  O   UNL     1     -10.868  -5.270  -8.312  1.00  0.00    -0.508 OA
ATOM     13  H   UNL     1     -10.349  -6.111  -8.098  1.00  0.00     0.293 HD
ENDBRANCH   4  12
TORSDOF 2
ENDMDL
MODEL 3
REMARK VINA RESULT:    -5.239      1.226      3.212
REMARK INTER + INTRA:          -5.546
REMARK INTER:                  -5.546
REMARK INTRA:                   0.000
REMARK UNBOUND:                 0.000
REMARK SMILES Cc1cc(O)c(C)c(C)c1O
REMARK SMILES IDX 1 1 2 2 3 3 4 4 6 5 8 6 10 7 9 8 7 9 11 10 5 12
REMARK H PARENT 11 11 5 13
REMARK Flexibility Score: inf
ROOT
ATOM      1  C   UNL     1     -10.907  -5.297  -8.429  1.00  0.00     0.048 C 
ATOM      2  C   UNL     1     -10.338  -4.106  -9.153  1.00  0.00    -0.005 A 
ATOM      3  C   UNL     1     -10.668  -3.902 -10.496  1.00  0.00     0.053 A 
ATOM      4  C   UNL     1     -10.173  -2.808 -11.203  1.00  0.00     0.119 A 
ATOM      5  C   UNL     1      -9.339  -1.864 -10.559  1.00  0.00    -0.003 A 
ATOM      6  C   UNL     1      -8.944  -2.095  -9.211  1.00  0.00    -0.002 A 
ATOM      7  C   UNL     1      -9.468  -3.203  -8.507  1.00  0.00     0.121 A 
ATOM      8  C   UNL     1      -7.988  -1.153  -8.512  1.00  0.00     0.049 C 
ATOM      9  C   UNL     1      -8.863  -0.651 -11.329  1.00  0.00     0.049 C 
ENDROOT
BRANCH   7  10
ATOM     10  O   UNL     1      -9.114  -3.388  -7.166  1.00  0.00    -0.507 OA
ATOM     11  H   UNL     1      -8.343  -3.971  -6.866  1.00  0.00     0.293 HD
ENDBRANCH   7  10
BRANCH   4  12
ATOM     12  O   UNL     1     -10.527  -2.694 -12.551  1.00  0.00    -0.508 OA
ATOM     13  H   UNL     1     -10.779  -3.482 -13.132  1.00  0.00     0.293 HD
ENDBRANCH   4  12
TORSDOF 2
ENDMDL
MODEL 4
REMARK VINA RESULT:    -5.058      1.356      3.327
REMARK INTER + INTRA:          -5.353
REMARK INTER:                  -5.353
REMARK INTRA:                   0.000
REMARK UNBOUND:                 0.000
REMARK SMILES Cc1cc(O)c(C)c(C)c1O
REMARK SMILES IDX 1 1 2 2 3 3 4 4 6 5 8 6 10 7 9 8 7 9 11 10 5 12
REMARK H PARENT 11 11 5 13
REMARK Flexibility Score: inf
ROOT
ATOM      1  C   UNL     1     -10.928  -3.724 -12.595  1.00  0.00     0.048 C 
ATOM      2  C   UNL     1     -10.250  -2.998 -11.464  1.00  0.00    -0.005 A 
ATOM      3  C   UNL     1      -9.707  -1.730 -11.696  1.00  0.00     0.053 A 
ATOM      4  C   UNL     1      -9.079  -1.016 -10.677  1.00  0.00     0.119 A 
ATOM      5  C   UNL     1      -9.001  -1.559  -9.373  1.00  0.00    -0.003 A 
ATOM      6  C   UNL     1      -9.492  -2.874  -9.140  1.00  0.00    -0.002 A 
ATOM      7  C   UNL     1     -10.139  -3.577 -10.183  1.00  0.00     0.121 A 
ATOM      8  C   UNL     1      -9.355  -3.523  -7.779  1.00  0.00     0.049 C 
ATOM      9  C   UNL     1      -8.370  -0.741  -8.268  1.00  0.00     0.049 C 
ENDROOT
BRANCH   7  10
ATOM     10  O   UNL     1     -10.665  -4.848  -9.925  1.00  0.00    -0.507 OA
ATOM     11  H   UNL     1     -10.958  -5.156  -9.007  1.00  0.00     0.293 HD
ENDBRANCH   7  10
BRANCH   4  12
ATOM     12  O   UNL     1      -8.536   0.231 -11.000  1.00  0.00    -0.508 OA
ATOM     13  H   UNL     1      -8.901   0.829 -11.729  1.00  0.00     0.293 HD
ENDBRANCH   4  12
TORSDOF 2
ENDMDL
MODEL 5
REMARK VINA RESULT:    -4.891      1.389      2.941
REMARK INTER + INTRA:          -5.177
REMARK INTER:                  -5.177
REMARK INTRA:                   0.000
REMARK UNBOUND:                 0.000
REMARK SMILES Cc1cc(O)c(C)c(C)c1O
REMARK SMILES IDX 1 1 2 2 3 3 4 4 6 5 8 6 10 7 9 8 7 9 11 10 5 12
REMARK H PARENT 11 11 5 13
REMARK Flexibility Score: inf
ROOT
ATOM      1  C   UNL     1      -7.878  -0.160 -10.511  1.00  0.00     0.048 C 
ATOM      2  C   UNL     1      -8.611  -1.398 -10.067  1.00  0.00    -0.005 A 
ATOM      3  C   UNL     1      -8.520  -1.805  -8.732  1.00  0.00     0.053 A 
ATOM      4  C   UNL     1      -9.189  -2.938  -8.275  1.00  0.00     0.119 A 
ATOM      5  C   UNL     1      -9.998  -3.691  -9.159  1.00  0.00    -0.003 A 
ATOM      6  C   UNL     1     -10.047  -3.325 -10.534  1.00  0.00    -0.002 A 
ATOM      7  C   UNL     1      -9.372  -2.164 -10.975  1.00  0.00     0.121 A 
ATOM      8  C   UNL     1     -10.835  -4.151 -11.527  1.00  0.00     0.049 C 
ATOM      9  C   UNL     1     -10.764  -4.882  -8.627  1.00  0.00     0.049 C 
ENDROOT
BRANCH   7  10
ATOM     10  O   UNL     1      -9.474  -1.786 -12.319  1.00  0.00    -0.507 OA
ATOM     11  H   UNL     1      -8.687  -1.474 -12.873  1.00  0.00     0.293 HD
ENDBRANCH   7  10
BRANCH   4  12
ATOM     12  O   UNL     1      -9.021  -3.292  -6.933  1.00  0.00    -0.508 OA
ATOM     13  H   UNL     1      -9.588  -2.923  -6.181  1.00  0.00     0.293 HD
ENDBRANCH   4  12
TORSDOF 2
ENDMDL
MODEL 6
REMARK VINA RESULT:    -4.846      1.294      2.932
REMARK INTER + INTRA:          -5.129
REMARK INTER:                  -5.129
REMARK INTRA:                   0.000
REMARK UNBOUND:                 0.000
REMARK SMILES Cc1cc(O)c(C)c(C)c1O
REMARK SMILES IDX 1 1 2 2 3 3 4 4 6 5 8 6 10 7 9 8 7 9 11 10 5 12
REMARK H PARENT 11 11 5 13
REMARK Flexibility Score: inf
ROOT
ATOM      1  C   UNL     1      -8.130  -2.032  -6.631  1.00  0.00     0.048 C 
ATOM      2  C   UNL     1      -8.800  -2.458  -7.909  1.00  0.00    -0.005 A 
ATOM      3  C   UNL     1      -9.557  -3.634  -7.924  1.00  0.00     0.053 A 
ATOM      4  C   UNL     1     -10.203  -4.063  -9.081  1.00  0.00     0.119 A 
ATOM      5  C   UNL     1     -10.122  -3.294 -10.266  1.00  0.00    -0.003 A 
ATOM      6  C   UNL     1      -9.303  -2.130 -10.282  1.00  0.00    -0.002 A 
ATOM      7  C   UNL     1      -8.667  -1.704  -9.094  1.00  0.00     0.121 A 
ATOM      8  C   UNL     1      -9.125  -1.326 -11.551  1.00  0.00     0.049 C 
ATOM      9  C   UNL     1     -10.883  -3.746 -11.494  1.00  0.00     0.049 C 
ENDROOT
BRANCH   7  10
ATOM     10  O   UNL     1      -7.908  -0.528  -9.111  1.00  0.00    -0.507 OA
ATOM     11  H   UNL     1      -7.563  -0.074  -8.275  1.00  0.00     0.293 HD
ENDBRANCH   7  10
BRANCH   4  12
ATOM     12  O   UNL     1     -10.914  -5.265  -9.019  1.00  0.00    -0.508 OA
ATOM     13  H   UNL     1     -11.913  -5.333  -9.163  1.00  0.00     0.293 HD
ENDBRANCH   4  12
TORSDOF 2
ENDMDL
MODEL 7
REMARK VINA RESULT:    -4.844      0.998      4.380
REMARK INTER + INTRA:          -5.127
REMARK INTER:                  -5.127
REMARK INTRA:                   0.000
REMARK UNBOUND:                 0.000
REMARK SMILES Cc1cc(O)c(C)c(C)c1O
REMARK SMILES IDX 1 1 2 2 3 3 4 4 6 5 8 6 10 7 9 8 7 9 11 10 5 12
REMARK H PARENT 11 11 5 13
REMARK Flexibility Score: inf
ROOT
ATOM      1  C   UNL     1     -10.870  -5.256  -8.611  1.00  0.00     0.048 C 
ATOM      2  C   UNL     1     -10.140  -3.967  -8.878  1.00  0.00    -0.005 A 
ATOM      3  C   UNL     1      -9.339  -3.415  -7.874  1.00  0.00     0.053 A 
ATOM      4  C   UNL     1      -8.638  -2.228  -8.081  1.00  0.00     0.119 A 
ATOM      5  C   UNL     1      -8.707  -1.570  -9.331  1.00  0.00    -0.003 A 
ATOM      6  C   UNL     1      -9.569  -2.088 -10.339  1.00  0.00    -0.002 A 
ATOM      7  C   UNL     1     -10.261  -3.300 -10.116  1.00  0.00     0.121 A 
ATOM      8  C   UNL     1      -9.733  -1.369 -11.661  1.00  0.00     0.049 C 
ATOM      9  C   UNL     1      -7.889  -0.317  -9.554  1.00  0.00     0.049 C 
ENDROOT
BRANCH   7  10
ATOM     10  O   UNL     1     -11.062  -3.825 -11.135  1.00  0.00    -0.507 OA
ATOM     11  H   UNL     1     -11.387  -4.783 -11.154  1.00  0.00     0.293 HD
ENDBRANCH   7  10
BRANCH   4  12
ATOM     12  O   UNL     1      -7.884  -1.727  -7.015  1.00  0.00    -0.508 OA
ATOM     13  H   UNL     1      -7.412  -2.314  -6.339  1.00  0.00     0.293 HD
ENDBRANCH   4  12
TORSDOF 2
ENDMDL
MODEL 8
REMARK VINA RESULT:    -4.505      1.586      2.423
REMARK INTER + INTRA:          -4.768
REMARK INTER:                  -4.768
REMARK INTRA:                   0.000
REMARK UNBOUND:                 0.000
REMARK SMILES Cc1cc(O)c(C)c(C)c1O
REMARK SMILES IDX 1 1 2 2 3 3 4 4 6 5 8 6 10 7 9 8 7 9 11 10 5 12
REMARK H PARENT 11 11 5 13
REMARK Flexibility Score: inf
ROOT
ATOM      1  C   UNL     1      -8.054  -0.904  -7.534  1.00  0.00     0.048 C 
ATOM      2  C   UNL     1      -8.788  -1.752  -8.538  1.00  0.00    -0.005 A 
ATOM      3  C   UNL     1      -8.834  -1.342  -9.874  1.00  0.00     0.053 A 
ATOM      4  C   UNL     1      -9.494  -2.099 -10.840  1.00  0.00     0.119 A 
ATOM      5  C   UNL     1     -10.113  -3.320 -10.484  1.00  0.00    -0.003 A 
ATOM      6  C   UNL     1     -10.129  -3.716  -9.117  1.00  0.00    -0.002 A 
ATOM      7  C   UNL     1      -9.442  -2.941  -8.154  1.00  0.00     0.121 A 
ATOM      8  C   UNL     1     -10.850  -4.974  -8.683  1.00  0.00     0.049 C 
ATOM      9  C   UNL     1     -10.770  -4.157 -11.560  1.00  0.00     0.049 C 
ENDROOT
BRANCH   7  10
ATOM     10  O   UNL     1      -9.420  -3.371  -6.823  1.00  0.00    -0.507 OA
ATOM     11  H   UNL     1     -10.226  -3.342  -6.212  1.00  0.00     0.293 HD
ENDBRANCH   7  10
BRANCH   4  12
ATOM     12  O   UNL     1      -9.519  -1.603 -12.147  1.00  0.00    -0.508 OA
ATOM     13  H   UNL     1      -9.907  -2.111 -12.931  1.00  0.00     0.293 HD
ENDBRANCH   4  12
TORSDOF 2
ENDMDL
