MODEL 1
REMARK VINA RESULT:    -5.668      0.000      0.000
REMARK INTER + INTRA:          -6.192
REMARK INTER:                  -6.165
REMARK INTRA:                  -0.027
REMARK UNBOUND:                -0.027
REMARK SMILES O=C([O-])c1ccc(O)cc1
REMARK SMILES IDX 7 1 6 2 9 3 5 4 10 5 4 6 8 7 2 9 1 10 3 11
REMARK H PARENT 8 8
REMARK Flexibility Score: inf
ROOT
ATOM      1  C   UNL     1     -17.340  58.638  -6.178  1.00  0.00     0.115 A 
ATOM      2  C   UNL     1     -17.676  58.667  -4.819  1.00  0.00     0.047 A 
ATOM      3  C   UNL     1     -18.313  58.306  -7.125  1.00  0.00     0.047 A 
ATOM      4  C   UNL     1     -18.979  58.365  -4.410  1.00  0.00     0.014 A 
ATOM      5  C   UNL     1     -19.617  58.004  -6.720  1.00  0.00     0.014 A 
ATOM      6  C   UNL     1     -19.964  58.030  -5.357  1.00  0.00    -0.003 A 
ENDROOT
BRANCH   1   7
ATOM      7  O   UNL     1     -16.045  58.936  -6.597  1.00  0.00    -0.508 OA
ATOM      8  H   UNL     1     -15.872  59.472  -7.439  1.00  0.00     0.293 HD
ENDBRANCH   1   7
BRANCH   6   9
ATOM      9  C   UNL     1     -21.344  57.711  -4.931  1.00  0.00     0.071 C 
ATOM     10  O   UNL     1     -22.177  58.631  -4.714  1.00  0.00    -0.545 OA
ATOM     11  O   UNL     1     -21.742  56.389  -4.764  1.00  0.00    -0.545 OA
ENDBRANCH   6   9
TORSDOF 2
ENDMDL
MODEL 2
REMARK VINA RESULT:    -5.647     12.405     14.481
REMARK INTER + INTRA:          -6.169
REMARK INTER:                  -6.137
REMARK INTRA:                  -0.032
REMARK UNBOUND:                -0.027
REMARK SMILES O=C([O-])c1ccc(O)cc1
REMARK SMILES IDX 7 1 6 2 9 3 5 4 10 5 4 6 8 7 2 9 1 10 3 11
REMARK H PARENT 8 8
REMARK Flexibility Score: inf
ROOT
ATOM      1  C   UNL     1     -29.448  56.923   1.950  1.00  0.00     0.115 A 
ATOM      2  C   UNL     1     -30.527  56.354   2.640  1.00  0.00     0.047 A 
ATOM      3  C   UNL     1     -28.673  57.907   2.569  1.00  0.00     0.047 A 
ATOM      4  C   UNL     1     -30.828  56.768   3.941  1.00  0.00     0.014 A 
ATOM      5  C   UNL     1     -28.971  58.324   3.871  1.00  0.00     0.014 A 
ATOM      6  C   UNL     1     -30.052  57.759   4.570  1.00  0.00    -0.003 A 
ENDROOT
BRANCH   1   7
ATOM      7  O   UNL     1     -29.140  56.517   0.654  1.00  0.00    -0.508 OA
ATOM      8  H   UNL     1     -29.865  56.275  -0.011  1.00  0.00     0.293 HD
ENDBRANCH   1   7
BRANCH   6   9
ATOM      9  C   UNL     1     -30.365  58.202   5.947  1.00  0.00     0.071 C 
ATOM     10  O   UNL     1     -29.440  58.437   6.770  1.00  0.00    -0.545 OA
ATOM     11  O   UNL     1     -31.685  58.365   6.352  1.00  0.00    -0.545 OA
ENDBRANCH   6   9
TORSDOF 2
ENDMDL
MODEL 3
REMARK VINA RESULT:    -5.636     12.410     14.457
REMARK INTER + INTRA:          -6.157
REMARK INTER:                  -6.126
REMARK INTRA:                  -0.032
REMARK UNBOUND:                -0.027
REMARK SMILES O=C([O-])c1ccc(O)cc1
REMARK SMILES IDX 7 1 6 2 9 3 5 4 10 5 4 6 8 7 2 9 1 10 3 11
REMARK H PARENT 8 8
REMARK Flexibility Score: inf
ROOT
ATOM      1  C   UNL     1     -29.441  56.970   1.962  1.00  0.00     0.115 A 
ATOM      2  C   UNL     1     -28.669  57.964   2.576  1.00  0.00     0.047 A 
ATOM      3  C   UNL     1     -30.499  56.385   2.663  1.00  0.00     0.047 A 
ATOM      4  C   UNL     1     -28.954  58.370   3.884  1.00  0.00     0.014 A 
ATOM      5  C   UNL     1     -30.788  56.787   3.970  1.00  0.00     0.014 A 
ATOM      6  C   UNL     1     -30.017  57.784   4.595  1.00  0.00    -0.003 A 
ENDROOT
BRANCH   1   7
ATOM      7  O   UNL     1     -29.166  56.559   0.660  1.00  0.00    -0.508 OA
ATOM      8  H   UNL     1     -28.263  56.177   0.406  1.00  0.00     0.293 HD
ENDBRANCH   1   7
BRANCH   6   9
ATOM      9  C   UNL     1     -30.325  58.209   5.979  1.00  0.00     0.071 C 
ATOM     10  O   UNL     1     -29.397  58.454   6.795  1.00  0.00    -0.545 OA
ATOM     11  O   UNL     1     -31.644  58.343   6.398  1.00  0.00    -0.545 OA
ENDBRANCH   6   9
TORSDOF 2
ENDMDL
MODEL 4
REMARK VINA RESULT:    -5.505      9.459     12.175
REMARK INTER + INTRA:          -6.015
REMARK INTER:                  -5.984
REMARK INTRA:                  -0.032
REMARK UNBOUND:                -0.027
REMARK SMILES O=C([O-])c1ccc(O)cc1
REMARK SMILES IDX 7 1 6 2 9 3 5 4 10 5 4 6 8 7 2 9 1 10 3 11
REMARK H PARENT 8 8
REMARK Flexibility Score: inf
ROOT
ATOM      1  C   UNL     1     -30.748  57.279   1.645  1.00  0.00     0.115 A 
ATOM      2  C   UNL     1     -29.805  56.277   1.907  1.00  0.00     0.047 A 
ATOM      3  C   UNL     1     -30.508  58.207   0.627  1.00  0.00     0.047 A 
ATOM      4  C   UNL     1     -28.629  56.204   1.154  1.00  0.00     0.014 A 
ATOM      5  C   UNL     1     -29.333  58.137  -0.128  1.00  0.00     0.014 A 
ATOM      6  C   UNL     1     -28.380  57.134   0.128  1.00  0.00    -0.003 A 
ENDROOT
BRANCH   1   7
ATOM      7  O   UNL     1     -31.923  57.362   2.388  1.00  0.00    -0.508 OA
ATOM      8  H   UNL     1     -31.905  57.463   3.396  1.00  0.00     0.293 HD
ENDBRANCH   1   7
BRANCH   6   9
ATOM      9  C   UNL     1     -27.138  57.062  -0.672  1.00  0.00     0.071 C 
ATOM     10  O   UNL     1     -26.031  56.826  -0.118  1.00  0.00    -0.545 OA
ATOM     11  O   UNL     1     -27.175  57.252  -2.049  1.00  0.00    -0.545 OA
ENDBRANCH   6   9
TORSDOF 2
ENDMDL
MODEL 5
REMARK VINA RESULT:    -5.447      8.599     10.975
REMARK INTER + INTRA:          -5.952
REMARK INTER:                  -5.918
REMARK INTRA:                  -0.033
REMARK UNBOUND:                -0.027
REMARK SMILES O=C([O-])c1ccc(O)cc1
REMARK SMILES IDX 7 1 6 2 9 3 5 4 10 5 4 6 8 7 2 9 1 10 3 11
REMARK H PARENT 8 8
REMARK Flexibility Score: inf
ROOT
ATOM      1  C   UNL     1     -29.252  58.015   1.099  1.00  0.00     0.115 A 
ATOM      2  C   UNL     1     -29.789  58.456  -0.117  1.00  0.00     0.047 A 
ATOM      3  C   UNL     1     -28.082  57.250   1.103  1.00  0.00     0.047 A 
ATOM      4  C   UNL     1     -29.158  58.132  -1.323  1.00  0.00     0.014 A 
ATOM      5  C   UNL     1     -27.448  56.925  -0.100  1.00  0.00     0.014 A 
ATOM      6  C   UNL     1     -27.980  57.362  -1.327  1.00  0.00    -0.003 A 
ENDROOT
BRANCH   1   7
ATOM      7  O   UNL     1     -29.872  58.331   2.306  1.00  0.00    -0.508 OA
ATOM      8  H   UNL     1     -29.909  57.668   3.071  1.00  0.00     0.293 HD
ENDBRANCH   1   7
BRANCH   6   9
ATOM      9  C   UNL     1     -27.308  57.017  -2.598  1.00  0.00     0.071 C 
ATOM     10  O   UNL     1     -26.054  56.900  -2.649  1.00  0.00    -0.545 OA
ATOM     11  O   UNL     1     -28.051  56.817  -3.756  1.00  0.00    -0.545 OA
ENDBRANCH   6   9
TORSDOF 2
ENDMDL
MODEL 6
REMARK VINA RESULT:    -5.389     12.303     13.148
REMARK INTER + INTRA:          -5.889
REMARK INTER:                  -5.860
REMARK INTRA:                  -0.029
REMARK UNBOUND:                -0.027
REMARK SMILES O=C([O-])c1ccc(O)cc1
REMARK SMILES IDX 7 1 6 2 9 3 5 4 10 5 4 6 8 7 2 9 1 10 3 11
REMARK H PARENT 8 8
REMARK Flexibility Score: inf
ROOT
ATOM      1  C   UNL     1     -30.263  57.238   0.119  1.00  0.00     0.115 A 
ATOM      2  C   UNL     1     -30.227  56.310   1.168  1.00  0.00     0.047 A 
ATOM      3  C   UNL     1     -29.806  58.541   0.333  1.00  0.00     0.047 A 
ATOM      4  C   UNL     1     -29.737  56.685   2.423  1.00  0.00     0.014 A 
ATOM      5  C   UNL     1     -29.315  58.920   1.586  1.00  0.00     0.014 A 
ATOM      6  C   UNL     1     -29.276  57.995   2.645  1.00  0.00    -0.003 A 
ENDROOT
BRANCH   1   7
ATOM      7  O   UNL     1     -30.749  56.876  -1.135  1.00  0.00    -0.508 OA
ATOM      8  H   UNL     1     -30.185  56.344  -1.787  1.00  0.00     0.293 HD
ENDBRANCH   1   7
BRANCH   6   9
ATOM      9  C   UNL     1     -28.755  58.398   3.970  1.00  0.00     0.071 C 
ATOM     10  O   UNL     1     -27.591  58.865   4.087  1.00  0.00    -0.545 OA
ATOM     11  O   UNL     1     -29.545  58.265   5.107  1.00  0.00    -0.545 OA
ENDBRANCH   6   9
TORSDOF 2
ENDMDL
MODEL 7
REMARK VINA RESULT:    -5.342     11.478     13.522
REMARK INTER + INTRA:          -5.837
REMARK INTER:                  -5.807
REMARK INTRA:                  -0.030
REMARK UNBOUND:                -0.027
REMARK SMILES O=C([O-])c1ccc(O)cc1
REMARK SMILES IDX 7 1 6 2 9 3 5 4 10 5 4 6 8 7 2 9 1 10 3 11
REMARK H PARENT 8 8
REMARK Flexibility Score: inf
ROOT
ATOM      1  C   UNL     1     -28.293  57.000   1.302  1.00  0.00     0.115 A 
ATOM      2  C   UNL     1     -28.225  58.042   2.236  1.00  0.00     0.047 A 
ATOM      3  C   UNL     1     -29.321  56.057   1.391  1.00  0.00     0.047 A 
ATOM      4  C   UNL     1     -29.179  58.138   3.254  1.00  0.00     0.014 A 
ATOM      5  C   UNL     1     -30.277  56.150   2.407  1.00  0.00     0.014 A 
ATOM      6  C   UNL     1     -30.216  57.192   3.350  1.00  0.00    -0.003 A 
ENDROOT
BRANCH   1   7
ATOM      7  O   UNL     1     -27.348  56.894   0.283  1.00  0.00    -0.508 OA
ATOM      8  H   UNL     1     -26.593  56.221   0.332  1.00  0.00     0.293 HD
ENDBRANCH   1   7
BRANCH   6   9
ATOM      9  C   UNL     1     -31.228  57.288   4.424  1.00  0.00     0.071 C 
ATOM     10  O   UNL     1     -32.457  57.329   4.145  1.00  0.00    -0.545 OA
ATOM     11  O   UNL     1     -30.839  57.337   5.758  1.00  0.00    -0.545 OA
ENDBRANCH   6   9
TORSDOF 2
ENDMDL
MODEL 8
REMARK VINA RESULT:    -5.322      1.465      4.219
REMARK INTER + INTRA:          -5.815
REMARK INTER:                  -5.781
REMARK INTRA:                  -0.034
REMARK UNBOUND:                -0.027
REMARK SMILES O=C([O-])c1ccc(O)cc1
REMARK SMILES IDX 7 1 6 2 9 3 5 4 10 5 4 6 8 7 2 9 1 10 3 11
REMARK H PARENT 8 8
REMARK Flexibility Score: inf
ROOT
ATOM      1  C   UNL     1     -20.089  57.891  -5.690  1.00  0.00     0.115 A 
ATOM      2  C   UNL     1     -19.727  58.073  -4.349  1.00  0.00     0.047 A 
ATOM      3  C   UNL     1     -19.238  58.339  -6.703  1.00  0.00     0.047 A 
ATOM      4  C   UNL     1     -18.520  58.701  -4.025  1.00  0.00     0.014 A 
ATOM      5  C   UNL     1     -18.030  58.968  -6.384  1.00  0.00     0.014 A 
ATOM      6  C   UNL     1     -17.659  59.156  -5.040  1.00  0.00    -0.003 A 
ENDROOT
BRANCH   1   7
ATOM      7  O   UNL     1     -21.289  57.266  -6.024  1.00  0.00    -0.508 OA
ATOM      8  H   UNL     1     -21.834  56.765  -5.333  1.00  0.00     0.293 HD
ENDBRANCH   1   7
BRANCH   6   9
ATOM      9  C   UNL     1     -16.381  59.820  -4.704  1.00  0.00     0.071 C 
ATOM     10  O   UNL     1     -16.233  60.405  -3.598  1.00  0.00    -0.545 OA
ATOM     11  O   UNL     1     -15.322  59.809  -5.606  1.00  0.00    -0.545 OA
ENDBRANCH   6   9
TORSDOF 2
ENDMDL
MODEL 9
REMARK VINA RESULT:    -5.231     12.463     13.801
REMARK INTER + INTRA:          -5.717
REMARK INTER:                  -5.681
REMARK INTRA:                  -0.036
REMARK UNBOUND:                -0.027
REMARK SMILES O=C([O-])c1ccc(O)cc1
REMARK SMILES IDX 7 1 6 2 9 3 5 4 10 5 4 6 8 7 2 9 1 10 3 11
REMARK H PARENT 8 8
REMARK Flexibility Score: inf
ROOT
ATOM      1  C   UNL     1     -29.443  57.915   4.338  1.00  0.00     0.115 A 
ATOM      2  C   UNL     1     -28.723  58.419   3.247  1.00  0.00     0.047 A 
ATOM      3  C   UNL     1     -30.647  57.240   4.119  1.00  0.00     0.047 A 
ATOM      4  C   UNL     1     -29.205  58.249   1.946  1.00  0.00     0.014 A 
ATOM      5  C   UNL     1     -31.133  57.068   2.819  1.00  0.00     0.014 A 
ATOM      6  C   UNL     1     -30.417  57.571   1.718  1.00  0.00    -0.003 A 
ENDROOT
BRANCH   1   7
ATOM      7  O   UNL     1     -28.972  58.079   5.639  1.00  0.00    -0.508 OA
ATOM      8  H   UNL     1     -29.592  58.339   6.396  1.00  0.00     0.293 HD
ENDBRANCH   1   7
BRANCH   6   9
ATOM      9  C   UNL     1     -30.932  57.387   0.344  1.00  0.00     0.071 C 
ATOM     10  O   UNL     1     -32.037  56.814   0.145  1.00  0.00    -0.545 OA
ATOM     11  O   UNL     1     -30.203  57.844  -0.749  1.00  0.00    -0.545 OA
ENDBRANCH   6   9
TORSDOF 2
ENDMDL
