MODEL 1
REMARK VINA RESULT:    -4.697      0.000      0.000
REMARK INTER + INTRA:          -5.822
REMARK INTER:                  -5.521
REMARK INTRA:                  -0.301
REMARK UNBOUND:                -0.301
REMARK SMILES O=c1cc(-c2ccc(O)c(O)c2)oc2cc(O)cc(O)c12
REMARK SMILES IDX 4 1 3 2 2 3 1 4 21 5 19 6 18 7 16 8 15 9 14 10 13 11 5 12
REMARK SMILES IDX 6 13 7 14 8 15 12 16 10 17 9 18 11 20 20 22 17 24
REMARK H PARENT 9 19 11 21 20 23 17 25
REMARK Flexibility Score: inf
ROOT
ATOM      1  C   UNL     1     169.178  82.901  18.853  1.00  0.00     0.138 A 
ATOM      2  C   UNL     1     170.158  82.140  18.204  1.00  0.00     0.100 A 
ATOM      3  C   UNL     1     169.940  81.701  16.898  1.00  0.00     0.197 A 
ATOM      4  O   UNL     1     170.812  80.968  16.362  1.00  0.00    -0.289 OA
ATOM      5  C   UNL     1     168.743  82.053  16.228  1.00  0.00     0.107 A 
ATOM      6  C   UNL     1     168.431  81.698  14.883  1.00  0.00     0.134 A 
ATOM      7  C   UNL     1     167.165  82.003  14.365  1.00  0.00     0.093 A 
ATOM      8  C   UNL     1     166.227  82.704  15.121  1.00  0.00     0.123 A 
ATOM      9  C   UNL     1     166.543  83.105  16.420  1.00  0.00     0.094 A 
ATOM     10  C   UNL     1     167.783  82.785  16.978  1.00  0.00     0.146 A 
ATOM     11  O   UNL     1     168.040  83.172  18.222  1.00  0.00    -0.456 OA
ENDROOT
BRANCH   1  12
ATOM     12  C   UNL     1     169.359  83.394  20.242  1.00  0.00     0.021 A 
ATOM     13  C   UNL     1     170.608  83.849  20.708  1.00  0.00     0.016 A 
ATOM     14  C   UNL     1     170.747  84.317  22.017  1.00  0.00     0.051 A 
ATOM     15  C   UNL     1     169.644  84.347  22.880  1.00  0.00     0.157 A 
ATOM     16  C   UNL     1     168.254  83.440  21.111  1.00  0.00     0.062 A 
ATOM     17  C   UNL     1     168.392  83.908  22.423  1.00  0.00     0.158 A 
BRANCH  15  18
ATOM     18  O   UNL     1     169.788  84.814  24.185  1.00  0.00    -0.504 OA
ATOM     19  H   UNL     1     169.492  84.264  24.983  1.00  0.00     0.293 HD
ENDBRANCH  15  18
BRANCH  17  20
ATOM     20  O   UNL     1     167.273  83.928  23.255  1.00  0.00    -0.504 OA
ATOM     21  H   UNL     1     166.334  83.798  22.898  1.00  0.00     0.293 HD
ENDBRANCH  17  20
ENDBRANCH   1  12
BRANCH   6  22
ATOM     22  O   UNL     1     169.326  81.070  14.011  1.00  0.00    -0.507 OA
ATOM     23  H   UNL     1     169.065  80.405  13.299  1.00  0.00     0.293 HD
ENDBRANCH   6  22
BRANCH   8  24
ATOM     24  O   UNL     1     164.984  83.004  14.567  1.00  0.00    -0.508 OA
ATOM     25  H   UNL     1     164.165  82.442  14.769  1.00  0.00     0.293 HD
ENDBRANCH   8  24
TORSDOF 5
ENDMDL
MODEL 2
REMARK VINA RESULT:    -4.463      1.415      6.828
REMARK INTER + INTRA:          -5.546
REMARK INTER:                  -5.263
REMARK INTRA:                  -0.283
REMARK UNBOUND:                -0.301
REMARK SMILES O=c1cc(-c2ccc(O)c(O)c2)oc2cc(O)cc(O)c12
REMARK SMILES IDX 4 1 3 2 2 3 1 4 21 5 19 6 18 7 16 8 15 9 14 10 13 11 5 12
REMARK SMILES IDX 6 13 7 14 8 15 12 16 10 17 9 18 11 20 20 22 17 24
REMARK H PARENT 9 19 11 21 20 23 17 25
REMARK Flexibility Score: inf
ROOT
ATOM      1  C   UNL     1     169.091  82.843  19.195  1.00  0.00     0.138 A 
ATOM      2  C   UNL     1     170.209  83.459  19.773  1.00  0.00     0.100 A 
ATOM      3  C   UNL     1     170.106  84.022  21.045  1.00  0.00     0.197 A 
ATOM      4  O   UNL     1     171.109  84.622  21.513  1.00  0.00    -0.289 OA
ATOM      5  C   UNL     1     168.884  83.942  21.754  1.00  0.00     0.107 A 
ATOM      6  C   UNL     1     168.675  84.444  23.073  1.00  0.00     0.134 A 
ATOM      7  C   UNL     1     167.389  84.411  23.628  1.00  0.00     0.093 A 
ATOM      8  C   UNL     1     166.321  83.839  22.938  1.00  0.00     0.123 A 
ATOM      9  C   UNL     1     166.526  83.295  21.670  1.00  0.00     0.094 A 
ATOM     10  C   UNL     1     167.788  83.344  21.074  1.00  0.00     0.146 A 
ATOM     11  O   UNL     1     167.940  82.828  19.859  1.00  0.00    -0.456 OA
ENDROOT
BRANCH   1  12
ATOM     12  C   UNL     1     169.145  82.226  17.846  1.00  0.00     0.021 A 
ATOM     13  C   UNL     1     170.078  81.221  17.528  1.00  0.00     0.016 A 
ATOM     14  C   UNL     1     170.100  80.652  16.253  1.00  0.00     0.051 A 
ATOM     15  C   UNL     1     169.187  81.068  15.276  1.00  0.00     0.157 A 
ATOM     16  C   UNL     1     168.224  82.630  16.862  1.00  0.00     0.062 A 
ATOM     17  C   UNL     1     168.244  82.061  15.584  1.00  0.00     0.158 A 
BRANCH  15  18
ATOM     18  O   UNL     1     169.213  80.498  14.004  1.00  0.00    -0.504 OA
ATOM     19  H   UNL     1     169.102  81.059  13.168  1.00  0.00     0.293 HD
ENDBRANCH  15  18
BRANCH  17  20
ATOM     20  O   UNL     1     167.319  82.496  14.635  1.00  0.00    -0.504 OA
ATOM     21  H   UNL     1     167.498  82.430  13.639  1.00  0.00     0.293 HD
ENDBRANCH  17  20
ENDBRANCH   1  12
BRANCH   6  22
ATOM     22  O   UNL     1     169.690  84.961  23.883  1.00  0.00    -0.507 OA
ATOM     23  H   UNL     1     169.573  85.715  24.543  1.00  0.00     0.293 HD
ENDBRANCH   6  22
BRANCH   8  24
ATOM     24  O   UNL     1     165.059  83.809  23.529  1.00  0.00    -0.508 OA
ATOM     25  H   UNL     1     164.776  84.507  24.207  1.00  0.00     0.293 HD
ENDBRANCH   8  24
TORSDOF 5
ENDMDL
MODEL 3
REMARK VINA RESULT:    -4.453     19.179     21.920
REMARK INTER + INTRA:          -5.534
REMARK INTER:                  -5.268
REMARK INTRA:                  -0.266
REMARK UNBOUND:                -0.301
REMARK SMILES O=c1cc(-c2ccc(O)c(O)c2)oc2cc(O)cc(O)c12
REMARK SMILES IDX 4 1 3 2 2 3 1 4 21 5 19 6 18 7 16 8 15 9 14 10 13 11 5 12
REMARK SMILES IDX 6 13 7 14 8 15 12 16 10 17 9 18 11 20 20 22 17 24
REMARK H PARENT 9 19 11 21 20 23 17 25
REMARK Flexibility Score: inf
ROOT
ATOM      1  C   UNL     1     151.683  71.156  17.419  1.00  0.00     0.138 A 
ATOM      2  C   UNL     1     151.407  72.031  18.478  1.00  0.00     0.100 A 
ATOM      3  C   UNL     1     151.183  71.519  19.757  1.00  0.00     0.197 A 
ATOM      4  O   UNL     1     150.878  72.324  20.675  1.00  0.00    -0.289 OA
ATOM      5  C   UNL     1     151.266  70.124  19.981  1.00  0.00     0.107 A 
ATOM      6  C   UNL     1     151.098  69.494  21.249  1.00  0.00     0.134 A 
ATOM      7  C   UNL     1     151.086  68.095  21.328  1.00  0.00     0.093 A 
ATOM      8  C   UNL     1     151.298  67.308  20.197  1.00  0.00     0.123 A 
ATOM      9  C   UNL     1     151.519  67.915  18.961  1.00  0.00     0.094 A 
ATOM     10  C   UNL     1     151.502  69.306  18.842  1.00  0.00     0.146 A 
ATOM     11  O   UNL     1     151.701  69.846  17.645  1.00  0.00    -0.456 OA
ENDROOT
BRANCH   1  12
ATOM     12  C   UNL     1     151.930  71.647  16.040  1.00  0.00     0.021 A 
ATOM     13  C   UNL     1     150.875  72.043  15.195  1.00  0.00     0.016 A 
ATOM     14  C   UNL     1     151.139  72.510  13.905  1.00  0.00     0.051 A 
ATOM     15  C   UNL     1     152.456  72.598  13.439  1.00  0.00     0.157 A 
ATOM     16  C   UNL     1     153.251  71.750  15.568  1.00  0.00     0.062 A 
ATOM     17  C   UNL     1     153.517  72.217  14.276  1.00  0.00     0.158 A 
BRANCH  15  18
ATOM     18  O   UNL     1     152.714  73.064  12.151  1.00  0.00    -0.504 OA
ATOM     19  H   UNL     1     152.259  73.893  11.785  1.00  0.00     0.293 HD
ENDBRANCH  15  18
BRANCH  17  20
ATOM     20  O   UNL     1     154.840  72.295  13.843  1.00  0.00    -0.504 OA
ATOM     21  H   UNL     1     155.144  72.980  13.160  1.00  0.00     0.293 HD
ENDBRANCH  17  20
ENDBRANCH   1  12
BRANCH   6  22
ATOM     22  O   UNL     1     150.962  70.187  22.456  1.00  0.00    -0.507 OA
ATOM     23  H   UNL     1     151.524  70.977  22.731  1.00  0.00     0.293 HD
ENDBRANCH   6  22
BRANCH   8  24
ATOM     24  O   UNL     1     151.296  65.919  20.317  1.00  0.00    -0.508 OA
ATOM     25  H   UNL     1     150.438  65.403  20.475  1.00  0.00     0.293 HD
ENDBRANCH   8  24
TORSDOF 5
ENDMDL
MODEL 4
REMARK VINA RESULT:    -4.442     11.183     14.104
REMARK INTER + INTRA:          -5.522
REMARK INTER:                  -5.253
REMARK INTRA:                  -0.269
REMARK UNBOUND:                -0.301
REMARK SMILES O=c1cc(-c2ccc(O)c(O)c2)oc2cc(O)cc(O)c12
REMARK SMILES IDX 4 1 3 2 2 3 1 4 21 5 19 6 18 7 16 8 15 9 14 10 13 11 5 12
REMARK SMILES IDX 6 13 7 14 8 15 12 16 10 17 9 18 11 20 20 22 17 24
REMARK H PARENT 9 19 11 21 20 23 17 25
REMARK Flexibility Score: inf
ROOT
ATOM      1  C   UNL     1     156.262  82.786  17.605  1.00  0.00     0.138 A 
ATOM      2  C   UNL     1     156.297  81.460  18.056  1.00  0.00     0.100 A 
ATOM      3  C   UNL     1     155.201  80.935  18.742  1.00  0.00     0.197 A 
ATOM      4  O   UNL     1     155.286  79.761  19.188  1.00  0.00    -0.289 OA
ATOM      5  C   UNL     1     154.052  81.735  18.951  1.00  0.00     0.107 A 
ATOM      6  C   UNL     1     152.862  81.292  19.600  1.00  0.00     0.134 A 
ATOM      7  C   UNL     1     151.833  82.209  19.853  1.00  0.00     0.093 A 
ATOM      8  C   UNL     1     151.926  83.533  19.426  1.00  0.00     0.123 A 
ATOM      9  C   UNL     1     153.063  83.962  18.741  1.00  0.00     0.094 A 
ATOM     10  C   UNL     1     154.121  83.082  18.504  1.00  0.00     0.146 A 
ATOM     11  O   UNL     1     155.193  83.533  17.862  1.00  0.00    -0.456 OA
ENDROOT
BRANCH   1  12
ATOM     12  C   UNL     1     157.398  83.394  16.869  1.00  0.00     0.021 A 
ATOM     13  C   UNL     1     158.595  83.752  17.520  1.00  0.00     0.016 A 
ATOM     14  C   UNL     1     159.652  84.314  16.800  1.00  0.00     0.051 A 
ATOM     15  C   UNL     1     159.538  84.522  15.420  1.00  0.00     0.157 A 
ATOM     16  C   UNL     1     157.297  83.595  15.481  1.00  0.00     0.062 A 
ATOM     17  C   UNL     1     158.355  84.158  14.758  1.00  0.00     0.158 A 
BRANCH  15  18
ATOM     18  O   UNL     1     160.595  85.083  14.706  1.00  0.00    -0.504 OA
ATOM     19  H   UNL     1     161.044  84.588  13.944  1.00  0.00     0.293 HD
ENDBRANCH  15  18
BRANCH  17  20
ATOM     20  O   UNL     1     158.210  84.349  13.384  1.00  0.00    -0.504 OA
ATOM     21  H   UNL     1     158.620  83.716  12.706  1.00  0.00     0.293 HD
ENDBRANCH  17  20
ENDBRANCH   1  12
BRANCH   6  22
ATOM     22  O   UNL     1     152.630  79.971  19.994  1.00  0.00    -0.507 OA
ATOM     23  H   UNL     1     152.180  79.697  20.855  1.00  0.00     0.293 HD
ENDBRANCH   6  22
BRANCH   8  24
ATOM     24  O   UNL     1     150.876  84.412  19.681  1.00  0.00    -0.508 OA
ATOM     25  H   UNL     1     150.274  84.298  20.489  1.00  0.00     0.293 HD
ENDBRANCH   8  24
TORSDOF 5
ENDMDL
MODEL 5
REMARK VINA RESULT:    -4.416     10.159     12.869
REMARK INTER + INTRA:          -5.492
REMARK INTER:                  -5.223
REMARK INTRA:                  -0.269
REMARK UNBOUND:                -0.301
REMARK SMILES O=c1cc(-c2ccc(O)c(O)c2)oc2cc(O)cc(O)c12
REMARK SMILES IDX 4 1 3 2 2 3 1 4 21 5 19 6 18 7 16 8 15 9 14 10 13 11 5 12
REMARK SMILES IDX 6 13 7 14 8 15 12 16 10 17 9 18 11 20 20 22 17 24
REMARK H PARENT 9 19 11 21 20 23 17 25
REMARK Flexibility Score: inf
ROOT
ATOM      1  C   UNL     1     156.399  83.635  17.366  1.00  0.00     0.138 A 
ATOM      2  C   UNL     1     157.465  84.294  17.991  1.00  0.00     0.100 A 
ATOM      3  C   UNL     1     158.642  84.531  17.281  1.00  0.00     0.197 A 
ATOM      4  O   UNL     1     159.605  85.070  17.887  1.00  0.00    -0.289 OA
ATOM      5  C   UNL     1     158.740  84.132  15.926  1.00  0.00     0.107 A 
ATOM      6  C   UNL     1     159.875  84.358  15.092  1.00  0.00     0.134 A 
ATOM      7  C   UNL     1     159.901  83.814  13.801  1.00  0.00     0.093 A 
ATOM      8  C   UNL     1     158.812  83.108  13.295  1.00  0.00     0.123 A 
ATOM      9  C   UNL     1     157.674  82.928  14.083  1.00  0.00     0.094 A 
ATOM     10  C   UNL     1     157.630  83.427  15.386  1.00  0.00     0.146 A 
ATOM     11  O   UNL     1     156.535  83.222  16.110  1.00  0.00    -0.456 OA
ENDROOT
BRANCH   1  12
ATOM     12  C   UNL     1     155.124  83.359  18.074  1.00  0.00     0.021 A 
ATOM     13  C   UNL     1     154.172  84.371  18.307  1.00  0.00     0.016 A 
ATOM     14  C   UNL     1     152.976  84.079  18.968  1.00  0.00     0.051 A 
ATOM     15  C   UNL     1     152.705  82.775  19.400  1.00  0.00     0.157 A 
ATOM     16  C   UNL     1     154.837  82.049  18.500  1.00  0.00     0.062 A 
ATOM     17  C   UNL     1     153.640  81.756  19.163  1.00  0.00     0.158 A 
BRANCH  15  18
ATOM     18  O   UNL     1     151.511  82.490  20.060  1.00  0.00    -0.504 OA
ATOM     19  H   UNL     1     151.372  81.615  20.553  1.00  0.00     0.293 HD
ENDBRANCH  15  18
BRANCH  17  20
ATOM     20  O   UNL     1     153.399  80.446  19.577  1.00  0.00    -0.504 OA
ATOM     21  H   UNL     1     153.826  79.649  19.118  1.00  0.00     0.293 HD
ENDBRANCH  17  20
ENDBRANCH   1  12
BRANCH   6  22
ATOM     22  O   UNL     1     160.983  85.123  15.469  1.00  0.00    -0.507 OA
ATOM     23  H   UNL     1     161.252  85.315  16.422  1.00  0.00     0.293 HD
ENDBRANCH   6  22
BRANCH   8  24
ATOM     24  O   UNL     1     158.868  82.594  12.000  1.00  0.00    -0.508 OA
ATOM     25  H   UNL     1     159.660  82.773  11.394  1.00  0.00     0.293 HD
ENDBRANCH   8  24
TORSDOF 5
ENDMDL
MODEL 6
REMARK VINA RESULT:    -4.230     11.181     13.644
REMARK INTER + INTRA:          -5.273
REMARK INTER:                  -4.997
REMARK INTRA:                  -0.276
REMARK UNBOUND:                -0.301
REMARK SMILES O=c1cc(-c2ccc(O)c(O)c2)oc2cc(O)cc(O)c12
REMARK SMILES IDX 4 1 3 2 2 3 1 4 21 5 19 6 18 7 16 8 15 9 14 10 13 11 5 12
REMARK SMILES IDX 6 13 7 14 8 15 12 16 10 17 9 18 11 20 20 22 17 24
REMARK H PARENT 9 19 11 21 20 23 17 25
REMARK Flexibility Score: inf
ROOT
ATOM      1  C   UNL     1     155.340  82.750  17.852  1.00  0.00     0.138 A 
ATOM      2  C   UNL     1     155.868  81.479  18.111  1.00  0.00     0.100 A 
ATOM      3  C   UNL     1     156.942  81.009  17.353  1.00  0.00     0.197 A 
ATOM      4  O   UNL     1     157.355  79.840  17.568  1.00  0.00    -0.289 OA
ATOM      5  C   UNL     1     157.507  81.831  16.350  1.00  0.00     0.107 A 
ATOM      6  C   UNL     1     158.629  81.474  15.543  1.00  0.00     0.134 A 
ATOM      7  C   UNL     1     159.027  82.322  14.502  1.00  0.00     0.093 A 
ATOM      8  C   UNL     1     158.386  83.539  14.278  1.00  0.00     0.123 A 
ATOM      9  C   UNL     1     157.323  83.924  15.096  1.00  0.00     0.094 A 
ATOM     10  C   UNL     1     156.879  83.085  16.120  1.00  0.00     0.146 A 
ATOM     11  O   UNL     1     155.854  83.481  16.867  1.00  0.00    -0.456 OA
ENDROOT
BRANCH   1  12
ATOM     12  C   UNL     1     154.200  83.299  18.628  1.00  0.00     0.021 A 
ATOM     13  C   UNL     1     154.188  84.632  19.083  1.00  0.00     0.016 A 
ATOM     14  C   UNL     1     153.097  85.125  19.804  1.00  0.00     0.051 A 
ATOM     15  C   UNL     1     151.998  84.301  20.076  1.00  0.00     0.157 A 
ATOM     16  C   UNL     1     153.086  82.483  18.895  1.00  0.00     0.062 A 
ATOM     17  C   UNL     1     151.993  82.975  19.617  1.00  0.00     0.158 A 
BRANCH  15  18
ATOM     18  O   UNL     1     150.912  84.797  20.796  1.00  0.00    -0.504 OA
ATOM     19  H   UNL     1     149.963  84.507  20.593  1.00  0.00     0.293 HD
ENDBRANCH  15  18
BRANCH  17  20
ATOM     20  O   UNL     1     150.912  82.130  19.868  1.00  0.00    -0.504 OA
ATOM     21  H   UNL     1     150.833  81.215  19.439  1.00  0.00     0.293 HD
ENDBRANCH  17  20
ENDBRANCH   1  12
BRANCH   6  22
ATOM     22  O   UNL     1     159.394  80.320  15.735  1.00  0.00    -0.507 OA
ATOM     23  H   UNL     1     159.049  79.377  15.638  1.00  0.00     0.293 HD
ENDBRANCH   6  22
BRANCH   8  24
ATOM     24  O   UNL     1     158.821  84.364  13.242  1.00  0.00    -0.508 OA
ATOM     25  H   UNL     1     158.470  84.256  12.297  1.00  0.00     0.293 HD
ENDBRANCH   8  24
TORSDOF 5
ENDMDL
MODEL 7
REMARK VINA RESULT:    -4.228      1.814      7.470
REMARK INTER + INTRA:          -5.270
REMARK INTER:                  -4.970
REMARK INTRA:                  -0.301
REMARK UNBOUND:                -0.301
REMARK SMILES O=c1cc(-c2ccc(O)c(O)c2)oc2cc(O)cc(O)c12
REMARK SMILES IDX 4 1 3 2 2 3 1 4 21 5 19 6 18 7 16 8 15 9 14 10 13 11 5 12
REMARK SMILES IDX 6 13 7 14 8 15 12 16 10 17 9 18 11 20 20 22 17 24
REMARK H PARENT 9 19 11 21 20 23 17 25
REMARK Flexibility Score: inf
ROOT
ATOM      1  C   UNL     1     167.325  82.655  19.884  1.00  0.00     0.138 A 
ATOM      2  C   UNL     1     166.112  82.180  20.397  1.00  0.00     0.100 A 
ATOM      3  C   UNL     1     165.791  82.411  21.736  1.00  0.00     0.197 A 
ATOM      4  O   UNL     1     164.722  81.920  22.185  1.00  0.00    -0.289 OA
ATOM      5  C   UNL     1     166.679  83.149  22.555  1.00  0.00     0.107 A 
ATOM      6  C   UNL     1     166.438  83.480  23.921  1.00  0.00     0.134 A 
ATOM      7  C   UNL     1     167.442  84.114  24.665  1.00  0.00     0.093 A 
ATOM      8  C   UNL     1     168.651  84.482  24.076  1.00  0.00     0.123 A 
ATOM      9  C   UNL     1     168.876  84.212  22.726  1.00  0.00     0.094 A 
ATOM     10  C   UNL     1     167.909  83.550  21.966  1.00  0.00     0.146 A 
ATOM     11  O   UNL     1     168.166  83.297  20.688  1.00  0.00    -0.456 OA
ENDROOT
BRANCH   1  12
ATOM     12  C   UNL     1     167.716  82.438  18.468  1.00  0.00     0.021 A 
ATOM     13  C   UNL     1     166.775  82.505  17.422  1.00  0.00     0.016 A 
ATOM     14  C   UNL     1     167.173  82.307  16.097  1.00  0.00     0.051 A 
ATOM     15  C   UNL     1     168.514  82.047  15.792  1.00  0.00     0.157 A 
ATOM     16  C   UNL     1     169.063  82.189  18.150  1.00  0.00     0.062 A 
ATOM     17  C   UNL     1     169.463  81.990  16.824  1.00  0.00     0.158 A 
BRANCH  15  18
ATOM     18  O   UNL     1     168.906  81.849  14.469  1.00  0.00    -0.504 OA
ATOM     19  H   UNL     1     169.477  82.526  13.977  1.00  0.00     0.293 HD
ENDBRANCH  15  18
BRANCH  17  20
ATOM     20  O   UNL     1     170.808  81.736  16.554  1.00  0.00    -0.504 OA
ATOM     21  H   UNL     1     171.429  82.451  16.193  1.00  0.00     0.293 HD
ENDBRANCH  17  20
ENDBRANCH   1  12
BRANCH   6  22
ATOM     22  O   UNL     1     165.232  83.234  24.585  1.00  0.00    -0.507 OA
ATOM     23  H   UNL     1     164.727  82.361  24.555  1.00  0.00     0.293 HD
ENDBRANCH   6  22
BRANCH   8  24
ATOM     24  O   UNL     1     169.620  85.125  24.843  1.00  0.00    -0.508 OA
ATOM     25  H   UNL     1     170.559  84.752  24.931  1.00  0.00     0.293 HD
ENDBRANCH   8  24
TORSDOF 5
ENDMDL
MODEL 8
REMARK VINA RESULT:    -4.187      1.592      1.961
REMARK INTER + INTRA:          -5.222
REMARK INTER:                  -4.918
REMARK INTRA:                  -0.304
REMARK UNBOUND:                -0.301
REMARK SMILES O=c1cc(-c2ccc(O)c(O)c2)oc2cc(O)cc(O)c12
REMARK SMILES IDX 4 1 3 2 2 3 1 4 21 5 19 6 18 7 16 8 15 9 14 10 13 11 5 12
REMARK SMILES IDX 6 13 7 14 8 15 12 16 10 17 9 18 11 20 20 22 17 24
REMARK H PARENT 9 19 11 21 20 23 17 25
REMARK Flexibility Score: inf
ROOT
ATOM      1  C   UNL     1     169.909  81.685  19.017  1.00  0.00     0.138 A 
ATOM      2  C   UNL     1     170.515  80.425  18.938  1.00  0.00     0.100 A 
ATOM      3  C   UNL     1     170.470  79.711  17.739  1.00  0.00     0.197 A 
ATOM      4  O   UNL     1     170.970  78.556  17.716  1.00  0.00    -0.289 OA
ATOM      5  C   UNL     1     169.839  80.278  16.606  1.00  0.00     0.107 A 
ATOM      6  C   UNL     1     169.767  79.660  15.323  1.00  0.00     0.134 A 
ATOM      7  C   UNL     1     169.015  80.265  14.307  1.00  0.00     0.093 A 
ATOM      8  C   UNL     1     168.385  81.491  14.510  1.00  0.00     0.123 A 
ATOM      9  C   UNL     1     168.494  82.131  15.745  1.00  0.00     0.094 A 
ATOM     10  C   UNL     1     169.207  81.538  16.789  1.00  0.00     0.146 A 
ATOM     11  O   UNL     1     169.276  82.171  17.955  1.00  0.00    -0.456 OA
ENDROOT
BRANCH   1  12
ATOM     12  C   UNL     1     169.929  82.487  20.266  1.00  0.00     0.021 A 
ATOM     13  C   UNL     1     171.024  82.453  21.151  1.00  0.00     0.016 A 
ATOM     14  C   UNL     1     171.020  83.226  22.314  1.00  0.00     0.051 A 
ATOM     15  C   UNL     1     169.929  84.052  22.612  1.00  0.00     0.157 A 
ATOM     16  C   UNL     1     168.843  83.329  20.567  1.00  0.00     0.062 A 
ATOM     17  C   UNL     1     168.836  84.104  21.732  1.00  0.00     0.158 A 
BRANCH  15  18
ATOM     18  O   UNL     1     169.928  84.821  23.774  1.00  0.00    -0.504 OA
ATOM     19  H   UNL     1     169.287  84.633  24.536  1.00  0.00     0.293 HD
ENDBRANCH  15  18
BRANCH  17  20
ATOM     20  O   UNL     1     167.736  84.919  21.997  1.00  0.00    -0.504 OA
ATOM     21  H   UNL     1     167.633  85.416  22.874  1.00  0.00     0.293 HD
ENDBRANCH  17  20
ENDBRANCH   1  12
BRANCH   6  22
ATOM     22  O   UNL     1     170.429  78.475  14.986  1.00  0.00    -0.507 OA
ATOM     23  H   UNL     1     171.431  78.367  14.949  1.00  0.00     0.293 HD
ENDBRANCH   6  22
BRANCH   8  24
ATOM     24  O   UNL     1     167.658  82.071  13.472  1.00  0.00    -0.508 OA
ATOM     25  H   UNL     1     166.645  82.040  13.453  1.00  0.00     0.293 HD
ENDBRANCH   8  24
TORSDOF 5
ENDMDL
MODEL 9
REMARK VINA RESULT:    -4.181      3.851      8.409
REMARK INTER + INTRA:          -5.215
REMARK INTER:                  -4.904
REMARK INTRA:                  -0.311
REMARK UNBOUND:                -0.301
REMARK SMILES O=c1cc(-c2ccc(O)c(O)c2)oc2cc(O)cc(O)c12
REMARK SMILES IDX 4 1 3 2 2 3 1 4 21 5 19 6 18 7 16 8 15 9 14 10 13 11 5 12
REMARK SMILES IDX 6 13 7 14 8 15 12 16 10 17 9 18 11 20 20 22 17 24
REMARK H PARENT 9 19 11 21 20 23 17 25
REMARK Flexibility Score: inf
ROOT
ATOM      1  C   UNL     1     163.423  82.566  15.511  1.00  0.00     0.138 A 
ATOM      2  C   UNL     1     163.532  82.284  16.879  1.00  0.00     0.100 A 
ATOM      3  C   UNL     1     164.777  81.961  17.420  1.00  0.00     0.197 A 
ATOM      4  O   UNL     1     164.834  81.653  18.640  1.00  0.00    -0.289 OA
ATOM      5  C   UNL     1     165.924  81.950  16.590  1.00  0.00     0.107 A 
ATOM      6  C   UNL     1     167.249  81.675  17.040  1.00  0.00     0.134 A 
ATOM      7  C   UNL     1     168.288  81.577  16.105  1.00  0.00     0.093 A 
ATOM      8  C   UNL     1     168.061  81.805  14.749  1.00  0.00     0.123 A 
ATOM      9  C   UNL     1     166.778  82.129  14.305  1.00  0.00     0.094 A 
ATOM     10  C   UNL     1     165.714  82.199  15.207  1.00  0.00     0.146 A 
ATOM     11  O   UNL     1     164.505  82.496  14.743  1.00  0.00    -0.456 OA
ENDROOT
BRANCH   1  12
ATOM     12  C   UNL     1     162.123  82.917  14.885  1.00  0.00     0.021 A 
ATOM     13  C   UNL     1     160.896  82.565  15.479  1.00  0.00     0.016 A 
ATOM     14  C   UNL     1     159.688  82.917  14.871  1.00  0.00     0.051 A 
ATOM     15  C   UNL     1     159.683  83.632  13.667  1.00  0.00     0.157 A 
ATOM     16  C   UNL     1     162.109  83.646  13.682  1.00  0.00     0.062 A 
ATOM     17  C   UNL     1     160.900  84.000  13.072  1.00  0.00     0.158 A 
BRANCH  15  18
ATOM     18  O   UNL     1     158.476  83.980  13.064  1.00  0.00    -0.504 OA
ATOM     19  H   UNL     1     157.642  83.415  13.179  1.00  0.00     0.293 HD
ENDBRANCH  15  18
BRANCH  17  20
ATOM     20  O   UNL     1     160.930  84.715  11.875  1.00  0.00    -0.504 OA
ATOM     21  H   UNL     1     160.409  84.418  11.057  1.00  0.00     0.293 HD
ENDBRANCH  17  20
ENDBRANCH   1  12
BRANCH   6  22
ATOM     22  O   UNL     1     167.603  81.514  18.383  1.00  0.00    -0.507 OA
ATOM     23  H   UNL     1     168.088  80.714  18.758  1.00  0.00     0.293 HD
ENDBRANCH   6  22
BRANCH   8  24
ATOM     24  O   UNL     1     169.122  81.715  13.849  1.00  0.00    -0.508 OA
ATOM     25  H   UNL     1     169.267  82.414  13.130  1.00  0.00     0.293 HD
ENDBRANCH   8  24
TORSDOF 5
ENDMDL
