MODEL 1
REMARK VINA RESULT:    -8.196      0.000      0.000
REMARK INTER + INTRA:          -8.435
REMARK INTER:                  -8.435
REMARK INTRA:                   0.000
REMARK UNBOUND:                 0.000
REMARK SMILES C[C@H]1CC[C@]2(OC1)O[C@@H]1C[C@H]3[C@H]4CC=C5C[C@H](O)CC[C@]5(C)[C@H]4CC[C@@]3(C)[C@@H]1[C@H]2C
REMARK SMILES IDX 1 1 2 2 3 3 4 4 5 5 29 6 28 7 9 8 8 9 10 10 11 11 26 12
REMARK SMILES IDX 25 13 24 14 23 15 12 16 13 17 14 18 15 19 21 20 20 21 19 22
REMARK SMILES IDX 17 23 16 24 22 25 27 26 30 27 6 28 7 29 18 30
REMARK H PARENT 18 31
REMARK Flexibility Score: inf
ROOT
ATOM      1  C   UNL     1      59.006 -20.878   2.716  1.00  0.00     0.010 C 
ATOM      2  C   UNL     1      57.605 -20.298   2.470  1.00  0.00     0.012 C 
ATOM      3  C   UNL     1      56.582 -21.407   2.179  1.00  0.00     0.011 C 
ATOM      4  C   UNL     1      56.180 -22.168   3.449  1.00  0.00     0.066 C 
ATOM      5  C   UNL     1      56.047 -21.228   4.686  1.00  0.00     0.171 C 
ATOM      6  C   UNL     1      54.816 -21.622   5.562  1.00  0.00     0.052 C 
ATOM      7  C   UNL     1      55.406 -21.810   6.968  1.00  0.00     0.033 C 
ATOM      8  C   UNL     1      56.766 -21.177   6.828  1.00  0.00     0.126 C 
ATOM      9  O   UNL     1      57.193 -21.378   5.506  1.00  0.00    -0.346 OA
ATOM     10  C   UNL     1      57.679 -21.894   7.798  1.00  0.00     0.037 C 
ATOM     11  C   UNL     1      57.176 -23.335   7.843  1.00  0.00     0.002 C 
ATOM     12  C   UNL     1      55.647 -23.274   7.518  1.00  0.00    -0.024 C 
ATOM     13  C   UNL     1      54.763 -23.498   8.784  1.00  0.00     0.008 C 
ATOM     14  C   UNL     1      55.415 -22.948  10.055  1.00  0.00     0.005 C 
ATOM     15  C   UNL     1      56.664 -23.789  10.406  1.00  0.00     0.003 C 
ATOM     16  C   UNL     1      57.541 -24.123   9.143  1.00  0.00     0.000 C 
ATOM     17  C   UNL     1      59.060 -24.129   9.415  1.00  0.00     0.031 C 
ATOM     18  C   UNL     1      59.389 -24.610  10.798  1.00  0.00    -0.027 C 
ATOM     19  C   UNL     1      58.678 -24.217  11.873  1.00  0.00    -0.065 C 
ATOM     20  C   UNL     1      57.447 -23.316  11.694  1.00  0.00    -0.008 C 
ATOM     21  C   UNL     1      56.489 -23.442  12.926  1.00  0.00     0.014 C 
ATOM     22  C   UNL     1      57.205 -23.486  14.281  1.00  0.00     0.033 C 
ATOM     23  C   UNL     1      58.207 -24.644  14.328  1.00  0.00     0.118 C 
ATOM     24  C   UNL     1      59.272 -24.468  13.248  1.00  0.00     0.063 C 
ATOM     25  C   UNL     1      57.931 -21.847  11.599  1.00  0.00     0.016 C 
ATOM     26  C   UNL     1      55.313 -24.405   6.510  1.00  0.00     0.012 C 
ATOM     27  C   UNL     1      53.699 -20.560   5.565  1.00  0.00     0.014 C 
ATOM     28  O   UNL     1      55.937 -19.872   4.257  1.00  0.00    -0.349 OA
ATOM     29  C   UNL     1      57.136 -19.410   3.652  1.00  0.00     0.167 C 
ENDROOT
BRANCH  23  30
ATOM     30  O   UNL     1      57.555 -25.877  14.152  1.00  0.00    -0.393 OA
ATOM     31  H   UNL     1      58.018 -26.341  13.406  1.00  0.00     0.210 HD
ENDBRANCH  23  30
TORSDOF 1
ENDMDL
MODEL 2
REMARK VINA RESULT:    -8.098      1.625      3.261
REMARK INTER + INTRA:          -8.335
REMARK INTER:                  -8.335
REMARK INTRA:                   0.000
REMARK UNBOUND:                 0.000
REMARK SMILES C[C@H]1CC[C@]2(OC1)O[C@@H]1C[C@H]3[C@H]4CC=C5C[C@H](O)CC[C@]5(C)[C@H]4CC[C@@]3(C)[C@@H]1[C@H]2C
REMARK SMILES IDX 1 1 2 2 3 3 4 4 5 5 29 6 28 7 9 8 8 9 10 10 11 11 26 12
REMARK SMILES IDX 25 13 24 14 23 15 12 16 13 17 14 18 15 19 21 20 20 21 19 22
REMARK SMILES IDX 17 23 16 24 22 25 27 26 30 27 6 28 7 29 18 30
REMARK H PARENT 18 31
REMARK Flexibility Score: inf
ROOT
ATOM      1  C   UNL     1      53.447 -22.565   2.987  1.00  0.00     0.010 C 
ATOM      2  C   UNL     1      54.698 -22.329   2.128  1.00  0.00     0.012 C 
ATOM      3  C   UNL     1      55.202 -20.883   2.255  1.00  0.00     0.011 C 
ATOM      4  C   UNL     1      55.919 -20.638   3.589  1.00  0.00     0.066 C 
ATOM      5  C   UNL     1      56.790 -21.855   4.026  1.00  0.00     0.171 C 
ATOM      6  C   UNL     1      58.146 -21.385   4.640  1.00  0.00     0.052 C 
ATOM      7  C   UNL     1      58.194 -22.078   6.011  1.00  0.00     0.033 C 
ATOM      8  C   UNL     1      57.098 -23.105   5.884  1.00  0.00     0.126 C 
ATOM      9  O   UNL     1      56.109 -22.569   5.044  1.00  0.00    -0.346 OA
ATOM     10  C   UNL     1      56.551 -23.328   7.276  1.00  0.00     0.037 C 
ATOM     11  C   UNL     1      56.668 -21.979   7.982  1.00  0.00     0.002 C 
ATOM     12  C   UNL     1      57.874 -21.240   7.314  1.00  0.00    -0.024 C 
ATOM     13  C   UNL     1      59.136 -21.218   8.231  1.00  0.00     0.008 C 
ATOM     14  C   UNL     1      59.246 -22.471   9.103  1.00  0.00     0.005 C 
ATOM     15  C   UNL     1      58.110 -22.478  10.152  1.00  0.00     0.003 C 
ATOM     16  C   UNL     1      56.723 -22.052   9.543  1.00  0.00     0.000 C 
ATOM     17  C   UNL     1      55.516 -22.809  10.136  1.00  0.00     0.031 C 
ATOM     18  C   UNL     1      55.711 -23.146  11.585  1.00  0.00    -0.027 C 
ATOM     19  C   UNL     1      56.886 -23.611  12.053  1.00  0.00    -0.065 C 
ATOM     20  C   UNL     1      58.095 -23.733  11.112  1.00  0.00    -0.008 C 
ATOM     21  C   UNL     1      59.430 -23.744  11.929  1.00  0.00     0.014 C 
ATOM     22  C   UNL     1      59.379 -24.584  13.210  1.00  0.00     0.033 C 
ATOM     23  C   UNL     1      58.254 -24.103  14.131  1.00  0.00     0.118 C 
ATOM     24  C   UNL     1      56.902 -24.242  13.433  1.00  0.00     0.063 C 
ATOM     25  C   UNL     1      57.980 -25.075  10.346  1.00  0.00     0.016 C 
ATOM     26  C   UNL     1      57.463 -19.768   7.051  1.00  0.00     0.012 C 
ATOM     27  C   UNL     1      59.371 -21.760   3.784  1.00  0.00     0.014 C 
ATOM     28  O   UNL     1      57.021 -22.713   2.910  1.00  0.00    -0.349 OA
ATOM     29  C   UNL     1      55.825 -23.339   2.467  1.00  0.00     0.167 C 
ENDROOT
BRANCH  23  30
ATOM     30  O   UNL     1      58.454 -22.764  14.509  1.00  0.00    -0.393 OA
ATOM     31  H   UNL     1      59.125 -22.387  13.881  1.00  0.00     0.210 HD
ENDBRANCH  23  30
TORSDOF 1
ENDMDL
MODEL 3
REMARK VINA RESULT:    -8.085      1.565      2.361
REMARK INTER + INTRA:          -8.321
REMARK INTER:                  -8.321
REMARK INTRA:                   0.000
REMARK UNBOUND:                 0.000
REMARK SMILES C[C@H]1CC[C@]2(OC1)O[C@@H]1C[C@H]3[C@H]4CC=C5C[C@H](O)CC[C@]5(C)[C@H]4CC[C@@]3(C)[C@@H]1[C@H]2C
REMARK SMILES IDX 1 1 2 2 3 3 4 4 5 5 29 6 28 7 9 8 8 9 10 10 11 11 26 12
REMARK SMILES IDX 25 13 24 14 23 15 12 16 13 17 14 18 15 19 21 20 20 21 19 22
REMARK SMILES IDX 17 23 16 24 22 25 27 26 30 27 6 28 7 29 18 30
REMARK H PARENT 18 31
REMARK Flexibility Score: inf
ROOT
ATOM      1  C   UNL     1      56.376 -18.640   3.578  1.00  0.00     0.010 C 
ATOM      2  C   UNL     1      55.702 -19.736   2.740  1.00  0.00     0.012 C 
ATOM      3  C   UNL     1      56.740 -20.678   2.109  1.00  0.00     0.011 C 
ATOM      4  C   UNL     1      57.331 -21.653   3.136  1.00  0.00     0.066 C 
ATOM      5  C   UNL     1      56.264 -22.164   4.151  1.00  0.00     0.171 C 
ATOM      6  C   UNL     1      56.458 -23.683   4.455  1.00  0.00     0.052 C 
ATOM      7  C   UNL     1      56.557 -23.747   5.987  1.00  0.00     0.033 C 
ATOM      8  C   UNL     1      56.063 -22.381   6.392  1.00  0.00     0.126 C 
ATOM      9  O   UNL     1      56.432 -21.480   5.381  1.00  0.00    -0.346 OA
ATOM     10  C   UNL     1      56.757 -22.039   7.691  1.00  0.00     0.037 C 
ATOM     11  C   UNL     1      58.137 -22.688   7.602  1.00  0.00     0.002 C 
ATOM     12  C   UNL     1      57.973 -23.931   6.665  1.00  0.00    -0.024 C 
ATOM     13  C   UNL     1      57.991 -25.275   7.458  1.00  0.00     0.008 C 
ATOM     14  C   UNL     1      57.377 -25.137   8.853  1.00  0.00     0.005 C 
ATOM     15  C   UNL     1      58.285 -24.252   9.738  1.00  0.00     0.003 C 
ATOM     16  C   UNL     1      58.820 -22.984   8.976  1.00  0.00     0.000 C 
ATOM     17  C   UNL     1      58.932 -21.722   9.857  1.00  0.00     0.031 C 
ATOM     18  C   UNL     1      59.300 -22.047  11.274  1.00  0.00    -0.027 C 
ATOM     19  C   UNL     1      58.741 -23.081  11.932  1.00  0.00    -0.065 C 
ATOM     20  C   UNL     1      57.756 -24.012  11.208  1.00  0.00    -0.008 C 
ATOM     21  C   UNL     1      57.673 -25.398  11.933  1.00  0.00     0.014 C 
ATOM     22  C   UNL     1      57.645 -25.308  13.463  1.00  0.00     0.033 C 
ATOM     23  C   UNL     1      58.877 -24.562  13.987  1.00  0.00     0.118 C 
ATOM     24  C   UNL     1      58.903 -23.136  13.440  1.00  0.00     0.063 C 
ATOM     25  C   UNL     1      56.353 -23.357  11.243  1.00  0.00     0.016 C 
ATOM     26  C   UNL     1      59.166 -23.959   5.674  1.00  0.00     0.012 C 
ATOM     27  C   UNL     1      55.308 -24.565   3.934  1.00  0.00     0.014 C 
ATOM     28  O   UNL     1      54.954 -21.923   3.643  1.00  0.00    -0.349 OA
ATOM     29  C   UNL     1      54.662 -20.534   3.568  1.00  0.00     0.167 C 
ENDROOT
BRANCH  23  30
ATOM     30  O   UNL     1      60.058 -25.230  13.622  1.00  0.00    -0.393 OA
ATOM     31  H   UNL     1      60.026 -26.124  14.053  1.00  0.00     0.210 HD
ENDBRANCH  23  30
TORSDOF 1
ENDMDL
MODEL 4
REMARK VINA RESULT:    -8.056      1.553      2.350
REMARK INTER + INTRA:          -8.292
REMARK INTER:                  -8.292
REMARK INTRA:                   0.000
REMARK UNBOUND:                 0.000
REMARK SMILES C[C@H]1CC[C@]2(OC1)O[C@@H]1C[C@H]3[C@H]4CC=C5C[C@H](O)CC[C@]5(C)[C@H]4CC[C@@]3(C)[C@@H]1[C@H]2C
REMARK SMILES IDX 1 1 2 2 3 3 4 4 5 5 29 6 28 7 9 8 8 9 10 10 11 11 26 12
REMARK SMILES IDX 25 13 24 14 23 15 12 16 13 17 14 18 15 19 21 20 20 21 19 22
REMARK SMILES IDX 17 23 16 24 22 25 27 26 30 27 6 28 7 29 18 30
REMARK H PARENT 18 31
REMARK Flexibility Score: inf
ROOT
ATOM      1  C   UNL     1      56.722 -22.361   2.355  1.00  0.00     0.010 C 
ATOM      2  C   UNL     1      56.996 -20.851   2.282  1.00  0.00     0.012 C 
ATOM      3  C   UNL     1      55.758 -20.036   2.687  1.00  0.00     0.011 C 
ATOM      4  C   UNL     1      55.533 -20.047   4.205  1.00  0.00     0.066 C 
ATOM      5  C   UNL     1      56.870 -19.967   5.003  1.00  0.00     0.171 C 
ATOM      6  C   UNL     1      56.729 -19.033   6.246  1.00  0.00     0.052 C 
ATOM      7  C   UNL     1      57.188 -19.907   7.423  1.00  0.00     0.033 C 
ATOM      8  C   UNL     1      57.858 -21.059   6.718  1.00  0.00     0.126 C 
ATOM      9  O   UNL     1      57.190 -21.256   5.498  1.00  0.00    -0.346 OA
ATOM     10  C   UNL     1      57.697 -22.266   7.615  1.00  0.00     0.037 C 
ATOM     11  C   UNL     1      56.350 -22.082   8.310  1.00  0.00     0.002 C 
ATOM     12  C   UNL     1      56.106 -20.539   8.387  1.00  0.00    -0.024 C 
ATOM     13  C   UNL     1      56.313 -19.978   9.828  1.00  0.00     0.008 C 
ATOM     14  C   UNL     1      57.396 -20.737  10.599  1.00  0.00     0.005 C 
ATOM     15  C   UNL     1      56.912 -22.174  10.900  1.00  0.00     0.003 C 
ATOM     16  C   UNL     1      56.197 -22.842   9.669  1.00  0.00     0.000 C 
ATOM     17  C   UNL     1      56.469 -24.354   9.526  1.00  0.00     0.031 C 
ATOM     18  C   UNL     1      56.624 -25.032  10.855  1.00  0.00    -0.027 C 
ATOM     19  C   UNL     1      57.335 -24.477  11.856  1.00  0.00    -0.065 C 
ATOM     20  C   UNL     1      57.947 -23.078  11.681  1.00  0.00    -0.008 C 
ATOM     21  C   UNL     1      58.222 -22.419  13.075  1.00  0.00     0.014 C 
ATOM     22  C   UNL     1      58.806 -23.376  14.120  1.00  0.00     0.033 C 
ATOM     23  C   UNL     1      57.883 -24.581  14.330  1.00  0.00     0.118 C 
ATOM     24  C   UNL     1      57.726 -25.361  13.026  1.00  0.00     0.063 C 
ATOM     25  C   UNL     1      59.297 -23.229  10.936  1.00  0.00     0.016 C 
ATOM     26  C   UNL     1      54.636 -20.254   7.984  1.00  0.00     0.012 C 
ATOM     27  C   UNL     1      57.571 -17.746   6.145  1.00  0.00     0.014 C 
ATOM     28  O   UNL     1      57.917 -19.506   4.152  1.00  0.00    -0.349 OA
ATOM     29  C   UNL     1      58.227 -20.449   3.135  1.00  0.00     0.167 C 
ENDROOT
BRANCH  23  30
ATOM     30  O   UNL     1      56.620 -24.169  14.789  1.00  0.00    -0.393 OA
ATOM     31  H   UNL     1      55.949 -24.740  14.329  1.00  0.00     0.210 HD
ENDBRANCH  23  30
TORSDOF 1
ENDMDL
MODEL 5
REMARK VINA RESULT:    -7.965     16.859     19.751
REMARK INTER + INTRA:          -8.198
REMARK INTER:                  -8.198
REMARK INTRA:                   0.000
REMARK UNBOUND:                 0.000
REMARK SMILES C[C@H]1CC[C@]2(OC1)O[C@@H]1C[C@H]3[C@H]4CC=C5C[C@H](O)CC[C@]5(C)[C@H]4CC[C@@]3(C)[C@@H]1[C@H]2C
REMARK SMILES IDX 1 1 2 2 3 3 4 4 5 5 29 6 28 7 9 8 8 9 10 10 11 11 26 12
REMARK SMILES IDX 25 13 24 14 23 15 12 16 13 17 14 18 15 19 21 20 20 21 19 22
REMARK SMILES IDX 17 23 16 24 22 25 27 26 30 27 6 28 7 29 18 30
REMARK H PARENT 18 31
REMARK Flexibility Score: inf
ROOT
ATOM      1  C   UNL     1      41.000  -9.162   4.337  1.00  0.00     0.010 C 
ATOM      2  C   UNL     1      42.222  -9.999   3.930  1.00  0.00     0.012 C 
ATOM      3  C   UNL     1      43.461  -9.117   3.719  1.00  0.00     0.011 C 
ATOM      4  C   UNL     1      44.069  -8.648   5.047  1.00  0.00     0.066 C 
ATOM      5  C   UNL     1      44.024  -9.757   6.143  1.00  0.00     0.171 C 
ATOM      6  C   UNL     1      45.341  -9.772   6.982  1.00  0.00     0.052 C 
ATOM      7  C   UNL     1      44.857  -9.654   8.435  1.00  0.00     0.033 C 
ATOM      8  C   UNL     1      43.384  -9.944   8.303  1.00  0.00     0.126 C 
ATOM      9  O   UNL     1      42.971  -9.471   7.047  1.00  0.00    -0.346 OA
ATOM     10  C   UNL     1      42.693  -9.183   9.412  1.00  0.00     0.037 C 
ATOM     11  C   UNL     1      43.513  -7.911   9.609  1.00  0.00     0.002 C 
ATOM     12  C   UNL     1      44.976  -8.265   9.181  1.00  0.00    -0.024 C 
ATOM     13  C   UNL     1      45.929  -8.421  10.407  1.00  0.00     0.008 C 
ATOM     14  C   UNL     1      45.212  -8.983  11.636  1.00  0.00     0.005 C 
ATOM     15  C   UNL     1      44.200  -7.943  12.170  1.00  0.00     0.003 C 
ATOM     16  C   UNL     1      43.382  -7.249  11.020  1.00  0.00     0.000 C 
ATOM     17  C   UNL     1      41.914  -6.944  11.387  1.00  0.00     0.031 C 
ATOM     18  C   UNL     1      41.750  -6.598  12.837  1.00  0.00    -0.027 C 
ATOM     19  C   UNL     1      42.388  -7.285  13.806  1.00  0.00    -0.065 C 
ATOM     20  C   UNL     1      43.373  -8.404  13.435  1.00  0.00    -0.008 C 
ATOM     21  C   UNL     1      44.375  -8.667  14.610  1.00  0.00     0.014 C 
ATOM     22  C   UNL     1      43.733  -8.652  16.002  1.00  0.00     0.033 C 
ATOM     23  C   UNL     1      43.026  -7.319  16.261  1.00  0.00     0.118 C 
ATOM     24  C   UNL     1      41.913  -7.102  15.237  1.00  0.00     0.063 C 
ATOM     25  C   UNL     1      42.562  -9.700  13.185  1.00  0.00     0.016 C 
ATOM     26  C   UNL     1      45.526  -7.107   8.308  1.00  0.00     0.012 C 
ATOM     27  C   UNL     1      46.184 -11.045   6.777  1.00  0.00     0.014 C 
ATOM     28  O   UNL     1      43.806 -11.030   5.538  1.00  0.00    -0.349 OA
ATOM     29  C   UNL     1      42.513 -11.125   4.957  1.00  0.00     0.167 C 
ENDROOT
BRANCH  23  30
ATOM     30  O   UNL     1      43.937  -6.250  16.202  1.00  0.00    -0.393 OA
ATOM     31  H   UNL     1      43.911  -5.904  15.271  1.00  0.00     0.210 HD
ENDBRANCH  23  30
TORSDOF 1
ENDMDL
MODEL 6
REMARK VINA RESULT:    -7.848      1.934      8.231
REMARK INTER + INTRA:          -8.077
REMARK INTER:                  -8.077
REMARK INTRA:                   0.000
REMARK UNBOUND:                 0.000
REMARK SMILES C[C@H]1CC[C@]2(OC1)O[C@@H]1C[C@H]3[C@H]4CC=C5C[C@H](O)CC[C@]5(C)[C@H]4CC[C@@]3(C)[C@@H]1[C@H]2C
REMARK SMILES IDX 1 1 2 2 3 3 4 4 5 5 29 6 28 7 9 8 8 9 10 10 11 11 26 12
REMARK SMILES IDX 25 13 24 14 23 15 12 16 13 17 14 18 15 19 21 20 20 21 19 22
REMARK SMILES IDX 17 23 16 24 22 25 27 26 30 27 6 28 7 29 18 30
REMARK H PARENT 18 31
REMARK Flexibility Score: inf
ROOT
ATOM      1  C   UNL     1      56.827 -25.645  13.917  1.00  0.00     0.010 C 
ATOM      2  C   UNL     1      57.539 -24.379  14.418  1.00  0.00     0.012 C 
ATOM      3  C   UNL     1      59.035 -24.400  14.069  1.00  0.00     0.011 C 
ATOM      4  C   UNL     1      59.283 -24.103  12.584  1.00  0.00     0.066 C 
ATOM      5  C   UNL     1      58.323 -23.007  12.030  1.00  0.00     0.171 C 
ATOM      6  C   UNL     1      59.074 -22.035  11.066  1.00  0.00     0.052 C 
ATOM      7  C   UNL     1      58.236 -22.067   9.778  1.00  0.00     0.033 C 
ATOM      8  C   UNL     1      56.963 -22.725  10.246  1.00  0.00     0.126 C 
ATOM      9  O   UNL     1      57.304 -23.628  11.267  1.00  0.00    -0.346 OA
ATOM     10  C   UNL     1      56.393 -23.460   9.054  1.00  0.00     0.037 C 
ATOM     11  C   UNL     1      57.601 -23.932   8.248  1.00  0.00     0.002 C 
ATOM     12  C   UNL     1      58.748 -22.909   8.541  1.00  0.00    -0.024 C 
ATOM     13  C   UNL     1      59.005 -21.948   7.339  1.00  0.00     0.008 C 
ATOM     14  C   UNL     1      57.726 -21.636   6.557  1.00  0.00     0.005 C 
ATOM     15  C   UNL     1      57.237 -22.909   5.828  1.00  0.00     0.003 C 
ATOM     16  C   UNL     1      57.324 -24.194   6.731  1.00  0.00     0.000 C 
ATOM     17  C   UNL     1      56.171 -25.196   6.513  1.00  0.00     0.031 C 
ATOM     18  C   UNL     1      55.701 -25.221   5.089  1.00  0.00    -0.027 C 
ATOM     19  C   UNL     1      55.536 -24.089   4.376  1.00  0.00    -0.065 C 
ATOM     20  C   UNL     1      55.908 -22.732   4.993  1.00  0.00    -0.008 C 
ATOM     21  C   UNL     1      56.170 -21.671   3.871  1.00  0.00     0.014 C 
ATOM     22  C   UNL     1      55.176 -21.728   2.705  1.00  0.00     0.033 C 
ATOM     23  C   UNL     1      55.170 -23.118   2.062  1.00  0.00     0.118 C 
ATOM     24  C   UNL     1      54.745 -24.171   3.084  1.00  0.00     0.063 C 
ATOM     25  C   UNL     1      54.715 -22.247   5.855  1.00  0.00     0.016 C 
ATOM     26  C   UNL     1      60.058 -23.699   8.794  1.00  0.00     0.012 C 
ATOM     27  C   UNL     1      59.200 -20.601  11.614  1.00  0.00     0.014 C 
ATOM     28  O   UNL     1      57.740 -22.280  13.110  1.00  0.00    -0.349 OA
ATOM     29  C   UNL     1      56.863 -23.090  13.880  1.00  0.00     0.167 C 
ENDROOT
BRANCH  23  30
ATOM     30  O   UNL     1      56.440 -23.439   1.554  1.00  0.00    -0.393 OA
ATOM     31  H   UNL     1      56.297 -23.827   0.651  1.00  0.00     0.210 HD
ENDBRANCH  23  30
TORSDOF 1
ENDMDL
MODEL 7
REMARK VINA RESULT:    -7.777     17.854     19.416
REMARK INTER + INTRA:          -8.004
REMARK INTER:                  -8.004
REMARK INTRA:                   0.000
REMARK UNBOUND:                 0.000
REMARK SMILES C[C@H]1CC[C@]2(OC1)O[C@@H]1C[C@H]3[C@H]4CC=C5C[C@H](O)CC[C@]5(C)[C@H]4CC[C@@]3(C)[C@@H]1[C@H]2C
REMARK SMILES IDX 1 1 2 2 3 3 4 4 5 5 29 6 28 7 9 8 8 9 10 10 11 11 26 12
REMARK SMILES IDX 25 13 24 14 23 15 12 16 13 17 14 18 15 19 21 20 20 21 19 22
REMARK SMILES IDX 17 23 16 24 22 25 27 26 30 27 6 28 7 29 18 30
REMARK H PARENT 18 31
REMARK Flexibility Score: inf
ROOT
ATOM      1  C   UNL     1      47.170  -8.006   4.254  1.00  0.00     0.010 C 
ATOM      2  C   UNL     1      45.917  -8.243   3.399  1.00  0.00     0.012 C 
ATOM      3  C   UNL     1      45.525  -9.729   3.380  1.00  0.00     0.011 C 
ATOM      4  C   UNL     1      44.863 -10.166   4.693  1.00  0.00     0.066 C 
ATOM      5  C   UNL     1      43.917  -9.071   5.274  1.00  0.00     0.171 C 
ATOM      6  C   UNL     1      42.615  -9.704   5.859  1.00  0.00     0.052 C 
ATOM      7  C   UNL     1      42.554  -9.165   7.297  1.00  0.00     0.033 C 
ATOM      8  C   UNL     1      43.567  -8.050   7.260  1.00  0.00     0.126 C 
ATOM      9  O   UNL     1      44.570  -8.419   6.349  1.00  0.00    -0.346 OA
ATOM     10  C   UNL     1      44.133  -7.934   8.658  1.00  0.00     0.037 C 
ATOM     11  C   UNL     1      44.134  -9.355   9.218  1.00  0.00     0.002 C 
ATOM     12  C   UNL     1      42.968 -10.109   8.496  1.00  0.00    -0.024 C 
ATOM     13  C   UNL     1      41.736 -10.323   9.429  1.00  0.00     0.008 C 
ATOM     14  C   UNL     1      41.557  -9.180  10.432  1.00  0.00     0.005 C 
ATOM     15  C   UNL     1      42.717  -9.197  11.454  1.00  0.00     0.003 C 
ATOM     16  C   UNL     1      44.115  -9.451  10.778  1.00  0.00     0.000 C 
ATOM     17  C   UNL     1      45.278  -8.672  11.426  1.00  0.00     0.031 C 
ATOM     18  C   UNL     1      45.098  -8.505  12.905  1.00  0.00    -0.027 C 
ATOM     19  C   UNL     1      43.904  -8.181  13.442  1.00  0.00    -0.065 C 
ATOM     20  C   UNL     1      42.666  -8.052  12.542  1.00  0.00    -0.008 C 
ATOM     21  C   UNL     1      41.355  -8.229  13.381  1.00  0.00     0.014 C 
ATOM     22  C   UNL     1      41.379  -7.527  14.743  1.00  0.00     0.033 C 
ATOM     23  C   UNL     1      42.560  -8.015  15.586  1.00  0.00     0.118 C 
ATOM     24  C   UNL     1      43.879  -7.701  14.882  1.00  0.00     0.063 C 
ATOM     25  C   UNL     1      42.662  -6.632  11.923  1.00  0.00     0.016 C 
ATOM     26  C   UNL     1      43.478 -11.510   8.070  1.00  0.00     0.012 C 
ATOM     27  C   UNL     1      41.344  -9.334   5.071  1.00  0.00     0.014 C 
ATOM     28  O   UNL     1      43.594  -8.120   4.261  1.00  0.00    -0.349 OA
ATOM     29  C   UNL     1      44.729  -7.363   3.865  1.00  0.00     0.167 C 
ENDROOT
BRANCH  23  30
ATOM     30  O   UNL     1      42.469  -9.398  15.822  1.00  0.00    -0.393 OA
ATOM     31  H   UNL     1      42.946  -9.847  15.076  1.00  0.00     0.210 HD
ENDBRANCH  23  30
TORSDOF 1
ENDMDL
MODEL 8
REMARK VINA RESULT:    -7.699     16.319     19.318
REMARK INTER + INTRA:          -7.924
REMARK INTER:                  -7.924
REMARK INTRA:                   0.000
REMARK UNBOUND:                 0.000
REMARK SMILES C[C@H]1CC[C@]2(OC1)O[C@@H]1C[C@H]3[C@H]4CC=C5C[C@H](O)CC[C@]5(C)[C@H]4CC[C@@]3(C)[C@@H]1[C@H]2C
REMARK SMILES IDX 1 1 2 2 3 3 4 4 5 5 29 6 28 7 9 8 8 9 10 10 11 11 26 12
REMARK SMILES IDX 25 13 24 14 23 15 12 16 13 17 14 18 15 19 21 20 20 21 19 22
REMARK SMILES IDX 17 23 16 24 22 25 27 26 30 27 6 28 7 29 18 30
REMARK H PARENT 18 31
REMARK Flexibility Score: inf
ROOT
ATOM      1  C   UNL     1      45.516 -13.313   4.795  1.00  0.00     0.010 C 
ATOM      2  C   UNL     1      45.858 -12.099   3.919  1.00  0.00     0.012 C 
ATOM      3  C   UNL     1      44.596 -11.488   3.290  1.00  0.00     0.011 C 
ATOM      4  C   UNL     1      43.780 -10.680   4.307  1.00  0.00     0.066 C 
ATOM      5  C   UNL     1      44.684  -9.874   5.288  1.00  0.00     0.171 C 
ATOM      6  C   UNL     1      44.094  -8.455   5.562  1.00  0.00     0.052 C 
ATOM      7  C   UNL     1      44.004  -8.379   7.094  1.00  0.00     0.033 C 
ATOM      8  C   UNL     1      44.853  -9.550   7.519  1.00  0.00     0.126 C 
ATOM      9  O   UNL     1      44.725 -10.545   6.536  1.00  0.00    -0.346 OA
ATOM     10  C   UNL     1      44.295 -10.031   8.839  1.00  0.00     0.037 C 
ATOM     11  C   UNL     1      42.791  -9.779   8.765  1.00  0.00     0.002 C 
ATOM     12  C   UNL     1      42.600  -8.563   7.798  1.00  0.00    -0.024 C 
ATOM     13  C   UNL     1      42.233  -7.253   8.561  1.00  0.00     0.008 C 
ATOM     14  C   UNL     1      42.882  -7.182   9.945  1.00  0.00     0.005 C 
ATOM     15  C   UNL     1      42.258  -8.254  10.868  1.00  0.00     0.003 C 
ATOM     16  C   UNL     1      42.073  -9.639  10.147  1.00  0.00     0.000 C 
ATOM     17  C   UNL     1      42.317 -10.861  11.057  1.00  0.00     0.031 C 
ATOM     18  C   UNL     1      41.896 -10.608  12.474  1.00  0.00    -0.027 C 
ATOM     19  C   UNL     1      42.166  -9.444  13.098  1.00  0.00    -0.065 C 
ATOM     20  C   UNL     1      42.854  -8.303  12.332  1.00  0.00    -0.008 C 
ATOM     21  C   UNL     1      42.571  -6.927  13.024  1.00  0.00     0.014 C 
ATOM     22  C   UNL     1      42.645  -6.965  14.555  1.00  0.00     0.033 C 
ATOM     23  C   UNL     1      41.667  -7.999  15.121  1.00  0.00     0.118 C 
ATOM     24  C   UNL     1      42.017  -9.394  14.607  1.00  0.00     0.063 C 
ATOM     25  C   UNL     1      44.382  -8.557  12.352  1.00  0.00     0.016 C 
ATOM     26  C   UNL     1      41.430  -8.883   6.832  1.00  0.00     0.012 C 
ATOM     27  C   UNL     1      44.957  -7.311   4.997  1.00  0.00     0.014 C 
ATOM     28  O   UNL     1      46.004  -9.769   4.757  1.00  0.00    -0.349 OA
ATOM     29  C   UNL     1      46.657 -11.029   4.707  1.00  0.00     0.167 C 
ENDROOT
BRANCH  23  30
ATOM     30  O   UNL     1      40.344  -7.683  14.766  1.00  0.00    -0.393 OA
ATOM     31  H   UNL     1      39.757  -8.114  15.442  1.00  0.00     0.210 HD
ENDBRANCH  23  30
TORSDOF 1
ENDMDL
MODEL 9
REMARK VINA RESULT:    -7.696     16.457     18.691
REMARK INTER + INTRA:          -7.921
REMARK INTER:                  -7.921
REMARK INTRA:                   0.000
REMARK UNBOUND:                 0.000
REMARK SMILES C[C@H]1CC[C@]2(OC1)O[C@@H]1C[C@H]3[C@H]4CC=C5C[C@H](O)CC[C@]5(C)[C@H]4CC[C@@]3(C)[C@@H]1[C@H]2C
REMARK SMILES IDX 1 1 2 2 3 3 4 4 5 5 29 6 28 7 9 8 8 9 10 10 11 11 26 12
REMARK SMILES IDX 25 13 24 14 23 15 12 16 13 17 14 18 15 19 21 20 20 21 19 22
REMARK SMILES IDX 17 23 16 24 22 25 27 26 30 27 6 28 7 29 18 30
REMARK H PARENT 18 31
REMARK Flexibility Score: inf
ROOT
ATOM      1  C   UNL     1      43.973  -8.147   3.693  1.00  0.00     0.010 C 
ATOM      2  C   UNL     1      43.720  -9.624   3.355  1.00  0.00     0.012 C 
ATOM      3  C   UNL     1      44.983 -10.473   3.572  1.00  0.00     0.011 C 
ATOM      4  C   UNL     1      45.254 -10.731   5.059  1.00  0.00     0.066 C 
ATOM      5  C   UNL     1      43.945 -10.982   5.867  1.00  0.00     0.171 C 
ATOM      6  C   UNL     1      44.139 -12.122   6.915  1.00  0.00     0.052 C 
ATOM      7  C   UNL     1      43.703 -11.485   8.243  1.00  0.00     0.033 C 
ATOM      8  C   UNL     1      42.994 -10.238   7.778  1.00  0.00     0.126 C 
ATOM      9  O   UNL     1      43.620  -9.811   6.596  1.00  0.00    -0.346 OA
ATOM     10  C   UNL     1      43.164  -9.210   8.874  1.00  0.00     0.037 C 
ATOM     11  C   UNL     1      44.535  -9.488   9.486  1.00  0.00     0.002 C 
ATOM     12  C   UNL     1      44.805 -11.015   9.276  1.00  0.00    -0.024 C 
ATOM     13  C   UNL     1      44.651 -11.830  10.597  1.00  0.00     0.008 C 
ATOM     14  C   UNL     1      43.581 -11.246  11.522  1.00  0.00     0.005 C 
ATOM     15  C   UNL     1      44.052  -9.877  12.065  1.00  0.00     0.003 C 
ATOM     16  C   UNL     1      44.718  -8.983  10.955  1.00  0.00     0.000 C 
ATOM     17  C   UNL     1      44.418  -7.476  11.096  1.00  0.00     0.031 C 
ATOM     18  C   UNL     1      44.294  -7.052  12.530  1.00  0.00    -0.027 C 
ATOM     19  C   UNL     1      43.623  -7.794  13.433  1.00  0.00    -0.065 C 
ATOM     20  C   UNL     1      43.028  -9.150  13.025  1.00  0.00    -0.008 C 
ATOM     21  C   UNL     1      42.807 -10.056  14.284  1.00  0.00     0.014 C 
ATOM     22  C   UNL     1      42.242  -9.316  15.501  1.00  0.00     0.033 C 
ATOM     23  C   UNL     1      43.152  -8.150  15.900  1.00  0.00     0.118 C 
ATOM     24  C   UNL     1      43.255  -7.144  14.754  1.00  0.00     0.063 C 
ATOM     25  C   UNL     1      41.654  -8.896  12.358  1.00  0.00     0.016 C 
ATOM     26  C   UNL     1      46.266 -11.191   8.786  1.00  0.00     0.012 C 
ATOM     27  C   UNL     1      43.314 -13.386   6.607  1.00  0.00     0.014 C 
ATOM     28  O   UNL     1      42.878 -11.303   4.975  1.00  0.00    -0.349 OA
ATOM     29  C   UNL     1      42.523 -10.199   4.155  1.00  0.00     0.167 C 
ENDROOT
BRANCH  23  30
ATOM     30  O   UNL     1      44.435  -8.611  16.241  1.00  0.00    -0.393 OA
ATOM     31  H   UNL     1      44.707  -8.118  17.059  1.00  0.00     0.210 HD
ENDBRANCH  23  30
TORSDOF 1
ENDMDL
