MODEL 1
REMARK VINA RESULT:    -5.269      0.000      0.000
REMARK INTER + INTRA:         -12.152
REMARK INTER:                 -10.197
REMARK INTRA:                  -1.955
REMARK UNBOUND:                -1.955
REMARK SMILES CCCCCCCCCCCCCCCCCC(=O)[O-]
REMARK SMILES IDX 10 1 11 2 12 3 13 4 14 5 15 6 16 7 17 8 18 9 19 10 20 11
REMARK SMILES IDX 9 12 8 13 7 14 6 15 5 16 4 17 3 18 2 19 1 20
REMARK H PARENT
REMARK Flexibility Score: inf
ROOT
ATOM      1  C   UNL     1      15.024 -13.012  28.577  1.00  0.00     0.000 C 
ENDROOT
BRANCH   1   2
ATOM      2  C   UNL     1      16.435 -13.572  28.353  1.00  0.00     0.000 C 
BRANCH   2   3
ATOM      3  C   UNL     1      16.541 -14.280  26.998  1.00  0.00     0.000 C 
BRANCH   3   4
ATOM      4  C   UNL     1      17.197 -13.366  25.952  1.00  0.00     0.000 C 
BRANCH   4   5
ATOM      5  C   UNL     1      16.270 -13.062  24.764  1.00  0.00     0.000 C 
BRANCH   5   6
ATOM      6  C   UNL     1      15.271 -11.934  25.072  1.00  0.00     0.000 C 
BRANCH   6   7
ATOM      7  C   UNL     1      14.175 -11.805  24.002  1.00  0.00     0.006 C 
BRANCH   7   8
ATOM      8  C   UNL     1      12.779 -12.156  24.534  1.00  0.00     0.053 C 
BRANCH   8   9
ATOM      9  C   UNL     1      12.078 -13.082  23.591  1.00  0.00     0.041 C 
ATOM     10  O   UNL     1      11.326 -13.989  24.035  1.00  0.00    -0.550 OA
ATOM     11  O   UNL     1      12.216 -12.911  22.219  1.00  0.00    -0.550 OA
ENDBRANCH   8   9
ENDBRANCH   7   8
ENDBRANCH   6   7
ENDBRANCH   5   6
ENDBRANCH   4   5
ENDBRANCH   3   4
ENDBRANCH   2   3
ENDBRANCH   1   2
BRANCH   1  12
ATOM     12  C   UNL     1      13.967 -13.902  27.905  1.00  0.00     0.000 C 
BRANCH  12  13
ATOM     13  C   UNL     1      12.529 -13.407  28.139  1.00  0.00    -0.000 C 
BRANCH  13  14
ATOM     14  C   UNL     1      12.030 -13.513  29.593  1.00  0.00    -0.000 C 
BRANCH  14  15
ATOM     15  C   UNL     1      10.526 -13.813  29.691  1.00  0.00    -0.000 C 
BRANCH  15  16
ATOM     16  C   UNL     1       9.661 -12.692  29.088  1.00  0.00    -0.000 C 
BRANCH  16  17
ATOM     17  C   UNL     1       8.340 -13.215  28.502  1.00  0.00    -0.000 C 
BRANCH  17  18
ATOM     18  C   UNL     1       8.385 -13.224  26.970  1.00  0.00    -0.000 C 
BRANCH  18  19
ATOM     19  C   UNL     1       9.460 -12.267  26.444  1.00  0.00    -0.003 C 
ATOM     20  C   UNL     1       8.959 -11.485  25.234  1.00  0.00     0.004 C 
ENDBRANCH  18  19
ENDBRANCH  17  18
ENDBRANCH  16  17
ENDBRANCH  15  16
ENDBRANCH  14  15
ENDBRANCH  13  14
ENDBRANCH  12  13
ENDBRANCH   1  12
TORSDOF 16
ENDMDL
MODEL 2
REMARK VINA RESULT:    -5.247      3.431      4.918
REMARK INTER + INTRA:         -12.109
REMARK INTER:                 -10.947
REMARK INTRA:                  -1.162
REMARK UNBOUND:                -1.955
REMARK SMILES CCCCCCCCCCCCCCCCCC(=O)[O-]
REMARK SMILES IDX 10 1 11 2 12 3 13 4 14 5 15 6 16 7 17 8 18 9 19 10 20 11
REMARK SMILES IDX 9 12 8 13 7 14 6 15 5 16 4 17 3 18 2 19 1 20
REMARK H PARENT
REMARK Flexibility Score: inf
ROOT
ATOM      1  C   UNL     1      13.625 -12.996  26.252  1.00  0.00     0.000 C 
ENDROOT
BRANCH   1   2
ATOM      2  C   UNL     1      14.200 -14.045  27.213  1.00  0.00     0.000 C 
BRANCH   2   3
ATOM      3  C   UNL     1      14.767 -15.246  26.446  1.00  0.00     0.000 C 
BRANCH   3   4
ATOM      4  C   UNL     1      16.301 -15.195  26.405  1.00  0.00     0.000 C 
BRANCH   4   5
ATOM      5  C   UNL     1      16.860 -15.277  24.976  1.00  0.00     0.000 C 
BRANCH   5   6
ATOM      6  C   UNL     1      18.207 -16.016  24.912  1.00  0.00     0.000 C 
BRANCH   6   7
ATOM      7  C   UNL     1      18.918 -15.837  23.561  1.00  0.00     0.006 C 
BRANCH   7   8
ATOM      8  C   UNL     1      19.145 -17.167  22.828  1.00  0.00     0.053 C 
BRANCH   8   9
ATOM      9  C   UNL     1      18.883 -17.007  21.364  1.00  0.00     0.041 C 
ATOM     10  O   UNL     1      17.746 -16.644  20.960  1.00  0.00    -0.550 OA
ATOM     11  O   UNL     1      19.908 -17.211  20.448  1.00  0.00    -0.550 OA
ENDBRANCH   8   9
ENDBRANCH   7   8
ENDBRANCH   6   7
ENDBRANCH   5   6
ENDBRANCH   4   5
ENDBRANCH   3   4
ENDBRANCH   2   3
ENDBRANCH   1   2
BRANCH   1  12
ATOM     12  C   UNL     1      13.267 -13.629  24.899  1.00  0.00     0.000 C 
BRANCH  12  13
ATOM     13  C   UNL     1      11.941 -13.103  24.321  1.00  0.00    -0.000 C 
BRANCH  13  14
ATOM     14  C   UNL     1      11.296 -11.951  25.113  1.00  0.00    -0.000 C 
BRANCH  14  15
ATOM     15  C   UNL     1       9.782 -11.833  24.873  1.00  0.00    -0.000 C 
BRANCH  15  16
ATOM     16  C   UNL     1       8.978 -11.803  26.184  1.00  0.00    -0.000 C 
BRANCH  16  17
ATOM     17  C   UNL     1       8.560 -13.205  26.653  1.00  0.00    -0.000 C 
BRANCH  17  18
ATOM     18  C   UNL     1       8.227 -13.208  28.149  1.00  0.00    -0.000 C 
BRANCH  18  19
ATOM     19  C   UNL     1       9.278 -12.431  28.948  1.00  0.00    -0.003 C 
ATOM     20  C   UNL     1      10.506 -13.291  29.229  1.00  0.00     0.004 C 
ENDBRANCH  18  19
ENDBRANCH  17  18
ENDBRANCH  16  17
ENDBRANCH  15  16
ENDBRANCH  14  15
ENDBRANCH  13  14
ENDBRANCH  12  13
ENDBRANCH   1  12
TORSDOF 16
ENDMDL
MODEL 3
REMARK VINA RESULT:    -5.227      2.748      4.272
REMARK INTER + INTRA:         -12.071
REMARK INTER:                 -10.265
REMARK INTRA:                  -1.806
REMARK UNBOUND:                -1.955
REMARK SMILES CCCCCCCCCCCCCCCCCC(=O)[O-]
REMARK SMILES IDX 10 1 11 2 12 3 13 4 14 5 15 6 16 7 17 8 18 9 19 10 20 11
REMARK SMILES IDX 9 12 8 13 7 14 6 15 5 16 4 17 3 18 2 19 1 20
REMARK H PARENT
REMARK Flexibility Score: inf
ROOT
ATOM      1  C   UNL     1      12.408 -13.807  28.675  1.00  0.00     0.000 C 
ENDROOT
BRANCH   1   2
ATOM      2  C   UNL     1      13.861 -13.391  28.942  1.00  0.00     0.000 C 
BRANCH   2   3
ATOM      3  C   UNL     1      14.735 -13.603  27.700  1.00  0.00     0.000 C 
BRANCH   3   4
ATOM      4  C   UNL     1      14.383 -14.925  27.002  1.00  0.00     0.000 C 
BRANCH   4   5
ATOM      5  C   UNL     1      15.355 -15.271  25.863  1.00  0.00     0.000 C 
BRANCH   5   6
ATOM      6  C   UNL     1      16.802 -14.856  26.178  1.00  0.00     0.000 C 
BRANCH   6   7
ATOM      7  C   UNL     1      17.472 -14.109  25.014  1.00  0.00     0.006 C 
BRANCH   7   8
ATOM      8  C   UNL     1      18.814 -14.728  24.603  1.00  0.00     0.053 C 
BRANCH   8   9
ATOM      9  C   UNL     1      18.593 -16.003  23.852  1.00  0.00     0.041 C 
ATOM     10  O   UNL     1      19.201 -17.052  24.193  1.00  0.00    -0.550 OA
ATOM     11  O   UNL     1      17.678 -16.044  22.807  1.00  0.00    -0.550 OA
ENDBRANCH   8   9
ENDBRANCH   7   8
ENDBRANCH   6   7
ENDBRANCH   5   6
ENDBRANCH   4   5
ENDBRANCH   3   4
ENDBRANCH   2   3
ENDBRANCH   1   2
BRANCH   1  12
ATOM     12  C   UNL     1      11.594 -13.822  29.977  1.00  0.00     0.000 C 
BRANCH  12  13
ATOM     13  C   UNL     1      10.273 -13.040  29.869  1.00  0.00    -0.000 C 
BRANCH  13  14
ATOM     14  C   UNL     1       9.387 -13.418  28.667  1.00  0.00    -0.000 C 
BRANCH  14  15
ATOM     15  C   UNL     1       9.179 -12.254  27.685  1.00  0.00    -0.000 C 
BRANCH  15  16
ATOM     16  C   UNL     1       8.577 -12.714  26.346  1.00  0.00    -0.000 C 
BRANCH  16  17
ATOM     17  C   UNL     1       9.652 -13.028  25.293  1.00  0.00    -0.000 C 
BRANCH  17  18
ATOM     18  C   UNL     1      10.833 -12.058  25.406  1.00  0.00    -0.000 C 
BRANCH  18  19
ATOM     19  C   UNL     1      12.158 -12.766  25.100  1.00  0.00    -0.003 C 
ATOM     20  C   UNL     1      13.288 -11.761  24.904  1.00  0.00     0.004 C 
ENDBRANCH  18  19
ENDBRANCH  17  18
ENDBRANCH  16  17
ENDBRANCH  15  16
ENDBRANCH  14  15
ENDBRANCH  13  14
ENDBRANCH  12  13
ENDBRANCH   1  12
TORSDOF 16
ENDMDL
MODEL 4
REMARK VINA RESULT:    -5.187      3.146      4.901
REMARK INTER + INTRA:         -11.994
REMARK INTER:                 -10.057
REMARK INTRA:                  -1.937
REMARK UNBOUND:                -1.955
REMARK SMILES CCCCCCCCCCCCCCCCCC(=O)[O-]
REMARK SMILES IDX 10 1 11 2 12 3 13 4 14 5 15 6 16 7 17 8 18 9 19 10 20 11
REMARK SMILES IDX 9 12 8 13 7 14 6 15 5 16 4 17 3 18 2 19 1 20
REMARK H PARENT
REMARK Flexibility Score: inf
ROOT
ATOM      1  C   UNL     1      14.545 -13.325  23.656  1.00  0.00     0.000 C 
ENDROOT
BRANCH   1   2
ATOM      2  C   UNL     1      15.357 -14.055  24.734  1.00  0.00     0.000 C 
BRANCH   2   3
ATOM      3  C   UNL     1      14.636 -15.322  25.207  1.00  0.00     0.000 C 
BRANCH   3   4
ATOM      4  C   UNL     1      14.578 -15.379  26.740  1.00  0.00     0.000 C 
BRANCH   4   5
ATOM      5  C   UNL     1      14.269 -14.013  27.374  1.00  0.00     0.000 C 
BRANCH   5   6
ATOM      6  C   UNL     1      15.459 -13.451  28.170  1.00  0.00     0.000 C 
BRANCH   6   7
ATOM      7  C   UNL     1      15.688 -11.953  27.915  1.00  0.00     0.006 C 
BRANCH   7   8
ATOM      8  C   UNL     1      16.962 -11.675  27.104  1.00  0.00     0.053 C 
BRANCH   8   9
ATOM      9  C   UNL     1      17.817 -10.668  27.806  1.00  0.00     0.041 C 
ATOM     10  O   UNL     1      18.662 -11.042  28.663  1.00  0.00    -0.550 OA
ATOM     11  O   UNL     1      17.717  -9.321  27.479  1.00  0.00    -0.550 OA
ENDBRANCH   8   9
ENDBRANCH   7   8
ENDBRANCH   6   7
ENDBRANCH   5   6
ENDBRANCH   4   5
ENDBRANCH   3   4
ENDBRANCH   2   3
ENDBRANCH   1   2
BRANCH   1  12
ATOM     12  C   UNL     1      13.973 -12.007  24.199  1.00  0.00     0.000 C 
BRANCH  12  13
ATOM     13  C   UNL     1      12.585 -12.176  24.844  1.00  0.00    -0.000 C 
BRANCH  13  14
ATOM     14  C   UNL     1      11.600 -13.057  24.053  1.00  0.00    -0.000 C 
BRANCH  14  15
ATOM     15  C   UNL     1      10.245 -12.373  23.811  1.00  0.00    -0.000 C 
BRANCH  15  16
ATOM     16  C   UNL     1       9.903 -11.340  24.898  1.00  0.00    -0.000 C 
BRANCH  16  17
ATOM     17  C   UNL     1       8.556 -11.625  25.580  1.00  0.00    -0.000 C 
BRANCH  17  18
ATOM     18  C   UNL     1       8.651 -12.849  26.497  1.00  0.00    -0.000 C 
BRANCH  18  19
ATOM     19  C   UNL     1       9.512 -12.549  27.729  1.00  0.00    -0.003 C 
ATOM     20  C   UNL     1       8.650 -12.373  28.975  1.00  0.00     0.004 C 
ENDBRANCH  18  19
ENDBRANCH  17  18
ENDBRANCH  16  17
ENDBRANCH  15  16
ENDBRANCH  14  15
ENDBRANCH  13  14
ENDBRANCH  12  13
ENDBRANCH   1  12
TORSDOF 16
ENDMDL
MODEL 5
REMARK VINA RESULT:    -5.175      2.621      4.386
REMARK INTER + INTRA:         -11.970
REMARK INTER:                 -10.313
REMARK INTRA:                  -1.657
REMARK UNBOUND:                -1.955
REMARK SMILES CCCCCCCCCCCCCCCCCC(=O)[O-]
REMARK SMILES IDX 10 1 11 2 12 3 13 4 14 5 15 6 16 7 17 8 18 9 19 10 20 11
REMARK SMILES IDX 9 12 8 13 7 14 6 15 5 16 4 17 3 18 2 19 1 20
REMARK H PARENT
REMARK Flexibility Score: inf
ROOT
ATOM      1  C   UNL     1      14.185 -11.764  25.214  1.00  0.00     0.000 C 
ENDROOT
BRANCH   1   2
ATOM      2  C   UNL     1      15.711 -11.659  25.096  1.00  0.00     0.000 C 
BRANCH   2   3
ATOM      3  C   UNL     1      16.383 -11.793  26.467  1.00  0.00     0.000 C 
BRANCH   3   4
ATOM      4  C   UNL     1      15.464 -12.522  27.459  1.00  0.00     0.000 C 
BRANCH   4   5
ATOM      5  C   UNL     1      15.906 -13.970  27.724  1.00  0.00     0.000 C 
BRANCH   5   6
ATOM      6  C   UNL     1      15.077 -14.993  26.930  1.00  0.00     0.000 C 
BRANCH   6   7
ATOM      7  C   UNL     1      15.706 -15.340  25.571  1.00  0.00     0.006 C 
BRANCH   7   8
ATOM      8  C   UNL     1      17.235 -15.207  25.572  1.00  0.00     0.053 C 
BRANCH   8   9
ATOM      9  C   UNL     1      17.822 -15.931  24.402  1.00  0.00     0.041 C 
ATOM     10  O   UNL     1      18.712 -16.805  24.579  1.00  0.00    -0.550 OA
ATOM     11  O   UNL     1      17.352 -15.676  23.119  1.00  0.00    -0.550 OA
ENDBRANCH   8   9
ENDBRANCH   7   8
ENDBRANCH   6   7
ENDBRANCH   5   6
ENDBRANCH   4   5
ENDBRANCH   3   4
ENDBRANCH   2   3
ENDBRANCH   1   2
BRANCH   1  12
ATOM     12  C   UNL     1      13.622 -12.754  24.184  1.00  0.00     0.000 C 
BRANCH  12  13
ATOM     13  C   UNL     1      12.159 -13.145  24.462  1.00  0.00    -0.000 C 
BRANCH  13  14
ATOM     14  C   UNL     1      11.347 -12.107  25.259  1.00  0.00    -0.000 C 
BRANCH  14  15
ATOM     15  C   UNL     1       9.874 -12.036  24.824  1.00  0.00    -0.000 C 
BRANCH  15  16
ATOM     16  C   UNL     1       8.905 -12.388  25.965  1.00  0.00    -0.000 C 
BRANCH  16  17
ATOM     17  C   UNL     1       9.619 -12.556  27.316  1.00  0.00    -0.000 C 
BRANCH  17  18
ATOM     18  C   UNL     1       8.662 -13.107  28.379  1.00  0.00    -0.000 C 
BRANCH  18  19
ATOM     19  C   UNL     1       8.219 -12.005  29.347  1.00  0.00    -0.003 C 
ATOM     20  C   UNL     1       8.803 -12.225  30.739  1.00  0.00     0.004 C 
ENDBRANCH  18  19
ENDBRANCH  17  18
ENDBRANCH  16  17
ENDBRANCH  15  16
ENDBRANCH  14  15
ENDBRANCH  13  14
ENDBRANCH  12  13
ENDBRANCH   1  12
TORSDOF 16
ENDMDL
MODEL 6
REMARK VINA RESULT:    -5.129      2.001      2.956
REMARK INTER + INTRA:         -11.882
REMARK INTER:                 -10.348
REMARK INTRA:                  -1.534
REMARK UNBOUND:                -1.955
REMARK SMILES CCCCCCCCCCCCCCCCCC(=O)[O-]
REMARK SMILES IDX 10 1 11 2 12 3 13 4 14 5 15 6 16 7 17 8 18 9 19 10 20 11
REMARK SMILES IDX 9 12 8 13 7 14 6 15 5 16 4 17 3 18 2 19 1 20
REMARK H PARENT
REMARK Flexibility Score: inf
ROOT
ATOM      1  C   UNL     1      14.603 -13.337  27.149  1.00  0.00     0.000 C 
ENDROOT
BRANCH   1   2
ATOM      2  C   UNL     1      13.511 -12.907  26.161  1.00  0.00     0.000 C 
BRANCH   2   3
ATOM      3  C   UNL     1      13.374 -13.915  25.015  1.00  0.00     0.000 C 
BRANCH   3   4
ATOM      4  C   UNL     1      14.091 -13.412  23.753  1.00  0.00     0.000 C 
BRANCH   4   5
ATOM      5  C   UNL     1      13.267 -12.371  22.978  1.00  0.00     0.000 C 
BRANCH   5   6
ATOM      6  C   UNL     1      11.760 -12.676  23.002  1.00  0.00     0.000 C 
BRANCH   6   7
ATOM      7  C   UNL     1      11.282 -13.400  21.733  1.00  0.00     0.006 C 
BRANCH   7   8
ATOM      8  C   UNL     1      11.299 -12.499  20.491  1.00  0.00     0.053 C 
BRANCH   8   9
ATOM      9  C   UNL     1       9.929 -11.966  20.215  1.00  0.00     0.041 C 
ATOM     10  O   UNL     1       9.781 -10.797  19.769  1.00  0.00    -0.550 OA
ATOM     11  O   UNL     1       8.816 -12.777  20.404  1.00  0.00    -0.550 OA
ENDBRANCH   8   9
ENDBRANCH   7   8
ENDBRANCH   6   7
ENDBRANCH   5   6
ENDBRANCH   4   5
ENDBRANCH   3   4
ENDBRANCH   2   3
ENDBRANCH   1   2
BRANCH   1  12
ATOM     12  C   UNL     1      14.028 -13.501  28.564  1.00  0.00     0.000 C 
BRANCH  12  13
ATOM     13  C   UNL     1      12.506 -13.722  28.573  1.00  0.00    -0.000 C 
BRANCH  13  14
ATOM     14  C   UNL     1      11.850 -13.694  29.966  1.00  0.00    -0.000 C 
BRANCH  14  15
ATOM     15  C   UNL     1      10.364 -13.300  29.922  1.00  0.00    -0.000 C 
BRANCH  15  16
ATOM     16  C   UNL     1       9.941 -12.749  28.550  1.00  0.00    -0.000 C 
BRANCH  16  17
ATOM     17  C   UNL     1       8.600 -13.325  28.070  1.00  0.00    -0.000 C 
BRANCH  17  18
ATOM     18  C   UNL     1       8.362 -13.005  26.590  1.00  0.00    -0.000 C 
BRANCH  18  19
ATOM     19  C   UNL     1       9.515 -12.175  26.015  1.00  0.00    -0.003 C 
ATOM     20  C   UNL     1       9.020 -11.217  24.936  1.00  0.00     0.004 C 
ENDBRANCH  18  19
ENDBRANCH  17  18
ENDBRANCH  16  17
ENDBRANCH  15  16
ENDBRANCH  14  15
ENDBRANCH  13  14
ENDBRANCH  12  13
ENDBRANCH   1  12
TORSDOF 16
ENDMDL
MODEL 7
REMARK VINA RESULT:    -5.112      3.486      5.656
REMARK INTER + INTRA:         -11.848
REMARK INTER:                 -10.324
REMARK INTRA:                  -1.524
REMARK UNBOUND:                -1.955
REMARK SMILES CCCCCCCCCCCCCCCCCC(=O)[O-]
REMARK SMILES IDX 10 1 11 2 12 3 13 4 14 5 15 6 16 7 17 8 18 9 19 10 20 11
REMARK SMILES IDX 9 12 8 13 7 14 6 15 5 16 4 17 3 18 2 19 1 20
REMARK H PARENT
REMARK Flexibility Score: inf
ROOT
ATOM      1  C   UNL     1      13.394 -12.650  23.476  1.00  0.00     0.000 C 
ENDROOT
BRANCH   1   2
ATOM      2  C   UNL     1      13.421 -12.027  24.878  1.00  0.00     0.000 C 
BRANCH   2   3
ATOM      3  C   UNL     1      14.281 -12.857  25.837  1.00  0.00     0.000 C 
BRANCH   3   4
ATOM      4  C   UNL     1      13.454 -13.340  27.037  1.00  0.00     0.000 C 
BRANCH   4   5
ATOM      5  C   UNL     1      14.267 -13.380  28.341  1.00  0.00     0.000 C 
BRANCH   5   6
ATOM      6  C   UNL     1      15.741 -12.997  28.127  1.00  0.00     0.000 C 
BRANCH   6   7
ATOM      7  C   UNL     1      16.104 -11.654  28.780  1.00  0.00     0.006 C 
BRANCH   7   8
ATOM      8  C   UNL     1      17.536 -11.629  29.334  1.00  0.00     0.053 C 
BRANCH   8   9
ATOM      9  C   UNL     1      17.828 -10.305  29.965  1.00  0.00     0.041 C 
ATOM     10  O   UNL     1      17.579  -9.238  29.344  1.00  0.00    -0.550 OA
ATOM     11  O   UNL     1      18.331 -10.248  31.260  1.00  0.00    -0.550 OA
ENDBRANCH   8   9
ENDBRANCH   7   8
ENDBRANCH   6   7
ENDBRANCH   5   6
ENDBRANCH   4   5
ENDBRANCH   3   4
ENDBRANCH   2   3
ENDBRANCH   1   2
BRANCH   1  12
ATOM     12  C   UNL     1      11.951 -12.910  23.019  1.00  0.00     0.000 C 
BRANCH  12  13
ATOM     13  C   UNL     1      10.938 -12.873  24.176  1.00  0.00    -0.000 C 
BRANCH  13  14
ATOM     14  C   UNL     1       9.744 -11.923  23.968  1.00  0.00    -0.000 C 
BRANCH  14  15
ATOM     15  C   UNL     1       9.004 -11.594  25.276  1.00  0.00    -0.000 C 
BRANCH  15  16
ATOM     16  C   UNL     1       9.556 -12.378  26.478  1.00  0.00    -0.000 C 
BRANCH  16  17
ATOM     17  C   UNL     1       8.446 -13.025  27.322  1.00  0.00    -0.000 C 
BRANCH  17  18
ATOM     18  C   UNL     1       8.911 -13.245  28.765  1.00  0.00    -0.000 C 
BRANCH  18  19
ATOM     19  C   UNL     1      10.429 -13.073  28.888  1.00  0.00    -0.003 C 
ATOM     20  C   UNL     1      10.911 -13.414  30.294  1.00  0.00     0.004 C 
ENDBRANCH  18  19
ENDBRANCH  17  18
ENDBRANCH  16  17
ENDBRANCH  15  16
ENDBRANCH  14  15
ENDBRANCH  13  14
ENDBRANCH  12  13
ENDBRANCH   1  12
TORSDOF 16
ENDMDL
MODEL 8
REMARK VINA RESULT:    -5.042      4.577      9.099
REMARK INTER + INTRA:         -11.712
REMARK INTER:                  -9.804
REMARK INTRA:                  -1.908
REMARK UNBOUND:                -1.955
REMARK SMILES CCCCCCCCCCCCCCCCCC(=O)[O-]
REMARK SMILES IDX 10 1 11 2 12 3 13 4 14 5 15 6 16 7 17 8 18 9 19 10 20 11
REMARK SMILES IDX 9 12 8 13 7 14 6 15 5 16 4 17 3 18 2 19 1 20
REMARK H PARENT
REMARK Flexibility Score: inf
ROOT
ATOM      1  C   UNL     1      19.392 -16.949  21.801  1.00  0.00     0.000 C 
ENDROOT
BRANCH   1   2
ATOM      2  C   UNL     1      18.456 -17.721  20.861  1.00  0.00     0.000 C 
BRANCH   2   3
ATOM      3  C   UNL     1      17.125 -16.984  20.678  1.00  0.00     0.000 C 
BRANCH   3   4
ATOM      4  C   UNL     1      17.342 -15.465  20.628  1.00  0.00     0.000 C 
BRANCH   4   5
ATOM      5  C   UNL     1      16.255 -14.685  21.387  1.00  0.00     0.000 C 
BRANCH   5   6
ATOM      6  C   UNL     1      16.844 -13.629  22.337  1.00  0.00     0.000 C 
BRANCH   6   7
ATOM      7  C   UNL     1      16.166 -13.630  23.717  1.00  0.00     0.006 C 
BRANCH   7   8
ATOM      8  C   UNL     1      15.801 -15.041  24.200  1.00  0.00     0.053 C 
BRANCH   8   9
ATOM      9  C   UNL     1      14.633 -14.987  25.132  1.00  0.00     0.041 C 
ATOM     10  O   UNL     1      13.517 -14.565  24.727  1.00  0.00    -0.550 OA
ATOM     11  O   UNL     1      14.763 -15.450  26.437  1.00  0.00    -0.550 OA
ENDBRANCH   8   9
ENDBRANCH   7   8
ENDBRANCH   6   7
ENDBRANCH   5   6
ENDBRANCH   4   5
ENDBRANCH   3   4
ENDBRANCH   2   3
ENDBRANCH   1   2
BRANCH   1  12
ATOM     12  C   UNL     1      19.114 -17.308  23.268  1.00  0.00     0.000 C 
BRANCH  12  13
ATOM     13  C   UNL     1      19.389 -16.143  24.235  1.00  0.00    -0.000 C 
BRANCH  13  14
ATOM     14  C   UNL     1      19.783 -14.815  23.561  1.00  0.00    -0.000 C 
BRANCH  14  15
ATOM     15  C   UNL     1      20.384 -13.798  24.545  1.00  0.00    -0.000 C 
BRANCH  15  16
ATOM     16  C   UNL     1      21.327 -12.798  23.855  1.00  0.00    -0.000 C 
BRANCH  16  17
ATOM     17  C   UNL     1      22.650 -12.613  24.615  1.00  0.00    -0.000 C 
BRANCH  17  18
ATOM     18  C   UNL     1      22.490 -12.981  26.094  1.00  0.00    -0.000 C 
BRANCH  18  19
ATOM     19  C   UNL     1      22.752 -11.769  26.995  1.00  0.00    -0.003 C 
ATOM     20  C   UNL     1      22.895 -12.187  28.455  1.00  0.00     0.004 C 
ENDBRANCH  18  19
ENDBRANCH  17  18
ENDBRANCH  16  17
ENDBRANCH  15  16
ENDBRANCH  14  15
ENDBRANCH  13  14
ENDBRANCH  12  13
ENDBRANCH   1  12
TORSDOF 16
ENDMDL
MODEL 9
REMARK VINA RESULT:    -5.032      2.214      3.903
REMARK INTER + INTRA:         -11.694
REMARK INTER:                 -10.016
REMARK INTRA:                  -1.677
REMARK UNBOUND:                -1.955
REMARK SMILES CCCCCCCCCCCCCCCCCC(=O)[O-]
REMARK SMILES IDX 10 1 11 2 12 3 13 4 14 5 15 6 16 7 17 8 18 9 19 10 20 11
REMARK SMILES IDX 9 12 8 13 7 14 6 15 5 16 4 17 3 18 2 19 1 20
REMARK H PARENT
REMARK Flexibility Score: inf
ROOT
ATOM      1  C   UNL     1      14.630 -15.079  25.333  1.00  0.00     0.000 C 
ENDROOT
BRANCH   1   2
ATOM      2  C   UNL     1      13.225 -14.786  24.793  1.00  0.00     0.000 C 
BRANCH   2   3
ATOM      3  C   UNL     1      13.132 -13.362  24.233  1.00  0.00     0.000 C 
BRANCH   3   4
ATOM      4  C   UNL     1      12.331 -12.453  25.177  1.00  0.00     0.000 C 
BRANCH   4   5
ATOM      5  C   UNL     1      10.862 -12.302  24.751  1.00  0.00     0.000 C 
BRANCH   5   6
ATOM      6  C   UNL     1      10.623 -12.745  23.298  1.00  0.00     0.000 C 
BRANCH   6   7
ATOM      7  C   UNL     1       9.862 -11.693  22.475  1.00  0.00     0.006 C 
BRANCH   7   8
ATOM      8  C   UNL     1       9.095 -12.303  21.293  1.00  0.00     0.053 C 
BRANCH   8   9
ATOM      9  C   UNL     1       9.848 -12.091  20.018  1.00  0.00     0.041 C 
ATOM     10  O   UNL     1       9.237 -12.078  18.916  1.00  0.00    -0.550 OA
ATOM     11  O   UNL     1      11.217 -11.858  20.050  1.00  0.00    -0.550 OA
ENDBRANCH   8   9
ENDBRANCH   7   8
ENDBRANCH   6   7
ENDBRANCH   5   6
ENDBRANCH   4   5
ENDBRANCH   3   4
ENDBRANCH   2   3
ENDBRANCH   1   2
BRANCH   1  12
ATOM     12  C   UNL     1      14.617 -15.186  26.866  1.00  0.00     0.000 C 
BRANCH  12  13
ATOM     13  C   UNL     1      15.280 -13.982  27.558  1.00  0.00    -0.000 C 
BRANCH  13  14
ATOM     14  C   UNL     1      14.426 -13.300  28.643  1.00  0.00    -0.000 C 
BRANCH  14  15
ATOM     15  C   UNL     1      12.942 -13.700  28.576  1.00  0.00    -0.000 C 
BRANCH  15  16
ATOM     16  C   UNL     1      12.270 -13.699  29.960  1.00  0.00    -0.000 C 
BRANCH  16  17
ATOM     17  C   UNL     1      10.787 -13.299  29.895  1.00  0.00    -0.000 C 
BRANCH  17  18
ATOM     18  C   UNL     1      10.372 -12.956  28.460  1.00  0.00    -0.000 C 
BRANCH  18  19
ATOM     19  C   UNL     1       8.896 -12.547  28.397  1.00  0.00    -0.003 C 
ATOM     20  C   UNL     1       8.172 -13.268  27.265  1.00  0.00     0.004 C 
ENDBRANCH  18  19
ENDBRANCH  17  18
ENDBRANCH  16  17
ENDBRANCH  15  16
ENDBRANCH  14  15
ENDBRANCH  13  14
ENDBRANCH  12  13
ENDBRANCH   1  12
TORSDOF 16
ENDMDL
