MODEL 1
REMARK VINA RESULT:    -2.555      0.000      0.000
REMARK INTER + INTRA:          -2.555
REMARK INTER:                  -2.555
REMARK INTRA:                   0.000
REMARK UNBOUND:                 0.000
REMARK SMILES CC(=O)[O-]
REMARK SMILES IDX 1 1 2 2 3 3 4 4
REMARK H PARENT
REMARK Flexibility Score: inf
ROOT
ATOM      1  C   UNL     1      -2.121  29.568  41.259  1.00  0.00     0.063 C 
ATOM      2  C   UNL     1      -1.060  30.565  40.938  1.00  0.00     0.038 C 
ATOM      3  O   UNL     1      -1.141  31.740  41.383  1.00  0.00    -0.550 OA
ATOM      4  O   UNL     1      -0.007  30.216  40.102  1.00  0.00    -0.550 OA
ENDROOT
TORSDOF 0
ENDMDL
MODEL 2
REMARK VINA RESULT:    -2.550      1.656      1.754
REMARK INTER + INTRA:          -2.550
REMARK INTER:                  -2.550
REMARK INTRA:                   0.000
REMARK UNBOUND:                 0.000
REMARK SMILES CC(=O)[O-]
REMARK SMILES IDX 1 1 2 2 3 3 4 4
REMARK H PARENT
REMARK Flexibility Score: inf
ROOT
ATOM      1  C   UNL     1      -0.991  30.870  43.486  1.00  0.00     0.063 C 
ATOM      2  C   UNL     1      -0.544  31.019  42.072  1.00  0.00     0.038 C 
ATOM      3  O   UNL     1      -1.192  31.748  41.277  1.00  0.00    -0.550 OA
ATOM      4  O   UNL     1       0.558  30.308  41.612  1.00  0.00    -0.550 OA
ENDROOT
TORSDOF 0
ENDMDL
MODEL 3
REMARK VINA RESULT:    -2.519     22.932     23.334
REMARK INTER + INTRA:          -2.519
REMARK INTER:                  -2.519
REMARK INTRA:                   0.000
REMARK UNBOUND:                 0.000
REMARK SMILES CC(=O)[O-]
REMARK SMILES IDX 1 1 2 2 3 3 4 4
REMARK H PARENT
REMARK Flexibility Score: inf
ROOT
ATOM      1  C   UNL     1      15.987  14.932  44.704  1.00  0.00     0.063 C 
ATOM      2  C   UNL     1      14.920  14.007  44.229  1.00  0.00     0.038 C 
ATOM      3  O   UNL     1      14.352  14.211  43.124  1.00  0.00    -0.550 OA
ATOM      4  O   UNL     1      14.510  12.947  45.029  1.00  0.00    -0.550 OA
ENDROOT
TORSDOF 0
ENDMDL
MODEL 4
REMARK VINA RESULT:    -2.519      1.608      2.080
REMARK INTER + INTRA:          -2.519
REMARK INTER:                  -2.519
REMARK INTRA:                   0.000
REMARK UNBOUND:                 0.000
REMARK SMILES CC(=O)[O-]
REMARK SMILES IDX 1 1 2 2 3 3 4 4
REMARK H PARENT
REMARK Flexibility Score: inf
ROOT
ATOM      1  C   UNL     1       0.097  29.943  40.204  1.00  0.00     0.063 C 
ATOM      2  C   UNL     1      -0.355  30.632  41.446  1.00  0.00     0.038 C 
ATOM      3  O   UNL     1      -0.073  30.151  42.574  1.00  0.00    -0.550 OA
ATOM      4  O   UNL     1      -1.136  31.778  41.361  1.00  0.00    -0.550 OA
ENDROOT
TORSDOF 0
ENDMDL
MODEL 5
REMARK VINA RESULT:    -2.515     23.222     23.517
REMARK INTER + INTRA:          -2.515
REMARK INTER:                  -2.515
REMARK INTRA:                   0.000
REMARK UNBOUND:                 0.000
REMARK SMILES CC(=O)[O-]
REMARK SMILES IDX 1 1 2 2 3 3 4 4
REMARK H PARENT
REMARK Flexibility Score: inf
ROOT
ATOM      1  C   UNL     1      14.134  13.653  47.099  1.00  0.00     0.063 C 
ATOM      2  C   UNL     1      14.976  14.744  47.669  1.00  0.00     0.038 C 
ATOM      3  O   UNL     1      14.487  15.551  48.501  1.00  0.00    -0.550 OA
ATOM      4  O   UNL     1      16.287  14.907  47.239  1.00  0.00    -0.550 OA
ENDROOT
TORSDOF 0
ENDMDL
MODEL 6
REMARK VINA RESULT:    -2.509      3.648      4.007
REMARK INTER + INTRA:          -2.509
REMARK INTER:                  -2.509
REMARK INTRA:                   0.000
REMARK UNBOUND:                 0.000
REMARK SMILES CC(=O)[O-]
REMARK SMILES IDX 1 1 2 2 3 3 4 4
REMARK H PARENT
REMARK Flexibility Score: inf
ROOT
ATOM      1  C   UNL     1      -1.338  30.979  43.975  1.00  0.00     0.063 C 
ATOM      2  C   UNL     1      -2.189  29.771  44.173  1.00  0.00     0.038 C 
ATOM      3  O   UNL     1      -2.127  29.123  45.250  1.00  0.00    -0.550 OA
ATOM      4  O   UNL     1      -3.011  29.324  43.146  1.00  0.00    -0.550 OA
ENDROOT
TORSDOF 0
ENDMDL
MODEL 7
REMARK VINA RESULT:    -2.506      4.278      4.673
REMARK INTER + INTRA:          -2.506
REMARK INTER:                  -2.506
REMARK INTRA:                   0.000
REMARK UNBOUND:                 0.000
REMARK SMILES CC(=O)[O-]
REMARK SMILES IDX 1 1 2 2 3 3 4 4
REMARK H PARENT
REMARK Flexibility Score: inf
ROOT
ATOM      1  C   UNL     1      -2.776  29.649  43.791  1.00  0.00     0.063 C 
ATOM      2  C   UNL     1      -1.924  28.855  44.722  1.00  0.00     0.038 C 
ATOM      3  O   UNL     1      -1.750  27.625  44.526  1.00  0.00    -0.550 OA
ATOM      4  O   UNL     1      -1.364  29.461  45.840  1.00  0.00    -0.550 OA
ENDROOT
TORSDOF 0
ENDMDL
MODEL 8
REMARK VINA RESULT:    -2.502      1.460      2.005
REMARK INTER + INTRA:          -2.502
REMARK INTER:                  -2.502
REMARK INTRA:                   0.000
REMARK UNBOUND:                 0.000
REMARK SMILES CC(=O)[O-]
REMARK SMILES IDX 1 1 2 2 3 3 4 4
REMARK H PARENT
REMARK Flexibility Score: inf
ROOT
ATOM      1  C   UNL     1      -1.177  31.509  41.430  1.00  0.00     0.063 C 
ATOM      2  C   UNL     1      -0.932  30.216  40.729  1.00  0.00     0.038 C 
ATOM      3  O   UNL     1       0.096  30.067  40.019  1.00  0.00    -0.550 OA
ATOM      4  O   UNL     1      -1.868  29.193  40.812  1.00  0.00    -0.550 OA
ENDROOT
TORSDOF 0
ENDMDL
MODEL 9
REMARK VINA RESULT:    -2.494     22.376     22.719
REMARK INTER + INTRA:          -2.494
REMARK INTER:                  -2.494
REMARK INTRA:                   0.000
REMARK UNBOUND:                 0.000
REMARK SMILES CC(=O)[O-]
REMARK SMILES IDX 1 1 2 2 3 3 4 4
REMARK H PARENT
REMARK Flexibility Score: inf
ROOT
ATOM      1  C   UNL     1      15.630  14.866  47.394  1.00  0.00     0.063 C 
ATOM      2  C   UNL     1      14.543  15.760  47.886  1.00  0.00     0.038 C 
ATOM      3  O   UNL     1      14.454  16.940  47.459  1.00  0.00    -0.550 OA
ATOM      4  O   UNL     1      13.658  15.310  48.857  1.00  0.00    -0.550 OA
ENDROOT
TORSDOF 0
ENDMDL
