MODEL 1
REMARK VINA RESULT:    -4.563      0.000      0.000
REMARK INTER + INTRA:          -4.999
REMARK INTER:                  -4.963
REMARK INTRA:                  -0.036
REMARK UNBOUND:                -0.036
REMARK SMILES O=C([O-])c1ccc(O)cc1
REMARK SMILES IDX 4 1 5 2 10 3 6 4 9 5 7 6 2 7 1 8 3 9 8 10
REMARK H PARENT 8 11
REMARK Flexibility Score: inf
ROOT
ATOM      1  C   UNL     1      20.412  -0.653 -19.927  1.00  0.00    -0.003 A 
ATOM      2  C   UNL     1      20.950   0.634 -19.745  1.00  0.00     0.014 A 
ATOM      3  C   UNL     1      20.535  -1.272 -21.185  1.00  0.00     0.014 A 
ATOM      4  C   UNL     1      21.597   1.286 -20.799  1.00  0.00     0.047 A 
ATOM      5  C   UNL     1      21.183  -0.616 -22.236  1.00  0.00     0.047 A 
ATOM      6  C   UNL     1      21.715   0.663 -22.048  1.00  0.00     0.115 A 
ENDROOT
BRANCH   1   7
ATOM      7  C   UNL     1      19.728  -1.341 -18.810  1.00  0.00     0.071 C 
ATOM      8  O   UNL     1      19.240  -2.492 -18.970  1.00  0.00    -0.545 OA
ATOM      9  O   UNL     1      19.614  -0.727 -17.568  1.00  0.00    -0.545 OA
ENDBRANCH   1   7
BRANCH   6  10
ATOM     10  O   UNL     1      22.357   1.304 -23.105  1.00  0.00    -0.508 OA
ATOM     11  H   UNL     1      23.071   2.005 -22.943  1.00  0.00     0.293 HD
ENDBRANCH   6  10
TORSDOF 2
ENDMDL
MODEL 2
REMARK VINA RESULT:    -4.422      0.983      4.141
REMARK INTER + INTRA:          -4.846
REMARK INTER:                  -4.816
REMARK INTRA:                  -0.030
REMARK UNBOUND:                -0.036
REMARK SMILES O=C([O-])c1ccc(O)cc1
REMARK SMILES IDX 4 1 5 2 10 3 6 4 9 5 7 6 2 7 1 8 3 9 8 10
REMARK H PARENT 8 11
REMARK Flexibility Score: inf
ROOT
ATOM      1  C   UNL     1      21.208   0.162 -21.136  1.00  0.00    -0.003 A 
ATOM      2  C   UNL     1      21.510   0.697 -19.871  1.00  0.00     0.014 A 
ATOM      3  C   UNL     1      20.266  -0.880 -21.228  1.00  0.00     0.014 A 
ATOM      4  C   UNL     1      20.884   0.202 -18.724  1.00  0.00     0.047 A 
ATOM      5  C   UNL     1      19.641  -1.373 -20.078  1.00  0.00     0.047 A 
ATOM      6  C   UNL     1      19.947  -0.836 -18.824  1.00  0.00     0.115 A 
ENDROOT
BRANCH   1   7
ATOM      7  C   UNL     1      21.872   0.688 -22.349  1.00  0.00     0.071 C 
ATOM      8  O   UNL     1      22.494  -0.085 -23.125  1.00  0.00    -0.545 OA
ATOM      9  O   UNL     1      21.819   2.045 -22.648  1.00  0.00    -0.545 OA
ENDBRANCH   1   7
BRANCH   6  10
ATOM     10  O   UNL     1      19.317  -1.337 -17.688  1.00  0.00    -0.508 OA
ATOM     11  H   UNL     1      18.314  -1.477 -17.657  1.00  0.00     0.293 HD
ENDBRANCH   6  10
TORSDOF 2
ENDMDL
MODEL 3
REMARK VINA RESULT:    -4.411      0.989      4.395
REMARK INTER + INTRA:          -4.834
REMARK INTER:                  -4.804
REMARK INTRA:                  -0.030
REMARK UNBOUND:                -0.036
REMARK SMILES O=C([O-])c1ccc(O)cc1
REMARK SMILES IDX 4 1 5 2 10 3 6 4 9 5 7 6 2 7 1 8 3 9 8 10
REMARK H PARENT 8 11
REMARK Flexibility Score: inf
ROOT
ATOM      1  C   UNL     1      21.191   0.171 -21.141  1.00  0.00    -0.003 A 
ATOM      2  C   UNL     1      20.233  -0.855 -21.240  1.00  0.00     0.014 A 
ATOM      3  C   UNL     1      21.489   0.705 -19.873  1.00  0.00     0.014 A 
ATOM      4  C   UNL     1      19.589  -1.334 -20.096  1.00  0.00     0.047 A 
ATOM      5  C   UNL     1      20.842   0.223 -18.731  1.00  0.00     0.047 A 
ATOM      6  C   UNL     1      19.891  -0.796 -18.838  1.00  0.00     0.115 A 
ENDROOT
BRANCH   1   7
ATOM      7  C   UNL     1      21.873   0.676 -22.353  1.00  0.00     0.071 C 
ATOM      8  O   UNL     1      22.477  -0.116 -23.125  1.00  0.00    -0.545 OA
ATOM      9  O   UNL     1      21.857   2.033 -22.655  1.00  0.00    -0.545 OA
ENDBRANCH   1   7
BRANCH   6  10
ATOM     10  O   UNL     1      19.254  -1.266 -17.692  1.00  0.00    -0.508 OA
ATOM     11  H   UNL     1      19.728  -1.294 -16.797  1.00  0.00     0.293 HD
ENDBRANCH   6  10
TORSDOF 2
ENDMDL
MODEL 4
REMARK VINA RESULT:    -4.291     18.105     19.943
REMARK INTER + INTRA:          -4.704
REMARK INTER:                  -4.674
REMARK INTRA:                  -0.030
REMARK UNBOUND:                -0.036
REMARK SMILES O=C([O-])c1ccc(O)cc1
REMARK SMILES IDX 4 1 5 2 10 3 6 4 9 5 7 6 2 7 1 8 3 9 8 10
REMARK H PARENT 8 11
REMARK Flexibility Score: inf
ROOT
ATOM      1  C   UNL     1       5.286   5.157  -8.932  1.00  0.00    -0.003 A 
ATOM      2  C   UNL     1       4.998   4.277  -7.873  1.00  0.00     0.014 A 
ATOM      3  C   UNL     1       6.460   4.960  -9.683  1.00  0.00     0.014 A 
ATOM      4  C   UNL     1       5.866   3.223  -7.573  1.00  0.00     0.047 A 
ATOM      5  C   UNL     1       7.325   3.904  -9.380  1.00  0.00     0.047 A 
ATOM      6  C   UNL     1       7.032   3.034  -8.326  1.00  0.00     0.115 A 
ENDROOT
BRANCH   1   7
ATOM      7  C   UNL     1       4.366   6.272  -9.248  1.00  0.00     0.071 C 
ATOM      8  O   UNL     1       3.897   6.405 -10.410  1.00  0.00    -0.545 OA
ATOM      9  O   UNL     1       4.008   7.189  -8.267  1.00  0.00    -0.545 OA
ENDBRANCH   1   7
BRANCH   6  10
ATOM     10  O   UNL     1       7.904   1.987  -8.036  1.00  0.00    -0.508 OA
ATOM     11  H   UNL     1       7.576   1.129  -7.607  1.00  0.00     0.293 HD
ENDBRANCH   6  10
TORSDOF 2
ENDMDL
MODEL 5
REMARK VINA RESULT:    -4.132     18.081     19.954
REMARK INTER + INTRA:          -4.530
REMARK INTER:                  -4.499
REMARK INTRA:                  -0.031
REMARK UNBOUND:                -0.036
REMARK SMILES O=C([O-])c1ccc(O)cc1
REMARK SMILES IDX 4 1 5 2 10 3 6 4 9 5 7 6 2 7 1 8 3 9 8 10
REMARK H PARENT 8 11
REMARK Flexibility Score: inf
ROOT
ATOM      1  C   UNL     1       5.280   5.009  -8.840  1.00  0.00    -0.003 A 
ATOM      2  C   UNL     1       6.426   4.840  -9.637  1.00  0.00     0.014 A 
ATOM      3  C   UNL     1       5.066   4.134  -7.759  1.00  0.00     0.014 A 
ATOM      4  C   UNL     1       7.338   3.818  -9.359  1.00  0.00     0.047 A 
ATOM      5  C   UNL     1       5.980   3.112  -7.484  1.00  0.00     0.047 A 
ATOM      6  C   UNL     1       7.117   2.950  -8.281  1.00  0.00     0.115 A 
ENDROOT
BRANCH   1   7
ATOM      7  C   UNL     1       4.317   6.093  -9.136  1.00  0.00     0.071 C 
ATOM      8  O   UNL     1       3.875   6.827  -8.213  1.00  0.00    -0.545 OA
ATOM      9  O   UNL     1       3.885   6.314 -10.439  1.00  0.00    -0.545 OA
ENDBRANCH   1   7
BRANCH   6  10
ATOM     10  O   UNL     1       8.019   1.928  -7.995  1.00  0.00    -0.508 OA
ATOM     11  H   UNL     1       8.946   1.910  -8.403  1.00  0.00     0.293 HD
ENDBRANCH   6  10
TORSDOF 2
ENDMDL
MODEL 6
REMARK VINA RESULT:    -4.076     17.298     18.270
REMARK INTER + INTRA:          -4.469
REMARK INTER:                  -4.442
REMARK INTRA:                  -0.027
REMARK UNBOUND:                -0.036
REMARK SMILES O=C([O-])c1ccc(O)cc1
REMARK SMILES IDX 4 1 5 2 10 3 6 4 9 5 7 6 2 7 1 8 3 9 8 10
REMARK H PARENT 8 11
REMARK Flexibility Score: inf
ROOT
ATOM      1  C   UNL     1       8.548  -7.220  -9.168  1.00  0.00    -0.003 A 
ATOM      2  C   UNL     1       9.949  -7.211  -9.045  1.00  0.00     0.014 A 
ATOM      3  C   UNL     1       7.778  -6.493  -8.241  1.00  0.00     0.014 A 
ATOM      4  C   UNL     1      10.566  -6.492  -8.017  1.00  0.00     0.047 A 
ATOM      5  C   UNL     1       8.398  -5.774  -7.214  1.00  0.00     0.047 A 
ATOM      6  C   UNL     1       9.791  -5.771  -7.098  1.00  0.00     0.115 A 
ENDROOT
BRANCH   1   7
ATOM      7  C   UNL     1       7.898  -7.982 -10.257  1.00  0.00     0.071 C 
ATOM      8  O   UNL     1       7.315  -9.072 -10.015  1.00  0.00    -0.545 OA
ATOM      9  O   UNL     1       7.922  -7.505 -11.562  1.00  0.00    -0.545 OA
ENDBRANCH   1   7
BRANCH   6  10
ATOM     10  O   UNL     1      10.395  -5.051  -6.070  1.00  0.00    -0.508 OA
ATOM     11  H   UNL     1      10.199  -4.067  -5.927  1.00  0.00     0.293 HD
ENDBRANCH   6  10
TORSDOF 2
ENDMDL
MODEL 7
REMARK VINA RESULT:    -4.044     16.591     18.091
REMARK INTER + INTRA:          -4.435
REMARK INTER:                  -4.402
REMARK INTRA:                  -0.033
REMARK UNBOUND:                -0.036
REMARK SMILES O=C([O-])c1ccc(O)cc1
REMARK SMILES IDX 4 1 5 2 10 3 6 4 9 5 7 6 2 7 1 8 3 9 8 10
REMARK H PARENT 8 11
REMARK Flexibility Score: inf
ROOT
ATOM      1  C   UNL     1       9.700  -6.204  -8.267  1.00  0.00    -0.003 A 
ATOM      2  C   UNL     1       8.931  -6.223  -7.090  1.00  0.00     0.014 A 
ATOM      3  C   UNL     1       9.164  -5.603  -9.421  1.00  0.00     0.014 A 
ATOM      4  C   UNL     1       7.655  -5.653  -7.068  1.00  0.00     0.047 A 
ATOM      5  C   UNL     1       7.887  -5.034  -9.396  1.00  0.00     0.047 A 
ATOM      6  C   UNL     1       7.129  -5.057  -8.221  1.00  0.00     0.115 A 
ENDROOT
BRANCH   1   7
ATOM      7  C   UNL     1      11.050  -6.808  -8.288  1.00  0.00     0.071 C 
ATOM      8  O   UNL     1      11.311  -7.817  -7.580  1.00  0.00    -0.545 OA
ATOM      9  O   UNL     1      12.050  -6.269  -9.089  1.00  0.00    -0.545 OA
ENDBRANCH   1   7
BRANCH   6  10
ATOM     10  O   UNL     1       5.858  -4.486  -8.211  1.00  0.00    -0.508 OA
ATOM     11  H   UNL     1       5.439  -4.113  -9.054  1.00  0.00     0.293 HD
ENDBRANCH   6  10
TORSDOF 2
ENDMDL
MODEL 8
REMARK VINA RESULT:    -3.992      1.574      2.196
REMARK INTER + INTRA:          -4.378
REMARK INTER:                  -4.350
REMARK INTRA:                  -0.028
REMARK UNBOUND:                -0.036
REMARK SMILES O=C([O-])c1ccc(O)cc1
REMARK SMILES IDX 4 1 5 2 10 3 6 4 9 5 7 6 2 7 1 8 3 9 8 10
REMARK H PARENT 8 11
REMARK Flexibility Score: inf
ROOT
ATOM      1  C   UNL     1      19.380  -0.700 -18.329  1.00  0.00    -0.003 A 
ATOM      2  C   UNL     1      20.626  -0.069 -18.157  1.00  0.00     0.014 A 
ATOM      3  C   UNL     1      18.884  -0.885 -19.633  1.00  0.00     0.014 A 
ATOM      4  C   UNL     1      21.359   0.365 -19.265  1.00  0.00     0.047 A 
ATOM      5  C   UNL     1      19.620  -0.450 -20.739  1.00  0.00     0.047 A 
ATOM      6  C   UNL     1      20.857   0.176 -20.560  1.00  0.00     0.115 A 
ENDROOT
BRANCH   1   7
ATOM      7  C   UNL     1      18.606  -1.158 -17.154  1.00  0.00     0.071 C 
ATOM      8  O   UNL     1      18.091  -0.325 -16.361  1.00  0.00    -0.545 OA
ATOM      9  O   UNL     1      18.438  -2.516 -16.908  1.00  0.00    -0.545 OA
ENDBRANCH   1   7
BRANCH   6  10
ATOM     10  O   UNL     1      21.579   0.605 -21.672  1.00  0.00    -0.508 OA
ATOM     11  H   UNL     1      21.114   0.949 -22.504  1.00  0.00     0.293 HD
ENDBRANCH   6  10
TORSDOF 2
ENDMDL
MODEL 9
REMARK VINA RESULT:    -3.905     17.982     19.346
REMARK INTER + INTRA:          -4.284
REMARK INTER:                  -4.257
REMARK INTRA:                  -0.027
REMARK UNBOUND:                -0.036
REMARK SMILES O=C([O-])c1ccc(O)cc1
REMARK SMILES IDX 4 1 5 2 10 3 6 4 9 5 7 6 2 7 1 8 3 9 8 10
REMARK H PARENT 8 11
REMARK Flexibility Score: inf
ROOT
ATOM      1  C   UNL     1       9.349  -7.519  -7.582  1.00  0.00    -0.003 A 
ATOM      2  C   UNL     1       8.222  -7.921  -6.841  1.00  0.00     0.014 A 
ATOM      3  C   UNL     1       9.915  -6.255  -7.330  1.00  0.00     0.014 A 
ATOM      4  C   UNL     1       7.675  -7.077  -5.871  1.00  0.00     0.047 A 
ATOM      5  C   UNL     1       9.365  -5.414  -6.358  1.00  0.00     0.047 A 
ATOM      6  C   UNL     1       8.245  -5.820  -5.626  1.00  0.00     0.115 A 
ENDROOT
BRANCH   1   7
ATOM      7  C   UNL     1       9.927  -8.414  -8.608  1.00  0.00     0.071 C 
ATOM      8  O   UNL     1      10.989  -9.051  -8.378  1.00  0.00    -0.545 OA
ATOM      9  O   UNL     1       9.305  -8.564  -9.843  1.00  0.00    -0.545 OA
ENDBRANCH   1   7
BRANCH   6  10
ATOM     10  O   UNL     1       7.708  -4.971  -4.662  1.00  0.00    -0.508 OA
ATOM     11  H   UNL     1       6.931  -4.355  -4.872  1.00  0.00     0.293 HD
ENDBRANCH   6  10
TORSDOF 2
ENDMDL
