MODEL 1
REMARK VINA RESULT:    -3.908      0.000      0.000
REMARK INTER + INTRA:          -6.335
REMARK INTER:                  -5.964
REMARK INTRA:                  -0.371
REMARK UNBOUND:                -0.371
REMARK SMILES CC1=CCC[C@@H](C)C(=O)C[C@H](C(C)C)C(=O)C1
REMARK SMILES IDX 8 1 9 2 6 3 7 4 5 5 4 6 3 7 2 8 1 9 10 11 11 12 15 13 16 14
REMARK SMILES IDX 17 15 12 17 13 18 14 19
REMARK H PARENT
REMARK Flexibility Score: 70.00
ROOT
ATOM      1  C   UNL     1      19.488   9.137 -24.970  1.00  0.00     0.136 C 
ATOM      2  O   UNL     1      20.605   9.183 -24.472  1.00  0.00    -0.299 OA
ENDROOT
BRANCH   1   3
ATOM      3  C   UNL     1      18.671   7.865 -24.851  1.00  0.00     0.053 C 
ATOM      4  C   UNL     1      18.896   7.004 -26.101  1.00  0.00     0.016 C 
BRANCH   3   5
ATOM      5  C   UNL     1      17.164   8.191 -24.669  1.00  0.00     0.015 C 
BRANCH   5   6
ATOM      6  C   UNL     1      16.243   7.926 -25.888  1.00  0.00     0.028 C 
BRANCH   6   7
ATOM      7  C   UNL     1      15.531   9.118 -26.490  1.00  0.00    -0.028 C 
ATOM      8  C   UNL     1      15.926   9.793 -27.592  1.00  0.00    -0.070 CG0
ATOM      9  C   UNL     1      14.946  10.761 -28.208  1.00  0.00     0.039 C 
ATOM     10  G   UNL     1      17.239   9.514 -28.294  1.00  0.00     0.000 G0
ENDBRANCH   6   7
ENDBRANCH   5   6
ENDBRANCH   3   5
ENDBRANCH   1   3
BRANCH   1  11
ATOM     11  C   UNL     1      18.912  10.378 -25.610  1.00  0.00     0.087 C 
BRANCH  11  12
ATOM     12  C   UNL     1      19.382  10.610 -27.076  1.00  0.00     0.066 C 
BRANCH  12  13
ATOM     13  C   UNL     1      18.254  10.639 -28.121  1.00  0.00     0.140 C 
ATOM     14  O   UNL     1      18.222  11.562 -28.921  1.00  0.00    -0.299 OA
BRANCH  13  15
ATOM     15  C   UNL     1      17.234   9.534 -28.311  1.00  0.00     0.106 CG0
ATOM     16  G   UNL     1      15.932   9.796 -27.581  1.00  0.00     0.000 G0
ENDBRANCH  13  15
ENDBRANCH  12  13
BRANCH  12  17
ATOM     17  C   UNL     1      20.318  11.868 -27.137  1.00  0.00    -0.006 C 
ATOM     18  C   UNL     1      20.355  12.655 -25.815  1.00  0.00     0.008 C 
ATOM     19  C   UNL     1      21.744  11.547 -27.609  1.00  0.00     0.008 C 
ENDBRANCH  12  17
ENDBRANCH  11  12
ENDBRANCH   1  11
TORSDOF 1
ENDMDL
MODEL 2
REMARK VINA RESULT:    -3.774     11.816     13.265
REMARK INTER + INTRA:          -6.131
REMARK INTER:                  -5.919
REMARK INTRA:                  -0.212
REMARK UNBOUND:                -0.371
REMARK SMILES CC1=CCC[C@@H](C)C(=O)C[C@H](C(C)C)C(=O)C1
REMARK SMILES IDX 8 1 9 2 6 3 7 4 5 5 4 6 3 7 2 8 1 9 10 11 11 12 15 13 16 14
REMARK SMILES IDX 17 15 12 17 13 18 14 19
REMARK H PARENT
REMARK Flexibility Score: 70.00
ROOT
ATOM      1  C   UNL     1       9.846  19.593 -20.178  1.00  0.00     0.136 C 
ATOM      2  O   UNL     1      10.260  20.470 -19.432  1.00  0.00    -0.299 OA
ENDROOT
BRANCH   1   3
ATOM      3  C   UNL     1      10.119  18.139 -19.842  1.00  0.00     0.053 C 
ATOM      4  C   UNL     1       9.375  17.773 -18.551  1.00  0.00     0.016 C 
BRANCH   3   5
ATOM      5  C   UNL     1      11.643  17.884 -19.692  1.00  0.00     0.015 C 
BRANCH   5   6
ATOM      6  C   UNL     1      12.471  17.825 -21.001  1.00  0.00     0.028 C 
BRANCH   6   7
ATOM      7  C   UNL     1      11.967  16.914 -22.099  1.00  0.00    -0.028 C 
ATOM      8  C   UNL     1      11.613  17.305 -23.343  1.00  0.00    -0.070 CG0
ATOM      9  C   UNL     1      11.413  16.232 -24.385  1.00  0.00     0.039 C 
ATOM     10  G   UNL     1      11.547  18.762 -23.753  1.00  0.00     0.000 G0
ENDBRANCH   6   7
ENDBRANCH   5   6
ENDBRANCH   3   5
ENDBRANCH   1   3
BRANCH   1  11
ATOM     11  C   UNL     1       8.991  19.972 -21.364  1.00  0.00     0.087 C 
BRANCH  11  12
ATOM     12  C   UNL     1       9.805  20.465 -22.597  1.00  0.00     0.066 C 
BRANCH  12  13
ATOM     13  C   UNL     1      10.153  19.373 -23.622  1.00  0.00     0.140 C 
ATOM     14  O   UNL     1       9.302  19.039 -24.432  1.00  0.00    -0.299 OA
BRANCH  13  15
ATOM     15  C   UNL     1      11.528  18.755 -23.781  1.00  0.00     0.106 CG0
ATOM     16  G   UNL     1      11.580  17.304 -23.347  1.00  0.00     0.000 G0
ENDBRANCH  13  15
ENDBRANCH  12  13
BRANCH  12  17
ATOM     17  C   UNL     1       9.094  21.711 -23.234  1.00  0.00    -0.006 C 
ATOM     18  C   UNL     1       8.671  22.761 -22.191  1.00  0.00     0.008 C 
ATOM     19  C   UNL     1       9.907  22.370 -24.358  1.00  0.00     0.008 C 
ENDBRANCH  12  17
ENDBRANCH  11  12
ENDBRANCH   1  11
TORSDOF 1
ENDMDL
MODEL 3
REMARK VINA RESULT:    -3.758      2.665      5.289
REMARK INTER + INTRA:          -6.106
REMARK INTER:                  -6.739
REMARK INTRA:                   0.632
REMARK UNBOUND:                -0.371
REMARK SMILES CC1=CCC[C@@H](C)C(=O)C[C@H](C(C)C)C(=O)C1
REMARK SMILES IDX 8 1 9 2 6 3 7 4 5 5 4 6 3 7 2 8 1 9 10 11 11 12 15 13 16 14
REMARK SMILES IDX 17 15 12 17 13 18 14 19
REMARK H PARENT
REMARK Flexibility Score: 70.00
ROOT
ATOM      1  C   UNL     1      19.630  11.354 -25.606  1.00  0.00     0.136 C 
ATOM      2  O   UNL     1      18.469  11.711 -25.458  1.00  0.00    -0.299 OA
ENDROOT
BRANCH   1   3
ATOM      3  C   UNL     1      20.684  12.382 -25.972  1.00  0.00     0.053 C 
ATOM      4  C   UNL     1      20.309  13.032 -27.310  1.00  0.00     0.016 C 
BRANCH   3   5
ATOM      5  C   UNL     1      22.090  11.728 -26.051  1.00  0.00     0.015 C 
BRANCH   5   6
ATOM      6  C   UNL     1      22.880  11.934 -27.368  1.00  0.00     0.028 C 
BRANCH   6   7
ATOM      7  C   UNL     1      22.341  11.260 -28.612  1.00  0.00    -0.028 C 
ATOM      8  C   UNL     1      21.916   9.980 -28.690  1.00  0.00    -0.070 CG0
ATOM      9  C   UNL     1      21.149   9.571 -29.922  1.00  0.00     0.039 C 
ATOM     10  G   UNL     1      22.062   9.001 -27.543  1.00  0.00     0.000 G0
ENDBRANCH   6   7
ENDBRANCH   5   6
ENDBRANCH   3   5
ENDBRANCH   1   3
BRANCH   1  11
ATOM     11  C   UNL     1      20.004   9.918 -25.328  1.00  0.00     0.087 C 
BRANCH  11  12
ATOM     12  C   UNL     1      19.575   8.925 -26.448  1.00  0.00     0.066 C 
BRANCH  12  13
ATOM     13  C   UNL     1      20.738   8.278 -27.220  1.00  0.00     0.140 C 
ATOM     14  O   UNL     1      20.582   7.159 -27.683  1.00  0.00    -0.299 OA
BRANCH  13  15
ATOM     15  C   UNL     1      22.039   8.980 -27.553  1.00  0.00     0.106 CG0
ATOM     16  G   UNL     1      21.903   9.972 -28.691  1.00  0.00     0.000 G0
ENDBRANCH  13  15
ENDBRANCH  12  13
BRANCH  12  17
ATOM     17  C   UNL     1      18.559   7.880 -25.867  1.00  0.00    -0.006 C 
ATOM     18  C   UNL     1      18.402   7.979 -24.339  1.00  0.00     0.008 C 
ATOM     19  C   UNL     1      17.183   7.920 -26.550  1.00  0.00     0.008 C 
ENDBRANCH  12  17
ENDBRANCH  11  12
ENDBRANCH   1  11
TORSDOF 1
ENDMDL
MODEL 4
REMARK VINA RESULT:    -3.653      2.855      3.988
REMARK INTER + INTRA:          -5.945
REMARK INTER:                  -6.443
REMARK INTRA:                   0.498
REMARK UNBOUND:                -0.371
REMARK SMILES CC1=CCC[C@@H](C)C(=O)C[C@H](C(C)C)C(=O)C1
REMARK SMILES IDX 8 1 9 2 6 3 7 4 5 5 4 6 3 7 2 8 1 9 10 11 11 12 15 13 16 14
REMARK SMILES IDX 17 15 12 17 13 18 14 19
REMARK H PARENT
REMARK Flexibility Score: 70.00
ROOT
ATOM      1  C   UNL     1      19.229   8.971 -25.044  1.00  0.00     0.136 C 
ATOM      2  O   UNL     1      19.936   8.511 -24.157  1.00  0.00    -0.299 OA
ENDROOT
BRANCH   1   3
ATOM      3  C   UNL     1      17.983   8.216 -25.469  1.00  0.00     0.053 C 
ATOM      4  C   UNL     1      17.382   7.510 -24.246  1.00  0.00     0.016 C 
BRANCH   3   5
ATOM      5  C   UNL     1      18.311   7.195 -26.591  1.00  0.00     0.015 C 
BRANCH   5   6
ATOM      6  C   UNL     1      18.904   7.770 -27.903  1.00  0.00     0.028 C 
BRANCH   6   7
ATOM      7  C   UNL     1      20.226   7.204 -28.373  1.00  0.00    -0.028 C 
ATOM      8  C   UNL     1      21.401   7.869 -28.397  1.00  0.00    -0.070 CG0
ATOM      9  C   UNL     1      22.657   7.064 -28.620  1.00  0.00     0.039 C 
ATOM     10  G   UNL     1      21.510   9.346 -28.075  1.00  0.00     0.000 G0
ENDBRANCH   6   7
ENDBRANCH   5   6
ENDBRANCH   3   5
ENDBRANCH   1   3
BRANCH   1  11
ATOM     11  C   UNL     1      19.559  10.323 -25.628  1.00  0.00     0.087 C 
BRANCH  11  12
ATOM     12  C   UNL     1      21.086  10.607 -25.742  1.00  0.00     0.066 C 
BRANCH  12  13
ATOM     13  C   UNL     1      21.859   9.637 -26.652  1.00  0.00     0.140 C 
ATOM     14  O   UNL     1      22.763   8.974 -26.167  1.00  0.00    -0.299 OA
BRANCH  13  15
ATOM     15  C   UNL     1      21.502   9.352 -28.097  1.00  0.00     0.106 CG0
ATOM     16  G   UNL     1      21.426   7.870 -28.409  1.00  0.00     0.000 G0
ENDBRANCH  13  15
ENDBRANCH  12  13
BRANCH  12  17
ATOM     17  C   UNL     1      21.317  12.116 -26.104  1.00  0.00    -0.006 C 
ATOM     18  C   UNL     1      22.691  12.377 -26.748  1.00  0.00     0.008 C 
ATOM     19  C   UNL     1      20.198  12.715 -26.969  1.00  0.00     0.008 C 
ENDBRANCH  12  17
ENDBRANCH  11  12
ENDBRANCH   1  11
TORSDOF 1
ENDMDL
MODEL 5
REMARK VINA RESULT:    -3.609     11.784     13.074
REMARK INTER + INTRA:          -5.879
REMARK INTER:                  -5.633
REMARK INTRA:                  -0.246
REMARK UNBOUND:                -0.371
REMARK SMILES CC1=CCC[C@@H](C)C(=O)C[C@H](C(C)C)C(=O)C1
REMARK SMILES IDX 8 1 9 2 6 3 7 4 5 5 4 6 3 7 2 8 1 9 10 11 11 12 15 13 16 14
REMARK SMILES IDX 17 15 12 17 13 18 14 19
REMARK H PARENT
REMARK Flexibility Score: 70.00
ROOT
ATOM      1  C   UNL     1      11.657  18.157 -20.158  1.00  0.00     0.136 C 
ATOM      2  O   UNL     1      11.977  17.036 -19.785  1.00  0.00    -0.299 OA
ENDROOT
BRANCH   1   3
ATOM      3  C   UNL     1      10.722  18.989 -19.301  1.00  0.00     0.053 C 
ATOM      4  C   UNL     1       9.346  18.311 -19.255  1.00  0.00     0.016 C 
BRANCH   3   5
ATOM      5  C   UNL     1      10.607  20.436 -19.852  1.00  0.00     0.015 C 
BRANCH   5   6
ATOM      6  C   UNL     1       9.346  20.761 -20.693  1.00  0.00     0.028 C 
BRANCH   6   7
ATOM      7  C   UNL     1       9.525  21.671 -21.889  1.00  0.00    -0.028 C 
ATOM      8  C   UNL     1       9.601  21.270 -23.177  1.00  0.00    -0.070 CG0
ATOM      9  C   UNL     1       9.489  22.327 -24.247  1.00  0.00     0.039 C 
ATOM     10  G   UNL     1       9.655  19.808 -23.574  1.00  0.00     0.000 G0
ENDBRANCH   6   7
ENDBRANCH   5   6
ENDBRANCH   3   5
ENDBRANCH   1   3
BRANCH   1  11
ATOM     11  C   UNL     1      12.276  18.723 -21.414  1.00  0.00     0.087 C 
BRANCH  11  12
ATOM     12  C   UNL     1      11.636  18.189 -22.729  1.00  0.00     0.066 C 
BRANCH  12  13
ATOM     13  C   UNL     1      11.074  19.274 -23.664  1.00  0.00     0.140 C 
ATOM     14  O   UNL     1      11.769  19.667 -24.588  1.00  0.00    -0.299 OA
BRANCH  13  15
ATOM     15  C   UNL     1       9.660  19.815 -23.594  1.00  0.00     0.106 CG0
ATOM     16  G   UNL     1       9.602  21.276 -23.197  1.00  0.00     0.000 G0
ENDBRANCH  13  15
ENDBRANCH  12  13
BRANCH  12  17
ATOM     17  C   UNL     1      12.635  17.212 -23.443  1.00  0.00    -0.006 C 
ATOM     18  C   UNL     1      14.093  17.404 -22.988  1.00  0.00     0.008 C 
ATOM     19  C   UNL     1      12.230  15.735 -23.332  1.00  0.00     0.008 C 
ENDBRANCH  12  17
ENDBRANCH  11  12
ENDBRANCH   1  11
TORSDOF 1
ENDMDL
MODEL 6
REMARK VINA RESULT:    -3.578      2.499      4.892
REMARK INTER + INTRA:          -5.831
REMARK INTER:                  -5.879
REMARK INTRA:                   0.048
REMARK UNBOUND:                -0.371
REMARK SMILES CC1=CCC[C@@H](C)C(=O)C[C@H](C(C)C)C(=O)C1
REMARK SMILES IDX 8 1 9 2 6 3 7 4 5 5 4 6 3 7 2 8 1 9 10 11 11 12 15 13 16 14
REMARK SMILES IDX 17 15 12 17 13 18 14 19
REMARK H PARENT
REMARK Flexibility Score: 70.00
ROOT
ATOM      1  C   UNL     1      20.373  10.544 -25.372  1.00  0.00     0.136 C 
ATOM      2  O   UNL     1      19.644  11.526 -25.425  1.00  0.00    -0.299 OA
ENDROOT
BRANCH   1   3
ATOM      3  C   UNL     1      21.877  10.735 -25.325  1.00  0.00     0.053 C 
ATOM      4  C   UNL     1      22.271  11.854 -26.298  1.00  0.00     0.016 C 
BRANCH   3   5
ATOM      5  C   UNL     1      22.613   9.413 -25.676  1.00  0.00     0.015 C 
BRANCH   5   6
ATOM      6  C   UNL     1      22.947   9.179 -27.171  1.00  0.00     0.028 C 
BRANCH   6   7
ATOM      7  C   UNL     1      22.287   8.001 -27.853  1.00  0.00    -0.028 C 
ATOM      8  C   UNL     1      21.059   8.006 -28.416  1.00  0.00    -0.070 CG0
ATOM      9  C   UNL     1      20.686   6.838 -29.295  1.00  0.00     0.039 C 
ATOM     10  G   UNL     1      20.116   9.187 -28.306  1.00  0.00     0.000 G0
ENDBRANCH   6   7
ENDBRANCH   5   6
ENDBRANCH   3   5
ENDBRANCH   1   3
BRANCH   1  11
ATOM     11  C   UNL     1      19.756   9.170 -25.257  1.00  0.00     0.087 C 
BRANCH  11  12
ATOM     12  C   UNL     1      18.497   8.966 -26.150  1.00  0.00     0.066 C 
BRANCH  12  13
ATOM     13  C   UNL     1      18.786   8.819 -27.654  1.00  0.00     0.140 C 
ATOM     14  O   UNL     1      17.875   8.484 -28.394  1.00  0.00    -0.299 OA
BRANCH  13  15
ATOM     15  C   UNL     1      20.104   9.178 -28.311  1.00  0.00     0.106 CG0
ATOM     16  G   UNL     1      21.055   8.002 -28.415  1.00  0.00     0.000 G0
ENDBRANCH  13  15
ENDBRANCH  12  13
BRANCH  12  17
ATOM     17  C   UNL     1      17.622   7.801 -25.569  1.00  0.00    -0.006 C 
ATOM     18  C   UNL     1      18.298   6.423 -25.689  1.00  0.00     0.008 C 
ATOM     19  C   UNL     1      17.157   8.046 -24.126  1.00  0.00     0.008 C 
ENDBRANCH  12  17
ENDBRANCH  11  12
ENDBRANCH   1  11
TORSDOF 1
ENDMDL
MODEL 7
REMARK VINA RESULT:    -3.572      9.309     11.002
REMARK INTER + INTRA:          -5.822
REMARK INTER:                  -5.779
REMARK INTRA:                  -0.043
REMARK UNBOUND:                -0.371
REMARK SMILES CC1=CCC[C@@H](C)C(=O)C[C@H](C(C)C)C(=O)C1
REMARK SMILES IDX 8 1 9 2 6 3 7 4 5 5 4 6 3 7 2 8 1 9 10 11 11 12 15 13 16 14
REMARK SMILES IDX 17 15 12 17 13 18 14 19
REMARK H PARENT
REMARK Flexibility Score: 70.00
ROOT
ATOM      1  C   UNL     1      12.596  17.717 -23.548  1.00  0.00     0.136 C 
ATOM      2  O   UNL     1      12.180  18.725 -24.102  1.00  0.00    -0.299 OA
ENDROOT
BRANCH   1   3
ATOM      3  C   UNL     1      13.746  16.946 -24.170  1.00  0.00     0.053 C 
ATOM      4  C   UNL     1      14.014  17.493 -25.578  1.00  0.00     0.016 C 
BRANCH   3   5
ATOM      5  C   UNL     1      13.429  15.426 -24.219  1.00  0.00     0.015 C 
BRANCH   5   6
ATOM      6  C   UNL     1      12.260  14.989 -25.138  1.00  0.00     0.028 C 
BRANCH   6   7
ATOM      7  C   UNL     1      11.190  14.111 -24.527  1.00  0.00    -0.028 C 
ATOM      8  C   UNL     1       9.988  14.534 -24.079  1.00  0.00    -0.070 CG0
ATOM      9  C   UNL     1       8.946  13.487 -23.773  1.00  0.00     0.039 C 
ATOM     10  G   UNL     1       9.614  16.001 -24.006  1.00  0.00     0.000 G0
ENDBRANCH   6   7
ENDBRANCH   5   6
ENDBRANCH   3   5
ENDBRANCH   1   3
BRANCH   1  11
ATOM     11  C   UNL     1      12.020  17.316 -22.212  1.00  0.00     0.087 C 
BRANCH  11  12
ATOM     12  C   UNL     1      10.506  17.643 -22.052  1.00  0.00     0.066 C 
BRANCH  12  13
ATOM     13  C   UNL     1       9.550  16.565 -22.593  1.00  0.00     0.140 C 
ATOM     14  O   UNL     1       8.629  16.191 -21.884  1.00  0.00    -0.299 OA
BRANCH  13  15
ATOM     15  C   UNL     1       9.597  16.011 -24.003  1.00  0.00     0.106 CG0
ATOM     16  G   UNL     1       9.984  14.546 -24.053  1.00  0.00     0.000 G0
ENDBRANCH  13  15
ENDBRANCH  12  13
BRANCH  12  17
ATOM     17  C   UNL     1      10.207  18.048 -20.566  1.00  0.00    -0.006 C 
ATOM     18  C   UNL     1      11.358  17.700 -19.604  1.00  0.00     0.008 C 
ATOM     19  C   UNL     1       9.800  19.519 -20.403  1.00  0.00     0.008 C 
ENDBRANCH  12  17
ENDBRANCH  11  12
ENDBRANCH   1  11
TORSDOF 1
ENDMDL
MODEL 8
REMARK VINA RESULT:    -3.556     14.683     16.675
REMARK INTER + INTRA:          -5.798
REMARK INTER:                  -5.546
REMARK INTRA:                  -0.252
REMARK UNBOUND:                -0.371
REMARK SMILES CC1=CCC[C@@H](C)C(=O)C[C@H](C(C)C)C(=O)C1
REMARK SMILES IDX 8 1 9 2 6 3 7 4 5 5 4 6 3 7 2 8 1 9 10 11 11 12 15 13 16 14
REMARK SMILES IDX 17 15 12 17 13 18 14 19
REMARK H PARENT
REMARK Flexibility Score: 70.00
ROOT
ATOM      1  C   UNL     1       5.658  21.040 -22.122  1.00  0.00     0.136 C 
ATOM      2  O   UNL     1       4.880  21.017 -21.178  1.00  0.00    -0.299 OA
ENDROOT
BRANCH   1   3
ATOM      3  C   UNL     1       6.611  19.879 -22.330  1.00  0.00     0.053 C 
ATOM      4  C   UNL     1       5.893  18.570 -21.974  1.00  0.00     0.016 C 
BRANCH   3   5
ATOM      5  C   UNL     1       7.894  20.056 -21.474  1.00  0.00     0.015 C 
BRANCH   5   6
ATOM      6  C   UNL     1       9.231  20.197 -22.245  1.00  0.00     0.028 C 
BRANCH   6   7
ATOM      7  C   UNL     1       9.225  19.834 -23.714  1.00  0.00    -0.028 C 
ATOM      8  C   UNL     1       9.251  20.714 -24.740  1.00  0.00    -0.070 CG0
ATOM      9  C   UNL     1       9.531  20.172 -26.120  1.00  0.00     0.039 C 
ATOM     10  G   UNL     1       9.147  22.211 -24.534  1.00  0.00     0.000 G0
ENDBRANCH   6   7
ENDBRANCH   5   6
ENDBRANCH   3   5
ENDBRANCH   1   3
BRANCH   1  11
ATOM     11  C   UNL     1       5.586  22.178 -23.112  1.00  0.00     0.087 C 
BRANCH  11  12
ATOM     12  C   UNL     1       6.907  22.993 -23.235  1.00  0.00     0.066 C 
BRANCH  12  13
ATOM     13  C   UNL     1       7.716  22.725 -24.516  1.00  0.00     0.140 C 
ATOM     14  O   UNL     1       7.220  23.018 -25.593  1.00  0.00    -0.299 OA
BRANCH  13  15
ATOM     15  C   UNL     1       9.148  22.227 -24.536  1.00  0.00     0.106 CG0
ATOM     16  G   UNL     1       9.252  20.728 -24.735  1.00  0.00     0.000 G0
ENDBRANCH  13  15
ENDBRANCH  12  13
BRANCH  12  17
ATOM     17  C   UNL     1       6.614  24.515 -22.994  1.00  0.00    -0.006 C 
ATOM     18  C   UNL     1       5.171  24.914 -23.355  1.00  0.00     0.008 C 
ATOM     19  C   UNL     1       6.961  24.987 -21.574  1.00  0.00     0.008 C 
ENDBRANCH  12  17
ENDBRANCH  11  12
ENDBRANCH   1  11
TORSDOF 1
ENDMDL
MODEL 9
REMARK VINA RESULT:    -3.531     12.434     13.781
REMARK INTER + INTRA:          -5.760
REMARK INTER:                  -6.005
REMARK INTRA:                   0.246
REMARK UNBOUND:                -0.371
REMARK SMILES CC1=CCC[C@@H](C)C(=O)C[C@H](C(C)C)C(=O)C1
REMARK SMILES IDX 8 1 9 2 6 3 7 4 5 5 4 6 3 7 2 8 1 9 10 11 11 12 15 13 16 14
REMARK SMILES IDX 17 15 12 17 13 18 14 19
REMARK H PARENT
REMARK Flexibility Score: 70.00
ROOT
ATOM      1  C   UNL     1      11.090  19.851 -20.184  1.00  0.00     0.136 C 
ATOM      2  O   UNL     1      12.231  20.259 -20.358  1.00  0.00    -0.299 OA
ENDROOT
BRANCH   1   3
ATOM      3  C   UNL     1      10.846  18.719 -19.204  1.00  0.00     0.053 C 
ATOM      4  C   UNL     1      11.638  17.484 -19.656  1.00  0.00     0.016 C 
BRANCH   3   5
ATOM      5  C   UNL     1       9.331  18.395 -19.100  1.00  0.00     0.015 C 
BRANCH   5   6
ATOM      6  C   UNL     1       8.808  17.226 -19.974  1.00  0.00     0.028 C 
BRANCH   6   7
ATOM      7  C   UNL     1       7.953  17.583 -21.170  1.00  0.00    -0.028 C 
ATOM      8  C   UNL     1       8.415  17.897 -22.400  1.00  0.00    -0.070 CG0
ATOM      9  C   UNL     1       7.419  17.941 -23.532  1.00  0.00     0.039 C 
ATOM     10  G   UNL     1       9.891  18.067 -22.698  1.00  0.00     0.000 G0
ENDBRANCH   6   7
ENDBRANCH   5   6
ENDBRANCH   3   5
ENDBRANCH   1   3
BRANCH   1  11
ATOM     11  C   UNL     1       9.942  20.546 -20.875  1.00  0.00     0.087 C 
BRANCH  11  12
ATOM     12  C   UNL     1      10.157  20.753 -22.404  1.00  0.00     0.066 C 
BRANCH  12  13
ATOM     13  C   UNL     1      10.250  19.456 -23.227  1.00  0.00     0.140 C 
ATOM     14  O   UNL     1      10.727  19.510 -24.349  1.00  0.00    -0.299 OA
BRANCH  13  15
ATOM     15  C   UNL     1       9.897  18.081 -22.698  1.00  0.00     0.106 CG0
ATOM     16  G   UNL     1       8.417  17.914 -22.418  1.00  0.00     0.000 G0
ENDBRANCH  13  15
ENDBRANCH  12  13
BRANCH  12  17
ATOM     17  C   UNL     1       9.090  21.763 -22.955  1.00  0.00    -0.006 C 
ATOM     18  C   UNL     1       8.593  22.755 -21.887  1.00  0.00     0.008 C 
ATOM     19  C   UNL     1       9.552  22.516 -24.211  1.00  0.00     0.008 C 
ENDBRANCH  12  17
ENDBRANCH  11  12
ENDBRANCH   1  11
TORSDOF 1
ENDMDL
