MODEL 1
REMARK VINA RESULT:    -4.120      0.000      0.000
REMARK INTER + INTRA:          -9.889
REMARK INTER:                  -7.733
REMARK INTRA:                  -2.156
REMARK UNBOUND:                -2.156
REMARK SMILES O=C([O-])CCCCCCCCCCCCCCC(=O)[O-]
REMARK SMILES IDX 10 1 9 2 8 3 7 4 6 5 5 6 4 7 2 8 1 9 3 10 11 11 12 12 13 13
REMARK SMILES IDX 14 14 15 15 16 16 17 17 18 18 19 19 20 20
REMARK H PARENT
REMARK Flexibility Score: inf
ROOT
ATOM      1  C   UNL     1      17.374  43.334  18.731  1.00  0.00     0.000 C 
ENDROOT
BRANCH   1   2
ATOM      2  C   UNL     1      16.066  44.137  18.801  1.00  0.00     0.000 C 
BRANCH   2   3
ATOM      3  C   UNL     1      15.829  44.763  20.184  1.00  0.00     0.000 C 
BRANCH   3   4
ATOM      4  C   UNL     1      14.360  44.630  20.603  1.00  0.00     0.000 C 
BRANCH   4   5
ATOM      5  C   UNL     1      13.532  43.954  19.501  1.00  0.00     0.000 C 
BRANCH   5   6
ATOM      6  C   UNL     1      12.300  44.782  19.089  1.00  0.00     0.006 C 
BRANCH   6   7
ATOM      7  C   UNL     1      12.616  46.233  18.693  1.00  0.00     0.053 C 
BRANCH   7   8
ATOM      8  C   UNL     1      13.378  46.310  17.406  1.00  0.00     0.041 C 
ATOM      9  O   UNL     1      12.946  45.728  16.377  1.00  0.00    -0.550 OA
ATOM     10  O   UNL     1      14.551  47.051  17.337  1.00  0.00    -0.550 OA
ENDBRANCH   7   8
ENDBRANCH   6   7
ENDBRANCH   5   6
ENDBRANCH   4   5
ENDBRANCH   3   4
ENDBRANCH   2   3
ENDBRANCH   1   2
BRANCH   1  11
ATOM     11  C   UNL     1      17.308  42.022  19.527  1.00  0.00     0.000 C 
BRANCH  11  12
ATOM     12  C   UNL     1      18.559  41.843  20.395  1.00  0.00     0.000 C 
BRANCH  12  13
ATOM     13  C   UNL     1      18.342  42.423  21.801  1.00  0.00     0.000 C 
BRANCH  13  14
ATOM     14  C   UNL     1      19.014  43.793  21.985  1.00  0.00     0.000 C 
BRANCH  14  15
ATOM     15  C   UNL     1      20.247  43.973  21.083  1.00  0.00     0.000 C 
BRANCH  15  16
ATOM     16  C   UNL     1      20.169  45.243  20.216  1.00  0.00     0.006 C 
BRANCH  16  17
ATOM     17  C   UNL     1      19.029  46.199  20.600  1.00  0.00     0.053 C 
BRANCH  17  18
ATOM     18  C   UNL     1      19.444  47.635  20.505  1.00  0.00     0.041 C 
ATOM     19  O   UNL     1      20.302  48.100  21.300  1.00  0.00    -0.550 OA
ATOM     20  O   UNL     1      18.857  48.468  19.560  1.00  0.00    -0.550 OA
ENDBRANCH  17  18
ENDBRANCH  16  17
ENDBRANCH  15  16
ENDBRANCH  14  15
ENDBRANCH  13  14
ENDBRANCH  12  13
ENDBRANCH  11  12
ENDBRANCH   1  11
TORSDOF 15
ENDMDL
MODEL 2
REMARK VINA RESULT:    -4.106      2.016      6.783
REMARK INTER + INTRA:          -9.862
REMARK INTER:                  -8.463
REMARK INTRA:                  -1.399
REMARK UNBOUND:                -2.156
REMARK SMILES O=C([O-])CCCCCCCCCCCCCCC(=O)[O-]
REMARK SMILES IDX 10 1 9 2 8 3 7 4 6 5 5 6 4 7 2 8 1 9 3 10 11 11 12 12 13 13
REMARK SMILES IDX 14 14 15 15 16 16 17 17 18 18 19 19 20 20
REMARK H PARENT
REMARK Flexibility Score: inf
ROOT
ATOM      1  C   UNL     1      18.278  43.623  19.634  1.00  0.00     0.000 C 
ENDROOT
BRANCH   1   2
ATOM      2  C   UNL     1      18.523  44.728  20.674  1.00  0.00     0.000 C 
BRANCH   2   3
ATOM      3  C   UNL     1      19.986  45.194  20.710  1.00  0.00     0.000 C 
BRANCH   3   4
ATOM      4  C   UNL     1      20.090  46.700  20.442  1.00  0.00     0.000 C 
BRANCH   4   5
ATOM      5  C   UNL     1      18.724  47.383  20.598  1.00  0.00     0.000 C 
BRANCH   5   6
ATOM      6  C   UNL     1      18.581  48.640  19.719  1.00  0.00     0.006 C 
BRANCH   6   7
ATOM      7  C   UNL     1      18.605  49.964  20.500  1.00  0.00     0.053 C 
BRANCH   7   8
ATOM      8  C   UNL     1      19.998  50.374  20.866  1.00  0.00     0.041 C 
ATOM      9  O   UNL     1      20.432  50.178  22.031  1.00  0.00    -0.550 OA
ATOM     10  O   UNL     1      20.827  50.945  19.909  1.00  0.00    -0.550 OA
ENDBRANCH   7   8
ENDBRANCH   6   7
ENDBRANCH   5   6
ENDBRANCH   4   5
ENDBRANCH   3   4
ENDBRANCH   2   3
ENDBRANCH   1   2
BRANCH   1  11
ATOM     11  C   UNL     1      16.818  43.570  19.158  1.00  0.00     0.000 C 
BRANCH  11  12
ATOM     12  C   UNL     1      16.168  44.956  19.224  1.00  0.00     0.000 C 
BRANCH  12  13
ATOM     13  C   UNL     1      15.318  45.226  17.973  1.00  0.00     0.000 C 
BRANCH  13  14
ATOM     14  C   UNL     1      15.152  46.726  17.683  1.00  0.00     0.000 C 
BRANCH  14  15
ATOM     15  C   UNL     1      13.883  47.034  16.869  1.00  0.00     0.000 C 
BRANCH  15  16
ATOM     16  C   UNL     1      12.689  46.149  17.271  1.00  0.00     0.006 C 
BRANCH  16  17
ATOM     17  C   UNL     1      11.844  46.716  18.423  1.00  0.00     0.053 C 
BRANCH  17  18
ATOM     18  C   UNL     1      12.122  46.019  19.719  1.00  0.00     0.041 C 
ATOM     19  O   UNL     1      13.002  46.464  20.502  1.00  0.00    -0.550 OA
ATOM     20  O   UNL     1      11.432  44.858  20.047  1.00  0.00    -0.550 OA
ENDBRANCH  17  18
ENDBRANCH  16  17
ENDBRANCH  15  16
ENDBRANCH  14  15
ENDBRANCH  13  14
ENDBRANCH  12  13
ENDBRANCH  11  12
ENDBRANCH   1  11
TORSDOF 15
ENDMDL
MODEL 3
REMARK VINA RESULT:    -4.082      2.081      2.874
REMARK INTER + INTRA:          -9.818
REMARK INTER:                  -8.242
REMARK INTRA:                  -1.576
REMARK UNBOUND:                -2.156
REMARK SMILES O=C([O-])CCCCCCCCCCCCCCC(=O)[O-]
REMARK SMILES IDX 10 1 9 2 8 3 7 4 6 5 5 6 4 7 2 8 1 9 3 10 11 11 12 12 13 13
REMARK SMILES IDX 14 14 15 15 16 16 17 17 18 18 19 19 20 20
REMARK H PARENT
REMARK Flexibility Score: inf
ROOT
ATOM      1  C   UNL     1      15.242  43.767  19.236  1.00  0.00     0.000 C 
ENDROOT
BRANCH   1   2
ATOM      2  C   UNL     1      15.685  44.753  18.143  1.00  0.00     0.000 C 
BRANCH   2   3
ATOM      3  C   UNL     1      15.394  46.215  18.511  1.00  0.00     0.000 C 
BRANCH   3   4
ATOM      4  C   UNL     1      14.674  46.938  17.366  1.00  0.00     0.000 C 
BRANCH   4   5
ATOM      5  C   UNL     1      13.176  46.602  17.359  1.00  0.00     0.000 C 
BRANCH   5   6
ATOM      6  C   UNL     1      12.597  46.428  18.776  1.00  0.00     0.006 C 
BRANCH   6   7
ATOM      7  C   UNL     1      11.772  45.146  18.969  1.00  0.00     0.053 C 
BRANCH   7   8
ATOM      8  C   UNL     1      10.421  45.430  19.550  1.00  0.00     0.041 C 
ATOM      9  O   UNL     1       9.896  44.622  20.360  1.00  0.00    -0.550 OA
ATOM     10  O   UNL     1       9.757  46.605  19.222  1.00  0.00    -0.550 OA
ENDBRANCH   7   8
ENDBRANCH   6   7
ENDBRANCH   5   6
ENDBRANCH   4   5
ENDBRANCH   3   4
ENDBRANCH   2   3
ENDBRANCH   1   2
BRANCH   1  11
ATOM     11  C   UNL     1      16.377  43.411  20.208  1.00  0.00     0.000 C 
BRANCH  11  12
ATOM     12  C   UNL     1      17.701  43.219  19.459  1.00  0.00     0.000 C 
BRANCH  12  13
ATOM     13  C   UNL     1      18.870  43.844  20.235  1.00  0.00     0.000 C 
BRANCH  13  14
ATOM     14  C   UNL     1      18.457  45.104  21.012  1.00  0.00     0.000 C 
BRANCH  14  15
ATOM     15  C   UNL     1      19.193  46.365  20.527  1.00  0.00     0.000 C 
BRANCH  15  16
ATOM     16  C   UNL     1      18.382  47.653  20.759  1.00  0.00     0.006 C 
BRANCH  16  17
ATOM     17  C   UNL     1      18.356  48.606  19.554  1.00  0.00     0.053 C 
BRANCH  17  18
ATOM     18  C   UNL     1      19.140  49.857  19.810  1.00  0.00     0.041 C 
ATOM     19  O   UNL     1      19.658  50.059  20.940  1.00  0.00    -0.550 OA
ATOM     20  O   UNL     1      19.270  50.814  18.811  1.00  0.00    -0.550 OA
ENDBRANCH  17  18
ENDBRANCH  16  17
ENDBRANCH  15  16
ENDBRANCH  14  15
ENDBRANCH  13  14
ENDBRANCH  12  13
ENDBRANCH  11  12
ENDBRANCH   1  11
TORSDOF 15
ENDMDL
MODEL 4
REMARK VINA RESULT:    -4.002      1.697      6.354
REMARK INTER + INTRA:          -9.667
REMARK INTER:                  -7.879
REMARK INTRA:                  -1.788
REMARK UNBOUND:                -2.156
REMARK SMILES O=C([O-])CCCCCCCCCCCCCCC(=O)[O-]
REMARK SMILES IDX 10 1 9 2 8 3 7 4 6 5 5 6 4 7 2 8 1 9 3 10 11 11 12 12 13 13
REMARK SMILES IDX 14 14 15 15 16 16 17 17 18 18 19 19 20 20
REMARK H PARENT
REMARK Flexibility Score: inf
ROOT
ATOM      1  C   UNL     1      17.962  42.240  21.181  1.00  0.00     0.000 C 
ENDROOT
BRANCH   1   2
ATOM      2  C   UNL     1      19.158  42.161  20.218  1.00  0.00     0.000 C 
BRANCH   2   3
ATOM      3  C   UNL     1      20.382  42.934  20.731  1.00  0.00     0.000 C 
BRANCH   3   4
ATOM      4  C   UNL     1      19.977  44.312  21.269  1.00  0.00     0.000 C 
BRANCH   4   5
ATOM      5  C   UNL     1      19.978  45.362  20.149  1.00  0.00     0.000 C 
BRANCH   5   6
ATOM      6  C   UNL     1      20.248  46.787  20.668  1.00  0.00     0.006 C 
BRANCH   6   7
ATOM      7  C   UNL     1      19.053  47.745  20.537  1.00  0.00     0.053 C 
BRANCH   7   8
ATOM      8  C   UNL     1      19.464  49.086  20.013  1.00  0.00     0.041 C 
ATOM      9  O   UNL     1      19.197  49.412  18.826  1.00  0.00    -0.550 OA
ATOM     10  O   UNL     1      20.113  49.988  20.845  1.00  0.00    -0.550 OA
ENDBRANCH   7   8
ENDBRANCH   6   7
ENDBRANCH   5   6
ENDBRANCH   4   5
ENDBRANCH   3   4
ENDBRANCH   2   3
ENDBRANCH   1   2
BRANCH   1  11
ATOM     11  C   UNL     1      16.664  42.665  20.478  1.00  0.00     0.000 C 
BRANCH  11  12
ATOM     12  C   UNL     1      16.964  43.366  19.148  1.00  0.00     0.000 C 
BRANCH  12  13
ATOM     13  C   UNL     1      16.328  44.764  19.106  1.00  0.00     0.000 C 
BRANCH  13  14
ATOM     14  C   UNL     1      16.176  45.387  20.502  1.00  0.00     0.000 C 
BRANCH  14  15
ATOM     15  C   UNL     1      14.810  46.067  20.701  1.00  0.00     0.000 C 
BRANCH  15  16
ATOM     16  C   UNL     1      13.792  45.687  19.610  1.00  0.00     0.006 C 
BRANCH  16  17
ATOM     17  C   UNL     1      12.582  44.894  20.126  1.00  0.00     0.053 C 
BRANCH  17  18
ATOM     18  C   UNL     1      11.284  45.529  19.730  1.00  0.00     0.041 C 
ATOM     19  O   UNL     1      11.214  46.775  19.563  1.00  0.00    -0.550 OA
ATOM     20  O   UNL     1      10.145  44.748  19.579  1.00  0.00    -0.550 OA
ENDBRANCH  17  18
ENDBRANCH  16  17
ENDBRANCH  15  16
ENDBRANCH  14  15
ENDBRANCH  13  14
ENDBRANCH  12  13
ENDBRANCH  11  12
ENDBRANCH   1  11
TORSDOF 15
ENDMDL
MODEL 5
REMARK VINA RESULT:    -3.946      1.440      3.112
REMARK INTER + INTRA:          -9.562
REMARK INTER:                  -7.396
REMARK INTRA:                  -2.166
REMARK UNBOUND:                -2.156
REMARK SMILES O=C([O-])CCCCCCCCCCCCCCC(=O)[O-]
REMARK SMILES IDX 10 1 9 2 8 3 7 4 6 5 5 6 4 7 2 8 1 9 3 10 11 11 12 12 13 13
REMARK SMILES IDX 14 14 15 15 16 16 17 17 18 18 19 19 20 20
REMARK H PARENT
REMARK Flexibility Score: inf
ROOT
ATOM      1  C   UNL     1      18.868  42.344  22.275  1.00  0.00     0.000 C 
ENDROOT
BRANCH   1   2
ATOM      2  C   UNL     1      18.925  41.821  20.830  1.00  0.00     0.000 C 
BRANCH   2   3
ATOM      3  C   UNL     1      17.557  41.854  20.134  1.00  0.00     0.000 C 
BRANCH   3   4
ATOM      4  C   UNL     1      16.608  42.836  20.832  1.00  0.00     0.000 C 
BRANCH   4   5
ATOM      5  C   UNL     1      15.545  43.362  19.858  1.00  0.00     0.000 C 
BRANCH   5   6
ATOM      6  C   UNL     1      16.154  44.131  18.670  1.00  0.00     0.006 C 
BRANCH   6   7
ATOM      7  C   UNL     1      15.583  45.545  18.473  1.00  0.00     0.053 C 
BRANCH   7   8
ATOM      8  C   UNL     1      14.088  45.563  18.559  1.00  0.00     0.041 C 
ATOM      9  O   UNL     1      13.512  46.234  19.455  1.00  0.00    -0.550 OA
ATOM     10  O   UNL     1      13.330  44.864  17.628  1.00  0.00    -0.550 OA
ENDBRANCH   7   8
ENDBRANCH   6   7
ENDBRANCH   5   6
ENDBRANCH   4   5
ENDBRANCH   3   4
ENDBRANCH   2   3
ENDBRANCH   1   2
BRANCH   1  11
ATOM     11  C   UNL     1      20.066  43.237  22.629  1.00  0.00     0.000 C 
BRANCH  11  12
ATOM     12  C   UNL     1      20.773  43.736  21.364  1.00  0.00     0.000 C 
BRANCH  12  13
ATOM     13  C   UNL     1      20.496  45.229  21.130  1.00  0.00     0.000 C 
BRANCH  13  14
ATOM     14  C   UNL     1      19.256  45.470  20.255  1.00  0.00     0.000 C 
BRANCH  14  15
ATOM     15  C   UNL     1      18.129  46.194  21.012  1.00  0.00     0.000 C 
BRANCH  15  16
ATOM     16  C   UNL     1      17.969  47.663  20.577  1.00  0.00     0.006 C 
BRANCH  16  17
ATOM     17  C   UNL     1      18.383  48.685  21.647  1.00  0.00     0.053 C 
BRANCH  17  18
ATOM     18  C   UNL     1      19.785  49.174  21.444  1.00  0.00     0.041 C 
ATOM     19  O   UNL     1      20.426  48.846  20.410  1.00  0.00    -0.550 OA
ATOM     20  O   UNL     1      20.394  49.962  22.411  1.00  0.00    -0.550 OA
ENDBRANCH  17  18
ENDBRANCH  16  17
ENDBRANCH  15  16
ENDBRANCH  14  15
ENDBRANCH  13  14
ENDBRANCH  12  13
ENDBRANCH  11  12
ENDBRANCH   1  11
TORSDOF 15
ENDMDL
MODEL 6
REMARK VINA RESULT:    -3.895      1.909      6.025
REMARK INTER + INTRA:          -9.467
REMARK INTER:                  -7.760
REMARK INTRA:                  -1.707
REMARK UNBOUND:                -2.156
REMARK SMILES O=C([O-])CCCCCCCCCCCCCCC(=O)[O-]
REMARK SMILES IDX 10 1 9 2 8 3 7 4 6 5 5 6 4 7 2 8 1 9 3 10 11 11 12 12 13 13
REMARK SMILES IDX 14 14 15 15 16 16 17 17 18 18 19 19 20 20
REMARK H PARENT
REMARK Flexibility Score: inf
ROOT
ATOM      1  C   UNL     1      20.114  43.477  21.849  1.00  0.00     0.000 C 
ENDROOT
BRANCH   1   2
ATOM      2  C   UNL     1      20.764  44.796  21.401  1.00  0.00     0.000 C 
BRANCH   2   3
ATOM      3  C   UNL     1      20.060  45.422  20.189  1.00  0.00     0.000 C 
BRANCH   3   4
ATOM      4  C   UNL     1      18.967  46.402  20.633  1.00  0.00     0.000 C 
BRANCH   4   5
ATOM      5  C   UNL     1      19.329  47.843  20.246  1.00  0.00     0.000 C 
BRANCH   5   6
ATOM      6  C   UNL     1      19.955  48.633  21.411  1.00  0.00     0.006 C 
BRANCH   6   7
ATOM      7  C   UNL     1      19.784  50.157  21.305  1.00  0.00     0.053 C 
BRANCH   7   8
ATOM      8  C   UNL     1      20.614  50.740  20.203  1.00  0.00     0.041 C 
ATOM      9  O   UNL     1      20.072  51.106  19.127  1.00  0.00    -0.550 OA
ATOM     10  O   UNL     1      21.981  50.907  20.377  1.00  0.00    -0.550 OA
ENDBRANCH   7   8
ENDBRANCH   6   7
ENDBRANCH   5   6
ENDBRANCH   4   5
ENDBRANCH   3   4
ENDBRANCH   2   3
ENDBRANCH   1   2
BRANCH   1  11
ATOM     11  C   UNL     1      20.268  42.358  20.809  1.00  0.00     0.000 C 
BRANCH  11  12
ATOM     12  C   UNL     1      18.902  41.901  20.286  1.00  0.00     0.000 C 
BRANCH  12  13
ATOM     13  C   UNL     1      17.761  42.562  21.076  1.00  0.00     0.000 C 
BRANCH  13  14
ATOM     14  C   UNL     1      16.585  42.979  20.179  1.00  0.00     0.000 C 
BRANCH  14  15
ATOM     15  C   UNL     1      17.042  43.724  18.913  1.00  0.00     0.000 C 
BRANCH  15  16
ATOM     16  C   UNL     1      15.922  44.576  18.288  1.00  0.00     0.006 C 
BRANCH  16  17
ATOM     17  C   UNL     1      15.620  45.876  19.049  1.00  0.00     0.053 C 
BRANCH  17  18
ATOM     18  C   UNL     1      14.217  45.906  19.574  1.00  0.00     0.041 C 
ATOM     19  O   UNL     1      13.931  45.321  20.652  1.00  0.00    -0.550 OA
ATOM     20  O   UNL     1      13.218  46.551  18.855  1.00  0.00    -0.550 OA
ENDBRANCH  17  18
ENDBRANCH  16  17
ENDBRANCH  15  16
ENDBRANCH  14  15
ENDBRANCH  13  14
ENDBRANCH  12  13
ENDBRANCH  11  12
ENDBRANCH   1  11
TORSDOF 15
ENDMDL
MODEL 7
REMARK VINA RESULT:    -3.886      1.830      6.387
REMARK INTER + INTRA:          -9.450
REMARK INTER:                  -7.587
REMARK INTRA:                  -1.863
REMARK UNBOUND:                -2.156
REMARK SMILES O=C([O-])CCCCCCCCCCCCCCC(=O)[O-]
REMARK SMILES IDX 10 1 9 2 8 3 7 4 6 5 5 6 4 7 2 8 1 9 3 10 11 11 12 12 13 13
REMARK SMILES IDX 14 14 15 15 16 16 17 17 18 18 19 19 20 20
REMARK H PARENT
REMARK Flexibility Score: inf
ROOT
ATOM      1  C   UNL     1      18.373  43.502  20.829  1.00  0.00     0.000 C 
ENDROOT
BRANCH   1   2
ATOM      2  C   UNL     1      19.843  43.843  20.535  1.00  0.00     0.000 C 
BRANCH   2   3
ATOM      3  C   UNL     1      20.016  45.246  19.935  1.00  0.00     0.000 C 
BRANCH   3   4
ATOM      4  C   UNL     1      19.795  46.330  20.997  1.00  0.00     0.000 C 
BRANCH   4   5
ATOM      5  C   UNL     1      18.701  47.314  20.559  1.00  0.00     0.000 C 
BRANCH   5   6
ATOM      6  C   UNL     1      19.244  48.455  19.676  1.00  0.00     0.006 C 
BRANCH   6   7
ATOM      7  C   UNL     1      18.819  49.861  20.129  1.00  0.00     0.053 C 
BRANCH   7   8
ATOM      8  C   UNL     1      18.879  50.013  21.617  1.00  0.00     0.041 C 
ATOM      9  O   UNL     1      19.991  50.042  22.208  1.00  0.00    -0.550 OA
ATOM     10  O   UNL     1      17.707  50.155  22.349  1.00  0.00    -0.550 OA
ENDBRANCH   7   8
ENDBRANCH   6   7
ENDBRANCH   5   6
ENDBRANCH   4   5
ENDBRANCH   3   4
ENDBRANCH   2   3
ENDBRANCH   1   2
BRANCH   1  11
ATOM     11  C   UNL     1      17.657  42.879  19.621  1.00  0.00     0.000 C 
BRANCH  11  12
ATOM     12  C   UNL     1      16.237  43.438  19.476  1.00  0.00     0.000 C 
BRANCH  12  13
ATOM     13  C   UNL     1      16.178  44.514  18.381  1.00  0.00     0.000 C 
BRANCH  13  14
ATOM     14  C   UNL     1      15.834  45.905  18.937  1.00  0.00     0.000 C 
BRANCH  14  15
ATOM     15  C   UNL     1      15.270  45.848  20.367  1.00  0.00     0.000 C 
BRANCH  15  16
ATOM     16  C   UNL     1      13.769  46.185  20.428  1.00  0.00     0.006 C 
BRANCH  16  17
ATOM     17  C   UNL     1      12.855  44.962  20.594  1.00  0.00     0.053 C 
BRANCH  17  18
ATOM     18  C   UNL     1      12.537  44.316  19.280  1.00  0.00     0.041 C 
ATOM     19  O   UNL     1      12.062  45.000  18.336  1.00  0.00    -0.550 OA
ATOM     20  O   UNL     1      12.735  42.951  19.110  1.00  0.00    -0.550 OA
ENDBRANCH  17  18
ENDBRANCH  16  17
ENDBRANCH  15  16
ENDBRANCH  14  15
ENDBRANCH  13  14
ENDBRANCH  12  13
ENDBRANCH  11  12
ENDBRANCH   1  11
TORSDOF 15
ENDMDL
MODEL 8
REMARK VINA RESULT:    -3.784      1.519      2.528
REMARK INTER + INTRA:          -9.258
REMARK INTER:                  -7.672
REMARK INTRA:                  -1.586
REMARK UNBOUND:                -2.156
REMARK SMILES O=C([O-])CCCCCCCCCCCCCCC(=O)[O-]
REMARK SMILES IDX 10 1 9 2 8 3 7 4 6 5 5 6 4 7 2 8 1 9 3 10 11 11 12 12 13 13
REMARK SMILES IDX 14 14 15 15 16 16 17 17 18 18 19 19 20 20
REMARK H PARENT
REMARK Flexibility Score: inf
ROOT
ATOM      1  C   UNL     1      17.012  43.922  19.035  1.00  0.00     0.000 C 
ENDROOT
BRANCH   1   2
ATOM      2  C   UNL     1      16.106  45.157  18.910  1.00  0.00     0.000 C 
BRANCH   2   3
ATOM      3  C   UNL     1      15.564  45.634  20.266  1.00  0.00     0.000 C 
BRANCH   3   4
ATOM      4  C   UNL     1      14.207  44.989  20.574  1.00  0.00     0.000 C 
BRANCH   4   5
ATOM      5  C   UNL     1      13.060  45.980  20.335  1.00  0.00     0.000 C 
BRANCH   5   6
ATOM      6  C   UNL     1      12.144  45.564  19.168  1.00  0.00     0.006 C 
BRANCH   6   7
ATOM      7  C   UNL     1      12.047  46.603  18.040  1.00  0.00     0.053 C 
BRANCH   7   8
ATOM      8  C   UNL     1      13.124  46.420  17.015  1.00  0.00     0.041 C 
ATOM      9  O   UNL     1      14.049  47.268  16.908  1.00  0.00    -0.550 OA
ATOM     10  O   UNL     1      13.123  45.297  16.199  1.00  0.00    -0.550 OA
ENDBRANCH   7   8
ENDBRANCH   6   7
ENDBRANCH   5   6
ENDBRANCH   4   5
ENDBRANCH   3   4
ENDBRANCH   2   3
ENDBRANCH   1   2
BRANCH   1  11
ATOM     11  C   UNL     1      17.807  43.901  20.350  1.00  0.00     0.000 C 
BRANCH  11  12
ATOM     12  C   UNL     1      19.278  44.258  20.107  1.00  0.00     0.000 C 
BRANCH  12  13
ATOM     13  C   UNL     1      19.714  45.432  20.997  1.00  0.00     0.000 C 
BRANCH  13  14
ATOM     14  C   UNL     1      19.897  46.737  20.206  1.00  0.00     0.000 C 
BRANCH  14  15
ATOM     15  C   UNL     1      18.680  47.672  20.318  1.00  0.00     0.000 C 
BRANCH  15  16
ATOM     16  C   UNL     1      18.816  48.689  21.466  1.00  0.00     0.006 C 
BRANCH  16  17
ATOM     17  C   UNL     1      19.589  49.963  21.090  1.00  0.00     0.053 C 
BRANCH  17  18
ATOM     18  C   UNL     1      19.299  50.402  19.687  1.00  0.00     0.041 C 
ATOM     19  O   UNL     1      20.173  50.273  18.790  1.00  0.00    -0.550 OA
ATOM     20  O   UNL     1      18.077  50.986  19.379  1.00  0.00    -0.550 OA
ENDBRANCH  17  18
ENDBRANCH  16  17
ENDBRANCH  15  16
ENDBRANCH  14  15
ENDBRANCH  13  14
ENDBRANCH  12  13
ENDBRANCH  11  12
ENDBRANCH   1  11
TORSDOF 15
ENDMDL
MODEL 9
REMARK VINA RESULT:    -3.775      1.408      2.572
REMARK INTER + INTRA:          -9.242
REMARK INTER:                  -7.443
REMARK INTRA:                  -1.799
REMARK UNBOUND:                -2.156
REMARK SMILES O=C([O-])CCCCCCCCCCCCCCC(=O)[O-]
REMARK SMILES IDX 10 1 9 2 8 3 7 4 6 5 5 6 4 7 2 8 1 9 3 10 11 11 12 12 13 13
REMARK SMILES IDX 14 14 15 15 16 16 17 17 18 18 19 19 20 20
REMARK H PARENT
REMARK Flexibility Score: inf
ROOT
ATOM      1  C   UNL     1      18.332  41.295  20.656  1.00  0.00     0.000 C 
ENDROOT
BRANCH   1   2
ATOM      2  C   UNL     1      17.203  41.760  19.722  1.00  0.00     0.000 C 
BRANCH   2   3
ATOM      3  C   UNL     1      17.640  42.896  18.785  1.00  0.00     0.000 C 
BRANCH   3   4
ATOM      4  C   UNL     1      16.638  44.057  18.823  1.00  0.00     0.000 C 
BRANCH   4   5
ATOM      5  C   UNL     1      16.254  44.405  20.268  1.00  0.00     0.000 C 
BRANCH   5   6
ATOM      6  C   UNL     1      14.777  44.819  20.410  1.00  0.00     0.006 C 
BRANCH   6   7
ATOM      7  C   UNL     1      13.804  43.995  19.552  1.00  0.00     0.053 C 
BRANCH   7   8
ATOM      8  C   UNL     1      12.488  44.687  19.376  1.00  0.00     0.041 C 
ATOM      9  O   UNL     1      11.688  44.785  20.344  1.00  0.00    -0.550 OA
ATOM     10  O   UNL     1      12.157  45.251  18.151  1.00  0.00    -0.550 OA
ENDBRANCH   7   8
ENDBRANCH   6   7
ENDBRANCH   5   6
ENDBRANCH   4   5
ENDBRANCH   3   4
ENDBRANCH   2   3
ENDBRANCH   1   2
BRANCH   1  11
ATOM     11  C   UNL     1      18.227  41.906  22.061  1.00  0.00     0.000 C 
BRANCH  11  12
ATOM     12  C   UNL     1      19.589  42.421  22.539  1.00  0.00     0.000 C 
BRANCH  12  13
ATOM     13  C   UNL     1      20.496  42.766  21.348  1.00  0.00     0.000 C 
BRANCH  13  14
ATOM     14  C   UNL     1      20.865  44.257  21.297  1.00  0.00     0.000 C 
BRANCH  14  15
ATOM     15  C   UNL     1      19.877  45.083  20.455  1.00  0.00     0.000 C 
BRANCH  15  16
ATOM     16  C   UNL     1      20.031  46.599  20.675  1.00  0.00     0.006 C 
BRANCH  16  17
ATOM     17  C   UNL     1      18.770  47.414  20.350  1.00  0.00     0.053 C 
BRANCH  17  18
ATOM     18  C   UNL     1      18.993  48.885  20.518  1.00  0.00     0.041 C 
ATOM     19  O   UNL     1      19.722  49.512  19.704  1.00  0.00    -0.550 OA
ATOM     20  O   UNL     1      18.424  49.558  21.592  1.00  0.00    -0.550 OA
ENDBRANCH  17  18
ENDBRANCH  16  17
ENDBRANCH  15  16
ENDBRANCH  14  15
ENDBRANCH  13  14
ENDBRANCH  12  13
ENDBRANCH  11  12
ENDBRANCH   1  11
TORSDOF 15
ENDMDL
