MODEL 1
REMARK VINA RESULT:    -2.974      0.000      0.000
REMARK INTER + INTRA:          -5.266
REMARK INTER:                  -4.017
REMARK INTRA:                  -1.250
REMARK UNBOUND:                -1.250
REMARK SMILES CC(=O)CCC=C(C)CCC=C(C)C
REMARK SMILES IDX 7 1 6 2 8 3 9 4 10 5 11 6 13 7 12 8 14 9 5 10 4 11 2 12 3 13
REMARK SMILES IDX 1 14
REMARK H PARENT
REMARK Flexibility Score: inf
ROOT
ATOM      1  C   UNL     1      80.231   2.688  67.780  1.00  0.00    -0.077 C 
ATOM      2  C   UNL     1      80.726   2.969  66.554  1.00  0.00    -0.028 C 
ATOM      3  C   UNL     1      80.993   3.169  68.988  1.00  0.00     0.039 C 
ENDROOT
BRANCH   1   4
ATOM      4  C   UNL     1      78.953   1.893  67.988  1.00  0.00     0.034 C 
BRANCH   4   5
ATOM      5  C   UNL     1      79.238   0.462  68.471  1.00  0.00     0.032 C 
BRANCH   5   6
ATOM      6  C   UNL     1      79.684  -0.435  67.342  1.00  0.00    -0.028 C 
ATOM      7  C   UNL     1      81.255  -1.689  65.931  1.00  0.00     0.039 C 
ATOM      8  C   UNL     1      80.958  -0.833  67.135  1.00  0.00    -0.080 C 
ATOM      9  C   UNL     1      82.077  -0.459  68.078  1.00  0.00     0.039 C 
ENDBRANCH   5   6
ENDBRANCH   4   5
ENDBRANCH   1   4
BRANCH   2  10
ATOM     10  C   UNL     1      80.047   2.577  65.261  1.00  0.00     0.035 C 
BRANCH  10  11
ATOM     11  C   UNL     1      79.922   3.760  64.291  1.00  0.00     0.079 C 
BRANCH  11  12
ATOM     12  C   UNL     1      78.520   4.311  64.258  1.00  0.00     0.130 C 
ATOM     13  O   UNL     1      78.272   5.291  63.573  1.00  0.00    -0.300 OA
ATOM     14  C   UNL     1      77.427   3.692  65.077  1.00  0.00     0.087 C 
ENDBRANCH  11  12
ENDBRANCH  10  11
ENDBRANCH   2  10
TORSDOF 6
ENDMDL
MODEL 2
REMARK VINA RESULT:    -2.911      2.613      4.941
REMARK INTER + INTRA:          -5.181
REMARK INTER:                  -4.414
REMARK INTRA:                  -0.768
REMARK UNBOUND:                -1.250
REMARK SMILES CC(=O)CCC=C(C)CCC=C(C)C
REMARK SMILES IDX 7 1 6 2 8 3 9 4 10 5 11 6 13 7 12 8 14 9 5 10 4 11 2 12 3 13
REMARK SMILES IDX 1 14
REMARK H PARENT
REMARK Flexibility Score: inf
ROOT
ATOM      1  C   UNL     1      79.084   4.627  62.579  1.00  0.00    -0.077 C 
ATOM      2  C   UNL     1      77.853   5.183  62.598  1.00  0.00    -0.028 C 
ATOM      3  C   UNL     1      79.648   4.181  61.253  1.00  0.00     0.039 C 
ENDROOT
BRANCH   1   4
ATOM      4  C   UNL     1      79.912   4.417  63.835  1.00  0.00     0.034 C 
BRANCH   4   5
ATOM      5  C   UNL     1      79.889   2.952  64.301  1.00  0.00     0.032 C 
BRANCH   5   6
ATOM      6  C   UNL     1      79.003   2.758  65.507  1.00  0.00    -0.028 C 
ATOM      7  C   UNL     1      78.443   2.403  67.872  1.00  0.00     0.039 C 
ATOM      8  C   UNL     1      79.450   2.645  66.777  1.00  0.00    -0.080 C 
ATOM      9  C   UNL     1      80.914   2.771  67.126  1.00  0.00     0.039 C 
ENDBRANCH   5   6
ENDBRANCH   4   5
ENDBRANCH   1   4
BRANCH   2  10
ATOM     10  C   UNL     1      77.184   5.704  63.851  1.00  0.00     0.035 C 
BRANCH  10  11
ATOM     11  C   UNL     1      77.372   7.218  64.021  1.00  0.00     0.079 C 
BRANCH  11  12
ATOM     12  C   UNL     1      76.554   7.999  63.025  1.00  0.00     0.130 C 
ATOM     13  O   UNL     1      77.081   8.885  62.372  1.00  0.00    -0.300 OA
ATOM     14  C   UNL     1      75.090   7.725  62.844  1.00  0.00     0.087 C 
ENDBRANCH  11  12
ENDBRANCH  10  11
ENDBRANCH   2  10
TORSDOF 6
ENDMDL
MODEL 3
REMARK VINA RESULT:    -2.905      8.308     10.502
REMARK INTER + INTRA:          -5.173
REMARK INTER:                  -3.679
REMARK INTRA:                  -1.494
REMARK UNBOUND:                -1.250
REMARK SMILES CC(=O)CCC=C(C)CCC=C(C)C
REMARK SMILES IDX 7 1 6 2 8 3 9 4 10 5 11 6 13 7 12 8 14 9 5 10 4 11 2 12 3 13
REMARK SMILES IDX 1 14
REMARK H PARENT
REMARK Flexibility Score: inf
ROOT
ATOM      1  C   UNL     1      81.286   4.696  55.802  1.00  0.00    -0.077 C 
ATOM      2  C   UNL     1      81.242   6.046  55.777  1.00  0.00    -0.028 C 
ATOM      3  C   UNL     1      80.078   3.931  55.323  1.00  0.00     0.039 C 
ENDROOT
BRANCH   1   4
ATOM      4  C   UNL     1      82.490   3.921  56.310  1.00  0.00     0.034 C 
BRANCH   4   5
ATOM      5  C   UNL     1      82.254   3.346  57.716  1.00  0.00     0.032 C 
BRANCH   5   6
ATOM      6  C   UNL     1      82.772   4.265  58.794  1.00  0.00    -0.028 C 
ATOM      7  C   UNL     1      82.677   6.002  60.529  1.00  0.00     0.039 C 
ATOM      8  C   UNL     1      82.004   5.107  59.521  1.00  0.00    -0.080 C 
ATOM      9  C   UNL     1      80.503   5.160  59.361  1.00  0.00     0.039 C 
ENDBRANCH   5   6
ENDBRANCH   4   5
ENDBRANCH   1   4
BRANCH   2  10
ATOM     10  C   UNL     1      82.393   6.933  56.196  1.00  0.00     0.035 C 
BRANCH  10  11
ATOM     11  C   UNL     1      81.943   8.377  56.461  1.00  0.00     0.079 C 
BRANCH  11  12
ATOM     12  C   UNL     1      81.765   8.646  57.934  1.00  0.00     0.130 C 
ATOM     13  O   UNL     1      82.747   8.795  58.644  1.00  0.00    -0.300 OA
ATOM     14  C   UNL     1      80.399   8.705  58.548  1.00  0.00     0.087 C 
ENDBRANCH  11  12
ENDBRANCH  10  11
ENDBRANCH   2  10
TORSDOF 6
ENDMDL
MODEL 4
REMARK VINA RESULT:    -2.849     18.889     20.797
REMARK INTER + INTRA:          -5.098
REMARK INTER:                  -3.788
REMARK INTRA:                  -1.311
REMARK UNBOUND:                -1.250
REMARK SMILES CC(=O)CCC=C(C)CCC=C(C)C
REMARK SMILES IDX 7 1 6 2 8 3 9 4 10 5 11 6 13 7 12 8 14 9 5 10 4 11 2 12 3 13
REMARK SMILES IDX 1 14
REMARK H PARENT
REMARK Flexibility Score: inf
ROOT
ATOM      1  C   UNL     1      64.378   4.118  51.823  1.00  0.00    -0.077 C 
ATOM      2  C   UNL     1      64.954   4.801  52.837  1.00  0.00    -0.028 C 
ATOM      3  C   UNL     1      63.867   2.726  52.096  1.00  0.00     0.039 C 
ENDROOT
BRANCH   1   4
ATOM      4  C   UNL     1      64.242   4.687  50.421  1.00  0.00     0.034 C 
BRANCH   4   5
ATOM      5  C   UNL     1      64.984   3.835  49.379  1.00  0.00     0.032 C 
BRANCH   5   6
ATOM      6  C   UNL     1      66.419   4.272  49.214  1.00  0.00    -0.028 C 
ATOM      7  C   UNL     1      68.852   4.234  49.555  1.00  0.00     0.039 C 
ATOM      8  C   UNL     1      67.480   3.646  49.769  1.00  0.00    -0.080 C 
ATOM      9  C   UNL     1      67.331   2.379  50.577  1.00  0.00     0.039 C 
ENDBRANCH   5   6
ENDBRANCH   4   5
ENDBRANCH   1   4
BRANCH   2  10
ATOM     10  C   UNL     1      65.477   6.214  52.710  1.00  0.00     0.035 C 
BRANCH  10  11
ATOM     11  C   UNL     1      66.974   6.249  52.373  1.00  0.00     0.079 C 
BRANCH  11  12
ATOM     12  C   UNL     1      67.727   7.201  53.267  1.00  0.00     0.130 C 
ATOM     13  O   UNL     1      67.749   7.010  54.472  1.00  0.00    -0.300 OA
ATOM     14  C   UNL     1      68.426   8.401  52.701  1.00  0.00     0.087 C 
ENDBRANCH  11  12
ENDBRANCH  10  11
ENDBRANCH   2  10
TORSDOF 6
ENDMDL
MODEL 5
REMARK VINA RESULT:    -2.847     18.657     20.263
REMARK INTER + INTRA:          -5.095
REMARK INTER:                  -3.733
REMARK INTRA:                  -1.362
REMARK UNBOUND:                -1.250
REMARK SMILES CC(=O)CCC=C(C)CCC=C(C)C
REMARK SMILES IDX 7 1 6 2 8 3 9 4 10 5 11 6 13 7 12 8 14 9 5 10 4 11 2 12 3 13
REMARK SMILES IDX 1 14
REMARK H PARENT
REMARK Flexibility Score: inf
ROOT
ATOM      1  C   UNL     1      71.889  -9.824  53.471  1.00  0.00    -0.077 C 
ATOM      2  C   UNL     1      70.814  -9.590  54.256  1.00  0.00    -0.028 C 
ATOM      3  C   UNL     1      73.259  -9.521  54.024  1.00  0.00     0.039 C 
ENDROOT
BRANCH   1   4
ATOM      4  C   UNL     1      71.772 -10.357  52.053  1.00  0.00     0.034 C 
BRANCH   4   5
ATOM      5  C   UNL     1      72.261  -9.338  51.012  1.00  0.00     0.032 C 
BRANCH   5   6
ATOM      6  C   UNL     1      71.187  -8.339  50.655  1.00  0.00    -0.028 C 
ATOM      7  C   UNL     1      69.976  -6.202  50.701  1.00  0.00     0.039 C 
ATOM      8  C   UNL     1      71.143  -7.066  51.105  1.00  0.00    -0.080 C 
ATOM      9  C   UNL     1      72.230  -6.488  51.980  1.00  0.00     0.039 C 
ENDBRANCH   5   6
ENDBRANCH   4   5
ENDBRANCH   1   4
BRANCH   2  10
ATOM     10  C   UNL     1      69.389  -9.880  53.840  1.00  0.00     0.035 C 
BRANCH  10  11
ATOM     11  C   UNL     1      68.633  -8.606  53.440  1.00  0.00     0.079 C 
BRANCH  11  12
ATOM     12  C   UNL     1      67.252  -8.562  54.042  1.00  0.00     0.130 C 
ATOM     13  O   UNL     1      66.304  -9.008  53.414  1.00  0.00    -0.300 OA
ATOM     14  C   UNL     1      67.016  -7.951  55.391  1.00  0.00     0.087 C 
ENDBRANCH  11  12
ENDBRANCH  10  11
ENDBRANCH   2  10
TORSDOF 6
ENDMDL
MODEL 6
REMARK VINA RESULT:    -2.846      1.504      2.110
REMARK INTER + INTRA:          -5.093
REMARK INTER:                  -3.725
REMARK INTRA:                  -1.368
REMARK UNBOUND:                -1.250
REMARK SMILES CC(=O)CCC=C(C)CCC=C(C)C
REMARK SMILES IDX 7 1 6 2 8 3 9 4 10 5 11 6 13 7 12 8 14 9 5 10 4 11 2 12 3 13
REMARK SMILES IDX 1 14
REMARK H PARENT
REMARK Flexibility Score: inf
ROOT
ATOM      1  C   UNL     1      79.384   2.359  68.174  1.00  0.00    -0.077 C 
ATOM      2  C   UNL     1      79.092   2.702  66.900  1.00  0.00    -0.028 C 
ATOM      3  C   UNL     1      78.244   2.085  69.122  1.00  0.00     0.039 C 
ENDROOT
BRANCH   1   4
ATOM      4  C   UNL     1      80.809   2.258  68.692  1.00  0.00     0.034 C 
BRANCH   4   5
ATOM      5  C   UNL     1      81.210   0.806  68.995  1.00  0.00     0.032 C 
BRANCH   5   6
ATOM      6  C   UNL     1      81.768   0.110  67.778  1.00  0.00    -0.028 C 
ATOM      7  C   UNL     1      81.801  -1.433  65.867  1.00  0.00     0.039 C 
ATOM      8  C   UNL     1      81.088  -0.782  67.024  1.00  0.00    -0.080 C 
ATOM      9  C   UNL     1      79.645  -1.128  67.300  1.00  0.00     0.039 C 
ENDBRANCH   5   6
ENDBRANCH   4   5
ENDBRANCH   1   4
BRANCH   2  10
ATOM     10  C   UNL     1      80.136   2.970  65.839  1.00  0.00     0.035 C 
BRANCH  10  11
ATOM     11  C   UNL     1      79.984   2.037  64.630  1.00  0.00     0.079 C 
BRANCH  11  12
ATOM     12  C   UNL     1      79.617   2.796  63.380  1.00  0.00     0.130 C 
ATOM     13  O   UNL     1      79.082   2.210  62.452  1.00  0.00    -0.300 OA
ATOM     14  C   UNL     1      79.927   4.257  63.245  1.00  0.00     0.087 C 
ENDBRANCH  11  12
ENDBRANCH  10  11
ENDBRANCH   2  10
TORSDOF 6
ENDMDL
MODEL 7
REMARK VINA RESULT:    -2.816     17.625     19.456
REMARK INTER + INTRA:          -5.053
REMARK INTER:                  -3.312
REMARK INTRA:                  -1.741
REMARK UNBOUND:                -1.250
REMARK SMILES CC(=O)CCC=C(C)CCC=C(C)C
REMARK SMILES IDX 7 1 6 2 8 3 9 4 10 5 11 6 13 7 12 8 14 9 5 10 4 11 2 12 3 13
REMARK SMILES IDX 1 14
REMARK H PARENT
REMARK Flexibility Score: inf
ROOT
ATOM      1  C   UNL     1      65.367   5.465  54.367  1.00  0.00    -0.077 C 
ATOM      2  C   UNL     1      66.495   5.629  55.092  1.00  0.00    -0.028 C 
ATOM      3  C   UNL     1      64.391   4.398  54.793  1.00  0.00     0.039 C 
ENDROOT
BRANCH   1   4
ATOM      4  C   UNL     1      65.053   6.295  53.134  1.00  0.00     0.034 C 
BRANCH   4   5
ATOM      5  C   UNL     1      64.863   5.421  51.884  1.00  0.00     0.032 C 
BRANCH   5   6
ATOM      6  C   UNL     1      66.136   5.302  51.082  1.00  0.00    -0.028 C 
ATOM      7  C   UNL     1      68.245   4.301  50.316  1.00  0.00     0.039 C 
ATOM      8  C   UNL     1      66.985   4.252  51.141  1.00  0.00    -0.080 C 
ATOM      9  C   UNL     1      66.698   3.037  51.991  1.00  0.00     0.039 C 
ENDBRANCH   5   6
ENDBRANCH   4   5
ENDBRANCH   1   4
BRANCH   2  10
ATOM     10  C   UNL     1      67.540   6.682  54.797  1.00  0.00     0.035 C 
BRANCH  10  11
ATOM     11  C   UNL     1      68.677   6.138  53.921  1.00  0.00     0.079 C 
BRANCH  11  12
ATOM     12  C   UNL     1      69.024   7.085  52.802  1.00  0.00     0.130 C 
ATOM     13  O   UNL     1      70.004   6.868  52.107  1.00  0.00    -0.300 OA
ATOM     14  C   UNL     1      68.199   8.311  52.544  1.00  0.00     0.087 C 
ENDBRANCH  11  12
ENDBRANCH  10  11
ENDBRANCH   2  10
TORSDOF 6
ENDMDL
MODEL 8
REMARK VINA RESULT:    -2.751      2.586      4.478
REMARK INTER + INTRA:          -4.965
REMARK INTER:                  -3.229
REMARK INTRA:                  -1.736
REMARK UNBOUND:                -1.250
REMARK SMILES CC(=O)CCC=C(C)CCC=C(C)C
REMARK SMILES IDX 7 1 6 2 8 3 9 4 10 5 11 6 13 7 12 8 14 9 5 10 4 11 2 12 3 13
REMARK SMILES IDX 1 14
REMARK H PARENT
REMARK Flexibility Score: inf
ROOT
ATOM      1  C   UNL     1      80.635   1.749  68.828  1.00  0.00    -0.077 C 
ATOM      2  C   UNL     1      81.613   0.825  68.704  1.00  0.00    -0.028 C 
ATOM      3  C   UNL     1      81.031   3.176  69.112  1.00  0.00     0.039 C 
ENDROOT
BRANCH   1   4
ATOM      4  C   UNL     1      79.160   1.407  68.712  1.00  0.00     0.034 C 
BRANCH   4   5
ATOM      5  C   UNL     1      78.508   2.075  67.491  1.00  0.00     0.032 C 
BRANCH   5   6
ATOM      6  C   UNL     1      78.825   1.341  66.211  1.00  0.00    -0.028 C 
ATOM      7  C   UNL     1      79.818   0.980  63.993  1.00  0.00     0.039 C 
ATOM      8  C   UNL     1      79.640   1.808  65.240  1.00  0.00    -0.080 C 
ATOM      9  C   UNL     1      80.381   3.117  65.378  1.00  0.00     0.039 C 
ENDBRANCH   5   6
ENDBRANCH   4   5
ENDBRANCH   1   4
BRANCH   2  10
ATOM     10  C   UNL     1      81.359  -0.632  68.387  1.00  0.00     0.035 C 
BRANCH  10  11
ATOM     11  C   UNL     1      81.707  -0.976  66.932  1.00  0.00     0.079 C 
BRANCH  11  12
ATOM     12  C   UNL     1      80.664  -1.863  66.302  1.00  0.00     0.130 C 
ATOM     13  O   UNL     1      80.836  -2.289  65.171  1.00  0.00    -0.300 OA
ATOM     14  C   UNL     1      79.399  -2.206  67.030  1.00  0.00     0.087 C 
ENDBRANCH  11  12
ENDBRANCH  10  11
ENDBRANCH   2  10
TORSDOF 6
ENDMDL
MODEL 9
REMARK VINA RESULT:    -2.737      2.826      5.672
REMARK INTER + INTRA:          -4.947
REMARK INTER:                  -3.568
REMARK INTRA:                  -1.379
REMARK UNBOUND:                -1.250
REMARK SMILES CC(=O)CCC=C(C)CCC=C(C)C
REMARK SMILES IDX 7 1 6 2 8 3 9 4 10 5 11 6 13 7 12 8 14 9 5 10 4 11 2 12 3 13
REMARK SMILES IDX 1 14
REMARK H PARENT
REMARK Flexibility Score: inf
ROOT
ATOM      1  C   UNL     1      79.751   3.441  63.657  1.00  0.00    -0.077 C 
ATOM      2  C   UNL     1      80.135   3.425  64.952  1.00  0.00    -0.028 C 
ATOM      3  C   UNL     1      80.137   4.627  62.809  1.00  0.00     0.039 C 
ENDROOT
BRANCH   1   4
ATOM      4  C   UNL     1      78.934   2.326  63.028  1.00  0.00     0.034 C 
BRANCH   4   5
ATOM      5  C   UNL     1      77.479   2.752  62.772  1.00  0.00     0.032 C 
BRANCH   5   6
ATOM      6  C   UNL     1      76.653   2.720  64.035  1.00  0.00    -0.028 C 
ATOM      7  C   UNL     1      75.496   3.616  66.008  1.00  0.00     0.039 C 
ATOM      8  C   UNL     1      76.278   3.813  64.735  1.00  0.00    -0.080 C 
ATOM      9  C   UNL     1      76.605   5.213  64.270  1.00  0.00     0.039 C 
ENDBRANCH   5   6
ENDBRANCH   4   5
ENDBRANCH   1   4
BRANCH   2  10
ATOM     10  C   UNL     1      79.846   2.285  65.903  1.00  0.00     0.035 C 
BRANCH  10  11
ATOM     11  C   UNL     1      79.016   2.737  67.112  1.00  0.00     0.079 C 
BRANCH  11  12
ATOM     12  C   UNL     1      79.689   2.387  68.415  1.00  0.00     0.130 C 
ATOM     13  O   UNL     1      79.214   1.515  69.125  1.00  0.00    -0.300 OA
ATOM     14  C   UNL     1      80.918   3.116  68.869  1.00  0.00     0.087 C 
ENDBRANCH  11  12
ENDBRANCH  10  11
ENDBRANCH   2  10
TORSDOF 6
ENDMDL
