MODEL 1
REMARK VINA RESULT:     0.000      0.000      0.000
REMARK INTER + INTRA:          -2.845
REMARK INTER:                   0.000
REMARK INTRA:                  -2.845
REMARK UNBOUND:                -2.845
REMARK SMILES CCCCCCCCCCCCCCC(=O)[O-]
REMARK SMILES IDX 9 1 10 2 11 3 12 4 13 5 14 6 15 7 16 8 17 9 8 10 7 11 6 12
REMARK SMILES IDX 5 13 4 14 3 15 2 16 1 17
REMARK H PARENT
REMARK Flexibility Score: inf
ROOT
ATOM      1  C   UNL     1      -3.471   2.842   2.904  1.00  0.00     0.000 C 
ENDROOT
BRANCH   1   2
ATOM      2  C   UNL     1      -3.358   2.155   1.535  1.00  0.00     0.000 C 
BRANCH   2   3
ATOM      3  C   UNL     1      -2.722   0.765   1.670  1.00  0.00     0.000 C 
BRANCH   3   4
ATOM      4  C   UNL     1      -1.737   0.495   0.528  1.00  0.00     0.000 C 
BRANCH   4   5
ATOM      5  C   UNL     1      -1.795   1.609  -0.527  1.00  0.00     0.006 C 
BRANCH   5   6
ATOM      6  C   UNL     1      -0.437   1.844  -1.201  1.00  0.00     0.053 C 
BRANCH   6   7
ATOM      7  C   UNL     1      -0.224   3.290  -1.532  1.00  0.00     0.041 C 
ATOM      8  O   UNL     1      -1.190   4.001  -1.912  1.00  0.00    -0.550 OA
ATOM      9  O   UNL     1       1.036   3.858  -1.388  1.00  0.00    -0.550 OA
ENDBRANCH   6   7
ENDBRANCH   5   6
ENDBRANCH   4   5
ENDBRANCH   3   4
ENDBRANCH   2   3
ENDBRANCH   1   2
BRANCH   1  10
ATOM     10  C   UNL     1      -2.823   4.237   2.923  1.00  0.00     0.000 C 
BRANCH  10  11
ATOM     11  C   UNL     1      -2.246   4.639   1.555  1.00  0.00    -0.000 C 
BRANCH  11  12
ATOM     12  C   UNL     1      -0.767   5.058   1.632  1.00  0.00    -0.000 C 
BRANCH  12  13
ATOM     13  C   UNL     1       0.083   4.275   2.651  1.00  0.00    -0.000 C 
BRANCH  13  14
ATOM     14  C   UNL     1       0.690   2.958   2.127  1.00  0.00    -0.000 C 
BRANCH  14  15
ATOM     15  C   UNL     1       0.578   1.764   3.091  1.00  0.00    -0.000 C 
BRANCH  15  16
ATOM     16  C   UNL     1      -0.111   2.130   4.413  1.00  0.00    -0.003 C 
ATOM     17  C   UNL     1      -0.938   0.962   4.944  1.00  0.00     0.004 C 
ENDBRANCH  15  16
ENDBRANCH  14  15
ENDBRANCH  13  14
ENDBRANCH  12  13
ENDBRANCH  11  12
ENDBRANCH  10  11
ENDBRANCH   1  10
TORSDOF 13
ENDMDL
MODEL 2
REMARK VINA RESULT:     0.005      3.406      6.168
REMARK INTER + INTRA:          -2.836
REMARK INTER:                   0.000
REMARK INTRA:                  -2.836
REMARK UNBOUND:                -2.845
REMARK SMILES CCCCCCCCCCCCCCC(=O)[O-]
REMARK SMILES IDX 9 1 10 2 11 3 12 4 13 5 14 6 15 7 16 8 17 9 8 10 7 11 6 12
REMARK SMILES IDX 5 13 4 14 3 15 2 16 1 17
REMARK H PARENT
REMARK Flexibility Score: inf
ROOT
ATOM      1  C   UNL     1       1.301   2.837  -1.953  1.00  0.00     0.000 C 
ENDROOT
BRANCH   1   2
ATOM      2  C   UNL     1       0.702   3.914  -2.870  1.00  0.00     0.000 C 
BRANCH   2   3
ATOM      3  C   UNL     1      -0.525   4.566  -2.220  1.00  0.00     0.000 C 
BRANCH   3   4
ATOM      4  C   UNL     1      -1.617   4.845  -3.259  1.00  0.00     0.000 C 
BRANCH   4   5
ATOM      5  C   UNL     1      -1.114   4.556  -4.680  1.00  0.00     0.006 C 
BRANCH   5   6
ATOM      6  C   UNL     1      -2.213   3.978  -5.581  1.00  0.00     0.053 C 
BRANCH   6   7
ATOM      7  C   UNL     1      -1.681   2.920  -6.499  1.00  0.00     0.041 C 
ATOM      8  O   UNL     1      -2.366   1.893  -6.746  1.00  0.00    -0.550 OA
ATOM      9  O   UNL     1      -0.442   3.085  -7.106  1.00  0.00    -0.550 OA
ENDBRANCH   6   7
ENDBRANCH   5   6
ENDBRANCH   4   5
ENDBRANCH   3   4
ENDBRANCH   2   3
ENDBRANCH   1   2
BRANCH   1  10
ATOM     10  C   UNL     1       1.427   1.470  -2.646  1.00  0.00     0.000 C 
BRANCH  10  11
ATOM     11  C   UNL     1       0.914   1.494  -4.097  1.00  0.00    -0.000 C 
BRANCH  11  12
ATOM     12  C   UNL     1      -0.107   0.381  -4.387  1.00  0.00    -0.000 C 
BRANCH  12  13
ATOM     13  C   UNL     1      -1.141   0.133  -3.271  1.00  0.00    -0.000 C 
BRANCH  13  14
ATOM     14  C   UNL     1      -2.298   1.151  -3.209  1.00  0.00    -0.000 C 
BRANCH  14  15
ATOM     15  C   UNL     1      -2.712   1.576  -1.789  1.00  0.00    -0.000 C 
BRANCH  15  16
ATOM     16  C   UNL     1      -1.766   1.038  -0.707  1.00  0.00    -0.003 C 
ATOM     17  C   UNL     1      -1.525   2.081   0.381  1.00  0.00     0.004 C 
ENDBRANCH  15  16
ENDBRANCH  14  15
ENDBRANCH  13  14
ENDBRANCH  12  13
ENDBRANCH  11  12
ENDBRANCH  10  11
ENDBRANCH   1  10
TORSDOF 13
ENDMDL
MODEL 3
REMARK VINA RESULT:     0.009      3.317      5.395
REMARK INTER + INTRA:          -2.828
REMARK INTER:                   0.000
REMARK INTRA:                  -2.828
REMARK UNBOUND:                -2.845
REMARK SMILES CCCCCCCCCCCCCCC(=O)[O-]
REMARK SMILES IDX 9 1 10 2 11 3 12 4 13 5 14 6 15 7 16 8 17 9 8 10 7 11 6 12
REMARK SMILES IDX 5 13 4 14 3 15 2 16 1 17
REMARK H PARENT
REMARK Flexibility Score: inf
ROOT
ATOM      1  C   UNL     1      -1.467   1.234  -0.726  1.00  0.00     0.000 C 
ENDROOT
BRANCH   1   2
ATOM      2  C   UNL     1      -2.729   1.720  -1.453  1.00  0.00     0.000 C 
BRANCH   2   3
ATOM      3  C   UNL     1      -3.020   3.190  -1.124  1.00  0.00     0.000 C 
BRANCH   3   4
ATOM      4  C   UNL     1      -4.519   3.419  -0.899  1.00  0.00     0.000 C 
BRANCH   4   5
ATOM      5  C   UNL     1      -5.335   2.191  -1.325  1.00  0.00     0.006 C 
BRANCH   5   6
ATOM      6  C   UNL     1      -6.487   1.891  -0.356  1.00  0.00     0.053 C 
BRANCH   6   7
ATOM      7  C   UNL     1      -6.966   0.477  -0.483  1.00  0.00     0.041 C 
ATOM      8  O   UNL     1      -6.533  -0.257  -1.409  1.00  0.00    -0.550 OA
ATOM      9  O   UNL     1      -7.866  -0.038   0.442  1.00  0.00    -0.550 OA
ENDBRANCH   6   7
ENDBRANCH   5   6
ENDBRANCH   4   5
ENDBRANCH   3   4
ENDBRANCH   2   3
ENDBRANCH   1   2
BRANCH   1  10
ATOM     10  C   UNL     1      -1.754   0.093   0.265  1.00  0.00     0.000 C 
BRANCH  10  11
ATOM     11  C   UNL     1      -3.198  -0.430   0.160  1.00  0.00    -0.000 C 
BRANCH  11  12
ATOM     12  C   UNL     1      -3.982  -0.283   1.475  1.00  0.00    -0.000 C 
BRANCH  12  13
ATOM     13  C   UNL     1      -3.397   0.733   2.477  1.00  0.00    -0.000 C 
BRANCH  13  14
ATOM     14  C   UNL     1      -4.131   2.087   2.544  1.00  0.00    -0.000 C 
BRANCH  14  15
ATOM     15  C   UNL     1      -3.211   3.320   2.594  1.00  0.00    -0.000 C 
BRANCH  15  16
ATOM     16  C   UNL     1      -1.723   2.950   2.659  1.00  0.00    -0.003 C 
ATOM     17  C   UNL     1      -0.880   3.918   1.834  1.00  0.00     0.004 C 
ENDBRANCH  15  16
ENDBRANCH  14  15
ENDBRANCH  13  14
ENDBRANCH  12  13
ENDBRANCH  11  12
ENDBRANCH  10  11
ENDBRANCH   1  10
TORSDOF 13
ENDMDL
MODEL 4
REMARK VINA RESULT:     0.010      4.825      6.711
REMARK INTER + INTRA:          -2.826
REMARK INTER:                   0.000
REMARK INTRA:                  -2.826
REMARK UNBOUND:                -2.845
REMARK SMILES CCCCCCCCCCCCCCC(=O)[O-]
REMARK SMILES IDX 9 1 10 2 11 3 12 4 13 5 14 6 15 7 16 8 17 9 8 10 7 11 6 12
REMARK SMILES IDX 5 13 4 14 3 15 2 16 1 17
REMARK H PARENT
REMARK Flexibility Score: inf
ROOT
ATOM      1  C   UNL     1       1.139   2.624  -1.170  1.00  0.00     0.000 C 
ENDROOT
BRANCH   1   2
ATOM      2  C   UNL     1       1.947   3.114  -2.381  1.00  0.00     0.000 C 
BRANCH   2   3
ATOM      3  C   UNL     1       3.370   2.542  -2.358  1.00  0.00     0.000 C 
BRANCH   3   4
ATOM      4  C   UNL     1       3.801   2.076  -3.753  1.00  0.00     0.000 C 
BRANCH   4   5
ATOM      5  C   UNL     1       2.877   2.650  -4.836  1.00  0.00     0.006 C 
BRANCH   5   6
ATOM      6  C   UNL     1       2.449   1.588  -5.858  1.00  0.00     0.053 C 
BRANCH   6   7
ATOM      7  C   UNL     1       3.628   0.876  -6.446  1.00  0.00     0.041 C 
ATOM      8  O   UNL     1       3.753  -0.369  -6.301  1.00  0.00    -0.550 OA
ATOM      9  O   UNL     1       4.572   1.581  -7.182  1.00  0.00    -0.550 OA
ENDBRANCH   6   7
ENDBRANCH   5   6
ENDBRANCH   4   5
ENDBRANCH   3   4
ENDBRANCH   2   3
ENDBRANCH   1   2
BRANCH   1  10
ATOM     10  C   UNL     1      -0.103   1.812  -1.574  1.00  0.00     0.000 C 
BRANCH  10  11
ATOM     11  C   UNL     1      -0.341   1.814  -3.094  1.00  0.00    -0.000 C 
BRANCH  11  12
ATOM     12  C   UNL     1      -0.325   0.401  -3.703  1.00  0.00    -0.000 C 
BRANCH  12  13
ATOM     13  C   UNL     1       0.388  -0.670  -2.853  1.00  0.00    -0.000 C 
BRANCH  13  14
ATOM     14  C   UNL     1       1.808  -1.044  -3.323  1.00  0.00    -0.000 C 
BRANCH  14  15
ATOM     15  C   UNL     1       2.852  -1.162  -2.199  1.00  0.00    -0.000 C 
BRANCH  15  16
ATOM     16  C   UNL     1       2.245  -0.978  -0.801  1.00  0.00    -0.003 C 
ATOM     17  C   UNL     1       3.203  -0.228   0.121  1.00  0.00     0.004 C 
ENDBRANCH  15  16
ENDBRANCH  14  15
ENDBRANCH  13  14
ENDBRANCH  12  13
ENDBRANCH  11  12
ENDBRANCH  10  11
ENDBRANCH   1  10
TORSDOF 13
ENDMDL
MODEL 5
REMARK VINA RESULT:     0.013      5.828      7.863
REMARK INTER + INTRA:          -2.821
REMARK INTER:                   0.000
REMARK INTRA:                  -2.821
REMARK UNBOUND:                -2.845
REMARK SMILES CCCCCCCCCCCCCCC(=O)[O-]
REMARK SMILES IDX 9 1 10 2 11 3 12 4 13 5 14 6 15 7 16 8 17 9 8 10 7 11 6 12
REMARK SMILES IDX 5 13 4 14 3 15 2 16 1 17
REMARK H PARENT
REMARK Flexibility Score: inf
ROOT
ATOM      1  C   UNL     1       5.089   3.167   2.440  1.00  0.00     0.000 C 
ENDROOT
BRANCH   1   2
ATOM      2  C   UNL     1       4.508   1.754   2.605  1.00  0.00     0.000 C 
BRANCH   2   3
ATOM      3  C   UNL     1       3.170   1.622   1.868  1.00  0.00     0.000 C 
BRANCH   3   4
ATOM      4  C   UNL     1       3.128   0.344   1.023  1.00  0.00     0.000 C 
BRANCH   4   5
ATOM      5  C   UNL     1       4.285  -0.596   1.387  1.00  0.00     0.006 C 
BRANCH   5   6
ATOM      6  C   UNL     1       4.552  -1.641   0.296  1.00  0.00     0.053 C 
BRANCH   6   7
ATOM      7  C   UNL     1       6.010  -1.969   0.185  1.00  0.00     0.041 C 
ATOM      8  O   UNL     1       6.682  -2.225   1.219  1.00  0.00    -0.550 OA
ATOM      9  O   UNL     1       6.618  -2.023  -1.063  1.00  0.00    -0.550 OA
ENDBRANCH   6   7
ENDBRANCH   5   6
ENDBRANCH   4   5
ENDBRANCH   3   4
ENDBRANCH   2   3
ENDBRANCH   1   2
BRANCH   1  10
ATOM     10  C   UNL     1       6.515   3.159   1.863  1.00  0.00     0.000 C 
BRANCH  10  11
ATOM     11  C   UNL     1       7.109   1.743   1.775  1.00  0.00    -0.000 C 
BRANCH  11  12
ATOM     12  C   UNL     1       7.458   1.330   0.335  1.00  0.00    -0.000 C 
BRANCH  12  13
ATOM     13  C   UNL     1       6.780   2.167  -0.768  1.00  0.00    -0.000 C 
BRANCH  13  14
ATOM     14  C   UNL     1       5.630   1.463  -1.515  1.00  0.00    -0.000 C 
BRANCH  14  15
ATOM     15  C   UNL     1       4.381   2.331  -1.750  1.00  0.00    -0.000 C 
BRANCH  15  16
ATOM     16  C   UNL     1       4.549   3.766  -1.230  1.00  0.00    -0.003 C 
ATOM     17  C   UNL     1       3.235   4.305  -0.671  1.00  0.00     0.004 C 
ENDBRANCH  15  16
ENDBRANCH  14  15
ENDBRANCH  13  14
ENDBRANCH  12  13
ENDBRANCH  11  12
ENDBRANCH  10  11
ENDBRANCH   1  10
TORSDOF 13
ENDMDL
MODEL 6
REMARK VINA RESULT:     0.014      5.862      8.096
REMARK INTER + INTRA:          -2.821
REMARK INTER:                   0.000
REMARK INTRA:                  -2.821
REMARK UNBOUND:                -2.845
REMARK SMILES CCCCCCCCCCCCCCC(=O)[O-]
REMARK SMILES IDX 9 1 10 2 11 3 12 4 13 5 14 6 15 7 16 8 17 9 8 10 7 11 6 12
REMARK SMILES IDX 5 13 4 14 3 15 2 16 1 17
REMARK H PARENT
REMARK Flexibility Score: inf
ROOT
ATOM      1  C   UNL     1       5.319   4.472  -0.373  1.00  0.00     0.000 C 
ENDROOT
BRANCH   1   2
ATOM      2  C   UNL     1       6.231   5.425   0.414  1.00  0.00     0.000 C 
BRANCH   2   3
ATOM      3  C   UNL     1       6.783   4.741   1.672  1.00  0.00     0.000 C 
BRANCH   3   4
ATOM      4  C   UNL     1       6.808   5.709   2.860  1.00  0.00     0.000 C 
BRANCH   4   5
ATOM      5  C   UNL     1       6.532   7.149   2.406  1.00  0.00     0.006 C 
BRANCH   5   6
ATOM      6  C   UNL     1       5.521   7.863   3.313  1.00  0.00     0.053 C 
BRANCH   6   7
ATOM      7  C   UNL     1       5.889   7.738   4.760  1.00  0.00     0.041 C 
ATOM      8  O   UNL     1       6.916   8.315   5.205  1.00  0.00    -0.550 OA
ATOM      9  O   UNL     1       5.079   7.010   5.624  1.00  0.00    -0.550 OA
ENDBRANCH   6   7
ENDBRANCH   5   6
ENDBRANCH   4   5
ENDBRANCH   3   4
ENDBRANCH   2   3
ENDBRANCH   1   2
BRANCH   1  10
ATOM     10  C   UNL     1       3.860   4.956  -0.425  1.00  0.00     0.000 C 
BRANCH  10  11
ATOM     11  C   UNL     1       3.702   6.410   0.054  1.00  0.00    -0.000 C 
BRANCH  11  12
ATOM     12  C   UNL     1       2.735   6.545   1.242  1.00  0.00    -0.000 C 
BRANCH  12  13
ATOM     13  C   UNL     1       2.420   5.229   1.983  1.00  0.00    -0.000 C 
BRANCH  13  14
ATOM     14  C   UNL     1       3.150   5.042   3.327  1.00  0.00    -0.000 C 
BRANCH  14  15
ATOM     15  C   UNL     1       3.762   3.646   3.543  1.00  0.00    -0.000 C 
BRANCH  15  16
ATOM     16  C   UNL     1       3.385   2.654   2.435  1.00  0.00    -0.003 C 
ATOM     17  C   UNL     1       4.571   1.766   2.065  1.00  0.00     0.004 C 
ENDBRANCH  15  16
ENDBRANCH  14  15
ENDBRANCH  13  14
ENDBRANCH  12  13
ENDBRANCH  11  12
ENDBRANCH  10  11
ENDBRANCH   1  10
TORSDOF 13
ENDMDL
MODEL 7
REMARK VINA RESULT:     0.024      7.233      9.354
REMARK INTER + INTRA:          -2.802
REMARK INTER:                   0.000
REMARK INTRA:                  -2.802
REMARK UNBOUND:                -2.845
REMARK SMILES CCCCCCCCCCCCCCC(=O)[O-]
REMARK SMILES IDX 9 1 10 2 11 3 12 4 13 5 14 6 15 7 16 8 17 9 8 10 7 11 6 12
REMARK SMILES IDX 5 13 4 14 3 15 2 16 1 17
REMARK H PARENT
REMARK Flexibility Score: inf
ROOT
ATOM      1  C   UNL     1       1.535  -4.302  -1.132  1.00  0.00     0.000 C 
ENDROOT
BRANCH   1   2
ATOM      2  C   UNL     1       0.364  -5.143  -1.664  1.00  0.00     0.000 C 
BRANCH   2   3
ATOM      3  C   UNL     1       0.860  -6.220  -2.636  1.00  0.00     0.000 C 
BRANCH   3   4
ATOM      4  C   UNL     1      -0.091  -6.367  -3.829  1.00  0.00     0.000 C 
BRANCH   4   5
ATOM      5  C   UNL     1      -1.384  -5.571  -3.606  1.00  0.00     0.006 C 
BRANCH   5   6
ATOM      6  C   UNL     1      -1.834  -4.824  -4.869  1.00  0.00     0.053 C 
BRANCH   6   7
ATOM      7  C   UNL     1      -3.080  -4.028  -4.629  1.00  0.00     0.041 C 
ATOM      8  O   UNL     1      -3.116  -3.168  -3.711  1.00  0.00    -0.550 OA
ATOM      9  O   UNL     1      -4.191  -4.214  -5.442  1.00  0.00    -0.550 OA
ENDBRANCH   6   7
ENDBRANCH   5   6
ENDBRANCH   4   5
ENDBRANCH   3   4
ENDBRANCH   2   3
ENDBRANCH   1   2
BRANCH   1  10
ATOM     10  C   UNL     1       1.478  -2.840  -1.605  1.00  0.00     0.000 C 
BRANCH  10  11
ATOM     11  C   UNL     1       0.128  -2.479  -2.249  1.00  0.00    -0.000 C 
BRANCH  11  12
ATOM     12  C   UNL     1       0.270  -2.015  -3.709  1.00  0.00    -0.000 C 
BRANCH  12  13
ATOM     13  C   UNL     1       1.633  -2.317  -4.363  1.00  0.00    -0.000 C 
BRANCH  13  14
ATOM     14  C   UNL     1       1.632  -3.475  -5.381  1.00  0.00    -0.000 C 
BRANCH  14  15
ATOM     15  C   UNL     1       2.809  -4.457  -5.246  1.00  0.00    -0.000 C 
BRANCH  15  16
ATOM     16  C   UNL     1       3.872  -3.978  -4.248  1.00  0.00    -0.003 C 
ATOM     17  C   UNL     1       4.368  -5.130  -3.378  1.00  0.00     0.004 C 
ENDBRANCH  15  16
ENDBRANCH  14  15
ENDBRANCH  13  14
ENDBRANCH  12  13
ENDBRANCH  11  12
ENDBRANCH  10  11
ENDBRANCH   1  10
TORSDOF 13
ENDMDL
MODEL 8
REMARK VINA RESULT:     0.029      4.442      6.913
REMARK INTER + INTRA:          -2.794
REMARK INTER:                   0.000
REMARK INTRA:                  -2.794
REMARK UNBOUND:                -2.845
REMARK SMILES CCCCCCCCCCCCCCC(=O)[O-]
REMARK SMILES IDX 9 1 10 2 11 3 12 4 13 5 14 6 15 7 16 8 17 9 8 10 7 11 6 12
REMARK SMILES IDX 5 13 4 14 3 15 2 16 1 17
REMARK H PARENT
REMARK Flexibility Score: inf
ROOT
ATOM      1  C   UNL     1       3.060  -2.664   3.139  1.00  0.00     0.000 C 
ENDROOT
BRANCH   1   2
ATOM      2  C   UNL     1       2.011  -3.539   3.841  1.00  0.00     0.000 C 
BRANCH   2   3
ATOM      3  C   UNL     1       1.420  -2.816   5.058  1.00  0.00     0.000 C 
BRANCH   3   4
ATOM      4  C   UNL     1       2.041  -1.425   5.230  1.00  0.00     0.000 C 
BRANCH   4   5
ATOM      5  C   UNL     1       1.087  -0.483   5.976  1.00  0.00     0.006 C 
BRANCH   5   6
ATOM      6  C   UNL     1       1.204   0.968   5.492  1.00  0.00     0.053 C 
BRANCH   6   7
ATOM      7  C   UNL     1       2.586   1.511   5.693  1.00  0.00     0.041 C 
ATOM      8  O   UNL     1       3.069   1.597   6.853  1.00  0.00    -0.550 OA
ATOM      9  O   UNL     1       3.351   1.891   4.598  1.00  0.00    -0.550 OA
ENDBRANCH   6   7
ENDBRANCH   5   6
ENDBRANCH   4   5
ENDBRANCH   3   4
ENDBRANCH   2   3
ENDBRANCH   1   2
BRANCH   1  10
ATOM     10  C   UNL     1       3.051  -2.837   1.611  1.00  0.00     0.000 C 
BRANCH  10  11
ATOM     11  C   UNL     1       2.827  -1.508   0.868  1.00  0.00    -0.000 C 
BRANCH  11  12
ATOM     12  C   UNL     1       2.811  -0.293   1.811  1.00  0.00    -0.000 C 
BRANCH  12  13
ATOM     13  C   UNL     1       1.485   0.492   1.845  1.00  0.00    -0.000 C 
BRANCH  13  14
ATOM     14  C   UNL     1       0.229  -0.324   1.480  1.00  0.00    -0.000 C 
BRANCH  14  15
ATOM     15  C   UNL     1      -0.644  -0.741   2.678  1.00  0.00    -0.000 C 
BRANCH  15  16
ATOM     16  C   UNL     1      -1.213  -2.159   2.533  1.00  0.00    -0.003 C 
ATOM     17  C   UNL     1      -0.669  -2.846   1.283  1.00  0.00     0.004 C 
ENDBRANCH  15  16
ENDBRANCH  14  15
ENDBRANCH  13  14
ENDBRANCH  12  13
ENDBRANCH  11  12
ENDBRANCH  10  11
ENDBRANCH   1  10
TORSDOF 13
ENDMDL
MODEL 9
REMARK VINA RESULT:     0.033      2.840      5.978
REMARK INTER + INTRA:          -2.787
REMARK INTER:                   0.000
REMARK INTRA:                  -2.787
REMARK UNBOUND:                -2.845
REMARK SMILES CCCCCCCCCCCCCCC(=O)[O-]
REMARK SMILES IDX 9 1 10 2 11 3 12 4 13 5 14 6 15 7 16 8 17 9 8 10 7 11 6 12
REMARK SMILES IDX 5 13 4 14 3 15 2 16 1 17
REMARK H PARENT
REMARK Flexibility Score: inf
ROOT
ATOM      1  C   UNL     1       1.936   2.469  -2.658  1.00  0.00     0.000 C 
ENDROOT
BRANCH   1   2
ATOM      2  C   UNL     1       0.671   3.167  -3.182  1.00  0.00     0.000 C 
BRANCH   2   3
ATOM      3  C   UNL     1      -0.182   3.698  -2.024  1.00  0.00     0.000 C 
BRANCH   3   4
ATOM      4  C   UNL     1      -1.623   3.187  -2.119  1.00  0.00     0.000 C 
BRANCH   4   5
ATOM      5  C   UNL     1      -2.286   3.144  -0.735  1.00  0.00     0.006 C 
BRANCH   5   6
ATOM      6  C   UNL     1      -1.327   3.571   0.383  1.00  0.00     0.053 C 
BRANCH   6   7
ATOM      7  C   UNL     1      -1.684   2.937   1.694  1.00  0.00     0.041 C 
ATOM      8  O   UNL     1      -1.360   3.494   2.775  1.00  0.00    -0.550 OA
ATOM      9  O   UNL     1      -2.402   1.748   1.719  1.00  0.00    -0.550 OA
ENDBRANCH   6   7
ENDBRANCH   5   6
ENDBRANCH   4   5
ENDBRANCH   3   4
ENDBRANCH   2   3
ENDBRANCH   1   2
BRANCH   1  10
ATOM     10  C   UNL     1       1.901   2.240  -1.138  1.00  0.00     0.000 C 
BRANCH  10  11
ATOM     11  C   UNL     1       1.835   0.749  -0.767  1.00  0.00    -0.000 C 
BRANCH  11  12
ATOM     12  C   UNL     1       0.592   0.397   0.069  1.00  0.00    -0.000 C 
BRANCH  12  13
ATOM     13  C   UNL     1      -0.603  -0.155  -0.735  1.00  0.00    -0.000 C 
BRANCH  13  14
ATOM     14  C   UNL     1      -0.235  -0.874  -2.049  1.00  0.00    -0.000 C 
BRANCH  14  15
ATOM     15  C   UNL     1      -0.843  -0.252  -3.319  1.00  0.00    -0.000 C 
BRANCH  15  16
ATOM     16  C   UNL     1       0.122  -0.277  -4.513  1.00  0.00    -0.003 C 
ATOM     17  C   UNL     1       1.449  -0.930  -4.134  1.00  0.00     0.004 C 
ENDBRANCH  15  16
ENDBRANCH  14  15
ENDBRANCH  13  14
ENDBRANCH  12  13
ENDBRANCH  11  12
ENDBRANCH  10  11
ENDBRANCH   1  10
TORSDOF 13
ENDMDL
