MODEL 1
REMARK VINA RESULT:     8.226      0.000      0.000
REMARK INTER + INTRA:          14.488
REMARK INTER:                  15.439
REMARK INTRA:                  -0.951
REMARK UNBOUND:                -0.951
REMARK SMILES O=C([O-])CCCCCCCCCCCCCCC(=O)[O-]
REMARK SMILES IDX 10 1 9 2 8 3 7 4 6 5 5 6 4 7 2 8 1 9 3 10 11 11 12 12 13 13
REMARK SMILES IDX 14 14 15 15 16 16 17 17 18 18 19 19 20 20
REMARK H PARENT
REMARK Flexibility Score: inf
ROOT
ATOM      1  C   UNL     1      15.105  35.837  48.870  1.00  0.00     0.000 C 
ENDROOT
BRANCH   1   2
ATOM      2  C   UNL     1      15.427  34.967  50.099  1.00  0.00     0.000 C 
BRANCH   2   3
ATOM      3  C   UNL     1      15.337  33.463  49.799  1.00  0.00     0.000 C 
BRANCH   3   4
ATOM      4  C   UNL     1      15.602  32.590  51.039  1.00  0.00     0.000 C 
BRANCH   4   5
ATOM      5  C   UNL     1      15.538  31.081  50.714  1.00  0.00     0.000 C 
BRANCH   5   6
ATOM      6  C   UNL     1      14.159  30.453  50.986  1.00  0.00     0.006 C 
BRANCH   6   7
ATOM      7  C   UNL     1      13.493  29.847  49.742  1.00  0.00     0.053 C 
BRANCH   7   8
ATOM      8  C   UNL     1      13.087  28.422  49.967  1.00  0.00     0.041 C 
ATOM      9  O   UNL     1      12.476  27.786  49.069  1.00  0.00    -0.550 OA
ATOM     10  O   UNL     1      13.402  27.791  51.163  1.00  0.00    -0.550 OA
ENDBRANCH   7   8
ENDBRANCH   6   7
ENDBRANCH   5   6
ENDBRANCH   4   5
ENDBRANCH   3   4
ENDBRANCH   2   3
ENDBRANCH   1   2
BRANCH   1  11
ATOM     11  C   UNL     1      13.783  35.435  48.195  1.00  0.00     0.000 C 
BRANCH  11  12
ATOM     12  C   UNL     1      13.081  36.626  47.519  1.00  0.00     0.000 C 
BRANCH  12  13
ATOM     13  C   UNL     1      13.811  37.956  47.762  1.00  0.00     0.000 C 
BRANCH  13  14
ATOM     14  C   UNL     1      13.901  38.824  46.494  1.00  0.00     0.000 C 
BRANCH  14  15
ATOM     15  C   UNL     1      15.292  39.450  46.307  1.00  0.00     0.000 C 
BRANCH  15  16
ATOM     16  C   UNL     1      16.401  38.647  47.010  1.00  0.00     0.006 C 
BRANCH  16  17
ATOM     17  C   UNL     1      17.483  38.174  46.031  1.00  0.00     0.053 C 
BRANCH  17  18
ATOM     18  C   UNL     1      18.850  38.239  46.639  1.00  0.00     0.041 C 
ATOM     19  O   UNL     1      19.318  39.340  47.030  1.00  0.00    -0.550 OA
ATOM     20  O   UNL     1      19.622  37.087  46.741  1.00  0.00    -0.550 OA
ENDBRANCH  17  18
ENDBRANCH  16  17
ENDBRANCH  15  16
ENDBRANCH  14  15
ENDBRANCH  13  14
ENDBRANCH  12  13
ENDBRANCH  11  12
ENDBRANCH   1  11
TORSDOF 15
ENDMDL
MODEL 2
REMARK VINA RESULT:     8.380      0.186      9.215
REMARK INTER + INTRA:          14.777
REMARK INTER:                  15.797
REMARK INTRA:                  -1.019
REMARK UNBOUND:                -0.951
REMARK SMILES O=C([O-])CCCCCCCCCCCCCCC(=O)[O-]
REMARK SMILES IDX 10 1 9 2 8 3 7 4 6 5 5 6 4 7 2 8 1 9 3 10 11 11 12 12 13 13
REMARK SMILES IDX 14 14 15 15 16 16 17 17 18 18 19 19 20 20
REMARK H PARENT
REMARK Flexibility Score: inf
ROOT
ATOM      1  C   UNL     1      13.762  35.543  48.146  1.00  0.00     0.000 C 
ENDROOT
BRANCH   1   2
ATOM      2  C   UNL     1      13.070  36.757  47.500  1.00  0.00     0.000 C 
BRANCH   2   3
ATOM      3  C   UNL     1      13.850  38.064  47.709  1.00  0.00     0.000 C 
BRANCH   3   4
ATOM      4  C   UNL     1      13.836  38.973  46.468  1.00  0.00     0.000 C 
BRANCH   4   5
ATOM      5  C   UNL     1      15.214  39.617  46.202  1.00  0.00     0.000 C 
BRANCH   5   6
ATOM      6  C   UNL     1      16.354  38.992  47.028  1.00  0.00     0.006 C 
BRANCH   6   7
ATOM      7  C   UNL     1      17.282  38.076  46.217  1.00  0.00     0.053 C 
BRANCH   7   8
ATOM      8  C   UNL     1      18.709  38.199  46.656  1.00  0.00     0.041 C 
ATOM      9  O   UNL     1      19.454  37.185  46.690  1.00  0.00    -0.550 OA
ATOM     10  O   UNL     1      19.222  39.440  47.010  1.00  0.00    -0.550 OA
ENDBRANCH   7   8
ENDBRANCH   6   7
ENDBRANCH   5   6
ENDBRANCH   4   5
ENDBRANCH   3   4
ENDBRANCH   2   3
ENDBRANCH   1   2
BRANCH   1  11
ATOM     11  C   UNL     1      15.159  35.884  48.691  1.00  0.00     0.000 C 
BRANCH  11  12
ATOM     12  C   UNL     1      15.526  35.054  49.935  1.00  0.00     0.000 C 
BRANCH  12  13
ATOM     13  C   UNL     1      15.280  33.551  49.733  1.00  0.00     0.000 C 
BRANCH  13  14
ATOM     14  C   UNL     1      15.533  32.731  51.011  1.00  0.00     0.000 C 
BRANCH  14  15
ATOM     15  C   UNL     1      15.568  31.218  50.744  1.00  0.00     0.000 C 
BRANCH  15  16
ATOM     16  C   UNL     1      14.190  30.556  50.921  1.00  0.00     0.006 C 
BRANCH  16  17
ATOM     17  C   UNL     1      13.755  29.781  49.670  1.00  0.00     0.053 C 
BRANCH  17  18
ATOM     18  C   UNL     1      13.200  28.433  50.016  1.00  0.00     0.041 C 
ATOM     19  O   UNL     1      13.480  27.897  51.120  1.00  0.00    -0.550 OA
ATOM     20  O   UNL     1      12.403  27.753  49.103  1.00  0.00    -0.550 OA
ENDBRANCH  17  18
ENDBRANCH  16  17
ENDBRANCH  15  16
ENDBRANCH  14  15
ENDBRANCH  13  14
ENDBRANCH  12  13
ENDBRANCH  11  12
ENDBRANCH   1  11
TORSDOF 15
ENDMDL
MODEL 3
REMARK VINA RESULT:     9.379      3.980      6.297
REMARK INTER + INTRA:          16.652
REMARK INTER:                  16.603
REMARK INTRA:                   0.050
REMARK UNBOUND:                -0.951
REMARK SMILES O=C([O-])CCCCCCCCCCCCCCC(=O)[O-]
REMARK SMILES IDX 10 1 9 2 8 3 7 4 6 5 5 6 4 7 2 8 1 9 3 10 11 11 12 12 13 13
REMARK SMILES IDX 14 14 15 15 16 16 17 17 18 18 19 19 20 20
REMARK H PARENT
REMARK Flexibility Score: inf
ROOT
ATOM      1  C   UNL     1      16.081  38.461  46.395  1.00  0.00     0.000 C 
ENDROOT
BRANCH   1   2
ATOM      2  C   UNL     1      15.393  39.720  46.952  1.00  0.00     0.000 C 
BRANCH   2   3
ATOM      3  C   UNL     1      13.860  39.631  46.897  1.00  0.00     0.000 C 
BRANCH   3   4
ATOM      4  C   UNL     1      13.359  38.272  46.375  1.00  0.00     0.000 C 
BRANCH   4   5
ATOM      5  C   UNL     1      12.713  37.422  47.491  1.00  0.00     0.000 C 
BRANCH   5   6
ATOM      6  C   UNL     1      13.543  36.184  47.878  1.00  0.00     0.006 C 
BRANCH   6   7
ATOM      7  C   UNL     1      14.946  36.514  48.409  1.00  0.00     0.053 C 
BRANCH   7   8
ATOM      8  C   UNL     1      15.371  35.562  49.485  1.00  0.00     0.041 C 
ATOM      9  O   UNL     1      15.942  35.988  50.523  1.00  0.00    -0.550 OA
ATOM     10  O   UNL     1      15.119  34.203  49.350  1.00  0.00    -0.550 OA
ENDBRANCH   7   8
ENDBRANCH   6   7
ENDBRANCH   5   6
ENDBRANCH   4   5
ENDBRANCH   3   4
ENDBRANCH   2   3
ENDBRANCH   1   2
BRANCH   1  11
ATOM     11  C   UNL     1      17.551  38.710  46.020  1.00  0.00     0.000 C 
BRANCH  11  12
ATOM     12  C   UNL     1      18.352  39.349  47.168  1.00  0.00     0.000 C 
BRANCH  12  13
ATOM     13  C   UNL     1      19.857  39.424  46.866  1.00  0.00     0.000 C 
BRANCH  13  14
ATOM     14  C   UNL     1      20.527  38.038  46.838  1.00  0.00     0.000 C 
BRANCH  14  15
ATOM     15  C   UNL     1      19.505  36.891  46.794  1.00  0.00     0.000 C 
BRANCH  15  16
ATOM     16  C   UNL     1      20.055  35.638  46.089  1.00  0.00     0.006 C 
BRANCH  16  17
ATOM     17  C   UNL     1      20.434  35.914  44.628  1.00  0.00     0.053 C 
BRANCH  17  18
ATOM     18  C   UNL     1      21.138  34.747  44.006  1.00  0.00     0.041 C 
ATOM     19  O   UNL     1      21.421  33.735  44.699  1.00  0.00    -0.550 OA
ATOM     20  O   UNL     1      21.515  34.793  42.669  1.00  0.00    -0.550 OA
ENDBRANCH  17  18
ENDBRANCH  16  17
ENDBRANCH  15  16
ENDBRANCH  14  15
ENDBRANCH  13  14
ENDBRANCH  12  13
ENDBRANCH  11  12
ENDBRANCH   1  11
TORSDOF 15
ENDMDL
