MODEL 1
REMARK VINA RESULT:    -7.622      0.000      0.000
REMARK INTER + INTRA:          -7.622
REMARK INTER:                  -7.622
REMARK INTRA:                   0.000
REMARK UNBOUND:                 0.000
REMARK SMILES C=C1CCC[C@@]2(C)CC(=O)C(=C(C)C)C[C@@H]12
REMARK SMILES IDX 13 1 12 2 11 3 15 4 16 5 2 6 1 7 3 8 4 9 5 10 6 11 8 12 9 13
REMARK SMILES IDX 10 14 7 15 14 16
REMARK H PARENT
REMARK Flexibility Score: inf
ROOT
ATOM      1  C   UNL     1      -9.836  28.151  24.567  1.00  0.00     0.039 C 
ATOM      2  C   UNL     1      -8.791  28.671  23.608  1.00  0.00    -0.070 C 
ATOM      3  C   UNL     1      -8.119  29.834  23.850  1.00  0.00    -0.006 C 
ATOM      4  C   UNL     1      -7.135  30.437  22.866  1.00  0.00     0.047 C 
ATOM      5  C   UNL     1      -7.363  31.960  22.604  1.00  0.00     0.025 C 
ATOM      6  C   UNL     1      -7.835  32.189  21.176  1.00  0.00    -0.073 C 
ATOM      7  C   UNL     1      -6.946  32.373  20.186  1.00  0.00     0.008 C 
ATOM      8  C   UNL     1      -9.302  32.054  20.861  1.00  0.00     0.031 C 
ATOM      9  C   UNL     1     -10.125  32.906  21.822  1.00  0.00     0.005 C 
ATOM     10  C   UNL     1      -9.812  32.547  23.279  1.00  0.00     0.008 C 
ATOM     11  C   UNL     1      -8.296  32.689  23.643  1.00  0.00    -0.018 C 
ATOM     12  C   UNL     1      -8.056  32.104  25.061  1.00  0.00     0.088 C 
ATOM     13  C   UNL     1      -8.293  30.623  25.097  1.00  0.00     0.159 C 
ATOM     14  O   UNL     1      -8.555  30.069  26.198  1.00  0.00    -0.295 OA
ATOM     15  C   UNL     1      -7.929  34.194  23.689  1.00  0.00     0.012 C 
ATOM     16  C   UNL     1      -8.556  27.876  22.345  1.00  0.00     0.039 C 
ENDROOT
TORSDOF 0
ENDMDL
MODEL 2
REMARK VINA RESULT:    -6.935      1.427      3.943
REMARK INTER + INTRA:          -6.935
REMARK INTER:                  -6.935
REMARK INTRA:                   0.000
REMARK UNBOUND:                 0.000
REMARK SMILES C=C1CCC[C@@]2(C)CC(=O)C(=C(C)C)C[C@@H]12
REMARK SMILES IDX 13 1 12 2 11 3 15 4 16 5 2 6 1 7 3 8 4 9 5 10 6 11 8 12 9 13
REMARK SMILES IDX 10 14 7 15 14 16
REMARK H PARENT
REMARK Flexibility Score: inf
ROOT
ATOM      1  C   UNL     1      -7.563  32.364  27.622  1.00  0.00     0.039 C 
ATOM      2  C   UNL     1      -8.465  32.566  26.426  1.00  0.00    -0.070 C 
ATOM      3  C   UNL     1      -9.085  31.513  25.817  1.00  0.00    -0.006 C 
ATOM      4  C   UNL     1      -9.918  31.664  24.559  1.00  0.00     0.047 C 
ATOM      5  C   UNL     1      -9.568  30.627  23.446  1.00  0.00     0.025 C 
ATOM      6  C   UNL     1      -8.933  31.322  22.251  1.00  0.00    -0.073 C 
ATOM      7  C   UNL     1      -9.698  31.804  21.258  1.00  0.00     0.008 C 
ATOM      8  C   UNL     1      -7.452  31.599  22.269  1.00  0.00     0.031 C 
ATOM      9  C   UNL     1      -6.684  30.321  22.593  1.00  0.00     0.005 C 
ATOM     10  C   UNL     1      -7.173  29.707  23.911  1.00  0.00     0.008 C 
ATOM     11  C   UNL     1      -8.707  29.395  23.920  1.00  0.00    -0.018 C 
ATOM     12  C   UNL     1      -9.133  28.982  25.355  1.00  0.00     0.088 C 
ATOM     13  C   UNL     1      -8.994  30.120  26.324  1.00  0.00     0.159 C 
ATOM     14  O   UNL     1      -8.887  29.870  27.554  1.00  0.00    -0.295 OA
ATOM     15  C   UNL     1      -8.981  28.190  22.985  1.00  0.00     0.012 C 
ATOM     16  C   UNL     1      -8.614  33.976  25.903  1.00  0.00     0.039 C 
ENDROOT
TORSDOF 0
ENDMDL
MODEL 3
REMARK VINA RESULT:    -6.831      1.441      4.043
REMARK INTER + INTRA:          -6.831
REMARK INTER:                  -6.831
REMARK INTRA:                   0.000
REMARK UNBOUND:                 0.000
REMARK SMILES C=C1CCC[C@@]2(C)CC(=O)C(=C(C)C)C[C@@H]12
REMARK SMILES IDX 13 1 12 2 11 3 15 4 16 5 2 6 1 7 3 8 4 9 5 10 6 11 8 12 9 13
REMARK SMILES IDX 10 14 7 15 14 16
REMARK H PARENT
REMARK Flexibility Score: inf
ROOT
ATOM      1  C   UNL     1      -7.944  33.656  26.873  1.00  0.00     0.039 C 
ATOM      2  C   UNL     1      -8.650  33.502  25.546  1.00  0.00    -0.070 C 
ATOM      3  C   UNL     1      -9.322  32.358  25.227  1.00  0.00    -0.006 C 
ATOM      4  C   UNL     1      -9.960  32.129  23.870  1.00  0.00     0.047 C 
ATOM      5  C   UNL     1      -9.613  30.744  23.239  1.00  0.00     0.025 C 
ATOM      6  C   UNL     1      -8.743  30.925  22.004  1.00  0.00    -0.073 C 
ATOM      7  C   UNL     1      -9.304  31.092  20.794  1.00  0.00     0.008 C 
ATOM      8  C   UNL     1      -7.252  31.068  22.174  1.00  0.00     0.031 C 
ATOM      9  C   UNL     1      -6.711  29.926  23.026  1.00  0.00     0.005 C 
ATOM     10  C   UNL     1      -7.441  29.851  24.373  1.00  0.00     0.008 C 
ATOM     11  C   UNL     1      -8.992  29.689  24.231  1.00  0.00    -0.018 C 
ATOM     12  C   UNL     1      -9.649  29.837  25.629  1.00  0.00     0.088 C 
ATOM     13  C   UNL     1      -9.484  31.226  26.174  1.00  0.00     0.159 C 
ATOM     14  O   UNL     1      -9.569  31.412  27.418  1.00  0.00    -0.295 OA
ATOM     15  C   UNL     1      -9.303  28.260  23.716  1.00  0.00     0.012 C 
ATOM     16  C   UNL     1      -8.541  34.649  24.568  1.00  0.00     0.039 C 
ENDROOT
TORSDOF 0
ENDMDL
MODEL 4
REMARK VINA RESULT:    -6.228      1.740      4.319
REMARK INTER + INTRA:          -6.228
REMARK INTER:                  -6.228
REMARK INTRA:                   0.000
REMARK UNBOUND:                 0.000
REMARK SMILES C=C1CCC[C@@]2(C)CC(=O)C(=C(C)C)C[C@@H]12
REMARK SMILES IDX 13 1 12 2 11 3 15 4 16 5 2 6 1 7 3 8 4 9 5 10 6 11 8 12 9 13
REMARK SMILES IDX 10 14 7 15 14 16
REMARK H PARENT
REMARK Flexibility Score: inf
ROOT
ATOM      1  C   UNL     1      -7.479  34.667  22.107  1.00  0.00     0.039 C 
ATOM      2  C   UNL     1      -8.018  33.356  21.584  1.00  0.00    -0.070 C 
ATOM      3  C   UNL     1      -8.922  32.624  22.297  1.00  0.00    -0.006 C 
ATOM      4  C   UNL     1      -9.413  31.260  21.850  1.00  0.00     0.047 C 
ATOM      5  C   UNL     1      -9.367  30.177  22.975  1.00  0.00     0.025 C 
ATOM      6  C   UNL     1      -8.324  29.117  22.650  1.00  0.00    -0.073 C 
ATOM      7  C   UNL     1      -8.655  28.037  21.924  1.00  0.00     0.008 C 
ATOM      8  C   UNL     1      -6.886  29.369  23.022  1.00  0.00     0.031 C 
ATOM      9  C   UNL     1      -6.786  29.761  24.493  1.00  0.00     0.005 C 
ATOM     10  C   UNL     1      -7.682  30.968  24.801  1.00  0.00     0.008 C 
ATOM     11  C   UNL     1      -9.187  30.733  24.438  1.00  0.00    -0.018 C 
ATOM     12  C   UNL     1      -9.961  32.071  24.586  1.00  0.00     0.088 C 
ATOM     13  C   UNL     1      -9.505  33.089  23.582  1.00  0.00     0.159 C 
ATOM     14  O   UNL     1      -9.701  34.312  23.813  1.00  0.00    -0.295 OA
ATOM     15  C   UNL     1      -9.797  29.726  25.445  1.00  0.00     0.012 C 
ATOM     16  C   UNL     1      -7.479  32.866  20.260  1.00  0.00     0.039 C 
ENDROOT
TORSDOF 0
ENDMDL
MODEL 5
REMARK VINA RESULT:    -5.121      1.729      4.326
REMARK INTER + INTRA:          -5.121
REMARK INTER:                  -5.121
REMARK INTRA:                   0.000
REMARK UNBOUND:                 0.000
REMARK SMILES C=C1CCC[C@@]2(C)CC(=O)C(=C(C)C)C[C@@H]12
REMARK SMILES IDX 13 1 12 2 11 3 15 4 16 5 2 6 1 7 3 8 4 9 5 10 6 11 8 12 9 13
REMARK SMILES IDX 10 14 7 15 14 16
REMARK H PARENT
REMARK Flexibility Score: inf
ROOT
ATOM      1  C   UNL     1      -8.160  34.317  22.257  1.00  0.00     0.039 C 
ATOM      2  C   UNL     1      -9.040  33.095  22.382  1.00  0.00    -0.070 C 
ATOM      3  C   UNL     1      -9.191  32.447  23.573  1.00  0.00    -0.006 C 
ATOM      4  C   UNL     1      -9.987  31.164  23.717  1.00  0.00     0.047 C 
ATOM      5  C   UNL     1      -9.237  30.045  24.507  1.00  0.00     0.025 C 
ATOM      6  C   UNL     1      -8.890  28.885  23.586  1.00  0.00    -0.073 C 
ATOM      7  C   UNL     1      -9.757  27.875  23.407  1.00  0.00     0.008 C 
ATOM      8  C   UNL     1      -7.630  28.958  22.762  1.00  0.00     0.031 C 
ATOM      9  C   UNL     1      -6.438  29.285  23.655  1.00  0.00     0.005 C 
ATOM     10  C   UNL     1      -6.685  30.575  24.448  1.00  0.00     0.008 C 
ATOM     11  C   UNL     1      -7.980  30.527  25.326  1.00  0.00    -0.018 C 
ATOM     12  C   UNL     1      -8.249  31.938  25.914  1.00  0.00     0.088 C 
ATOM     13  C   UNL     1      -8.583  32.931  24.839  1.00  0.00     0.159 C 
ATOM     14  O   UNL     1      -8.418  34.160  25.064  1.00  0.00    -0.295 OA
ATOM     15  C   UNL     1      -7.746  29.561  26.516  1.00  0.00     0.012 C 
ATOM     16  C   UNL     1      -9.708  32.592  21.123  1.00  0.00     0.039 C 
ENDROOT
TORSDOF 0
ENDMDL
MODEL 6
REMARK VINA RESULT:    -4.937      1.781      3.759
REMARK INTER + INTRA:          -4.937
REMARK INTER:                  -4.937
REMARK INTRA:                   0.000
REMARK UNBOUND:                 0.000
REMARK SMILES C=C1CCC[C@@]2(C)CC(=O)C(=C(C)C)C[C@@H]12
REMARK SMILES IDX 13 1 12 2 11 3 15 4 16 5 2 6 1 7 3 8 4 9 5 10 6 11 8 12 9 13
REMARK SMILES IDX 10 14 7 15 14 16
REMARK H PARENT
REMARK Flexibility Score: inf
ROOT
ATOM      1  C   UNL     1      -7.241  29.735  26.514  1.00  0.00     0.039 C 
ATOM      2  C   UNL     1      -8.040  31.016  26.576  1.00  0.00    -0.070 C 
ATOM      3  C   UNL     1      -8.898  31.368  25.575  1.00  0.00    -0.006 C 
ATOM      4  C   UNL     1      -9.643  32.689  25.555  1.00  0.00     0.047 C 
ATOM      5  C   UNL     1      -9.552  33.440  24.189  1.00  0.00     0.025 C 
ATOM      6  C   UNL     1      -8.740  34.718  24.338  1.00  0.00    -0.073 C 
ATOM      7  C   UNL     1      -9.339  35.869  24.685  1.00  0.00     0.008 C 
ATOM      8  C   UNL     1      -7.238  34.644  24.242  1.00  0.00     0.031 C 
ATOM      9  C   UNL     1      -6.830  33.916  22.966  1.00  0.00     0.005 C 
ATOM     10  C   UNL     1      -7.482  32.530  22.892  1.00  0.00     0.008 C 
ATOM     11  C   UNL     1      -9.045  32.573  22.976  1.00  0.00    -0.018 C 
ATOM     12  C   UNL     1      -9.587  31.124  23.107  1.00  0.00     0.088 C 
ATOM     13  C   UNL     1      -9.177  30.494  24.406  1.00  0.00     0.159 C 
ATOM     14  O   UNL     1      -9.159  29.238  24.502  1.00  0.00    -0.295 OA
ATOM     15  C   UNL     1      -9.603  33.164  21.657  1.00  0.00     0.012 C 
ATOM     16  C   UNL     1      -7.813  31.915  27.769  1.00  0.00     0.039 C 
ENDROOT
TORSDOF 0
ENDMDL
