MODEL 1
REMARK VINA RESULT:    -4.383      0.000      0.000
REMARK INTER + INTRA:          -6.648
REMARK INTER:                  -6.689
REMARK INTRA:                   0.042
REMARK UNBOUND:                 0.042
REMARK SMILES CC1=CCC[C@H](C)C(=O)C[C@H](C(C)C)C(=O)C1
REMARK SMILES IDX 8 1 9 2 6 3 7 4 5 5 4 6 3 7 2 8 1 9 10 11 11 12 15 13 16 14
REMARK SMILES IDX 17 15 12 17 13 18 14 19
REMARK H PARENT
REMARK Flexibility Score: 70.00
ROOT
ATOM      1  C   UNL     1      16.610 -11.878  66.669  1.00  0.00     0.136 C 
ATOM      2  O   UNL     1      15.814 -11.291  67.388  1.00  0.00    -0.299 OA
ENDROOT
BRANCH   1   3
ATOM      3  C   UNL     1      17.933 -12.329  67.260  1.00  0.00     0.053 C 
ATOM      4  C   UNL     1      18.715 -13.180  66.254  1.00  0.00     0.016 C 
BRANCH   3   5
ATOM      5  C   UNL     1      18.774 -11.134  67.747  1.00  0.00     0.015 C 
BRANCH   5   6
ATOM      6  C   UNL     1      18.635  -9.913  66.818  1.00  0.00     0.028 C 
BRANCH   6   7
ATOM      7  C   UNL     1      19.767  -9.870  65.826  1.00  0.00    -0.028 C 
ATOM      8  C   UNL     1      19.614  -9.673  64.495  1.00  0.00    -0.070 CG0
ATOM      9  C   UNL     1      20.844  -9.724  63.625  1.00  0.00     0.039 C 
ATOM     10  G   UNL     1      18.265  -9.387  63.851  1.00  0.00     0.000 G0
ENDBRANCH   6   7
ENDBRANCH   5   6
ENDBRANCH   3   5
ENDBRANCH   1   3
BRANCH   1  11
ATOM     11  C   UNL     1      16.224 -12.151  65.232  1.00  0.00     0.087 C 
BRANCH  11  12
ATOM     12  C   UNL     1      16.152 -10.853  64.384  1.00  0.00     0.066 C 
BRANCH  12  13
ATOM     13  C   UNL     1      17.446 -10.617  63.616  1.00  0.00     0.140 C 
ATOM     14  O   UNL     1      17.802 -11.417  62.761  1.00  0.00    -0.299 OA
BRANCH  13  15
ATOM     15  C   UNL     1      18.269  -9.371  63.842  1.00  0.00     0.106 CG0
ATOM     16  G   UNL     1      19.614  -9.680  64.483  1.00  0.00     0.000 G0
ENDBRANCH  13  15
ENDBRANCH  12  13
BRANCH  12  17
ATOM     17  C   UNL     1      14.900 -10.835  63.454  1.00  0.00    -0.006 C 
ATOM     18  C   UNL     1      14.470  -9.426  63.006  1.00  0.00     0.008 C 
ATOM     19  C   UNL     1      13.712 -11.572  64.092  1.00  0.00     0.008 C 
ENDBRANCH  12  17
ENDBRANCH  11  12
ENDBRANCH   1  11
TORSDOF 1
ENDMDL
MODEL 2
REMARK VINA RESULT:    -4.168     14.859     16.940
REMARK INTER + INTRA:          -6.318
REMARK INTER:                  -5.858
REMARK INTRA:                  -0.461
REMARK UNBOUND:                 0.042
REMARK SMILES CC1=CCC[C@H](C)C(=O)C[C@H](C(C)C)C(=O)C1
REMARK SMILES IDX 8 1 9 2 6 3 7 4 5 5 4 6 3 7 2 8 1 9 10 11 11 12 15 13 16 14
REMARK SMILES IDX 17 15 12 17 13 18 14 19
REMARK H PARENT
REMARK Flexibility Score: 70.00
ROOT
ATOM      1  C   UNL     1       8.382   4.222  62.207  1.00  0.00     0.136 C 
ATOM      2  O   UNL     1       8.298   5.240  62.879  1.00  0.00    -0.299 OA
ENDROOT
BRANCH   1   3
ATOM      3  C   UNL     1       9.572   3.305  62.416  1.00  0.00     0.053 C 
ATOM      4  C   UNL     1      10.865   3.974  61.935  1.00  0.00     0.016 C 
BRANCH   3   5
ATOM      5  C   UNL     1       9.694   2.858  63.885  1.00  0.00     0.015 C 
BRANCH   5   6
ATOM      6  C   UNL     1       8.443   2.097  64.363  1.00  0.00     0.028 C 
BRANCH   6   7
ATOM      7  C   UNL     1       8.395   0.720  63.754  1.00  0.00    -0.028 C 
ATOM      8  C   UNL     1       7.418   0.280  62.926  1.00  0.00    -0.070 CG0
ATOM      9  C   UNL     1       7.480  -1.151  62.455  1.00  0.00     0.039 C 
ATOM     10  G   UNL     1       6.281   1.169  62.443  1.00  0.00     0.000 G0
ENDBRANCH   6   7
ENDBRANCH   5   6
ENDBRANCH   3   5
ENDBRANCH   1   3
BRANCH   1  11
ATOM     11  C   UNL     1       7.278   3.912  61.219  1.00  0.00     0.087 C 
BRANCH  11  12
ATOM     12  C   UNL     1       7.480   2.539  60.523  1.00  0.00     0.066 C 
BRANCH  12  13
ATOM     13  C   UNL     1       6.428   1.530  60.967  1.00  0.00     0.140 C 
ATOM     14  O   UNL     1       5.737   0.963  60.132  1.00  0.00    -0.299 OA
BRANCH  13  15
ATOM     15  C   UNL     1       6.268   1.162  62.422  1.00  0.00     0.106 CG0
ATOM     16  G   UNL     1       7.402   0.278  62.920  1.00  0.00     0.000 G0
ENDBRANCH  13  15
ENDBRANCH  12  13
BRANCH  12  17
ATOM     17  C   UNL     1       7.548   2.679  58.971  1.00  0.00    -0.006 C 
ATOM     18  C   UNL     1       8.978   2.796  58.413  1.00  0.00     0.008 C 
ATOM     19  C   UNL     1       6.688   3.851  58.471  1.00  0.00     0.008 C 
ENDBRANCH  12  17
ENDBRANCH  11  12
ENDBRANCH   1  11
TORSDOF 1
ENDMDL
MODEL 3
REMARK VINA RESULT:    -4.144      1.692      2.730
REMARK INTER + INTRA:          -6.282
REMARK INTER:                  -5.942
REMARK INTRA:                  -0.340
REMARK UNBOUND:                 0.042
REMARK SMILES CC1=CCC[C@H](C)C(=O)C[C@H](C(C)C)C(=O)C1
REMARK SMILES IDX 8 1 9 2 6 3 7 4 5 5 4 6 3 7 2 8 1 9 10 11 11 12 15 13 16 14
REMARK SMILES IDX 17 15 12 17 13 18 14 19
REMARK H PARENT
REMARK Flexibility Score: 70.00
ROOT
ATOM      1  C   UNL     1      15.995 -12.515  64.176  1.00  0.00     0.136 C 
ATOM      2  O   UNL     1      16.037 -13.737  64.163  1.00  0.00    -0.299 OA
ENDROOT
BRANCH   1   3
ATOM      3  C   UNL     1      15.127 -11.825  65.212  1.00  0.00     0.053 C 
ATOM      4  C   UNL     1      13.686 -12.343  65.146  1.00  0.00     0.016 C 
BRANCH   3   5
ATOM      5  C   UNL     1      15.706 -11.977  66.631  1.00  0.00     0.015 C 
BRANCH   5   6
ATOM      6  C   UNL     1      16.687 -10.843  66.979  1.00  0.00     0.028 C 
BRANCH   6   7
ATOM      7  C   UNL     1      18.108 -11.340  66.942  1.00  0.00    -0.028 C 
ATOM      8  C   UNL     1      19.083 -10.819  66.159  1.00  0.00    -0.070 CG0
ATOM      9  C   UNL     1      20.441 -11.476  66.188  1.00  0.00     0.039 C 
ATOM     10  G   UNL     1      18.871  -9.600  65.274  1.00  0.00     0.000 G0
ENDBRANCH   6   7
ENDBRANCH   5   6
ENDBRANCH   3   5
ENDBRANCH   1   3
BRANCH   1  11
ATOM     11  C   UNL     1      16.834 -11.751  63.176  1.00  0.00     0.087 C 
BRANCH  11  12
ATOM     12  C   UNL     1      16.992 -10.255  63.561  1.00  0.00     0.066 C 
BRANCH  12  13
ATOM     13  C   UNL     1      18.442  -9.910  63.877  1.00  0.00     0.140 C 
ATOM     14  O   UNL     1      19.264  -9.848  62.973  1.00  0.00    -0.299 OA
BRANCH  13  15
ATOM     15  C   UNL     1      18.873  -9.575  65.284  1.00  0.00     0.106 CG0
ATOM     16  G   UNL     1      19.094 -10.821  66.129  1.00  0.00     0.000 G0
ENDBRANCH  13  15
ENDBRANCH  12  13
BRANCH  12  17
ATOM     17  C   UNL     1      16.381  -9.310  62.481  1.00  0.00    -0.006 C 
ATOM     18  C   UNL     1      15.750  -8.027  63.053  1.00  0.00     0.008 C 
ATOM     19  C   UNL     1      15.364 -10.048  61.595  1.00  0.00     0.008 C 
ENDBRANCH  12  17
ENDBRANCH  11  12
ENDBRANCH   1  11
TORSDOF 1
ENDMDL
MODEL 4
REMARK VINA RESULT:    -4.062      1.690      3.589
REMARK INTER + INTRA:          -6.158
REMARK INTER:                  -6.310
REMARK INTRA:                   0.152
REMARK UNBOUND:                 0.042
REMARK SMILES CC1=CCC[C@H](C)C(=O)C[C@H](C(C)C)C(=O)C1
REMARK SMILES IDX 8 1 9 2 6 3 7 4 5 5 4 6 3 7 2 8 1 9 10 11 11 12 15 13 16 14
REMARK SMILES IDX 17 15 12 17 13 18 14 19
REMARK H PARENT
REMARK Flexibility Score: 70.00
ROOT
ATOM      1  C   UNL     1      18.744 -10.007  64.072  1.00  0.00     0.136 C 
ATOM      2  O   UNL     1      18.917  -9.794  62.881  1.00  0.00    -0.299 OA
ENDROOT
BRANCH   1   3
ATOM      3  C   UNL     1      19.939 -10.382  64.929  1.00  0.00     0.053 C 
ATOM      4  C   UNL     1      21.246 -10.189  64.152  1.00  0.00     0.016 C 
BRANCH   3   5
ATOM      5  C   UNL     1      19.959  -9.593  66.252  1.00  0.00     0.015 C 
BRANCH   5   6
ATOM      6  C   UNL     1      20.142 -10.516  67.471  1.00  0.00     0.028 C 
BRANCH   6   7
ATOM      7  C   UNL     1      19.720 -11.923  67.140  1.00  0.00    -0.028 C 
ATOM      8  C   UNL     1      18.435 -12.352  67.108  1.00  0.00    -0.070 CG0
ATOM      9  C   UNL     1      18.183 -13.811  66.825  1.00  0.00     0.039 C 
ATOM     10  G   UNL     1      17.248 -11.425  67.326  1.00  0.00     0.000 G0
ENDBRANCH   6   7
ENDBRANCH   5   6
ENDBRANCH   3   5
ENDBRANCH   1   3
BRANCH   1  11
ATOM     11  C   UNL     1      17.349  -9.858  64.640  1.00  0.00     0.087 C 
BRANCH  11  12
ATOM     12  C   UNL     1      16.616 -11.221  64.767  1.00  0.00     0.066 C 
BRANCH  12  13
ATOM     13  C   UNL     1      16.219 -11.507  66.210  1.00  0.00     0.140 C 
ATOM     14  O   UNL     1      15.079 -11.868  66.468  1.00  0.00    -0.299 OA
BRANCH  13  15
ATOM     15  C   UNL     1      17.231 -11.419  67.327  1.00  0.00     0.106 CG0
ATOM     16  G   UNL     1      18.418 -12.343  67.100  1.00  0.00     0.000 G0
ENDBRANCH  13  15
ENDBRANCH  12  13
BRANCH  12  17
ATOM     17  C   UNL     1      15.405 -11.322  63.789  1.00  0.00    -0.006 C 
ATOM     18  C   UNL     1      15.762 -11.899  62.406  1.00  0.00     0.008 C 
ATOM     19  C   UNL     1      14.693  -9.969  63.629  1.00  0.00     0.008 C 
ENDBRANCH  12  17
ENDBRANCH  11  12
ENDBRANCH   1  11
TORSDOF 1
ENDMDL
MODEL 5
REMARK VINA RESULT:    -4.060      1.671      3.979
REMARK INTER + INTRA:          -6.154
REMARK INTER:                  -6.626
REMARK INTRA:                   0.472
REMARK UNBOUND:                 0.042
REMARK SMILES CC1=CCC[C@H](C)C(=O)C[C@H](C(C)C)C(=O)C1
REMARK SMILES IDX 8 1 9 2 6 3 7 4 5 5 4 6 3 7 2 8 1 9 10 11 11 12 15 13 16 14
REMARK SMILES IDX 17 15 12 17 13 18 14 19
REMARK H PARENT
REMARK Flexibility Score: 70.00
ROOT
ATOM      1  C   UNL     1      16.204 -11.405  64.854  1.00  0.00     0.136 C 
ATOM      2  O   UNL     1      15.088 -10.944  64.658  1.00  0.00    -0.299 OA
ENDROOT
BRANCH   1   3
ATOM      3  C   UNL     1      17.184 -11.464  63.697  1.00  0.00     0.053 C 
ATOM      4  C   UNL     1      16.761 -12.530  62.681  1.00  0.00     0.016 C 
BRANCH   3   5
ATOM      5  C   UNL     1      17.348 -10.089  63.021  1.00  0.00     0.015 C 
BRANCH   5   6
ATOM      6  C   UNL     1      18.454  -9.248  63.685  1.00  0.00     0.028 C 
BRANCH   6   7
ATOM      7  C   UNL     1      19.663 -10.097  63.979  1.00  0.00    -0.028 C 
ATOM      8  C   UNL     1      20.233 -10.224  65.201  1.00  0.00    -0.070 CG0
ATOM      9  C   UNL     1      21.483 -11.061  65.316  1.00  0.00     0.039 C 
ATOM     10  G   UNL     1      19.659  -9.577  66.453  1.00  0.00     0.000 G0
ENDBRANCH   6   7
ENDBRANCH   5   6
ENDBRANCH   3   5
ENDBRANCH   1   3
BRANCH   1  11
ATOM     11  C   UNL     1      16.562 -11.867  66.250  1.00  0.00     0.087 C 
BRANCH  11  12
ATOM     12  C   UNL     1      18.073 -11.686  66.560  1.00  0.00     0.066 C 
BRANCH  12  13
ATOM     13  C   UNL     1      18.397 -10.246  66.937  1.00  0.00     0.140 C 
ATOM     14  O   UNL     1      17.638  -9.623  67.667  1.00  0.00    -0.299 OA
BRANCH  13  15
ATOM     15  C   UNL     1      19.677  -9.591  66.480  1.00  0.00     0.106 CG0
ATOM     16  G   UNL     1      20.223 -10.222  65.207  1.00  0.00     0.000 G0
ENDBRANCH  13  15
ENDBRANCH  12  13
BRANCH  12  17
ATOM     17  C   UNL     1      18.572 -12.705  67.631  1.00  0.00    -0.006 C 
ATOM     18  C   UNL     1      19.469 -12.084  68.718  1.00  0.00     0.008 C 
ATOM     19  C   UNL     1      19.280 -13.905  66.983  1.00  0.00     0.008 C 
ENDBRANCH  12  17
ENDBRANCH  11  12
ENDBRANCH   1  11
TORSDOF 1
ENDMDL
MODEL 6
REMARK VINA RESULT:    -4.044      3.294      5.364
REMARK INTER + INTRA:          -6.130
REMARK INTER:                  -5.741
REMARK INTRA:                  -0.389
REMARK UNBOUND:                 0.042
REMARK SMILES CC1=CCC[C@H](C)C(=O)C[C@H](C(C)C)C(=O)C1
REMARK SMILES IDX 8 1 9 2 6 3 7 4 5 5 4 6 3 7 2 8 1 9 10 11 11 12 15 13 16 14
REMARK SMILES IDX 17 15 12 17 13 18 14 19
REMARK H PARENT
REMARK Flexibility Score: 70.00
ROOT
ATOM      1  C   UNL     1      16.122 -11.013  62.778  1.00  0.00     0.136 C 
ATOM      2  O   UNL     1      17.250 -11.397  62.503  1.00  0.00    -0.299 OA
ENDROOT
BRANCH   1   3
ATOM      3  C   UNL     1      15.931 -10.107  63.980  1.00  0.00     0.053 C 
ATOM      4  C   UNL     1      16.629 -10.688  65.214  1.00  0.00     0.016 C 
BRANCH   3   5
ATOM      5  C   UNL     1      16.416  -8.673  63.693  1.00  0.00     0.015 C 
BRANCH   5   6
ATOM      6  C   UNL     1      15.884  -8.141  62.350  1.00  0.00     0.028 C 
BRANCH   6   7
ATOM      7  C   UNL     1      14.548  -7.470  62.536  1.00  0.00    -0.028 C 
ATOM      8  C   UNL     1      13.411  -7.833  61.897  1.00  0.00    -0.070 CG0
ATOM      9  C   UNL     1      12.168  -7.014  62.143  1.00  0.00     0.039 C 
ATOM     10  G   UNL     1      13.333  -9.032  60.963  1.00  0.00     0.000 G0
ENDBRANCH   6   7
ENDBRANCH   5   6
ENDBRANCH   3   5
ENDBRANCH   1   3
BRANCH   1  11
ATOM     11  C   UNL     1      14.974 -11.438  61.888  1.00  0.00     0.087 C 
BRANCH  11  12
ATOM     12  C   UNL     1      13.591 -11.144  62.529  1.00  0.00     0.066 C 
BRANCH  12  13
ATOM     13  C   UNL     1      12.737 -10.257  61.631  1.00  0.00     0.140 C 
ATOM     14  O   UNL     1      11.548 -10.503  61.486  1.00  0.00    -0.299 OA
BRANCH  13  15
ATOM     15  C   UNL     1      13.319  -9.033  60.967  1.00  0.00     0.106 CG0
ATOM     16  G   UNL     1      13.396  -7.846  61.916  1.00  0.00     0.000 G0
ENDBRANCH  13  15
ENDBRANCH  12  13
BRANCH  12  17
ATOM     17  C   UNL     1      12.852 -12.454  62.942  1.00  0.00    -0.006 C 
ATOM     18  C   UNL     1      13.153 -12.918  64.379  1.00  0.00     0.008 C 
ATOM     19  C   UNL     1      13.129 -13.595  61.950  1.00  0.00     0.008 C 
ENDBRANCH  12  17
ENDBRANCH  11  12
ENDBRANCH   1  11
TORSDOF 1
ENDMDL
MODEL 7
REMARK VINA RESULT:    -3.958     14.283     16.442
REMARK INTER + INTRA:          -5.999
REMARK INTER:                  -5.566
REMARK INTRA:                  -0.433
REMARK UNBOUND:                 0.042
REMARK SMILES CC1=CCC[C@H](C)C(=O)C[C@H](C(C)C)C(=O)C1
REMARK SMILES IDX 8 1 9 2 6 3 7 4 5 5 4 6 3 7 2 8 1 9 10 11 11 12 15 13 16 14
REMARK SMILES IDX 17 15 12 17 13 18 14 19
REMARK H PARENT
REMARK Flexibility Score: 70.00
ROOT
ATOM      1  C   UNL     1       6.139  -0.253  61.973  1.00  0.00     0.136 C 
ATOM      2  O   UNL     1       5.606  -0.773  61.003  1.00  0.00    -0.299 OA
ENDROOT
BRANCH   1   3
ATOM      3  C   UNL     1       7.493  -0.767  62.425  1.00  0.00     0.053 C 
ATOM      4  C   UNL     1       7.429  -2.267  62.732  1.00  0.00     0.016 C 
BRANCH   3   5
ATOM      5  C   UNL     1       8.592  -0.458  61.391  1.00  0.00     0.015 C 
BRANCH   5   6
ATOM      6  C   UNL     1       9.504   0.696  61.845  1.00  0.00     0.028 C 
BRANCH   6   7
ATOM      7  C   UNL     1       9.146   1.970  61.126  1.00  0.00    -0.028 C 
ATOM      8  C   UNL     1       8.556   3.040  61.709  1.00  0.00    -0.070 CG0
ATOM      9  C   UNL     1       8.200   4.216  60.834  1.00  0.00     0.039 C 
ATOM     10  G   UNL     1       8.255   3.110  63.199  1.00  0.00     0.000 G0
ENDBRANCH   6   7
ENDBRANCH   5   6
ENDBRANCH   3   5
ENDBRANCH   1   3
BRANCH   1  11
ATOM     11  C   UNL     1       5.434   0.899  62.657  1.00  0.00     0.087 C 
BRANCH  11  12
ATOM     12  C   UNL     1       6.266   1.486  63.829  1.00  0.00     0.066 C 
BRANCH  12  13
ATOM     13  C   UNL     1       6.785   2.880  63.500  1.00  0.00     0.140 C 
ATOM     14  O   UNL     1       6.021   3.836  63.527  1.00  0.00    -0.299 OA
BRANCH  13  15
ATOM     15  C   UNL     1       8.246   3.118  63.205  1.00  0.00     0.106 CG0
ATOM     16  G   UNL     1       8.554   3.029  61.718  1.00  0.00     0.000 G0
ENDBRANCH  13  15
ENDBRANCH  12  13
BRANCH  12  17
ATOM     17  C   UNL     1       5.480   1.449  65.175  1.00  0.00    -0.006 C 
ATOM     18  C   UNL     1       6.274   1.985  66.381  1.00  0.00     0.008 C 
ATOM     19  C   UNL     1       4.946   0.040  65.478  1.00  0.00     0.008 C 
ENDBRANCH  12  17
ENDBRANCH  11  12
ENDBRANCH   1  11
TORSDOF 1
ENDMDL
MODEL 8
REMARK VINA RESULT:    -3.905     15.715     17.112
REMARK INTER + INTRA:          -5.917
REMARK INTER:                  -5.858
REMARK INTRA:                  -0.059
REMARK UNBOUND:                 0.042
REMARK SMILES CC1=CCC[C@H](C)C(=O)C[C@H](C(C)C)C(=O)C1
REMARK SMILES IDX 8 1 9 2 6 3 7 4 5 5 4 6 3 7 2 8 1 9 10 11 11 12 15 13 16 14
REMARK SMILES IDX 17 15 12 17 13 18 14 19
REMARK H PARENT
REMARK Flexibility Score: 70.00
ROOT
ATOM      1  C   UNL     1      10.108   2.473  62.077  1.00  0.00     0.136 C 
ATOM      2  O   UNL     1      10.413   1.317  61.822  1.00  0.00    -0.299 OA
ENDROOT
BRANCH   1   3
ATOM      3  C   UNL     1       9.863   2.862  63.524  1.00  0.00     0.053 C 
ATOM      4  C   UNL     1       9.487   4.343  63.632  1.00  0.00     0.016 C 
BRANCH   3   5
ATOM      5  C   UNL     1       8.792   1.969  64.178  1.00  0.00     0.015 C 
BRANCH   5   6
ATOM      6  C   UNL     1       7.365   2.422  63.818  1.00  0.00     0.028 C 
BRANCH   6   7
ATOM      7  C   UNL     1       6.793   1.558  62.725  1.00  0.00    -0.028 C 
ATOM      8  C   UNL     1       6.596   1.966  61.449  1.00  0.00    -0.070 CG0
ATOM      9  C   UNL     1       5.950   0.999  60.488  1.00  0.00     0.039 C 
ATOM     10  G   UNL     1       7.014   3.340  60.944  1.00  0.00     0.000 G0
ENDBRANCH   6   7
ENDBRANCH   5   6
ENDBRANCH   3   5
ENDBRANCH   1   3
BRANCH   1  11
ATOM     11  C   UNL     1      10.019   3.468  60.940  1.00  0.00     0.087 C 
BRANCH  11  12
ATOM     12  C   UNL     1       9.308   2.875  59.694  1.00  0.00     0.066 C 
BRANCH  12  13
ATOM     13  C   UNL     1       7.834   3.258  59.658  1.00  0.00     0.140 C 
ATOM     14  O   UNL     1       7.278   3.440  58.583  1.00  0.00    -0.299 OA
BRANCH  13  15
ATOM     15  C   UNL     1       7.024   3.352  60.928  1.00  0.00     0.106 CG0
ATOM     16  G   UNL     1       6.613   1.983  61.450  1.00  0.00     0.000 G0
ENDBRANCH  13  15
ENDBRANCH  12  13
BRANCH  12  17
ATOM     17  C   UNL     1      10.049   3.245  58.372  1.00  0.00    -0.006 C 
ATOM     18  C   UNL     1      10.530   2.029  57.559  1.00  0.00     0.008 C 
ATOM     19  C   UNL     1      11.222   4.204  58.632  1.00  0.00     0.008 C 
ENDBRANCH  12  17
ENDBRANCH  11  12
ENDBRANCH   1  11
TORSDOF 1
ENDMDL
MODEL 9
REMARK VINA RESULT:    -3.871     10.387     12.953
REMARK INTER + INTRA:          -5.867
REMARK INTER:                  -5.543
REMARK INTRA:                  -0.323
REMARK UNBOUND:                 0.042
REMARK SMILES CC1=CCC[C@H](C)C(=O)C[C@H](C(C)C)C(=O)C1
REMARK SMILES IDX 8 1 9 2 6 3 7 4 5 5 4 6 3 7 2 8 1 9 10 11 11 12 15 13 16 14
REMARK SMILES IDX 17 15 12 17 13 18 14 19
REMARK H PARENT
REMARK Flexibility Score: 70.00
ROOT
ATOM      1  C   UNL     1      13.161  -1.073  57.137  1.00  0.00     0.136 C 
ATOM      2  O   UNL     1      12.570  -0.859  58.185  1.00  0.00    -0.299 OA
ENDROOT
BRANCH   1   3
ATOM      3  C   UNL     1      12.355  -1.223  55.860  1.00  0.00     0.053 C 
ATOM      4  C   UNL     1      12.998  -0.433  54.715  1.00  0.00     0.016 C 
BRANCH   3   5
ATOM      5  C   UNL     1      12.169  -2.703  55.476  1.00  0.00     0.015 C 
BRANCH   5   6
ATOM      6  C   UNL     1      12.895  -3.054  54.164  1.00  0.00     0.028 C 
BRANCH   6   7
ATOM      7  C   UNL     1      13.684  -4.328  54.319  1.00  0.00    -0.028 C 
ATOM      8  C   UNL     1      14.997  -4.383  54.646  1.00  0.00    -0.070 CG0
ATOM      9  C   UNL     1      15.658  -5.738  54.695  1.00  0.00     0.039 C 
ATOM     10  G   UNL     1      15.819  -3.147  54.981  1.00  0.00     0.000 G0
ENDBRANCH   6   7
ENDBRANCH   5   6
ENDBRANCH   3   5
ENDBRANCH   1   3
BRANCH   1  11
ATOM     11  C   UNL     1      14.673  -1.149  57.159  1.00  0.00     0.087 C 
BRANCH  11  12
ATOM     12  C   UNL     1      15.185  -2.580  57.477  1.00  0.00     0.066 C 
BRANCH  12  13
ATOM     13  C   UNL     1      16.198  -3.052  56.441  1.00  0.00     0.140 C 
ATOM     14  O   UNL     1      17.311  -3.414  56.798  1.00  0.00    -0.299 OA
BRANCH  13  15
ATOM     15  C   UNL     1      15.830  -3.146  54.980  1.00  0.00     0.106 CG0
ATOM     16  G   UNL     1      14.996  -4.382  54.676  1.00  0.00     0.000 G0
ENDBRANCH  13  15
ENDBRANCH  12  13
BRANCH  12  17
ATOM     17  C   UNL     1      15.733  -2.691  58.933  1.00  0.00    -0.006 C 
ATOM     18  C   UNL     1      14.688  -3.158  59.963  1.00  0.00     0.008 C 
ATOM     19  C   UNL     1      16.378  -1.374  59.395  1.00  0.00     0.008 C 
ENDBRANCH  12  17
ENDBRANCH  11  12
ENDBRANCH   1  11
TORSDOF 1
ENDMDL
