MODEL 1
REMARK VINA RESULT:    36.776      0.000      0.000
REMARK INTER + INTRA:          44.099
REMARK INTER:                  44.300
REMARK INTRA:                  -0.201
REMARK UNBOUND:                -0.201
REMARK SMILES Oc1cc(O)c2cc(O)c(-c3ccc(O)c(O)c3)[o+]c2c1.[Cl-]
REMARK SMILES IDX 10 1 19 2 20 3 21 4 2 5 3 6 4 7 6 8 7 9 8 10 11 11 12 12
REMARK SMILES IDX 13 13 14 14 18 15 16 16 15 17 17 19 9 21 1 23 5 25
REMARK H PARENT 15 18 17 20 9 22 1 24 5 26
REMARK Flexibility Score: inf
ROOT
ATOM      1  C   UNL     1      16.568  14.226  22.522  1.00  0.00     0.402 A 
ATOM      2  O   UNL     1      17.192  13.306  23.256  1.00  0.00    -0.202 OA
ATOM      3  C   UNL     1      16.557  12.313  23.872  1.00  0.00     0.368 A 
ATOM      4  C   UNL     1      17.287  11.384  24.620  1.00  0.00     0.162 A 
ATOM      5  C   UNL     1      16.630  10.332  25.271  1.00  0.00     0.128 A 
ATOM      6  C   UNL     1      15.240  10.209  25.172  1.00  0.00     0.093 A 
ATOM      7  C   UNL     1      14.494  11.134  24.425  1.00  0.00     0.136 A 
ATOM      8  C   UNL     1      15.154  12.192  23.771  1.00  0.00     0.125 A 
ATOM      9  C   UNL     1      14.462  13.148  23.019  1.00  0.00     0.078 A 
ATOM     10  C   UNL     1      15.164  14.183  22.395  1.00  0.00     0.223 A 
ENDROOT
BRANCH   1  11
ATOM     11  C   UNL     1      17.384  15.279  21.877  1.00  0.00     0.087 A 
ATOM     12  C   UNL     1      17.259  16.631  22.242  1.00  0.00     0.022 A 
ATOM     13  C   UNL     1      18.024  17.609  21.603  1.00  0.00     0.051 A 
ATOM     14  C   UNL     1      18.912  17.258  20.582  1.00  0.00     0.157 A 
ATOM     15  C   UNL     1      18.261  14.932  20.836  1.00  0.00     0.068 A 
ATOM     16  C   UNL     1      19.031  15.913  20.193  1.00  0.00     0.158 A 
BRANCH  14  17
ATOM     17  O   UNL     1      19.664  18.257  19.963  1.00  0.00    -0.504 OA
ATOM     18  H   UNL     1      20.640  18.127  19.727  1.00  0.00     0.293 HD
ENDBRANCH  14  17
BRANCH  16  19
ATOM     19  O   UNL     1      19.908  15.556  19.170  1.00  0.00    -0.504 OA
ATOM     20  H   UNL     1      20.471  16.247  18.688  1.00  0.00     0.293 HD
ENDBRANCH  16  19
ENDBRANCH   1  11
BRANCH  10  21
ATOM     21  O   UNL     1      14.475  15.167  21.686  1.00  0.00    -0.500 OA
ATOM     22  H   UNL     1      14.812  15.515  20.796  1.00  0.00     0.294 HD
ENDBRANCH  10  21
BRANCH   5  23
ATOM     23  O   UNL     1      17.349   9.401  26.018  1.00  0.00    -0.507 OA
ATOM     24  H   UNL     1      18.032   8.790  25.586  1.00  0.00     0.293 HD
ENDBRANCH   5  23
BRANCH   7  25
ATOM     25  O   UNL     1      13.108  11.002  24.335  1.00  0.00    -0.507 OA
ATOM     26  H   UNL     1      12.600  10.343  24.914  1.00  0.00     0.293 HD
ENDBRANCH   7  25
TORSDOF 6
ENDMDL
MODEL 2
REMARK VINA RESULT:    37.202      7.567     12.333
REMARK INTER + INTRA:          44.614
REMARK INTER:                  44.826
REMARK INTRA:                  -0.213
REMARK UNBOUND:                -0.201
REMARK SMILES Oc1cc(O)c2cc(O)c(-c3ccc(O)c(O)c3)[o+]c2c1.[Cl-]
REMARK SMILES IDX 10 1 19 2 20 3 21 4 2 5 3 6 4 7 6 8 7 9 8 10 11 11 12 12
REMARK SMILES IDX 13 13 14 14 18 15 16 16 15 17 17 19 9 21 1 23 5 25
REMARK H PARENT 15 18 17 20 9 22 1 24 5 26
REMARK Flexibility Score: inf
ROOT
ATOM      1  C   UNL     1      23.270  21.189  19.334  1.00  0.00     0.402 A 
ATOM      2  O   UNL     1      23.632  21.895  20.404  1.00  0.00    -0.202 OA
ATOM      3  C   UNL     1      24.853  22.394  20.568  1.00  0.00     0.368 A 
ATOM      4  C   UNL     1      25.152  23.129  21.719  1.00  0.00     0.162 A 
ATOM      5  C   UNL     1      26.434  23.664  21.901  1.00  0.00     0.128 A 
ATOM      6  C   UNL     1      27.419  23.462  20.928  1.00  0.00     0.093 A 
ATOM      7  C   UNL     1      27.134  22.726  19.767  1.00  0.00     0.136 A 
ATOM      8  C   UNL     1      25.846  22.189  19.584  1.00  0.00     0.125 A 
ATOM      9  C   UNL     1      25.507  21.441  18.452  1.00  0.00     0.078 A 
ATOM     10  C   UNL     1      24.215  20.923  18.321  1.00  0.00     0.223 A 
ENDROOT
BRANCH   1  11
ATOM     11  C   UNL     1      21.878  20.692  19.261  1.00  0.00     0.087 A 
ATOM     12  C   UNL     1      21.004  21.105  18.240  1.00  0.00     0.022 A 
ATOM     13  C   UNL     1      19.687  20.640  18.206  1.00  0.00     0.051 A 
ATOM     14  C   UNL     1      19.218  19.769  19.193  1.00  0.00     0.157 A 
ATOM     15  C   UNL     1      21.397  19.834  20.264  1.00  0.00     0.068 A 
ATOM     16  C   UNL     1      20.075  19.365  20.231  1.00  0.00     0.158 A 
BRANCH  14  17
ATOM     17  O   UNL     1      17.899  19.320  19.132  1.00  0.00    -0.504 OA
ATOM     18  H   UNL     1      17.115  19.922  19.356  1.00  0.00     0.293 HD
ENDBRANCH  14  17
BRANCH  16  19
ATOM     19  O   UNL     1      19.613  18.503  21.224  1.00  0.00    -0.504 OA
ATOM     20  H   UNL     1      20.164  18.299  22.049  1.00  0.00     0.293 HD
ENDBRANCH  16  19
ENDBRANCH   1  11
BRANCH  10  21
ATOM     21  O   UNL     1      23.885  20.135  17.219  1.00  0.00    -0.500 OA
ATOM     22  H   UNL     1      23.212  20.443  16.527  1.00  0.00     0.294 HD
ENDBRANCH  10  21
BRANCH   5  23
ATOM     23  O   UNL     1      26.740  24.397  23.045  1.00  0.00    -0.507 OA
ATOM     24  H   UNL     1      26.164  25.175  23.346  1.00  0.00     0.293 HD
ENDBRANCH   5  23
BRANCH   7  25
ATOM     25  O   UNL     1      28.125  22.531  18.805  1.00  0.00    -0.507 OA
ATOM     26  H   UNL     1      28.054  22.938  17.880  1.00  0.00     0.293 HD
ENDBRANCH   7  25
TORSDOF 6
ENDMDL
MODEL 3
REMARK VINA RESULT:    37.848      1.380      6.763
REMARK INTER + INTRA:          45.391
REMARK INTER:                  45.581
REMARK INTRA:                  -0.190
REMARK UNBOUND:                -0.201
REMARK SMILES Oc1cc(O)c2cc(O)c(-c3ccc(O)c(O)c3)[o+]c2c1.[Cl-]
REMARK SMILES IDX 10 1 19 2 20 3 21 4 2 5 3 6 4 7 6 8 7 9 8 10 11 11 12 12
REMARK SMILES IDX 13 13 14 14 18 15 16 16 15 17 17 19 9 21 1 23 5 25
REMARK H PARENT 15 18 17 20 9 22 1 24 5 26
REMARK Flexibility Score: inf
ROOT
ATOM      1  C   UNL     1      16.126  13.142  22.987  1.00  0.00     0.402 A 
ATOM      2  O   UNL     1      17.234  13.595  22.403  1.00  0.00    -0.202 OA
ATOM      3  C   UNL     1      17.338  14.816  21.887  1.00  0.00     0.368 A 
ATOM      4  C   UNL     1      18.540  15.216  21.295  1.00  0.00     0.162 A 
ATOM      5  C   UNL     1      18.664  16.501  20.751  1.00  0.00     0.128 A 
ATOM      6  C   UNL     1      17.582  17.388  20.801  1.00  0.00     0.093 A 
ATOM      7  C   UNL     1      16.369  16.999  21.392  1.00  0.00     0.136 A 
ATOM      8  C   UNL     1      16.245  15.708  21.938  1.00  0.00     0.125 A 
ATOM      9  C   UNL     1      15.059  15.263  22.532  1.00  0.00     0.078 A 
ATOM     10  C   UNL     1      14.985  13.968  23.053  1.00  0.00     0.223 A 
ENDROOT
BRANCH   1  11
ATOM     11  C   UNL     1      16.133  11.766  23.532  1.00  0.00     0.087 A 
ATOM     12  C   UNL     1      15.298  10.764  23.006  1.00  0.00     0.022 A 
ATOM     13  C   UNL     1      15.307   9.479  23.553  1.00  0.00     0.051 A 
ATOM     14  C   UNL     1      16.134   9.176  24.638  1.00  0.00     0.157 A 
ATOM     15  C   UNL     1      16.948  11.465  24.636  1.00  0.00     0.068 A 
ATOM     16  C   UNL     1      16.959  10.174  25.186  1.00  0.00     0.158 A 
BRANCH  14  17
ATOM     17  O   UNL     1      16.122   7.884  25.162  1.00  0.00    -0.504 OA
ATOM     18  H   UNL     1      16.966   7.426  25.486  1.00  0.00     0.293 HD
ENDBRANCH  14  17
BRANCH  16  19
ATOM     19  O   UNL     1      17.781   9.882  26.273  1.00  0.00    -0.504 OA
ATOM     20  H   UNL     1      18.763   9.663  26.152  1.00  0.00     0.293 HD
ENDBRANCH  16  19
ENDBRANCH   1  11
BRANCH  10  21
ATOM     21  O   UNL     1      13.790  13.502  23.602  1.00  0.00    -0.500 OA
ATOM     22  H   UNL     1      13.474  13.800  24.518  1.00  0.00     0.294 HD
ENDBRANCH  10  21
BRANCH   5  23
ATOM     23  O   UNL     1      19.857  16.909  20.159  1.00  0.00    -0.507 OA
ATOM     24  H   UNL     1      19.865  17.466  19.312  1.00  0.00     0.293 HD
ENDBRANCH   5  23
BRANCH   7  25
ATOM     25  O   UNL     1      15.298  17.891  21.434  1.00  0.00    -0.507 OA
ATOM     26  H   UNL     1      14.538  17.840  20.765  1.00  0.00     0.293 HD
ENDBRANCH   7  25
TORSDOF 6
ENDMDL
