MODEL 1
REMARK VINA RESULT:    -4.613      0.000      0.000
REMARK INTER + INTRA:          -5.401
REMARK INTER:                  -5.017
REMARK INTRA:                  -0.384
REMARK UNBOUND:                -0.384
REMARK SMILES C=C1C[C@@]2(O)O[C@@]3(C[C@H]2C(C)C)[C@@H](C)CC[C@@H]13
REMARK SMILES IDX 14 1 13 2 15 3 16 4 17 5 7 6 8 7 9 8 4 9 6 10 3 11 2 12 1 13
REMARK SMILES IDX 10 14 11 15 12 16 5 17
REMARK H PARENT 5 18
REMARK Flexibility Score: inf
ROOT
ATOM      1  C   UNL     1       7.455  16.758   9.120  1.00  0.00     0.011 C 
ATOM      2  C   UNL     1       7.346  18.217   8.657  1.00  0.00     0.019 C 
ATOM      3  C   UNL     1       5.946  18.805   8.893  1.00  0.00     0.007 C 
ATOM      4  C   UNL     1       6.142  20.246   9.375  1.00  0.00     0.011 C 
ATOM      5  C   UNL     1       7.635  20.544   9.244  1.00  0.00     0.047 C 
ATOM      6  C   UNL     1       8.312  19.170   9.373  1.00  0.00     0.081 C 
ATOM      7  C   UNL     1       9.736  19.178   8.804  1.00  0.00     0.046 C 
ATOM      8  C   UNL     1      10.609  19.376  10.043  1.00  0.00     0.054 C 
ATOM      9  C   UNL     1       9.552  19.580  11.168  1.00  0.00     0.173 C 
ATOM     10  O   UNL     1       8.427  18.853  10.743  1.00  0.00    -0.342 OA
ATOM     11  C   UNL     1       9.080  21.052  11.391  1.00  0.00     0.096 C 
ATOM     12  C   UNL     1       8.142  21.520  10.294  1.00  0.00    -0.066 C 
ATOM     13  C   UNL     1       7.749  22.801  10.261  1.00  0.00     0.008 C 
ENDROOT
BRANCH   8  14
ATOM     14  C   UNL     1      11.720  20.458   9.852  1.00  0.00    -0.009 C 
ATOM     15  C   UNL     1      11.466  21.281   8.573  1.00  0.00     0.008 C 
ATOM     16  C   UNL     1      13.125  19.838   9.748  1.00  0.00     0.008 C 
ENDBRANCH   8  14
BRANCH   9  17
ATOM     17  O   UNL     1      10.001  19.008  12.374  1.00  0.00    -0.365 OA
ATOM     18  H   UNL     1      10.891  19.387  12.587  1.00  0.00     0.214 HD
ENDBRANCH   9  17
TORSDOF 2
ENDMDL
MODEL 2
REMARK VINA RESULT:    -4.599      1.816      4.528
REMARK INTER + INTRA:          -5.386
REMARK INTER:                  -5.020
REMARK INTRA:                  -0.366
REMARK UNBOUND:                -0.384
REMARK SMILES C=C1C[C@@]2(O)O[C@@]3(C[C@H]2C(C)C)[C@@H](C)CC[C@@H]13
REMARK SMILES IDX 14 1 13 2 15 3 16 4 17 5 7 6 8 7 9 8 4 9 6 10 3 11 2 12 1 13
REMARK SMILES IDX 10 14 11 15 12 16 5 17
REMARK H PARENT 5 18
REMARK Flexibility Score: inf
ROOT
ATOM      1  C   UNL     1      12.382  20.159   8.181  1.00  0.00     0.011 C 
ATOM      2  C   UNL     1      11.818  20.292   9.602  1.00  0.00     0.019 C 
ATOM      3  C   UNL     1      12.397  21.500  10.354  1.00  0.00     0.007 C 
ATOM      4  C   UNL     1      11.247  22.129  11.145  1.00  0.00     0.011 C 
ATOM      5  C   UNL     1      10.054  21.184  10.994  1.00  0.00     0.047 C 
ATOM      6  C   UNL     1      10.295  20.476   9.652  1.00  0.00     0.081 C 
ATOM      7  C   UNL     1       9.493  19.175   9.539  1.00  0.00     0.046 C 
ATOM      8  C   UNL     1       8.257  19.590   8.742  1.00  0.00     0.054 C 
ATOM      9  C   UNL     1       8.452  21.128   8.599  1.00  0.00     0.173 C 
ATOM     10  O   UNL     1       9.845  21.318   8.613  1.00  0.00    -0.342 OA
ATOM     11  C   UNL     1       7.868  21.993   9.761  1.00  0.00     0.096 C 
ATOM     12  C   UNL     1       8.716  21.906  11.016  1.00  0.00    -0.066 C 
ATOM     13  C   UNL     1       8.285  22.481  12.148  1.00  0.00     0.008 C 
ENDROOT
BRANCH   8  14
ATOM     14  C   UNL     1       6.919  19.058   9.349  1.00  0.00    -0.009 C 
ATOM     15  C   UNL     1       7.195  18.143  10.558  1.00  0.00     0.008 C 
ATOM     16  C   UNL     1       6.094  18.257   8.325  1.00  0.00     0.008 C 
ENDBRANCH   8  14
BRANCH   9  17
ATOM     17  O   UNL     1       7.972  21.572   7.352  1.00  0.00    -0.365 OA
ATOM     18  H   UNL     1       7.723  20.780   6.813  1.00  0.00     0.214 HD
ENDBRANCH   9  17
TORSDOF 2
ENDMDL
MODEL 3
REMARK VINA RESULT:    -4.551      2.165      4.017
REMARK INTER + INTRA:          -5.333
REMARK INTER:                  -5.170
REMARK INTRA:                  -0.163
REMARK UNBOUND:                -0.384
REMARK SMILES C=C1C[C@@]2(O)O[C@@]3(C[C@H]2C(C)C)[C@@H](C)CC[C@@H]13
REMARK SMILES IDX 14 1 13 2 15 3 16 4 17 5 7 6 8 7 9 8 4 9 6 10 3 11 2 12 1 13
REMARK SMILES IDX 10 14 11 15 12 16 5 17
REMARK H PARENT 5 18
REMARK Flexibility Score: inf
ROOT
ATOM      1  C   UNL     1       7.202  17.050   8.013  1.00  0.00     0.011 C 
ATOM      2  C   UNL     1       7.202  17.743   9.382  1.00  0.00     0.019 C 
ATOM      3  C   UNL     1       8.248  17.153  10.340  1.00  0.00     0.007 C 
ATOM      4  C   UNL     1       8.870  18.328  11.101  1.00  0.00     0.011 C 
ATOM      5  C   UNL     1       8.061  19.566  10.717  1.00  0.00     0.047 C 
ATOM      6  C   UNL     1       7.512  19.245   9.318  1.00  0.00     0.081 C 
ATOM      7  C   UNL     1       6.311  20.127   8.958  1.00  0.00     0.046 C 
ATOM      8  C   UNL     1       6.932  21.241   8.116  1.00  0.00     0.054 C 
ATOM      9  C   UNL     1       8.452  20.917   8.201  1.00  0.00     0.173 C 
ATOM     10  O   UNL     1       8.516  19.523   8.366  1.00  0.00    -0.342 OA
ATOM     11  C   UNL     1       9.210  21.549   9.412  1.00  0.00     0.096 C 
ATOM     12  C   UNL     1       8.889  20.841  10.715  1.00  0.00    -0.066 C 
ATOM     13  C   UNL     1       9.350  21.340  11.871  1.00  0.00     0.008 C 
ENDROOT
BRANCH   8  14
ATOM     14  C   UNL     1       6.446  22.670   8.521  1.00  0.00    -0.009 C 
ATOM     15  C   UNL     1       6.058  22.711  10.013  1.00  0.00     0.008 C 
ATOM     16  C   UNL     1       5.225  23.124   7.700  1.00  0.00     0.008 C 
ENDBRANCH   8  14
BRANCH   9  17
ATOM     17  O   UNL     1       9.092  21.235   6.988  1.00  0.00    -0.365 OA
ATOM     18  H   UNL     1       8.421  21.194   6.261  1.00  0.00     0.214 HD
ENDBRANCH   9  17
TORSDOF 2
ENDMDL
MODEL 4
REMARK VINA RESULT:    -4.529      1.565      1.926
REMARK INTER + INTRA:          -5.310
REMARK INTER:                  -4.920
REMARK INTRA:                  -0.390
REMARK UNBOUND:                -0.384
REMARK SMILES C=C1C[C@@]2(O)O[C@@]3(C[C@H]2C(C)C)[C@@H](C)CC[C@@H]13
REMARK SMILES IDX 14 1 13 2 15 3 16 4 17 5 7 6 8 7 9 8 4 9 6 10 3 11 2 12 1 13
REMARK SMILES IDX 10 14 11 15 12 16 5 17
REMARK H PARENT 5 18
REMARK Flexibility Score: inf
ROOT
ATOM      1  C   UNL     1       8.238  17.320  10.491  1.00  0.00     0.011 C 
ATOM      2  C   UNL     1       7.641  18.157   9.351  1.00  0.00     0.019 C 
ATOM      3  C   UNL     1       6.108  18.068   9.297  1.00  0.00     0.007 C 
ATOM      4  C   UNL     1       5.590  19.472   8.969  1.00  0.00     0.011 C 
ATOM      5  C   UNL     1       6.822  20.323   8.657  1.00  0.00     0.047 C 
ATOM      6  C   UNL     1       7.958  19.655   9.448  1.00  0.00     0.081 C 
ATOM      7  C   UNL     1       9.338  20.050   8.911  1.00  0.00     0.046 C 
ATOM      8  C   UNL     1       9.771  21.178   9.846  1.00  0.00     0.054 C 
ATOM      9  C   UNL     1       8.513  21.372  10.742  1.00  0.00     0.173 C 
ATOM     10  O   UNL     1       7.901  20.107  10.783  1.00  0.00    -0.342 OA
ATOM     11  C   UNL     1       7.444  22.371  10.196  1.00  0.00     0.096 C 
ATOM     12  C   UNL     1       6.651  21.782   9.044  1.00  0.00    -0.066 C 
ATOM     13  C   UNL     1       5.785  22.555   8.374  1.00  0.00     0.008 C 
ENDROOT
BRANCH   8  14
ATOM     14  C   UNL     1      10.355  22.418   9.094  1.00  0.00    -0.009 C 
ATOM     15  C   UNL     1      10.125  22.292   7.575  1.00  0.00     0.008 C 
ATOM     16  C   UNL     1      11.866  22.586   9.334  1.00  0.00     0.008 C 
ENDBRANCH   8  14
BRANCH   9  17
ATOM     17  O   UNL     1       8.891  21.709  12.055  1.00  0.00    -0.365 OA
ATOM     18  H   UNL     1       9.658  22.333  12.010  1.00  0.00     0.214 HD
ENDBRANCH   9  17
TORSDOF 2
ENDMDL
MODEL 5
REMARK VINA RESULT:    -4.052      1.728      4.487
REMARK INTER + INTRA:          -4.791
REMARK INTER:                  -4.458
REMARK INTRA:                  -0.333
REMARK UNBOUND:                -0.384
REMARK SMILES C=C1C[C@@]2(O)O[C@@]3(C[C@H]2C(C)C)[C@@H](C)CC[C@@H]13
REMARK SMILES IDX 14 1 13 2 15 3 16 4 17 5 7 6 8 7 9 8 4 9 6 10 3 11 2 12 1 13
REMARK SMILES IDX 10 14 11 15 12 16 5 17
REMARK H PARENT 5 18
REMARK Flexibility Score: inf
ROOT
ATOM      1  C   UNL     1       9.744  18.022  11.912  1.00  0.00     0.011 C 
ATOM      2  C   UNL     1      10.337  19.415  11.659  1.00  0.00     0.019 C 
ATOM      3  C   UNL     1      11.817  19.359  11.253  1.00  0.00     0.007 C 
ATOM      4  C   UNL     1      12.020  20.407  10.154  1.00  0.00     0.011 C 
ATOM      5  C   UNL     1      10.708  21.186  10.056  1.00  0.00     0.047 C 
ATOM      6  C   UNL     1       9.637  20.194  10.537  1.00  0.00     0.081 C 
ATOM      7  C   UNL     1       8.348  20.905  10.964  1.00  0.00     0.046 C 
ATOM      8  C   UNL     1       7.455  20.788   9.730  1.00  0.00     0.054 C 
ATOM      9  C   UNL     1       8.404  20.119   8.693  1.00  0.00     0.173 C 
ATOM     10  O   UNL     1       9.293  19.348   9.461  1.00  0.00    -0.342 OA
ATOM     11  C   UNL     1       9.275  21.099   7.845  1.00  0.00     0.096 C 
ATOM     12  C   UNL     1      10.417  21.688   8.651  1.00  0.00    -0.066 C 
ATOM     13  C   UNL     1      11.181  22.650   8.114  1.00  0.00     0.008 C 
ENDROOT
BRANCH   8  14
ATOM     14  C   UNL     1       6.750  22.129   9.345  1.00  0.00    -0.009 C 
ATOM     15  C   UNL     1       6.794  23.125  10.521  1.00  0.00     0.008 C 
ATOM     16  C   UNL     1       5.275  21.919   8.954  1.00  0.00     0.008 C 
ENDBRANCH   8  14
BRANCH   9  17
ATOM     17  O   UNL     1       7.683  19.240   7.862  1.00  0.00    -0.365 OA
ATOM     18  H   UNL     1       7.838  18.314   8.177  1.00  0.00     0.214 HD
ENDBRANCH   9  17
TORSDOF 2
ENDMDL
MODEL 6
REMARK VINA RESULT:    -3.875      1.963      4.324
REMARK INTER + INTRA:          -4.599
REMARK INTER:                  -4.243
REMARK INTRA:                  -0.356
REMARK UNBOUND:                -0.384
REMARK SMILES C=C1C[C@@]2(O)O[C@@]3(C[C@H]2C(C)C)[C@@H](C)CC[C@@H]13
REMARK SMILES IDX 14 1 13 2 15 3 16 4 17 5 7 6 8 7 9 8 4 9 6 10 3 11 2 12 1 13
REMARK SMILES IDX 10 14 11 15 12 16 5 17
REMARK H PARENT 5 18
REMARK Flexibility Score: inf
ROOT
ATOM      1  C   UNL     1      10.782  20.743  11.624  1.00  0.00     0.011 C 
ATOM      2  C   UNL     1       9.303  21.145  11.711  1.00  0.00     0.019 C 
ATOM      3  C   UNL     1       9.117  22.642  12.008  1.00  0.00     0.007 C 
ATOM      4  C   UNL     1       7.942  23.125  11.152  1.00  0.00     0.011 C 
ATOM      5  C   UNL     1       7.340  21.878  10.505  1.00  0.00     0.047 C 
ATOM      6  C   UNL     1       8.512  20.887  10.422  1.00  0.00     0.081 C 
ATOM      7  C   UNL     1       8.028  19.442  10.252  1.00  0.00     0.046 C 
ATOM      8  C   UNL     1       8.134  19.210   8.745  1.00  0.00     0.054 C 
ATOM      9  C   UNL     1       8.557  20.613   8.219  1.00  0.00     0.173 C 
ATOM     10  O   UNL     1       9.278  21.192   9.277  1.00  0.00    -0.342 OA
ATOM     11  C   UNL     1       7.386  21.590   7.884  1.00  0.00     0.096 C 
ATOM     12  C   UNL     1       6.737  22.150   9.136  1.00  0.00    -0.066 C 
ATOM     13  C   UNL     1       5.631  22.900   9.030  1.00  0.00     0.008 C 
ENDROOT
BRANCH   8  14
ATOM     14  C   UNL     1       6.867  18.531   8.132  1.00  0.00    -0.009 C 
ATOM     15  C   UNL     1       5.669  18.638   9.096  1.00  0.00     0.008 C 
ATOM     16  C   UNL     1       7.097  17.040   7.824  1.00  0.00     0.008 C 
ENDBRANCH   8  14
BRANCH   9  17
ATOM     17  O   UNL     1       9.433  20.484   7.124  1.00  0.00    -0.365 OA
ATOM     18  H   UNL     1       9.091  21.044   6.383  1.00  0.00     0.214 HD
ENDBRANCH   9  17
TORSDOF 2
ENDMDL
MODEL 7
REMARK VINA RESULT:    -3.828      2.605      4.921
REMARK INTER + INTRA:          -4.548
REMARK INTER:                  -4.596
REMARK INTRA:                   0.048
REMARK UNBOUND:                -0.384
REMARK SMILES C=C1C[C@@]2(O)O[C@@]3(C[C@H]2C(C)C)[C@@H](C)CC[C@@H]13
REMARK SMILES IDX 14 1 13 2 15 3 16 4 17 5 7 6 8 7 9 8 4 9 6 10 3 11 2 12 1 13
REMARK SMILES IDX 10 14 11 15 12 16 5 17
REMARK H PARENT 5 18
REMARK Flexibility Score: inf
ROOT
ATOM      1  C   UNL     1       5.536  22.515   8.238  1.00  0.00     0.011 C 
ATOM      2  C   UNL     1       6.867  21.797   8.500  1.00  0.00     0.019 C 
ATOM      3  C   UNL     1       7.571  22.306   9.767  1.00  0.00     0.007 C 
ATOM      4  C   UNL     1       8.168  21.083  10.469  1.00  0.00     0.011 C 
ATOM      5  C   UNL     1       7.967  19.901   9.521  1.00  0.00     0.047 C 
ATOM      6  C   UNL     1       6.727  20.281   8.695  1.00  0.00     0.081 C 
ATOM      7  C   UNL     1       6.639  19.477   7.393  1.00  0.00     0.046 C 
ATOM      8  C   UNL     1       5.674  18.345   7.742  1.00  0.00     0.054 C 
ATOM      9  C   UNL     1       5.420  18.578   9.260  1.00  0.00     0.173 C 
ATOM     10  O   UNL     1       5.574  19.963   9.444  1.00  0.00    -0.342 OA
ATOM     11  C   UNL     1       6.428  17.880  10.227  1.00  0.00     0.096 C 
ATOM     12  C   UNL     1       7.773  18.580  10.248  1.00  0.00    -0.066 C 
ATOM     13  C   UNL     1       8.794  18.034  10.923  1.00  0.00     0.008 C 
ENDROOT
BRANCH   8  14
ATOM     14  C   UNL     1       6.169  16.940   7.271  1.00  0.00    -0.009 C 
ATOM     15  C   UNL     1       7.701  16.829   7.406  1.00  0.00     0.008 C 
ATOM     16  C   UNL     1       5.798  16.652   5.805  1.00  0.00     0.008 C 
ENDBRANCH   8  14
BRANCH   9  17
ATOM     17  O   UNL     1       4.092  18.247   9.593  1.00  0.00    -0.365 OA
ATOM     18  H   UNL     1       3.651  17.876   8.788  1.00  0.00     0.214 HD
ENDBRANCH   9  17
TORSDOF 2
ENDMDL
MODEL 8
REMARK VINA RESULT:    -3.795      1.898      3.874
REMARK INTER + INTRA:          -4.512
REMARK INTER:                  -4.471
REMARK INTRA:                  -0.041
REMARK UNBOUND:                -0.384
REMARK SMILES C=C1C[C@@]2(O)O[C@@]3(C[C@H]2C(C)C)[C@@H](C)CC[C@@H]13
REMARK SMILES IDX 14 1 13 2 15 3 16 4 17 5 7 6 8 7 9 8 4 9 6 10 3 11 2 12 1 13
REMARK SMILES IDX 10 14 11 15 12 16 5 17
REMARK H PARENT 5 18
REMARK Flexibility Score: inf
ROOT
ATOM      1  C   UNL     1      10.648  19.813  12.030  1.00  0.00     0.011 C 
ATOM      2  C   UNL     1      10.052  18.913  10.940  1.00  0.00     0.019 C 
ATOM      3  C   UNL     1       9.278  17.719  11.520  1.00  0.00     0.007 C 
ATOM      4  C   UNL     1       8.028  17.533  10.655  1.00  0.00     0.011 C 
ATOM      5  C   UNL     1       8.173  18.496   9.477  1.00  0.00     0.047 C 
ATOM      6  C   UNL     1       9.057  19.631  10.017  1.00  0.00     0.081 C 
ATOM      7  C   UNL     1       9.706  20.438   8.887  1.00  0.00     0.046 C 
ATOM      8  C   UNL     1       8.784  21.648   8.743  1.00  0.00     0.054 C 
ATOM      9  C   UNL     1       7.638  21.316   9.743  1.00  0.00     0.173 C 
ATOM     10  O   UNL     1       8.243  20.530  10.738  1.00  0.00    -0.342 OA
ATOM     11  C   UNL     1       6.458  20.474   9.161  1.00  0.00     0.096 C 
ATOM     12  C   UNL     1       6.839  19.018   8.967  1.00  0.00    -0.066 C 
ATOM     13  C   UNL     1       5.987  18.187   8.352  1.00  0.00     0.008 C 
ENDROOT
BRANCH   8  14
ATOM     14  C   UNL     1       8.414  21.973   7.260  1.00  0.00    -0.009 C 
ATOM     15  C   UNL     1       9.671  22.370   6.459  1.00  0.00     0.008 C 
ATOM     16  C   UNL     1       7.398  23.125   7.153  1.00  0.00     0.008 C 
ENDBRANCH   8  14
BRANCH   9  17
ATOM     17  O   UNL     1       7.162  22.491  10.355  1.00  0.00    -0.365 OA
ATOM     18  H   UNL     1       6.958  23.152   9.646  1.00  0.00     0.214 HD
ENDBRANCH   9  17
TORSDOF 2
ENDMDL
MODEL 9
REMARK VINA RESULT:    -3.754      2.221      3.436
REMARK INTER + INTRA:          -4.467
REMARK INTER:                  -4.081
REMARK INTRA:                  -0.386
REMARK UNBOUND:                -0.384
REMARK SMILES C=C1C[C@@]2(O)O[C@@]3(C[C@H]2C(C)C)[C@@H](C)CC[C@@H]13
REMARK SMILES IDX 14 1 13 2 15 3 16 4 17 5 7 6 8 7 9 8 4 9 6 10 3 11 2 12 1 13
REMARK SMILES IDX 10 14 11 15 12 16 5 17
REMARK H PARENT 5 18
REMARK Flexibility Score: inf
ROOT
ATOM      1  C   UNL     1       6.889  21.380   8.723  1.00  0.00     0.011 C 
ATOM      2  C   UNL     1       7.854  22.373   9.384  1.00  0.00     0.019 C 
ATOM      3  C   UNL     1       7.506  22.640  10.857  1.00  0.00     0.007 C 
ATOM      4  C   UNL     1       8.829  22.713  11.623  1.00  0.00     0.011 C 
ATOM      5  C   UNL     1       9.938  22.671  10.572  1.00  0.00     0.047 C 
ATOM      6  C   UNL     1       9.317  21.909   9.391  1.00  0.00     0.081 C 
ATOM      7  C   UNL     1      10.072  22.167   8.082  1.00  0.00     0.046 C 
ATOM      8  C   UNL     1      11.000  20.959   7.968  1.00  0.00     0.054 C 
ATOM      9  C   UNL     1      10.742  20.209   9.308  1.00  0.00     0.173 C 
ATOM     10  O   UNL     1       9.415  20.525   9.648  1.00  0.00    -0.342 OA
ATOM     11  C   UNL     1      11.633  20.652  10.511  1.00  0.00     0.096 C 
ATOM     12  C   UNL     1      11.206  21.996  11.070  1.00  0.00    -0.066 C 
ATOM     13  C   UNL     1      11.948  22.584  12.019  1.00  0.00     0.008 C 
ENDROOT
BRANCH   8  14
ATOM     14  C   UNL     1      12.469  21.338   7.592  1.00  0.00    -0.009 C 
ATOM     15  C   UNL     1      12.644  22.869   7.555  1.00  0.00     0.008 C 
ATOM     16  C   UNL     1      12.882  20.778   6.219  1.00  0.00     0.008 C 
ENDBRANCH   8  14
BRANCH   9  17
ATOM     17  O   UNL     1      10.815  18.816   9.114  1.00  0.00    -0.365 OA
ATOM     18  H   UNL     1      10.116  18.386   9.669  1.00  0.00     0.214 HD
ENDBRANCH   9  17
TORSDOF 2
ENDMDL
