MODEL 1
REMARK VINA RESULT:    -8.307      0.000      0.000
REMARK INTER + INTRA:         -11.826
REMARK INTER:                 -11.220
REMARK INTRA:                  -0.605
REMARK UNBOUND:                -0.605
REMARK SMILES O=c1c(-c2ccc(O)cc2)coc2c([C@H]3O[C@H](CO)[C@H](O)[C@@H](O)[C@@H]3O)c(O)ccc12
REMARK SMILES IDX 3 1 11 2 12 3 13 4 30 5 2 6 1 7 29 8 28 9 26 10 14 11 4 12
REMARK SMILES IDX 5 13 6 14 7 15 10 16 9 17 8 18 15 20 24 21 16 22 22 23 17 24
REMARK SMILES IDX 20 25 25 26 23 28 18 30 19 31 21 33 27 35
REMARK H PARENT 8 19 25 27 23 29 19 32 21 34 27 36
REMARK Flexibility Score: inf
ROOT
ATOM      1  C   UNL     1       2.639  -8.485 -42.562  1.00  0.00     0.065 A 
ATOM      2  C   UNL     1       2.998  -9.642 -41.813  1.00  0.00     0.208 A 
ATOM      3  O   UNL     1       2.079 -10.448 -41.308  1.00  0.00    -0.463 OA
ATOM      4  C   UNL     1       0.779 -10.178 -41.331  1.00  0.00     0.147 A 
ATOM      5  C   UNL     1       0.328  -8.967 -41.916  1.00  0.00     0.066 A 
ATOM      6  C   UNL     1       1.262  -8.120 -42.534  1.00  0.00     0.200 A 
ATOM      7  O   UNL     1       0.902  -7.007 -43.026  1.00  0.00    -0.288 OA
ATOM      8  C   UNL     1      -1.046  -8.699 -41.966  1.00  0.00     0.020 A 
ATOM      9  C   UNL     1      -1.966  -9.697 -41.618  1.00  0.00     0.047 A 
ATOM     10  C   UNL     1      -1.545 -10.931 -41.125  1.00  0.00     0.125 A 
ATOM     11  C   UNL     1      -0.156 -11.140 -40.843  1.00  0.00     0.069 A 
ENDROOT
BRANCH   1  12
ATOM     12  C   UNL     1       3.475  -8.134 -43.786  1.00  0.00    -0.011 A 
ATOM     13  C   UNL     1       4.831  -7.730 -43.650  1.00  0.00     0.013 A 
ATOM     14  C   UNL     1       5.721  -7.827 -44.746  1.00  0.00     0.047 A 
ATOM     15  C   UNL     1       5.238  -8.280 -45.989  1.00  0.00     0.115 A 
ATOM     16  C   UNL     1       3.011  -8.529 -45.050  1.00  0.00     0.013 A 
ATOM     17  C   UNL     1       3.884  -8.637 -46.132  1.00  0.00     0.047 A 
BRANCH  15  18
ATOM     18  O   UNL     1       6.110  -8.438 -47.079  1.00  0.00    -0.508 OA
ATOM     19  H   UNL     1       6.893  -9.069 -47.038  1.00  0.00     0.293 HD
ENDBRANCH  15  18
ENDBRANCH   1  12
BRANCH  11  20
ATOM     20  C   UNL     1       0.410 -12.287 -39.972  1.00  0.00     0.188 C 
ATOM     21  C   UNL     1      -0.480 -13.530 -39.551  1.00  0.00     0.179 C 
ATOM     22  O   UNL     1       1.124 -11.753 -38.870  1.00  0.00    -0.362 OA
ATOM     23  C   UNL     1      -1.228 -13.396 -38.194  1.00  0.00     0.177 C 
ATOM     24  C   UNL     1       0.221 -11.362 -37.854  1.00  0.00     0.176 C 
ATOM     25  C   UNL     1      -0.372 -12.614 -37.168  1.00  0.00     0.177 C 
BRANCH  21  26
ATOM     26  O   UNL     1       0.336 -14.687 -39.527  1.00  0.00    -0.387 OA
ATOM     27  H   UNL     1       1.261 -14.426 -39.789  1.00  0.00     0.211 HD
ENDBRANCH  21  26
BRANCH  23  28
ATOM     28  O   UNL     1      -2.476 -12.766 -38.378  1.00  0.00    -0.387 OA
ATOM     29  H   UNL     1      -2.979 -12.848 -37.531  1.00  0.00     0.211 HD
ENDBRANCH  23  28
BRANCH  24  30
ATOM     30  C   UNL     1       0.956 -10.471 -36.848  1.00  0.00     0.191 C 
BRANCH  30  31
ATOM     31  O   UNL     1       0.613 -10.801 -35.523  1.00  0.00    -0.394 OA
ATOM     32  H   UNL     1       1.158 -10.237 -34.913  1.00  0.00     0.210 HD
ENDBRANCH  30  31
ENDBRANCH  24  30
BRANCH  25  33
ATOM     33  O   UNL     1       0.670 -13.418 -36.663  1.00  0.00    -0.388 OA
ATOM     34  H   UNL     1       1.326 -12.816 -36.192  1.00  0.00     0.211 HD
ENDBRANCH  25  33
ENDBRANCH  11  20
BRANCH  10  35
ATOM     35  O   UNL     1      -2.504 -11.918 -40.908  1.00  0.00    -0.507 OA
ATOM     36  H   UNL     1      -3.479 -11.711 -40.725  1.00  0.00     0.293 HD
ENDBRANCH  10  35
TORSDOF 9
ENDMDL
MODEL 2
REMARK VINA RESULT:    -8.267      6.323     10.009
REMARK INTER + INTRA:         -11.771
REMARK INTER:                 -11.076
REMARK INTRA:                  -0.695
REMARK UNBOUND:                -0.605
REMARK SMILES O=c1c(-c2ccc(O)cc2)coc2c([C@H]3O[C@H](CO)[C@H](O)[C@@H](O)[C@@H]3O)c(O)ccc12
REMARK SMILES IDX 3 1 11 2 12 3 13 4 30 5 2 6 1 7 29 8 28 9 26 10 14 11 4 12
REMARK SMILES IDX 5 13 6 14 7 15 10 16 9 17 8 18 15 20 24 21 16 22 22 23 17 24
REMARK SMILES IDX 20 25 25 26 23 28 18 30 19 31 21 33 27 35
REMARK H PARENT 8 19 25 27 23 29 19 32 21 34 27 36
REMARK Flexibility Score: inf
ROOT
ATOM      1  C   UNL     1       6.752  -9.776 -42.276  1.00  0.00     0.065 A 
ATOM      2  C   UNL     1       6.501  -8.402 -41.994  1.00  0.00     0.208 A 
ATOM      3  O   UNL     1       7.476  -7.580 -41.645  1.00  0.00    -0.463 OA
ATOM      4  C   UNL     1       8.715  -7.984 -41.392  1.00  0.00     0.147 A 
ATOM      5  C   UNL     1       9.033  -9.364 -41.488  1.00  0.00     0.066 A 
ATOM      6  C   UNL     1       8.048 -10.260 -41.933  1.00  0.00     0.200 A 
ATOM      7  O   UNL     1       8.282 -11.506 -41.987  1.00  0.00    -0.288 OA
ATOM      8  C   UNL     1      10.348  -9.783 -41.250  1.00  0.00     0.020 A 
ATOM      9  C   UNL     1      11.370  -8.835 -41.109  1.00  0.00     0.047 A 
ATOM     10  C   UNL     1      11.094  -7.468 -41.101  1.00  0.00     0.125 A 
ATOM     11  C   UNL     1       9.732  -7.024 -41.105  1.00  0.00     0.069 A 
ENDROOT
BRANCH   1  12
ATOM     12  C   UNL     1       6.000 -10.421 -43.431  1.00  0.00    -0.011 A 
ATOM     13  C   UNL     1       4.655 -10.851 -43.275  1.00  0.00     0.013 A 
ATOM     14  C   UNL     1       3.825 -11.036 -44.406  1.00  0.00     0.047 A 
ATOM     15  C   UNL     1       4.360 -10.839 -45.694  1.00  0.00     0.115 A 
ATOM     16  C   UNL     1       6.520 -10.286 -44.728  1.00  0.00     0.013 A 
ATOM     17  C   UNL     1       5.706 -10.457 -45.847  1.00  0.00     0.047 A 
BRANCH  15  18
ATOM     18  O   UNL     1       3.545 -10.962 -46.832  1.00  0.00    -0.508 OA
ATOM     19  H   UNL     1       3.507 -11.817 -47.361  1.00  0.00     0.293 HD
ENDBRANCH  15  18
ENDBRANCH   1  12
BRANCH  11  20
ATOM     20  C   UNL     1       9.263  -5.596 -40.737  1.00  0.00     0.188 C 
ATOM     21  C   UNL     1      10.287  -4.394 -40.596  1.00  0.00     0.179 C 
ATOM     22  O   UNL     1       8.358  -5.649 -39.647  1.00  0.00    -0.362 OA
ATOM     23  C   UNL     1      10.852  -4.154 -39.167  1.00  0.00     0.177 C 
ATOM     24  C   UNL     1       9.072  -5.779 -38.433  1.00  0.00     0.176 C 
ATOM     25  C   UNL     1       9.777  -4.447 -38.092  1.00  0.00     0.177 C 
BRANCH  21  26
ATOM     26  O   UNL     1       9.666  -3.211 -41.062  1.00  0.00    -0.387 OA
ATOM     27  H   UNL     1       8.759  -3.443 -41.402  1.00  0.00     0.211 HD
ENDBRANCH  21  26
BRANCH  23  28
ATOM     28  O   UNL     1      11.997  -4.946 -38.949  1.00  0.00    -0.387 OA
ATOM     29  H   UNL     1      12.595  -4.827 -39.728  1.00  0.00     0.211 HD
ENDBRANCH  23  28
BRANCH  24  30
ATOM     30  C   UNL     1       8.101  -6.196 -37.324  1.00  0.00     0.191 C 
BRANCH  30  31
ATOM     31  O   UNL     1       8.499  -5.684 -36.075  1.00  0.00    -0.394 OA
ATOM     32  H   UNL     1       7.874  -6.032 -35.384  1.00  0.00     0.210 HD
ENDBRANCH  30  31
ENDBRANCH  24  30
BRANCH  25  33
ATOM     33  O   UNL     1       8.827  -3.408 -38.032  1.00  0.00    -0.388 OA
ATOM     34  H   UNL     1       8.224  -3.492 -38.833  1.00  0.00     0.211 HD
ENDBRANCH  25  33
ENDBRANCH  11  20
BRANCH  10  35
ATOM     35  O   UNL     1      12.166  -6.578 -41.073  1.00  0.00    -0.507 OA
ATOM     36  H   UNL     1      12.641  -6.258 -41.909  1.00  0.00     0.293 HD
ENDBRANCH  10  35
TORSDOF 9
ENDMDL
MODEL 3
REMARK VINA RESULT:    -8.094      2.667      4.260
REMARK INTER + INTRA:         -11.538
REMARK INTER:                 -11.307
REMARK INTRA:                  -0.231
REMARK UNBOUND:                -0.605
REMARK SMILES O=c1c(-c2ccc(O)cc2)coc2c([C@H]3O[C@H](CO)[C@H](O)[C@@H](O)[C@@H]3O)c(O)ccc12
REMARK SMILES IDX 3 1 11 2 12 3 13 4 30 5 2 6 1 7 29 8 28 9 26 10 14 11 4 12
REMARK SMILES IDX 5 13 6 14 7 15 10 16 9 17 8 18 15 20 24 21 16 22 22 23 17 24
REMARK SMILES IDX 20 25 25 26 23 28 18 30 19 31 21 33 27 35
REMARK H PARENT 8 19 25 27 23 29 19 32 21 34 27 36
REMARK Flexibility Score: inf
ROOT
ATOM      1  C   UNL     1       3.591  -8.133 -40.878  1.00  0.00     0.065 A 
ATOM      2  C   UNL     1       2.549  -8.283 -39.919  1.00  0.00     0.208 A 
ATOM      3  O   UNL     1       2.145  -9.477 -39.521  1.00  0.00    -0.463 OA
ATOM      4  C   UNL     1       2.563 -10.610 -40.072  1.00  0.00     0.147 A 
ATOM      5  C   UNL     1       3.485 -10.564 -41.149  1.00  0.00     0.066 A 
ATOM      6  C   UNL     1       4.001  -9.321 -41.551  1.00  0.00     0.200 A 
ATOM      7  O   UNL     1       4.791  -9.235 -42.540  1.00  0.00    -0.288 OA
ATOM      8  C   UNL     1       3.947 -11.761 -41.709  1.00  0.00     0.020 A 
ATOM      9  C   UNL     1       3.651 -12.983 -41.090  1.00  0.00     0.047 A 
ATOM     10  C   UNL     1       2.818 -13.046 -39.974  1.00  0.00     0.125 A 
ATOM     11  C   UNL     1       2.145 -11.862 -39.528  1.00  0.00     0.069 A 
ENDROOT
BRANCH   1  12
ATOM     12  C   UNL     1       4.599  -7.010 -40.675  1.00  0.00    -0.011 A 
ATOM     13  C   UNL     1       5.731  -7.190 -39.834  1.00  0.00     0.013 A 
ATOM     14  C   UNL     1       6.867  -6.360 -39.974  1.00  0.00     0.047 A 
ATOM     15  C   UNL     1       6.848  -5.317 -40.920  1.00  0.00     0.115 A 
ATOM     16  C   UNL     1       4.589  -5.930 -41.570  1.00  0.00     0.013 A 
ATOM     17  C   UNL     1       5.708  -5.113 -41.721  1.00  0.00     0.047 A 
BRANCH  15  18
ATOM     18  O   UNL     1       7.982  -4.512 -41.119  1.00  0.00    -0.508 OA
ATOM     19  H   UNL     1       7.939  -3.671 -41.672  1.00  0.00     0.293 HD
ENDBRANCH  15  18
ENDBRANCH   1  12
BRANCH  11  20
ATOM     20  C   UNL     1       0.937 -11.838 -38.562  1.00  0.00     0.188 C 
ATOM     21  C   UNL     1       0.622 -13.052 -37.593  1.00  0.00     0.179 C 
ATOM     22  O   UNL     1      -0.223 -11.396 -39.247  1.00  0.00    -0.362 OA
ATOM     23  C   UNL     1      -0.349 -14.130 -38.154  1.00  0.00     0.177 C 
ATOM     24  C   UNL     1      -0.779 -12.461 -39.993  1.00  0.00     0.176 C 
ATOM     25  C   UNL     1      -1.441 -13.481 -39.039  1.00  0.00     0.177 C 
BRANCH  21  26
ATOM     26  O   UNL     1       0.107 -12.542 -36.377  1.00  0.00    -0.387 OA
ATOM     27  H   UNL     1       0.674 -11.775 -36.091  1.00  0.00     0.211 HD
ENDBRANCH  21  26
BRANCH  23  28
ATOM     28  O   UNL     1       0.363 -15.104 -38.883  1.00  0.00    -0.387 OA
ATOM     29  H   UNL     1       1.304 -14.806 -38.938  1.00  0.00     0.211 HD
ENDBRANCH  23  28
BRANCH  24  30
ATOM     30  C   UNL     1      -1.791 -11.897 -40.995  1.00  0.00     0.191 C 
BRANCH  30  31
ATOM     31  O   UNL     1      -1.151 -11.173 -42.018  1.00  0.00    -0.394 OA
ATOM     32  H   UNL     1      -0.864 -11.817 -42.719  1.00  0.00     0.210 HD
ENDBRANCH  30  31
ENDBRANCH  24  30
BRANCH  25  33
ATOM     33  O   UNL     1      -2.411 -12.833 -38.249  1.00  0.00    -0.388 OA
ATOM     34  H   UNL     1      -2.066 -12.792 -37.305  1.00  0.00     0.211 HD
ENDBRANCH  25  33
ENDBRANCH  11  20
BRANCH  10  35
ATOM     35  O   UNL     1       2.657 -14.276 -39.338  1.00  0.00    -0.507 OA
ATOM     36  H   UNL     1       3.234 -15.084 -39.543  1.00  0.00     0.293 HD
ENDBRANCH  10  35
TORSDOF 9
ENDMDL
MODEL 4
REMARK VINA RESULT:    -8.076      6.707     10.342
REMARK INTER + INTRA:         -11.514
REMARK INTER:                 -10.867
REMARK INTRA:                  -0.647
REMARK UNBOUND:                -0.605
REMARK SMILES O=c1c(-c2ccc(O)cc2)coc2c([C@H]3O[C@H](CO)[C@H](O)[C@@H](O)[C@@H]3O)c(O)ccc12
REMARK SMILES IDX 3 1 11 2 12 3 13 4 30 5 2 6 1 7 29 8 28 9 26 10 14 11 4 12
REMARK SMILES IDX 5 13 6 14 7 15 10 16 9 17 8 18 15 20 24 21 16 22 22 23 17 24
REMARK SMILES IDX 20 25 25 26 23 28 18 30 19 31 21 33 27 35
REMARK H PARENT 8 19 25 27 23 29 19 32 21 34 27 36
REMARK Flexibility Score: inf
ROOT
ATOM      1  C   UNL     1       8.123 -11.175 -40.235  1.00  0.00     0.065 A 
ATOM      2  C   UNL     1       7.854 -10.105 -39.334  1.00  0.00     0.208 A 
ATOM      3  O   UNL     1       8.659  -9.061 -39.244  1.00  0.00    -0.463 OA
ATOM      4  C   UNL     1       9.832  -8.988 -39.862  1.00  0.00     0.147 A 
ATOM      5  C   UNL     1      10.269 -10.076 -40.661  1.00  0.00     0.066 A 
ATOM      6  C   UNL     1       9.410 -11.171 -40.848  1.00  0.00     0.200 A 
ATOM      7  O   UNL     1       9.784 -12.182 -41.516  1.00  0.00    -0.288 OA
ATOM      8  C   UNL     1      11.493  -9.984 -41.335  1.00  0.00     0.020 A 
ATOM      9  C   UNL     1      12.180  -8.764 -41.374  1.00  0.00     0.047 A 
ATOM     10  C   UNL     1      11.722  -7.652 -40.669  1.00  0.00     0.125 A 
ATOM     11  C   UNL     1      10.604  -7.790 -39.784  1.00  0.00     0.069 A 
ENDROOT
BRANCH   1  12
ATOM     12  C   UNL     1       6.951 -11.803 -40.976  1.00  0.00    -0.011 A 
ATOM     13  C   UNL     1       6.006 -12.613 -40.290  1.00  0.00     0.013 A 
ATOM     14  C   UNL     1       4.719 -12.832 -40.835  1.00  0.00     0.047 A 
ATOM     15  C   UNL     1       4.398 -12.280 -42.090  1.00  0.00     0.115 A 
ATOM     16  C   UNL     1       6.621 -11.313 -42.248  1.00  0.00     0.013 A 
ATOM     17  C   UNL     1       5.352 -11.515 -42.788  1.00  0.00     0.047 A 
BRANCH  15  18
ATOM     18  O   UNL     1       3.111 -12.434 -42.631  1.00  0.00    -0.508 OA
ATOM     19  H   UNL     1       2.327 -12.695 -42.055  1.00  0.00     0.293 HD
ENDBRANCH  15  18
ENDBRANCH   1  12
BRANCH  11  20
ATOM     20  C   UNL     1      10.214  -6.775 -38.683  1.00  0.00     0.188 C 
ATOM     21  C   UNL     1       8.800  -6.827 -37.967  1.00  0.00     0.179 C 
ATOM     22  O   UNL     1      10.550  -5.461 -39.093  1.00  0.00    -0.362 OA
ATOM     23  C   UNL     1       7.684  -5.957 -38.614  1.00  0.00     0.177 C 
ATOM     24  C   UNL     1       9.560  -4.961 -39.971  1.00  0.00     0.176 C 
ATOM     25  C   UNL     1       8.271  -4.642 -39.181  1.00  0.00     0.177 C 
BRANCH  21  26
ATOM     26  O   UNL     1       8.963  -6.452 -36.611  1.00  0.00    -0.387 OA
ATOM     27  H   UNL     1       9.711  -6.984 -36.224  1.00  0.00     0.211 HD
ENDBRANCH  21  26
BRANCH  23  28
ATOM     28  O   UNL     1       7.021  -6.680 -39.626  1.00  0.00    -0.387 OA
ATOM     29  H   UNL     1       6.049  -6.588 -39.469  1.00  0.00     0.211 HD
ENDBRANCH  23  28
BRANCH  24  30
ATOM     30  C   UNL     1      10.102  -3.717 -40.681  1.00  0.00     0.191 C 
BRANCH  30  31
ATOM     31  O   UNL     1       9.150  -2.680 -40.698  1.00  0.00    -0.394 OA
ATOM     32  H   UNL     1       9.511  -1.920 -40.169  1.00  0.00     0.210 HD
ENDBRANCH  30  31
ENDBRANCH  24  30
BRANCH  25  33
ATOM     33  O   UNL     1       8.560  -3.730 -38.146  1.00  0.00    -0.388 OA
ATOM     34  H   UNL     1       8.836  -2.859 -38.568  1.00  0.00     0.211 HD
ENDBRANCH  25  33
ENDBRANCH  11  20
BRANCH  10  35
ATOM     35  O   UNL     1      12.388  -6.440 -40.842  1.00  0.00    -0.507 OA
ATOM     36  H   UNL     1      11.947  -5.619 -41.242  1.00  0.00     0.293 HD
ENDBRANCH  10  35
TORSDOF 9
ENDMDL
MODEL 5
REMARK VINA RESULT:    -7.964      2.310      7.553
REMARK INTER + INTRA:         -11.363
REMARK INTER:                 -10.684
REMARK INTRA:                  -0.679
REMARK UNBOUND:                -0.605
REMARK SMILES O=c1c(-c2ccc(O)cc2)coc2c([C@H]3O[C@H](CO)[C@H](O)[C@@H](O)[C@@H]3O)c(O)ccc12
REMARK SMILES IDX 3 1 11 2 12 3 13 4 30 5 2 6 1 7 29 8 28 9 26 10 14 11 4 12
REMARK SMILES IDX 5 13 6 14 7 15 10 16 9 17 8 18 15 20 24 21 16 22 22 23 17 24
REMARK SMILES IDX 20 25 25 26 23 28 18 30 19 31 21 33 27 35
REMARK H PARENT 8 19 25 27 23 29 19 32 21 34 27 36
REMARK Flexibility Score: inf
ROOT
ATOM      1  C   UNL     1       0.269 -10.083 -41.257  1.00  0.00     0.065 A 
ATOM      2  C   UNL     1       1.559 -10.243 -41.838  1.00  0.00     0.208 A 
ATOM      3  O   UNL     1       2.223  -9.214 -42.337  1.00  0.00    -0.463 OA
ATOM      4  C   UNL     1       1.698  -8.002 -42.469  1.00  0.00     0.147 A 
ATOM      5  C   UNL     1       0.357  -7.774 -42.067  1.00  0.00     0.066 A 
ATOM      6  C   UNL     1      -0.358  -8.819 -41.458  1.00  0.00     0.200 A 
ATOM      7  O   UNL     1      -1.573  -8.667 -41.128  1.00  0.00    -0.288 OA
ATOM      8  C   UNL     1      -0.185  -6.488 -42.179  1.00  0.00     0.020 A 
ATOM      9  C   UNL     1       0.644  -5.406 -42.503  1.00  0.00     0.047 A 
ATOM     10  C   UNL     1       1.991  -5.593 -42.815  1.00  0.00     0.125 A 
ATOM     11  C   UNL     1       2.507  -6.923 -42.937  1.00  0.00     0.069 A 
ENDROOT
BRANCH   1  12
ATOM     12  C   UNL     1      -0.060 -10.884 -40.005  1.00  0.00    -0.011 A 
ATOM     13  C   UNL     1      -0.636 -12.180 -40.099  1.00  0.00     0.013 A 
ATOM     14  C   UNL     1      -0.541 -13.087 -39.017  1.00  0.00     0.047 A 
ATOM     15  C   UNL     1       0.084 -12.675 -37.824  1.00  0.00     0.115 A 
ATOM     16  C   UNL     1       0.508 -10.485 -38.786  1.00  0.00     0.013 A 
ATOM     17  C   UNL     1       0.614 -11.375 -37.718  1.00  0.00     0.047 A 
BRANCH  15  18
ATOM     18  O   UNL     1       0.241 -13.572 -36.754  1.00  0.00    -0.508 OA
ATOM     19  H   UNL     1      -0.502 -14.191 -36.475  1.00  0.00     0.293 HD
ENDBRANCH  15  18
ENDBRANCH   1  12
BRANCH  11  20
ATOM     20  C   UNL     1       3.845  -7.296 -43.619  1.00  0.00     0.188 C 
ATOM     21  C   UNL     1       4.440  -8.764 -43.539  1.00  0.00     0.179 C 
ATOM     22  O   UNL     1       4.826  -6.314 -43.333  1.00  0.00    -0.362 OA
ATOM     23  C   UNL     1       5.418  -9.032 -42.359  1.00  0.00     0.177 C 
ATOM     24  C   UNL     1       5.367  -6.532 -42.045  1.00  0.00     0.176 C 
ATOM     25  C   UNL     1       6.279  -7.779 -42.062  1.00  0.00     0.177 C 
BRANCH  21  26
ATOM     26  O   UNL     1       5.085  -9.061 -44.763  1.00  0.00    -0.387 OA
ATOM     27  H   UNL     1       4.452  -9.571 -45.338  1.00  0.00     0.211 HD
ENDBRANCH  21  26
BRANCH  23  28
ATOM     28  O   UNL     1       4.708  -9.428 -41.209  1.00  0.00    -0.387 OA
ATOM     29  H   UNL     1       5.035  -8.880 -40.453  1.00  0.00     0.211 HD
ENDBRANCH  23  28
BRANCH  24  30
ATOM     30  C   UNL     1       6.139  -5.283 -41.608  1.00  0.00     0.191 C 
BRANCH  30  31
ATOM     31  O   UNL     1       5.292  -4.163 -41.516  1.00  0.00    -0.394 OA
ATOM     32  H   UNL     1       4.362  -4.487 -41.384  1.00  0.00     0.210 HD
ENDBRANCH  30  31
ENDBRANCH  24  30
BRANCH  25  33
ATOM     33  O   UNL     1       7.288  -7.618 -43.032  1.00  0.00    -0.388 OA
ATOM     34  H   UNL     1       8.178  -7.671 -42.566  1.00  0.00     0.211 HD
ENDBRANCH  25  33
ENDBRANCH  11  20
BRANCH  10  35
ATOM     35  O   UNL     1       2.785  -4.466 -43.014  1.00  0.00    -0.507 OA
ATOM     36  H   UNL     1       3.358  -4.332 -43.840  1.00  0.00     0.293 HD
ENDBRANCH  10  35
TORSDOF 9
ENDMDL
MODEL 6
REMARK VINA RESULT:    -7.931      4.402      6.461
REMARK INTER + INTRA:         -11.317
REMARK INTER:                 -10.735
REMARK INTRA:                  -0.582
REMARK UNBOUND:                -0.605
REMARK SMILES O=c1c(-c2ccc(O)cc2)coc2c([C@H]3O[C@H](CO)[C@H](O)[C@@H](O)[C@@H]3O)c(O)ccc12
REMARK SMILES IDX 3 1 11 2 12 3 13 4 30 5 2 6 1 7 29 8 28 9 26 10 14 11 4 12
REMARK SMILES IDX 5 13 6 14 7 15 10 16 9 17 8 18 15 20 24 21 16 22 22 23 17 24
REMARK SMILES IDX 20 25 25 26 23 28 18 30 19 31 21 33 27 35
REMARK H PARENT 8 19 25 27 23 29 19 32 21 34 27 36
REMARK Flexibility Score: inf
ROOT
ATOM      1  C   UNL     1       6.349  -9.425 -44.107  1.00  0.00     0.065 A 
ATOM      2  C   UNL     1       6.012  -8.231 -43.406  1.00  0.00     0.208 A 
ATOM      3  O   UNL     1       4.766  -7.793 -43.353  1.00  0.00    -0.463 OA
ATOM      4  C   UNL     1       3.772  -8.331 -44.050  1.00  0.00     0.147 A 
ATOM      5  C   UNL     1       4.036  -9.429 -44.908  1.00  0.00     0.066 A 
ATOM      6  C   UNL     1       5.329  -9.977 -44.934  1.00  0.00     0.200 A 
ATOM      7  O   UNL     1       5.613 -10.929 -45.723  1.00  0.00    -0.288 OA
ATOM      8  C   UNL     1       2.980 -10.014 -45.619  1.00  0.00     0.020 A 
ATOM      9  C   UNL     1       1.659  -9.642 -45.339  1.00  0.00     0.047 A 
ATOM     10  C   UNL     1       1.368  -8.624 -44.431  1.00  0.00     0.125 A 
ATOM     11  C   UNL     1       2.438  -7.854 -43.871  1.00  0.00     0.069 A 
ENDROOT
BRANCH   1  12
ATOM     12  C   UNL     1       7.387 -10.351 -43.490  1.00  0.00    -0.011 A 
ATOM     13  C   UNL     1       8.734  -9.928 -43.323  1.00  0.00     0.013 A 
ATOM     14  C   UNL     1       9.577 -10.572 -42.387  1.00  0.00     0.047 A 
ATOM     15  C   UNL     1       9.085 -11.672 -41.658  1.00  0.00     0.115 A 
ATOM     16  C   UNL     1       6.943 -11.483 -42.789  1.00  0.00     0.013 A 
ATOM     17  C   UNL     1       7.764 -12.118 -41.858  1.00  0.00     0.047 A 
BRANCH  15  18
ATOM     18  O   UNL     1       9.881 -12.297 -40.683  1.00  0.00    -0.508 OA
ATOM     19  H   UNL     1      10.842 -12.033 -40.542  1.00  0.00     0.293 HD
ENDBRANCH  15  18
ENDBRANCH   1  12
BRANCH  11  20
ATOM     20  C   UNL     1       2.271  -6.492 -43.156  1.00  0.00     0.188 C 
ATOM     21  C   UNL     1       3.423  -5.876 -42.258  1.00  0.00     0.179 C 
ATOM     22  O   UNL     1       1.011  -6.435 -42.510  1.00  0.00    -0.362 OA
ATOM     23  C   UNL     1       3.362  -6.233 -40.745  1.00  0.00     0.177 C 
ATOM     24  C   UNL     1       1.067  -7.128 -41.279  1.00  0.00     0.176 C 
ATOM     25  C   UNL     1       1.895  -6.316 -40.257  1.00  0.00     0.177 C 
BRANCH  21  26
ATOM     26  O   UNL     1       3.416  -4.469 -42.410  1.00  0.00    -0.387 OA
ATOM     27  H   UNL     1       3.355  -4.257 -43.382  1.00  0.00     0.211 HD
ENDBRANCH  21  26
BRANCH  23  28
ATOM     28  O   UNL     1       4.035  -7.446 -40.497  1.00  0.00    -0.387 OA
ATOM     29  H   UNL     1       4.929  -7.382 -40.914  1.00  0.00     0.211 HD
ENDBRANCH  23  28
BRANCH  24  30
ATOM     30  C   UNL     1      -0.358  -7.370 -40.774  1.00  0.00     0.191 C 
BRANCH  30  31
ATOM     31  O   UNL     1      -1.126  -6.191 -40.818  1.00  0.00    -0.394 OA
ATOM     32  H   UNL     1      -0.887  -5.697 -41.647  1.00  0.00     0.210 HD
ENDBRANCH  30  31
ENDBRANCH  24  30
BRANCH  25  33
ATOM     33  O   UNL     1       1.339  -5.030 -40.108  1.00  0.00    -0.388 OA
ATOM     34  H   UNL     1       1.991  -4.364 -40.488  1.00  0.00     0.211 HD
ENDBRANCH  25  33
ENDBRANCH  11  20
BRANCH  10  35
ATOM     35  O   UNL     1       0.033  -8.383 -44.114  1.00  0.00    -0.507 OA
ATOM     36  H   UNL     1      -0.737  -8.877 -44.550  1.00  0.00     0.293 HD
ENDBRANCH  10  35
TORSDOF 9
ENDMDL
MODEL 7
REMARK VINA RESULT:    -7.883      4.958      8.205
REMARK INTER + INTRA:         -11.253
REMARK INTER:                 -10.580
REMARK INTRA:                  -0.673
REMARK UNBOUND:                -0.605
REMARK SMILES O=c1c(-c2ccc(O)cc2)coc2c([C@H]3O[C@H](CO)[C@H](O)[C@@H](O)[C@@H]3O)c(O)ccc12
REMARK SMILES IDX 3 1 11 2 12 3 13 4 30 5 2 6 1 7 29 8 28 9 26 10 14 11 4 12
REMARK SMILES IDX 5 13 6 14 7 15 10 16 9 17 8 18 15 20 24 21 16 22 22 23 17 24
REMARK SMILES IDX 20 25 25 26 23 28 18 30 19 31 21 33 27 35
REMARK H PARENT 8 19 25 27 23 29 19 32 21 34 27 36
REMARK Flexibility Score: inf
ROOT
ATOM      1  C   UNL     1       8.872  -9.240 -41.367  1.00  0.00     0.065 A 
ATOM      2  C   UNL     1       7.827  -8.419 -41.879  1.00  0.00     0.208 A 
ATOM      3  O   UNL     1       6.651  -8.926 -42.210  1.00  0.00    -0.463 OA
ATOM      4  C   UNL     1       6.398 -10.229 -42.231  1.00  0.00     0.147 A 
ATOM      5  C   UNL     1       7.426 -11.145 -41.891  1.00  0.00     0.066 A 
ATOM      6  C   UNL     1       8.665 -10.647 -41.457  1.00  0.00     0.200 A 
ATOM      7  O   UNL     1       9.623 -11.436 -41.189  1.00  0.00    -0.288 OA
ATOM      8  C   UNL     1       7.148 -12.518 -41.884  1.00  0.00     0.020 A 
ATOM      9  C   UNL     1       5.827 -12.964 -42.024  1.00  0.00     0.047 A 
ATOM     10  C   UNL     1       4.783 -12.073 -42.270  1.00  0.00     0.125 A 
ATOM     11  C   UNL     1       5.078 -10.693 -42.515  1.00  0.00     0.069 A 
ENDROOT
BRANCH   1  12
ATOM     12  C   UNL     1       9.735  -8.687 -40.242  1.00  0.00    -0.011 A 
ATOM     13  C   UNL     1      11.138  -8.531 -40.409  1.00  0.00     0.013 A 
ATOM     14  C   UNL     1      11.864  -7.642 -39.581  1.00  0.00     0.047 A 
ATOM     15  C   UNL     1      11.192  -6.951 -38.554  1.00  0.00     0.115 A 
ATOM     16  C   UNL     1       9.105  -8.027 -39.176  1.00  0.00     0.013 A 
ATOM     17  C   UNL     1       9.811  -7.142 -38.362  1.00  0.00     0.047 A 
BRANCH  15  18
ATOM     18  O   UNL     1      11.877  -6.022 -37.752  1.00  0.00    -0.508 OA
ATOM     19  H   UNL     1      11.754  -6.000 -36.753  1.00  0.00     0.293 HD
ENDBRANCH  15  18
ENDBRANCH   1  12
BRANCH  11  20
ATOM     20  C   UNL     1       4.100  -9.675 -43.150  1.00  0.00     0.188 C 
ATOM     21  C   UNL     1       2.587 -10.047 -43.444  1.00  0.00     0.179 C 
ATOM     22  O   UNL     1       4.712  -9.041 -44.259  1.00  0.00    -0.362 OA
ATOM     23  C   UNL     1       2.296 -10.617 -44.862  1.00  0.00     0.177 C 
ATOM     24  C   UNL     1       4.647  -9.883 -45.394  1.00  0.00     0.176 C 
ATOM     25  C   UNL     1       3.197  -9.940 -45.923  1.00  0.00     0.177 C 
BRANCH  21  26
ATOM     26  O   UNL     1       1.786  -8.902 -43.222  1.00  0.00    -0.387 OA
ATOM     27  H   UNL     1       1.983  -8.550 -42.311  1.00  0.00     0.211 HD
ENDBRANCH  21  26
BRANCH  23  28
ATOM     28  O   UNL     1       2.477 -12.015 -44.879  1.00  0.00    -0.387 OA
ATOM     29  H   UNL     1       2.510 -12.323 -43.940  1.00  0.00     0.211 HD
ENDBRANCH  23  28
BRANCH  24  30
ATOM     30  C   UNL     1       5.611  -9.358 -46.463  1.00  0.00     0.191 C 
BRANCH  30  31
ATOM     31  O   UNL     1       5.550  -7.956 -46.564  1.00  0.00    -0.394 OA
ATOM     32  H   UNL     1       5.492  -7.717 -47.528  1.00  0.00     0.210 HD
ENDBRANCH  30  31
ENDBRANCH  24  30
BRANCH  25  33
ATOM     33  O   UNL     1       2.744  -8.637 -46.212  1.00  0.00    -0.388 OA
ATOM     34  H   UNL     1       2.064  -8.701 -46.952  1.00  0.00     0.211 HD
ENDBRANCH  25  33
ENDBRANCH  11  20
BRANCH  10  35
ATOM     35  O   UNL     1       3.481 -12.568 -42.283  1.00  0.00    -0.507 OA
ATOM     36  H   UNL     1       3.192 -13.350 -42.861  1.00  0.00     0.293 HD
ENDBRANCH  10  35
TORSDOF 9
ENDMDL
MODEL 8
REMARK VINA RESULT:    -7.864      5.346      8.939
REMARK INTER + INTRA:         -11.227
REMARK INTER:                 -10.581
REMARK INTRA:                  -0.647
REMARK UNBOUND:                -0.605
REMARK SMILES O=c1c(-c2ccc(O)cc2)coc2c([C@H]3O[C@H](CO)[C@H](O)[C@@H](O)[C@@H]3O)c(O)ccc12
REMARK SMILES IDX 3 1 11 2 12 3 13 4 30 5 2 6 1 7 29 8 28 9 26 10 14 11 4 12
REMARK SMILES IDX 5 13 6 14 7 15 10 16 9 17 8 18 15 20 24 21 16 22 22 23 17 24
REMARK SMILES IDX 20 25 25 26 23 28 18 30 19 31 21 33 27 35
REMARK H PARENT 8 19 25 27 23 29 19 32 21 34 27 36
REMARK Flexibility Score: inf
ROOT
ATOM      1  C   UNL     1      10.149  -9.922 -41.997  1.00  0.00     0.065 A 
ATOM      2  C   UNL     1       9.495  -9.388 -43.144  1.00  0.00     0.208 A 
ATOM      3  O   UNL     1       8.311  -9.831 -43.531  1.00  0.00    -0.463 OA
ATOM      4  C   UNL     1       7.712 -10.884 -42.986  1.00  0.00     0.147 A 
ATOM      5  C   UNL     1       8.357 -11.589 -41.938  1.00  0.00     0.066 A 
ATOM      6  C   UNL     1       9.578 -11.104 -41.442  1.00  0.00     0.200 A 
ATOM      7  O   UNL     1      10.207 -11.735 -40.538  1.00  0.00    -0.288 OA
ATOM      8  C   UNL     1       7.710 -12.680 -41.345  1.00  0.00     0.020 A 
ATOM      9  C   UNL     1       6.370 -12.950 -41.652  1.00  0.00     0.047 A 
ATOM     10  C   UNL     1       5.684 -12.211 -42.616  1.00  0.00     0.125 A 
ATOM     11  C   UNL     1       6.396 -11.248 -43.402  1.00  0.00     0.069 A 
ENDROOT
BRANCH   1  12
ATOM     12  C   UNL     1      10.899  -8.962 -41.085  1.00  0.00    -0.011 A 
ATOM     13  C   UNL     1      10.196  -8.080 -40.220  1.00  0.00     0.013 A 
ATOM     14  C   UNL     1      10.838  -7.520 -39.090  1.00  0.00     0.047 A 
ATOM     15  C   UNL     1      12.198  -7.804 -38.858  1.00  0.00     0.115 A 
ATOM     16  C   UNL     1      12.266  -9.182 -40.858  1.00  0.00     0.013 A 
ATOM     17  C   UNL     1      12.904  -8.642 -39.742  1.00  0.00     0.047 A 
BRANCH  15  18
ATOM     18  O   UNL     1      12.846  -7.306 -37.715  1.00  0.00    -0.508 OA
ATOM     19  H   UNL     1      12.668  -6.376 -37.373  1.00  0.00     0.293 HD
ENDBRANCH  15  18
ENDBRANCH   1  12
BRANCH  11  20
ATOM     20  C   UNL     1       5.882 -10.628 -44.724  1.00  0.00     0.188 C 
ATOM     21  C   UNL     1       6.540  -9.324 -45.343  1.00  0.00     0.179 C 
ATOM     22  O   UNL     1       4.467 -10.545 -44.703  1.00  0.00    -0.362 OA
ATOM     23  C   UNL     1       5.894  -7.975 -44.916  1.00  0.00     0.177 C 
ATOM     24  C   UNL     1       4.060  -9.414 -43.959  1.00  0.00     0.176 C 
ATOM     25  C   UNL     1       4.361  -8.124 -44.755  1.00  0.00     0.177 C 
BRANCH  21  26
ATOM     26  O   UNL     1       6.520  -9.431 -46.754  1.00  0.00    -0.387 OA
ATOM     27  H   UNL     1       7.110 -10.188 -47.022  1.00  0.00     0.211 HD
ENDBRANCH  21  26
BRANCH  23  28
ATOM     28  O   UNL     1       6.474  -7.507 -43.720  1.00  0.00    -0.387 OA
ATOM     29  H   UNL     1       7.067  -6.751 -43.952  1.00  0.00     0.211 HD
ENDBRANCH  23  28
BRANCH  24  30
ATOM     30  C   UNL     1       2.567  -9.536 -43.639  1.00  0.00     0.191 C 
BRANCH  30  31
ATOM     31  O   UNL     1       2.114 -10.858 -43.802  1.00  0.00    -0.394 OA
ATOM     32  H   UNL     1       2.868 -11.403 -44.151  1.00  0.00     0.210 HD
ENDBRANCH  30  31
ENDBRANCH  24  30
BRANCH  25  33
ATOM     33  O   UNL     1       3.725  -8.181 -46.011  1.00  0.00    -0.388 OA
ATOM     34  H   UNL     1       3.191  -7.336 -46.127  1.00  0.00     0.211 HD
ENDBRANCH  25  33
ENDBRANCH  11  20
BRANCH  10  35
ATOM     35  O   UNL     1       4.324 -12.454 -42.791  1.00  0.00    -0.507 OA
ATOM     36  H   UNL     1       3.965 -13.262 -43.287  1.00  0.00     0.293 HD
ENDBRANCH  10  35
TORSDOF 9
ENDMDL
MODEL 9
REMARK VINA RESULT:    -7.794      5.039      7.788
REMARK INTER + INTRA:         -11.133
REMARK INTER:                 -10.429
REMARK INTRA:                  -0.703
REMARK UNBOUND:                -0.605
REMARK SMILES O=c1c(-c2ccc(O)cc2)coc2c([C@H]3O[C@H](CO)[C@H](O)[C@@H](O)[C@@H]3O)c(O)ccc12
REMARK SMILES IDX 3 1 11 2 12 3 13 4 30 5 2 6 1 7 29 8 28 9 26 10 14 11 4 12
REMARK SMILES IDX 5 13 6 14 7 15 10 16 9 17 8 18 15 20 24 21 16 22 22 23 17 24
REMARK SMILES IDX 20 25 25 26 23 28 18 30 19 31 21 33 27 35
REMARK H PARENT 8 19 25 27 23 29 19 32 21 34 27 36
REMARK Flexibility Score: inf
ROOT
ATOM      1  C   UNL     1       8.932  -7.917 -41.450  1.00  0.00     0.065 A 
ATOM      2  C   UNL     1       7.679  -7.939 -42.126  1.00  0.00     0.208 A 
ATOM      3  O   UNL     1       7.031  -9.072 -42.339  1.00  0.00    -0.463 OA
ATOM      4  C   UNL     1       7.547 -10.268 -42.079  1.00  0.00     0.147 A 
ATOM      5  C   UNL     1       8.860 -10.362 -41.550  1.00  0.00     0.066 A 
ATOM      6  C   UNL     1       9.552  -9.181 -41.234  1.00  0.00     0.200 A 
ATOM      7  O   UNL     1      10.745  -9.225 -40.803  1.00  0.00    -0.288 OA
ATOM      8  C   UNL     1       9.389 -11.622 -41.248  1.00  0.00     0.020 A 
ATOM      9  C   UNL     1       8.566 -12.755 -41.288  1.00  0.00     0.047 A 
ATOM     10  C   UNL     1       7.242 -12.673 -41.719  1.00  0.00     0.125 A 
ATOM     11  C   UNL     1       6.751 -11.439 -42.256  1.00  0.00     0.069 A 
ENDROOT
BRANCH   1  12
ATOM     12  C   UNL     1       9.200  -6.782 -40.470  1.00  0.00    -0.011 A 
ATOM     13  C   UNL     1       9.893  -5.612 -40.883  1.00  0.00     0.013 A 
ATOM     14  C   UNL     1       9.769  -4.409 -40.150  1.00  0.00     0.047 A 
ATOM     15  C   UNL     1       8.991  -4.393 -38.976  1.00  0.00     0.115 A 
ATOM     16  C   UNL     1       8.477  -6.750 -39.268  1.00  0.00     0.013 A 
ATOM     17  C   UNL     1       8.341  -5.565 -38.545  1.00  0.00     0.047 A 
BRANCH  15  18
ATOM     18  O   UNL     1       8.804  -3.200 -38.258  1.00  0.00    -0.508 OA
ATOM     19  H   UNL     1       9.311  -2.362 -38.492  1.00  0.00     0.293 HD
ENDBRANCH  15  18
ENDBRANCH   1  12
BRANCH  11  20
ATOM     20  C   UNL     1       5.459 -11.288 -43.094  1.00  0.00     0.188 C 
ATOM     21  C   UNL     1       4.866  -9.865 -43.460  1.00  0.00     0.179 C 
ATOM     22  O   UNL     1       4.459 -12.166 -42.606  1.00  0.00    -0.362 OA
ATOM     23  C   UNL     1       3.818  -9.293 -42.463  1.00  0.00     0.177 C 
ATOM     24  C   UNL     1       3.840 -11.606 -41.463  1.00  0.00     0.176 C 
ATOM     25  C   UNL     1       2.936 -10.425 -41.881  1.00  0.00     0.177 C 
BRANCH  21  26
ATOM     26  O   UNL     1       4.298  -9.928 -44.755  1.00  0.00    -0.387 OA
ATOM     27  H   UNL     1       4.852  -9.374 -45.370  1.00  0.00     0.211 HD
ENDBRANCH  21  26
BRANCH  23  28
ATOM     28  O   UNL     1       4.458  -8.584 -41.427  1.00  0.00    -0.387 OA
ATOM     29  H   UNL     1       5.252  -8.142 -41.815  1.00  0.00     0.211 HD
ENDBRANCH  23  28
BRANCH  24  30
ATOM     30  C   UNL     1       3.038 -12.695 -40.744  1.00  0.00     0.191 C 
BRANCH  30  31
ATOM     31  O   UNL     1       3.871 -13.742 -40.307  1.00  0.00    -0.394 OA
ATOM     32  H   UNL     1       3.897 -14.435 -41.020  1.00  0.00     0.210 HD
ENDBRANCH  30  31
ENDBRANCH  24  30
BRANCH  25  33
ATOM     33  O   UNL     1       1.988 -10.863 -42.828  1.00  0.00    -0.388 OA
ATOM     34  H   UNL     1       2.465 -11.006 -43.702  1.00  0.00     0.211 HD
ENDBRANCH  25  33
ENDBRANCH  11  20
BRANCH  10  35
ATOM     35  O   UNL     1       6.445 -13.812 -41.625  1.00  0.00    -0.507 OA
ATOM     36  H   UNL     1       5.940 -14.201 -42.413  1.00  0.00     0.293 HD
ENDBRANCH  10  35
TORSDOF 9
ENDMDL
