MODEL 1
REMARK VINA RESULT:    -7.824      0.000      0.000
REMARK INTER + INTRA:         -10.520
REMARK INTER:                  -9.883
REMARK INTRA:                  -0.638
REMARK UNBOUND:                -0.638
REMARK SMILES CC(C)[C@H](C)C=C[C@H](C)[C@@H]1CC[C@@H]2C3=CC=C4C[C@H](O)CC[C@@]4(C)[C@H]3CC[C@]21C
REMARK SMILES IDX 8 1 9 2 7 3 6 4 4 5 5 6 2 7 1 8 3 9 10 10 11 11 28 12 12 13
REMARK SMILES IDX 13 14 27 15 29 16 14 17 26 18 25 19 15 20 23 21 16 22 17 23
REMARK SMILES IDX 22 24 24 25 18 26 21 27 19 28 20 29
REMARK H PARENT 20 30
REMARK Flexibility Score: inf
ROOT
ATOM      1  C   UNL     1     133.815 131.020 143.082  1.00  0.00     0.012 C 
ATOM      2  C   UNL     1     133.378 129.744 143.829  1.00  0.00     0.012 C 
ENDROOT
BRANCH   1   3
ATOM      3  C   UNL     1     134.640 131.890 144.007  1.00  0.00    -0.028 C 
ATOM      4  C   UNL     1     134.359 133.162 144.357  1.00  0.00    -0.028 C 
BRANCH   4   5
ATOM      5  C   UNL     1     133.159 133.973 143.889  1.00  0.00     0.011 C 
ATOM      6  C   UNL     1     131.887 133.411 144.544  1.00  0.00     0.012 C 
BRANCH   5   7
ATOM      7  C   UNL     1     133.322 135.499 144.169  1.00  0.00    -0.011 C 
ATOM      8  C   UNL     1     134.620 135.795 144.936  1.00  0.00     0.008 C 
ATOM      9  C   UNL     1     132.123 136.125 144.902  1.00  0.00     0.008 C 
ENDBRANCH   5   7
ENDBRANCH   4   5
ENDBRANCH   1   3
BRANCH   1  10
ATOM     10  C   UNL     1     134.512 130.839 141.685  1.00  0.00     0.002 C 
ATOM     11  C   UNL     1     134.488 132.120 140.810  1.00  0.00     0.005 C 
ATOM     12  C   UNL     1     134.139 129.678 140.707  1.00  0.00    -0.023 C 
ATOM     13  C   UNL     1     134.531 131.657 139.346  1.00  0.00     0.009 C 
ATOM     14  C   UNL     1     134.852 130.168 139.434  1.00  0.00     0.021 C 
ATOM     15  C   UNL     1     134.714 128.271 141.088  1.00  0.00     0.008 C 
ATOM     16  C   UNL     1     132.597 129.587 140.499  1.00  0.00     0.012 C 
ATOM     17  C   UNL     1     134.570 129.262 138.256  1.00  0.00    -0.063 C 
ATOM     18  C   UNL     1     135.243 127.433 139.889  1.00  0.00     0.009 C 
ATOM     19  C   UNL     1     134.572 127.763 138.518  1.00  0.00     0.025 C 
ATOM     20  C   UNL     1     134.319 129.723 137.028  1.00  0.00    -0.000 C 
ATOM     21  C   UNL     1     135.127 126.940 137.290  1.00  0.00    -0.005 C 
ATOM     22  C   UNL     1     134.212 128.806 135.887  1.00  0.00    -0.000 C 
ATOM     23  C   UNL     1     134.595 127.518 135.975  1.00  0.00    -0.061 C 
ATOM     24  C   UNL     1     136.694 126.955 137.206  1.00  0.00     0.014 C 
ATOM     25  C   UNL     1     134.616 125.478 137.445  1.00  0.00     0.017 C 
ATOM     26  C   UNL     1     134.945 126.779 134.696  1.00  0.00     0.063 C 
ATOM     27  C   UNL     1     137.277 127.051 135.769  1.00  0.00     0.033 C 
ATOM     28  C   UNL     1     136.437 126.331 134.696  1.00  0.00     0.118 C 
BRANCH  28  29
ATOM     29  O   UNL     1     136.548 124.940 134.870  1.00  0.00    -0.393 OA
ATOM     30  H   UNL     1     136.410 124.760 135.836  1.00  0.00     0.210 HD
ENDBRANCH  28  29
ENDBRANCH   1  10
TORSDOF 5
ENDMDL
MODEL 2
REMARK VINA RESULT:    -7.260      2.881      5.163
REMARK INTER + INTRA:          -9.807
REMARK INTER:                  -9.276
REMARK INTRA:                  -0.531
REMARK UNBOUND:                -0.638
REMARK SMILES CC(C)[C@H](C)C=C[C@H](C)[C@@H]1CC[C@@H]2C3=CC=C4C[C@H](O)CC[C@@]4(C)[C@H]3CC[C@]21C
REMARK SMILES IDX 8 1 9 2 7 3 6 4 4 5 5 6 2 7 1 8 3 9 10 10 11 11 28 12 12 13
REMARK SMILES IDX 13 14 27 15 29 16 14 17 26 18 25 19 15 20 23 21 16 22 17 23
REMARK SMILES IDX 22 24 24 25 18 26 21 27 19 28 20 29
REMARK H PARENT 20 30
REMARK Flexibility Score: inf
ROOT
ATOM      1  C   UNL     1     132.184 132.210 137.231  1.00  0.00     0.012 C 
ATOM      2  C   UNL     1     130.896 131.617 136.627  1.00  0.00     0.012 C 
ENDROOT
BRANCH   1   3
ATOM      3  C   UNL     1     131.828 133.350 138.163  1.00  0.00    -0.028 C 
ATOM      4  C   UNL     1     132.526 133.729 139.253  1.00  0.00    -0.028 C 
BRANCH   4   5
ATOM      5  C   UNL     1     133.806 133.084 139.763  1.00  0.00     0.011 C 
ATOM      6  C   UNL     1     134.977 134.058 139.552  1.00  0.00     0.012 C 
BRANCH   5   7
ATOM      7  C   UNL     1     133.697 132.631 141.252  1.00  0.00    -0.011 C 
ATOM      8  C   UNL     1     133.886 133.814 142.214  1.00  0.00     0.008 C 
ATOM      9  C   UNL     1     134.660 131.490 141.624  1.00  0.00     0.008 C 
ENDBRANCH   5   7
ENDBRANCH   4   5
ENDBRANCH   1   3
BRANCH   1  10
ATOM     10  C   UNL     1     133.198 131.212 137.900  1.00  0.00     0.002 C 
ATOM     11  C   UNL     1     134.448 130.922 137.028  1.00  0.00     0.005 C 
ATOM     12  C   UNL     1     132.759 129.817 138.451  1.00  0.00    -0.023 C 
ATOM     13  C   UNL     1     134.942 129.520 137.416  1.00  0.00     0.009 C 
ATOM     14  C   UNL     1     134.141 129.174 138.668  1.00  0.00     0.021 C 
ATOM     15  C   UNL     1     132.003 129.846 139.823  1.00  0.00     0.008 C 
ATOM     16  C   UNL     1     131.923 129.030 137.396  1.00  0.00     0.012 C 
ATOM     17  C   UNL     1     134.019 127.735 139.116  1.00  0.00    -0.063 C 
ATOM     18  C   UNL     1     132.402 128.717 140.815  1.00  0.00     0.009 C 
ATOM     19  C   UNL     1     132.938 127.415 140.138  1.00  0.00     0.025 C 
ATOM     20  C   UNL     1     134.805 126.760 138.651  1.00  0.00    -0.000 C 
ATOM     21  C   UNL     1     133.376 126.276 141.139  1.00  0.00    -0.005 C 
ATOM     22  C   UNL     1     134.758 125.413 139.232  1.00  0.00    -0.000 C 
ATOM     23  C   UNL     1     134.119 125.164 140.391  1.00  0.00    -0.061 C 
ATOM     24  C   UNL     1     134.330 126.795 142.272  1.00  0.00     0.014 C 
ATOM     25  C   UNL     1     132.078 125.687 141.765  1.00  0.00     0.017 C 
ATOM     26  C   UNL     1     134.519 123.935 141.187  1.00  0.00     0.063 C 
ATOM     27  C   UNL     1     135.474 125.822 142.669  1.00  0.00     0.033 C 
ATOM     28  C   UNL     1     135.094 124.330 142.580  1.00  0.00     0.118 C 
BRANCH  28  29
ATOM     29  O   UNL     1     134.190 124.015 143.610  1.00  0.00    -0.393 OA
ATOM     30  H   UNL     1     133.893 124.876 144.003  1.00  0.00     0.210 HD
ENDBRANCH  28  29
ENDBRANCH   1  10
TORSDOF 5
ENDMDL
MODEL 3
REMARK VINA RESULT:    -6.929      1.508      3.000
REMARK INTER + INTRA:          -9.389
REMARK INTER:                  -8.511
REMARK INTRA:                  -0.878
REMARK UNBOUND:                -0.638
REMARK SMILES CC(C)[C@H](C)C=C[C@H](C)[C@@H]1CC[C@@H]2C3=CC=C4C[C@H](O)CC[C@@]4(C)[C@H]3CC[C@]21C
REMARK SMILES IDX 8 1 9 2 7 3 6 4 4 5 5 6 2 7 1 8 3 9 10 10 11 11 28 12 12 13
REMARK SMILES IDX 13 14 27 15 29 16 14 17 26 18 25 19 15 20 23 21 16 22 17 23
REMARK SMILES IDX 22 24 24 25 18 26 21 27 19 28 20 29
REMARK H PARENT 20 30
REMARK Flexibility Score: inf
ROOT
ATOM      1  C   UNL     1     133.589 132.852 140.009  1.00  0.00     0.012 C 
ATOM      2  C   UNL     1     132.699 133.881 139.284  1.00  0.00     0.012 C 
ENDROOT
BRANCH   1   3
ATOM      3  C   UNL     1     132.725 131.944 140.860  1.00  0.00    -0.028 C 
ATOM      4  C   UNL     1     132.973 131.583 142.136  1.00  0.00    -0.028 C 
BRANCH   4   5
ATOM      5  C   UNL     1     134.170 132.015 142.969  1.00  0.00     0.011 C 
ATOM      6  C   UNL     1     133.789 133.262 143.784  1.00  0.00     0.012 C 
BRANCH   5   7
ATOM      7  C   UNL     1     134.704 130.872 143.887  1.00  0.00    -0.011 C 
ATOM      8  C   UNL     1     136.066 130.351 143.401  1.00  0.00     0.008 C 
ATOM      9  C   UNL     1     133.720 129.700 144.051  1.00  0.00     0.008 C 
ENDBRANCH   5   7
ENDBRANCH   4   5
ENDBRANCH   1   3
BRANCH   1  10
ATOM     10  C   UNL     1     134.606 132.030 139.135  1.00  0.00     0.002 C 
ATOM     11  C   UNL     1     135.209 132.841 137.959  1.00  0.00     0.005 C 
ATOM     12  C   UNL     1     134.247 130.637 138.522  1.00  0.00    -0.023 C 
ATOM     13  C   UNL     1     135.573 131.827 136.863  1.00  0.00     0.009 C 
ATOM     14  C   UNL     1     135.426 130.470 137.546  1.00  0.00     0.021 C 
ATOM     15  C   UNL     1     134.263 129.438 139.530  1.00  0.00     0.008 C 
ATOM     16  C   UNL     1     132.884 130.685 137.768  1.00  0.00     0.012 C 
ATOM     17  C   UNL     1     135.282 129.215 136.713  1.00  0.00    -0.063 C 
ATOM     18  C   UNL     1     134.883 128.124 138.975  1.00  0.00     0.009 C 
ATOM     19  C   UNL     1     134.788 127.964 137.424  1.00  0.00     0.025 C 
ATOM     20  C   UNL     1     135.562 129.174 135.407  1.00  0.00    -0.000 C 
ATOM     21  C   UNL     1     135.446 126.649 136.849  1.00  0.00    -0.005 C 
ATOM     22  C   UNL     1     135.564 127.900 134.679  1.00  0.00    -0.000 C 
ATOM     23  C   UNL     1     135.528 126.717 135.321  1.00  0.00    -0.061 C 
ATOM     24  C   UNL     1     136.901 126.411 137.385  1.00  0.00     0.014 C 
ATOM     25  C   UNL     1     134.528 125.459 137.255  1.00  0.00     0.017 C 
ATOM     26  C   UNL     1     136.038 125.485 134.595  1.00  0.00     0.063 C 
ATOM     27  C   UNL     1     137.903 125.839 136.344  1.00  0.00     0.033 C 
ATOM     28  C   UNL     1     137.271 124.873 135.323  1.00  0.00     0.118 C 
BRANCH  28  29
ATOM     29  O   UNL     1     136.933 123.668 135.966  1.00  0.00    -0.393 OA
ATOM     30  H   UNL     1     136.253 123.891 136.653  1.00  0.00     0.210 HD
ENDBRANCH  28  29
ENDBRANCH   1  10
TORSDOF 5
ENDMDL
MODEL 4
REMARK VINA RESULT:    -6.683      1.610      3.027
REMARK INTER + INTRA:          -9.078
REMARK INTER:                  -8.597
REMARK INTRA:                  -0.481
REMARK UNBOUND:                -0.638
REMARK SMILES CC(C)[C@H](C)C=C[C@H](C)[C@@H]1CC[C@@H]2C3=CC=C4C[C@H](O)CC[C@@]4(C)[C@H]3CC[C@]21C
REMARK SMILES IDX 8 1 9 2 7 3 6 4 4 5 5 6 2 7 1 8 3 9 10 10 11 11 28 12 12 13
REMARK SMILES IDX 13 14 27 15 29 16 14 17 26 18 25 19 15 20 23 21 16 22 17 23
REMARK SMILES IDX 22 24 24 25 18 26 21 27 19 28 20 29
REMARK H PARENT 20 30
REMARK Flexibility Score: inf
ROOT
ATOM      1  C   UNL     1     133.036 132.515 139.265  1.00  0.00     0.012 C 
ATOM      2  C   UNL     1     131.991 133.333 138.480  1.00  0.00     0.012 C 
ENDROOT
BRANCH   1   3
ATOM      3  C   UNL     1     132.331 131.609 140.253  1.00  0.00    -0.028 C 
ATOM      4  C   UNL     1     132.680 131.420 141.542  1.00  0.00    -0.028 C 
BRANCH   4   5
ATOM      5  C   UNL     1     133.850 132.079 142.256  1.00  0.00     0.011 C 
ATOM      6  C   UNL     1     135.141 131.318 141.911  1.00  0.00     0.012 C 
BRANCH   5   7
ATOM      7  C   UNL     1     133.974 133.599 141.926  1.00  0.00    -0.011 C 
ATOM      8  C   UNL     1     135.282 133.908 141.181  1.00  0.00     0.008 C 
ATOM      9  C   UNL     1     133.841 134.512 143.157  1.00  0.00     0.008 C 
ENDBRANCH   5   7
ENDBRANCH   4   5
ENDBRANCH   1   3
BRANCH   1  10
ATOM     10  C   UNL     1     134.118 131.735 138.434  1.00  0.00     0.002 C 
ATOM     11  C   UNL     1     134.580 132.485 137.158  1.00  0.00     0.005 C 
ATOM     12  C   UNL     1     133.916 130.253 137.978  1.00  0.00    -0.023 C 
ATOM     13  C   UNL     1     135.032 131.414 136.154  1.00  0.00     0.009 C 
ATOM     14  C   UNL     1     135.075 130.127 136.974  1.00  0.00     0.021 C 
ATOM     15  C   UNL     1     134.111 129.175 139.099  1.00  0.00     0.008 C 
ATOM     16  C   UNL     1     132.534 130.059 137.284  1.00  0.00     0.012 C 
ATOM     17  C   UNL     1     135.062 128.784 136.277  1.00  0.00    -0.063 C 
ATOM     18  C   UNL     1     134.871 127.894 138.651  1.00  0.00     0.009 C 
ATOM     19  C   UNL     1     134.748 127.564 137.129  1.00  0.00     0.025 C 
ATOM     20  C   UNL     1     135.304 128.641 134.971  1.00  0.00    -0.000 C 
ATOM     21  C   UNL     1     135.545 126.284 136.660  1.00  0.00    -0.005 C 
ATOM     22  C   UNL     1     135.440 127.308 134.373  1.00  0.00    -0.000 C 
ATOM     23  C   UNL     1     135.571 126.202 135.131  1.00  0.00    -0.061 C 
ATOM     24  C   UNL     1     137.035 126.279 137.154  1.00  0.00     0.014 C 
ATOM     25  C   UNL     1     134.794 125.041 137.222  1.00  0.00     0.017 C 
ATOM     26  C   UNL     1     136.206 124.971 134.509  1.00  0.00     0.063 C 
ATOM     27  C   UNL     1     138.067 125.726 136.132  1.00  0.00     0.033 C 
ATOM     28  C   UNL     1     137.527 124.590 135.241  1.00  0.00     0.118 C 
BRANCH  28  29
ATOM     29  O   UNL     1     137.361 123.427 136.014  1.00  0.00    -0.393 OA
ATOM     30  H   UNL     1     138.184 122.885 135.897  1.00  0.00     0.210 HD
ENDBRANCH  28  29
ENDBRANCH   1  10
TORSDOF 5
ENDMDL
MODEL 5
REMARK VINA RESULT:    -6.598      2.981      8.763
REMARK INTER + INTRA:          -8.972
REMARK INTER:                  -8.792
REMARK INTRA:                  -0.179
REMARK UNBOUND:                -0.638
REMARK SMILES CC(C)[C@H](C)C=C[C@H](C)[C@@H]1CC[C@@H]2C3=CC=C4C[C@H](O)CC[C@@]4(C)[C@H]3CC[C@]21C
REMARK SMILES IDX 8 1 9 2 7 3 6 4 4 5 5 6 2 7 1 8 3 9 10 10 11 11 28 12 12 13
REMARK SMILES IDX 13 14 27 15 29 16 14 17 26 18 25 19 15 20 23 21 16 22 17 23
REMARK SMILES IDX 22 24 24 25 18 26 21 27 19 28 20 29
REMARK H PARENT 20 30
REMARK Flexibility Score: inf
ROOT
ATOM      1  C   UNL     1     134.849 128.819 134.791  1.00  0.00     0.012 C 
ATOM      2  C   UNL     1     136.046 129.627 134.253  1.00  0.00     0.012 C 
ENDROOT
BRANCH   1   3
ATOM      3  C   UNL     1     134.830 127.450 134.143  1.00  0.00    -0.028 C 
ATOM      4  C   UNL     1     135.472 126.352 134.593  1.00  0.00    -0.028 C 
BRANCH   4   5
ATOM      5  C   UNL     1     136.344 126.274 135.837  1.00  0.00     0.011 C 
ATOM      6  C   UNL     1     136.276 124.848 136.408  1.00  0.00     0.012 C 
BRANCH   5   7
ATOM      7  C   UNL     1     137.816 126.714 135.565  1.00  0.00    -0.011 C 
ATOM      8  C   UNL     1     138.788 125.531 135.690  1.00  0.00     0.008 C 
ATOM      9  C   UNL     1     138.287 127.879 136.452  1.00  0.00     0.008 C 
ENDBRANCH   5   7
ENDBRANCH   4   5
ENDBRANCH   1   3
BRANCH   1  10
ATOM     10  C   UNL     1     134.682 128.722 136.352  1.00  0.00     0.002 C 
ATOM     11  C   UNL     1     133.746 127.571 136.804  1.00  0.00     0.005 C 
ATOM     12  C   UNL     1     134.263 129.948 137.226  1.00  0.00    -0.023 C 
ATOM     13  C   UNL     1     133.139 127.997 138.150  1.00  0.00     0.009 C 
ATOM     14  C   UNL     1     133.945 129.230 138.550  1.00  0.00     0.021 C 
ATOM     15  C   UNL     1     135.393 131.000 137.491  1.00  0.00     0.008 C 
ATOM     16  C   UNL     1     133.001 130.654 136.643  1.00  0.00     0.012 C 
ATOM     17  C   UNL     1     133.399 130.189 139.584  1.00  0.00    -0.063 C 
ATOM     18  C   UNL     1     135.433 131.570 138.937  1.00  0.00     0.009 C 
ATOM     19  C   UNL     1     134.058 131.557 139.680  1.00  0.00     0.025 C 
ATOM     20  C   UNL     1     132.378 129.884 140.391  1.00  0.00    -0.000 C 
ATOM     21  C   UNL     1     134.096 132.103 141.160  1.00  0.00    -0.005 C 
ATOM     22  C   UNL     1     131.989 130.781 141.485  1.00  0.00    -0.000 C 
ATOM     23  C   UNL     1     132.773 131.805 141.873  1.00  0.00    -0.061 C 
ATOM     24  C   UNL     1     135.243 131.460 142.017  1.00  0.00     0.014 C 
ATOM     25  C   UNL     1     134.292 133.645 141.078  1.00  0.00     0.017 C 
ATOM     26  C   UNL     1     132.598 132.358 143.276  1.00  0.00     0.063 C 
ATOM     27  C   UNL     1     134.872 131.156 143.495  1.00  0.00     0.033 C 
ATOM     28  C   UNL     1     133.892 132.168 144.121  1.00  0.00     0.118 C 
BRANCH  28  29
ATOM     29  O   UNL     1     134.550 133.395 144.323  1.00  0.00    -0.393 OA
ATOM     30  H   UNL     1     135.524 133.205 144.296  1.00  0.00     0.210 HD
ENDBRANCH  28  29
ENDBRANCH   1  10
TORSDOF 5
ENDMDL
MODEL 6
REMARK VINA RESULT:    -6.485      3.256      8.318
REMARK INTER + INTRA:          -8.828
REMARK INTER:                  -8.274
REMARK INTRA:                  -0.554
REMARK UNBOUND:                -0.638
REMARK SMILES CC(C)[C@H](C)C=C[C@H](C)[C@@H]1CC[C@@H]2C3=CC=C4C[C@H](O)CC[C@@]4(C)[C@H]3CC[C@]21C
REMARK SMILES IDX 8 1 9 2 7 3 6 4 4 5 5 6 2 7 1 8 3 9 10 10 11 11 28 12 12 13
REMARK SMILES IDX 13 14 27 15 29 16 14 17 26 18 25 19 15 20 23 21 16 22 17 23
REMARK SMILES IDX 22 24 24 25 18 26 21 27 19 28 20 29
REMARK H PARENT 20 30
REMARK Flexibility Score: inf
ROOT
ATOM      1  C   UNL     1     131.610 127.215 137.956  1.00  0.00     0.012 C 
ATOM      2  C   UNL     1     130.494 126.761 136.994  1.00  0.00     0.012 C 
ENDROOT
BRANCH   1   3
ATOM      3  C   UNL     1     132.952 127.108 137.260  1.00  0.00    -0.028 C 
ATOM      4  C   UNL     1     133.939 126.244 137.574  1.00  0.00    -0.028 C 
BRANCH   4   5
ATOM      5  C   UNL     1     133.900 125.209 138.688  1.00  0.00     0.011 C 
ATOM      6  C   UNL     1     134.662 123.953 138.233  1.00  0.00     0.012 C 
BRANCH   5   7
ATOM      7  C   UNL     1     134.458 125.761 140.037  1.00  0.00    -0.011 C 
ATOM      8  C   UNL     1     135.763 126.544 139.828  1.00  0.00     0.008 C 
ATOM      9  C   UNL     1     134.661 124.678 141.111  1.00  0.00     0.008 C 
ENDBRANCH   5   7
ENDBRANCH   4   5
ENDBRANCH   1   3
BRANCH   1  10
ATOM     10  C   UNL     1     131.435 128.607 138.664  1.00  0.00     0.002 C 
ATOM     11  C   UNL     1     130.870 129.710 137.732  1.00  0.00     0.005 C 
ATOM     12  C   UNL     1     132.598 129.300 139.448  1.00  0.00    -0.023 C 
ATOM     13  C   UNL     1     131.389 131.053 138.269  1.00  0.00     0.009 C 
ATOM     14  C   UNL     1     131.993 130.704 139.626  1.00  0.00     0.021 C 
ATOM     15  C   UNL     1     132.898 128.704 140.865  1.00  0.00     0.008 C 
ATOM     16  C   UNL     1     133.904 129.344 138.598  1.00  0.00     0.012 C 
ATOM     17  C   UNL     1     132.972 131.650 140.285  1.00  0.00    -0.063 C 
ATOM     18  C   UNL     1     133.203 129.757 141.968  1.00  0.00     0.009 C 
ATOM     19  C   UNL     1     133.800 131.100 141.437  1.00  0.00     0.025 C 
ATOM     20  C   UNL     1     133.135 132.917 139.894  1.00  0.00    -0.000 C 
ATOM     21  C   UNL     1     134.081 132.187 142.547  1.00  0.00    -0.005 C 
ATOM     22  C   UNL     1     133.975 133.840 140.664  1.00  0.00    -0.000 C 
ATOM     23  C   UNL     1     134.413 133.536 141.901  1.00  0.00    -0.061 C 
ATOM     24  C   UNL     1     132.856 132.415 143.501  1.00  0.00     0.014 C 
ATOM     25  C   UNL     1     135.311 131.702 143.368  1.00  0.00     0.017 C 
ATOM     26  C   UNL     1     134.816 134.671 142.824  1.00  0.00     0.063 C 
ATOM     27  C   UNL     1     132.615 133.890 143.926  1.00  0.00     0.033 C 
ATOM     28  C   UNL     1     133.905 134.719 144.087  1.00  0.00     0.118 C 
BRANCH  28  29
ATOM     29  O   UNL     1     134.600 134.287 145.231  1.00  0.00    -0.393 OA
ATOM     30  H   UNL     1     134.719 135.082 145.811  1.00  0.00     0.210 HD
ENDBRANCH  28  29
ENDBRANCH   1  10
TORSDOF 5
ENDMDL
MODEL 7
REMARK VINA RESULT:    -6.398      2.870      8.318
REMARK INTER + INTRA:          -8.718
REMARK INTER:                  -7.934
REMARK INTRA:                  -0.784
REMARK UNBOUND:                -0.638
REMARK SMILES CC(C)[C@H](C)C=C[C@H](C)[C@@H]1CC[C@@H]2C3=CC=C4C[C@H](O)CC[C@@]4(C)[C@H]3CC[C@]21C
REMARK SMILES IDX 8 1 9 2 7 3 6 4 4 5 5 6 2 7 1 8 3 9 10 10 11 11 28 12 12 13
REMARK SMILES IDX 13 14 27 15 29 16 14 17 26 18 25 19 15 20 23 21 16 22 17 23
REMARK SMILES IDX 22 24 24 25 18 26 21 27 19 28 20 29
REMARK H PARENT 20 30
REMARK Flexibility Score: inf
ROOT
ATOM      1  C   UNL     1     134.829 126.309 137.881  1.00  0.00     0.012 C 
ATOM      2  C   UNL     1     134.456 124.837 138.149  1.00  0.00     0.012 C 
ENDROOT
BRANCH   1   3
ATOM      3  C   UNL     1     133.775 126.946 136.998  1.00  0.00    -0.028 C 
ATOM      4  C   UNL     1     134.009 127.693 135.900  1.00  0.00    -0.028 C 
BRANCH   4   5
ATOM      5  C   UNL     1     135.376 128.046 135.334  1.00  0.00     0.011 C 
ATOM      6  C   UNL     1     135.618 127.223 134.057  1.00  0.00     0.012 C 
BRANCH   5   7
ATOM      7  C   UNL     1     135.539 129.575 135.071  1.00  0.00    -0.011 C 
ATOM      8  C   UNL     1     136.801 130.131 135.748  1.00  0.00     0.008 C 
ATOM      9  C   UNL     1     134.311 130.407 135.480  1.00  0.00     0.008 C 
ENDBRANCH   5   7
ENDBRANCH   4   5
ENDBRANCH   1   3
BRANCH   1  10
ATOM     10  C   UNL     1     135.162 127.210 139.125  1.00  0.00     0.002 C 
ATOM     11  C   UNL     1     135.440 126.402 140.419  1.00  0.00     0.005 C 
ATOM     12  C   UNL     1     134.239 128.389 139.576  1.00  0.00    -0.023 C 
ATOM     13  C   UNL     1     135.061 127.312 141.598  1.00  0.00     0.009 C 
ATOM     14  C   UNL     1     134.846 128.681 140.960  1.00  0.00     0.021 C 
ATOM     15  C   UNL     1     134.338 129.688 138.706  1.00  0.00     0.008 C 
ATOM     16  C   UNL     1     132.754 127.931 139.689  1.00  0.00     0.012 C 
ATOM     17  C   UNL     1     134.062 129.745 141.696  1.00  0.00    -0.063 C 
ATOM     18  C   UNL     1     134.320 131.019 139.511  1.00  0.00     0.009 C 
ATOM     19  C   UNL     1     133.580 130.938 140.885  1.00  0.00     0.025 C 
ATOM     20  C   UNL     1     133.780 129.668 143.000  1.00  0.00    -0.000 C 
ATOM     21  C   UNL     1     133.587 132.276 141.723  1.00  0.00    -0.005 C 
ATOM     22  C   UNL     1     133.159 130.797 143.703  1.00  0.00    -0.000 C 
ATOM     23  C   UNL     1     133.073 132.019 143.143  1.00  0.00    -0.061 C 
ATOM     24  C   UNL     1     135.018 132.907 141.852  1.00  0.00     0.014 C 
ATOM     25  C   UNL     1     132.628 133.273 141.009  1.00  0.00     0.017 C 
ATOM     26  C   UNL     1     132.911 133.222 144.055  1.00  0.00     0.063 C 
ATOM     27  C   UNL     1     135.338 133.540 143.234  1.00  0.00     0.033 C 
ATOM     28  C   UNL     1     134.124 134.190 143.928  1.00  0.00     0.118 C 
BRANCH  28  29
ATOM     29  O   UNL     1     133.766 135.365 143.242  1.00  0.00    -0.393 OA
ATOM     30  H   UNL     1     132.953 135.151 142.714  1.00  0.00     0.210 HD
ENDBRANCH  28  29
ENDBRANCH   1  10
TORSDOF 5
ENDMDL
MODEL 8
REMARK VINA RESULT:    -6.314      1.525      3.151
REMARK INTER + INTRA:          -8.613
REMARK INTER:                  -7.791
REMARK INTRA:                  -0.821
REMARK UNBOUND:                -0.638
REMARK SMILES CC(C)[C@H](C)C=C[C@H](C)[C@@H]1CC[C@@H]2C3=CC=C4C[C@H](O)CC[C@@]4(C)[C@H]3CC[C@]21C
REMARK SMILES IDX 8 1 9 2 7 3 6 4 4 5 5 6 2 7 1 8 3 9 10 10 11 11 28 12 12 13
REMARK SMILES IDX 13 14 27 15 29 16 14 17 26 18 25 19 15 20 23 21 16 22 17 23
REMARK SMILES IDX 22 24 24 25 18 26 21 27 19 28 20 29
REMARK H PARENT 20 30
REMARK Flexibility Score: inf
ROOT
ATOM      1  C   UNL     1     133.305 130.400 142.654  1.00  0.00     0.012 C 
ATOM      2  C   UNL     1     133.126 129.663 143.997  1.00  0.00     0.012 C 
ENDROOT
BRANCH   1   3
ATOM      3  C   UNL     1     134.667 131.060 142.616  1.00  0.00    -0.028 C 
ATOM      4  C   UNL     1     134.911 132.356 142.332  1.00  0.00    -0.028 C 
BRANCH   4   5
ATOM      5  C   UNL     1     133.866 133.408 141.993  1.00  0.00     0.011 C 
ATOM      6  C   UNL     1     133.952 134.550 143.019  1.00  0.00     0.012 C 
BRANCH   5   7
ATOM      7  C   UNL     1     134.004 133.938 140.532  1.00  0.00    -0.011 C 
ATOM      8  C   UNL     1     133.122 133.141 139.558  1.00  0.00     0.008 C 
ATOM      9  C   UNL     1     135.455 133.973 140.020  1.00  0.00     0.008 C 
ENDBRANCH   5   7
ENDBRANCH   4   5
ENDBRANCH   1   3
BRANCH   1  10
ATOM     10  C   UNL     1     133.019 129.588 141.338  1.00  0.00     0.002 C 
ATOM     11  C   UNL     1     132.220 128.281 141.578  1.00  0.00     0.005 C 
ATOM     12  C   UNL     1     134.152 129.190 140.338  1.00  0.00    -0.023 C 
ATOM     13  C   UNL     1     132.606 127.313 140.449  1.00  0.00     0.009 C 
ATOM     14  C   UNL     1     133.386 128.179 139.464  1.00  0.00     0.021 C 
ATOM     15  C   UNL     1     134.671 130.347 139.418  1.00  0.00     0.008 C 
ATOM     16  C   UNL     1     135.347 128.516 141.077  1.00  0.00     0.012 C 
ATOM     17  C   UNL     1     134.293 127.533 138.440  1.00  0.00    -0.063 C 
ATOM     18  C   UNL     1     134.944 129.940 137.942  1.00  0.00     0.009 C 
ATOM     19  C   UNL     1     135.299 128.432 137.738  1.00  0.00     0.025 C 
ATOM     20  C   UNL     1     134.244 126.231 138.145  1.00  0.00    -0.000 C 
ATOM     21  C   UNL     1     135.544 128.003 136.239  1.00  0.00    -0.005 C 
ATOM     22  C   UNL     1     135.028 125.681 137.033  1.00  0.00    -0.000 C 
ATOM     23  C   UNL     1     135.625 126.478 136.126  1.00  0.00    -0.061 C 
ATOM     24  C   UNL     1     134.403 128.483 135.274  1.00  0.00     0.014 C 
ATOM     25  C   UNL     1     136.905 128.618 135.800  1.00  0.00     0.017 C 
ATOM     26  C   UNL     1     135.965 125.896 134.766  1.00  0.00     0.063 C 
ATOM     27  C   UNL     1     134.012 127.473 134.160  1.00  0.00     0.033 C 
ATOM     28  C   UNL     1     135.189 126.629 133.631  1.00  0.00     0.118 C 
BRANCH  28  29
ATOM     29  O   UNL     1     136.049 127.446 132.875  1.00  0.00    -0.393 OA
ATOM     30  H   UNL     1     136.953 127.040 132.933  1.00  0.00     0.210 HD
ENDBRANCH  28  29
ENDBRANCH   1  10
TORSDOF 5
ENDMDL
MODEL 9
REMARK VINA RESULT:    -6.126      1.661      3.615
REMARK INTER + INTRA:          -8.375
REMARK INTER:                  -8.912
REMARK INTRA:                   0.537
REMARK UNBOUND:                -0.638
REMARK SMILES CC(C)[C@H](C)C=C[C@H](C)[C@@H]1CC[C@@H]2C3=CC=C4C[C@H](O)CC[C@@]4(C)[C@H]3CC[C@]21C
REMARK SMILES IDX 8 1 9 2 7 3 6 4 4 5 5 6 2 7 1 8 3 9 10 10 11 11 28 12 12 13
REMARK SMILES IDX 13 14 27 15 29 16 14 17 26 18 25 19 15 20 23 21 16 22 17 23
REMARK SMILES IDX 22 24 24 25 18 26 21 27 19 28 20 29
REMARK H PARENT 20 30
REMARK Flexibility Score: inf
ROOT
ATOM      1  C   UNL     1     134.080 131.943 143.281  1.00  0.00     0.012 C 
ATOM      2  C   UNL     1     133.154 133.160 143.478  1.00  0.00     0.012 C 
ENDROOT
BRANCH   1   3
ATOM      3  C   UNL     1     133.375 130.689 143.756  1.00  0.00    -0.028 C 
ATOM      4  C   UNL     1     133.953 129.490 143.971  1.00  0.00    -0.028 C 
BRANCH   4   5
ATOM      5  C   UNL     1     135.425 129.160 143.777  1.00  0.00     0.011 C 
ATOM      6  C   UNL     1     136.271 130.130 144.618  1.00  0.00     0.012 C 
BRANCH   5   7
ATOM      7  C   UNL     1     135.755 127.673 144.113  1.00  0.00    -0.011 C 
ATOM      8  C   UNL     1     137.213 127.509 144.570  1.00  0.00     0.008 C 
ATOM      9  C   UNL     1     135.451 126.696 142.963  1.00  0.00     0.008 C 
ENDBRANCH   5   7
ENDBRANCH   4   5
ENDBRANCH   1   3
BRANCH   1  10
ATOM     10  C   UNL     1     134.722 131.743 141.861  1.00  0.00     0.002 C 
ATOM     11  C   UNL     1     135.046 133.074 141.134  1.00  0.00     0.005 C 
ATOM     12  C   UNL     1     134.069 130.836 140.767  1.00  0.00    -0.023 C 
ATOM     13  C   UNL     1     134.984 132.781 139.626  1.00  0.00     0.009 C 
ATOM     14  C   UNL     1     134.902 131.260 139.544  1.00  0.00     0.021 C 
ATOM     15  C   UNL     1     134.250 129.294 140.981  1.00  0.00     0.008 C 
ATOM     16  C   UNL     1     132.561 131.177 140.577  1.00  0.00     0.012 C 
ATOM     17  C   UNL     1     134.406 130.596 138.278  1.00  0.00    -0.063 C 
ATOM     18  C   UNL     1     134.555 128.485 139.688  1.00  0.00     0.009 C 
ATOM     19  C   UNL     1     134.011 129.129 138.373  1.00  0.00     0.025 C 
ATOM     20  C   UNL     1     134.300 131.240 137.113  1.00  0.00    -0.000 C 
ATOM     21  C   UNL     1     134.346 128.331 137.053  1.00  0.00    -0.005 C 
ATOM     22  C   UNL     1     133.971 130.516 135.880  1.00  0.00    -0.000 C 
ATOM     23  C   UNL     1     134.001 129.171 135.819  1.00  0.00    -0.061 C 
ATOM     24  C   UNL     1     135.863 127.943 136.944  1.00  0.00     0.014 C 
ATOM     25  C   UNL     1     133.467 127.047 137.055  1.00  0.00     0.017 C 
ATOM     26  C   UNL     1     134.161 128.512 134.461  1.00  0.00     0.063 C 
ATOM     27  C   UNL     1     136.469 128.042 135.517  1.00  0.00     0.033 C 
ATOM     28  C   UNL     1     135.482 127.691 134.386  1.00  0.00     0.118 C 
BRANCH  28  29
ATOM     29  O   UNL     1     135.222 126.309 134.403  1.00  0.00    -0.393 OA
ATOM     30  H   UNL     1     134.252 126.203 134.581  1.00  0.00     0.210 HD
ENDBRANCH  28  29
ENDBRANCH   1  10
TORSDOF 5
ENDMDL
