MODEL 1
REMARK VINA RESULT:    -2.613      0.000      0.000
REMARK INTER + INTRA:          -3.469
REMARK INTER:                  -3.224
REMARK INTRA:                  -0.244
REMARK UNBOUND:                -0.244
REMARK SMILES CCCCC=CC(C)=O
REMARK SMILES IDX 4 1 3 2 2 3 1 4 5 5 6 6 7 7 9 8 8 9
REMARK H PARENT
REMARK Flexibility Score: inf
ROOT
ATOM      1  C   UNL     1      80.164   2.141  66.426  1.00  0.00     0.027 C 
ENDROOT
BRANCH   1   2
ATOM      2  C   UNL     1      79.040   2.522  67.397  1.00  0.00     0.004 C 
BRANCH   2   3
ATOM      3  C   UNL     1      79.572   2.655  68.828  1.00  0.00    -0.003 C 
ATOM      4  C   UNL     1      81.014   3.155  68.835  1.00  0.00     0.004 C 
ENDBRANCH   2   3
ENDBRANCH   1   2
BRANCH   1   5
ATOM      5  C   UNL     1      80.194   3.061  65.240  1.00  0.00    -0.023 C 
ATOM      6  C   UNL     1      79.109   3.744  64.857  1.00  0.00     0.042 C 
BRANCH   6   7
ATOM      7  C   UNL     1      79.121   4.663  63.704  1.00  0.00     0.152 C 
ATOM      8  O   UNL     1      78.222   5.538  63.567  1.00  0.00    -0.295 OA
ATOM      9  C   UNL     1      80.210   4.560  62.687  1.00  0.00     0.093 C 
ENDBRANCH   6   7
ENDBRANCH   1   5
TORSDOF 4
ENDMDL
MODEL 2
REMARK VINA RESULT:    -2.613      2.419      4.887
REMARK INTER + INTRA:          -3.468
REMARK INTER:                  -3.224
REMARK INTRA:                  -0.244
REMARK UNBOUND:                -0.244
REMARK SMILES CCCCC=CC(C)=O
REMARK SMILES IDX 4 1 3 2 2 3 1 4 5 5 6 6 7 7 9 8 8 9
REMARK H PARENT
REMARK Flexibility Score: inf
ROOT
ATOM      1  C   UNL     1      78.778   2.974  65.155  1.00  0.00     0.027 C 
ENDROOT
BRANCH   1   2
ATOM      2  C   UNL     1      79.890   3.577  64.287  1.00  0.00     0.004 C 
BRANCH   2   3
ATOM      3  C   UNL     1      79.453   4.919  63.689  1.00  0.00    -0.003 C 
ATOM      4  C   UNL     1      78.001   5.231  64.038  1.00  0.00     0.004 C 
ENDBRANCH   2   3
ENDBRANCH   1   2
BRANCH   1   5
ATOM      5  C   UNL     1      79.246   2.754  66.564  1.00  0.00    -0.023 C 
ATOM      6  C   UNL     1      80.545   2.779  66.881  1.00  0.00     0.042 C 
BRANCH   6   7
ATOM      7  C   UNL     1      81.024   2.579  68.261  1.00  0.00     0.152 C 
ATOM      8  O   UNL     1      81.347   3.563  68.981  1.00  0.00    -0.295 OA
ATOM      9  C   UNL     1      81.127   1.195  68.816  1.00  0.00     0.093 C 
ENDBRANCH   6   7
ENDBRANCH   1   5
TORSDOF 4
ENDMDL
MODEL 3
REMARK VINA RESULT:    -2.527      2.454      5.196
REMARK INTER + INTRA:          -3.362
REMARK INTER:                  -3.196
REMARK INTRA:                  -0.166
REMARK UNBOUND:                -0.244
REMARK SMILES CCCCC=CC(C)=O
REMARK SMILES IDX 4 1 3 2 2 3 1 4 5 5 6 6 7 7 9 8 8 9
REMARK H PARENT
REMARK Flexibility Score: inf
ROOT
ATOM      1  C   UNL     1      79.363   3.380  64.369  1.00  0.00     0.027 C 
ENDROOT
BRANCH   1   2
ATOM      2  C   UNL     1      79.754   4.671  63.638  1.00  0.00     0.004 C 
BRANCH   2   3
ATOM      3  C   UNL     1      80.108   4.387  62.174  1.00  0.00    -0.003 C 
ATOM      4  C   UNL     1      79.699   2.973  61.772  1.00  0.00     0.004 C 
ENDBRANCH   2   3
ENDBRANCH   1   2
BRANCH   1   5
ATOM      5  C   UNL     1      80.329   3.066  65.473  1.00  0.00    -0.023 C 
ATOM      6  C   UNL     1      79.913   2.599  66.656  1.00  0.00     0.042 C 
BRANCH   6   7
ATOM      7  C   UNL     1      80.847   2.272  67.748  1.00  0.00     0.152 C 
ATOM      8  O   UNL     1      81.501   1.193  67.738  1.00  0.00    -0.295 OA
ATOM      9  C   UNL     1      81.027   3.231  68.881  1.00  0.00     0.093 C 
ENDBRANCH   6   7
ENDBRANCH   1   5
TORSDOF 4
ENDMDL
MODEL 4
REMARK VINA RESULT:    -2.511      1.635      2.271
REMARK INTER + INTRA:          -3.342
REMARK INTER:                  -3.111
REMARK INTRA:                  -0.231
REMARK UNBOUND:                -0.244
REMARK SMILES CCCCC=CC(C)=O
REMARK SMILES IDX 4 1 3 2 2 3 1 4 5 5 6 6 7 7 9 8 8 9
REMARK H PARENT
REMARK Flexibility Score: inf
ROOT
ATOM      1  C   UNL     1      80.024   3.417  64.752  1.00  0.00     0.027 C 
ENDROOT
BRANCH   1   2
ATOM      2  C   UNL     1      79.001   2.768  65.692  1.00  0.00     0.004 C 
BRANCH   2   3
ATOM      3  C   UNL     1      79.532   2.714  67.129  1.00  0.00    -0.003 C 
ATOM      4  C   UNL     1      81.046   2.899  67.164  1.00  0.00     0.004 C 
ENDBRANCH   2   3
ENDBRANCH   1   2
BRANCH   1   5
ATOM      5  C   UNL     1      79.376   4.437  63.862  1.00  0.00    -0.023 C 
ATOM      6  C   UNL     1      78.240   5.051  64.213  1.00  0.00     0.042 C 
BRANCH   6   7
ATOM      7  C   UNL     1      77.594   6.064  63.360  1.00  0.00     0.152 C 
ATOM      8  O   UNL     1      77.377   5.836  62.138  1.00  0.00    -0.295 OA
ATOM      9  C   UNL     1      77.188   7.377  63.947  1.00  0.00     0.093 C 
ENDBRANCH   6   7
ENDBRANCH   1   5
TORSDOF 4
ENDMDL
MODEL 5
REMARK VINA RESULT:    -2.480     20.512     21.359
REMARK INTER + INTRA:          -3.304
REMARK INTER:                  -3.117
REMARK INTRA:                  -0.187
REMARK UNBOUND:                -0.244
REMARK SMILES CCCCC=CC(C)=O
REMARK SMILES IDX 4 1 3 2 2 3 1 4 5 5 6 6 7 7 9 8 8 9
REMARK H PARENT
REMARK Flexibility Score: inf
ROOT
ATOM      1  C   UNL     1      70.943  -9.965  53.781  1.00  0.00     0.027 C 
ENDROOT
BRANCH   1   2
ATOM      2  C   UNL     1      69.440  -9.999  54.090  1.00  0.00     0.004 C 
BRANCH   2   3
ATOM      3  C   UNL     1      68.719  -8.814  53.439  1.00  0.00    -0.003 C 
ATOM      4  C   UNL     1      67.206  -9.012  53.457  1.00  0.00     0.004 C 
ENDBRANCH   2   3
ENDBRANCH   1   2
BRANCH   1   5
ATOM      5  C   UNL     1      71.196  -9.545  52.362  1.00  0.00    -0.023 C 
ATOM      6  C   UNL     1      71.692 -10.397  51.458  1.00  0.00     0.042 C 
BRANCH   6   7
ATOM      7  C   UNL     1      71.936 -10.009  50.057  1.00  0.00     0.152 C 
ATOM      8  O   UNL     1      72.195  -8.811  49.755  1.00  0.00    -0.295 OA
ATOM      9  C   UNL     1      71.879 -11.044  48.981  1.00  0.00     0.093 C 
ENDBRANCH   6   7
ENDBRANCH   1   5
TORSDOF 4
ENDMDL
MODEL 6
REMARK VINA RESULT:    -2.479      2.011      2.500
REMARK INTER + INTRA:          -3.303
REMARK INTER:                  -3.048
REMARK INTRA:                  -0.255
REMARK UNBOUND:                -0.244
REMARK SMILES CCCCC=CC(C)=O
REMARK SMILES IDX 4 1 3 2 2 3 1 4 5 5 6 6 7 7 9 8 8 9
REMARK H PARENT
REMARK Flexibility Score: inf
ROOT
ATOM      1  C   UNL     1      79.638   2.621  68.305  1.00  0.00     0.027 C 
ENDROOT
BRANCH   1   2
ATOM      2  C   UNL     1      81.087   2.188  68.567  1.00  0.00     0.004 C 
BRANCH   2   3
ATOM      3  C   UNL     1      81.147   0.737  69.055  1.00  0.00    -0.003 C 
ATOM      4  C   UNL     1      81.954  -0.134  68.097  1.00  0.00     0.004 C 
ENDBRANCH   2   3
ENDBRANCH   1   2
BRANCH   1   5
ATOM      5  C   UNL     1      79.338   2.654  66.835  1.00  0.00    -0.023 C 
ATOM      6  C   UNL     1      80.270   2.997  65.938  1.00  0.00     0.042 C 
BRANCH   6   7
ATOM      7  C   UNL     1      79.999   3.023  64.489  1.00  0.00     0.152 C 
ATOM      8  O   UNL     1      79.972   1.954  63.818  1.00  0.00    -0.295 OA
ATOM      9  C   UNL     1      79.750   4.328  63.805  1.00  0.00     0.093 C 
ENDBRANCH   6   7
ENDBRANCH   1   5
TORSDOF 4
ENDMDL
MODEL 7
REMARK VINA RESULT:    -2.470     18.701     20.358
REMARK INTER + INTRA:          -3.292
REMARK INTER:                  -3.065
REMARK INTRA:                  -0.227
REMARK UNBOUND:                -0.244
REMARK SMILES CCCCC=CC(C)=O
REMARK SMILES IDX 4 1 3 2 2 3 1 4 5 5 6 6 7 7 9 8 8 9
REMARK H PARENT
REMARK Flexibility Score: inf
ROOT
ATOM      1  C   UNL     1      65.399   5.723  53.181  1.00  0.00     0.027 C 
ENDROOT
BRANCH   1   2
ATOM      2  C   UNL     1      66.687   6.410  53.653  1.00  0.00     0.004 C 
BRANCH   2   3
ATOM      3  C   UNL     1      67.550   6.836  52.461  1.00  0.00    -0.003 C 
ATOM      4  C   UNL     1      68.077   8.257  52.641  1.00  0.00     0.004 C 
ENDBRANCH   2   3
ENDBRANCH   1   2
BRANCH   1   5
ATOM      5  C   UNL     1      65.392   5.545  51.691  1.00  0.00    -0.023 C 
ATOM      6  C   UNL     1      64.344   5.009  51.055  1.00  0.00     0.042 C 
BRANCH   6   7
ATOM      7  C   UNL     1      64.312   4.837  49.591  1.00  0.00     0.152 C 
ATOM      8  O   UNL     1      63.294   5.171  48.924  1.00  0.00    -0.295 OA
ATOM      9  C   UNL     1      65.499   4.266  48.886  1.00  0.00     0.093 C 
ENDBRANCH   6   7
ENDBRANCH   1   5
TORSDOF 4
ENDMDL
MODEL 8
REMARK VINA RESULT:    -2.461     17.692     19.944
REMARK INTER + INTRA:          -3.281
REMARK INTER:                  -3.029
REMARK INTRA:                  -0.251
REMARK UNBOUND:                -0.244
REMARK SMILES CCCCC=CC(C)=O
REMARK SMILES IDX 4 1 3 2 2 3 1 4 5 5 6 6 7 7 9 8 8 9
REMARK H PARENT
REMARK Flexibility Score: inf
ROOT
ATOM      1  C   UNL     1      64.762   5.334  51.836  1.00  0.00     0.027 C 
ENDROOT
BRANCH   1   2
ATOM      2  C   UNL     1      65.603   4.403  50.953  1.00  0.00     0.004 C 
BRANCH   2   3
ATOM      3  C   UNL     1      65.235   4.568  49.475  1.00  0.00    -0.003 C 
ATOM      4  C   UNL     1      63.783   5.008  49.314  1.00  0.00     0.004 C 
ENDBRANCH   2   3
ENDBRANCH   1   2
BRANCH   1   5
ATOM      5  C   UNL     1      65.627   6.326  52.558  1.00  0.00    -0.023 C 
ATOM      6  C   UNL     1      66.935   6.431  52.302  1.00  0.00     0.042 C 
BRANCH   6   7
ATOM      7  C   UNL     1      67.799   7.407  52.990  1.00  0.00     0.152 C 
ATOM      8  O   UNL     1      68.146   8.478  52.419  1.00  0.00    -0.295 OA
ATOM      9  C   UNL     1      68.268   7.130  54.382  1.00  0.00     0.093 C 
ENDBRANCH   6   7
ENDBRANCH   1   5
TORSDOF 4
ENDMDL
MODEL 9
REMARK VINA RESULT:    -2.400     20.316     21.337
REMARK INTER + INTRA:          -3.205
REMARK INTER:                  -3.082
REMARK INTRA:                  -0.123
REMARK UNBOUND:                -0.244
REMARK SMILES CCCCC=CC(C)=O
REMARK SMILES IDX 4 1 3 2 2 3 1 4 5 5 6 6 7 7 9 8 8 9
REMARK H PARENT
REMARK Flexibility Score: inf
ROOT
ATOM      1  C   UNL     1      71.446 -10.264  52.869  1.00  0.00     0.027 C 
ENDROOT
BRANCH   1   2
ATOM      2  C   UNL     1      72.097  -9.974  51.510  1.00  0.00     0.004 C 
BRANCH   2   3
ATOM      3  C   UNL     1      71.852 -11.125  50.528  1.00  0.00    -0.003 C 
ATOM      4  C   UNL     1      72.298 -10.749  49.118  1.00  0.00     0.004 C 
ENDBRANCH   2   3
ENDBRANCH   1   2
BRANCH   1   5
ATOM      5  C   UNL     1      70.315  -9.317  53.144  1.00  0.00    -0.023 C 
ATOM      6  C   UNL     1      69.255  -9.685  53.872  1.00  0.00     0.042 C 
BRANCH   6   7
ATOM      7  C   UNL     1      68.140  -8.766  54.165  1.00  0.00     0.152 C 
ATOM      8  O   UNL     1      68.281  -7.821  54.988  1.00  0.00    -0.295 OA
ATOM      9  C   UNL     1      66.827  -8.953  53.476  1.00  0.00     0.093 C 
ENDBRANCH   6   7
ENDBRANCH   1   5
TORSDOF 4
ENDMDL
