MODEL 1
REMARK VINA RESULT:    -3.704      0.000      0.000
REMARK INTER + INTRA:          -8.816
REMARK INTER:                  -6.519
REMARK INTRA:                  -2.297
REMARK UNBOUND:                -2.297
REMARK SMILES CCCCCCCCCCCCCCC(=O)[O-]
REMARK SMILES IDX 9 1 10 2 11 3 12 4 13 5 14 6 15 7 16 8 17 9 8 10 7 11 6 12
REMARK SMILES IDX 5 13 4 14 3 15 2 16 1 17
REMARK H PARENT
REMARK Flexibility Score: inf
ROOT
ATOM      1  C   UNL     1       4.114   0.841  -6.000  1.00  0.00     0.000 C 
ENDROOT
BRANCH   1   2
ATOM      2  C   UNL     1       5.326   0.662  -5.068  1.00  0.00     0.000 C 
BRANCH   2   3
ATOM      3  C   UNL     1       6.193  -0.581  -5.355  1.00  0.00     0.000 C 
BRANCH   3   4
ATOM      4  C   UNL     1       5.448  -1.761  -6.003  1.00  0.00     0.000 C 
BRANCH   4   5
ATOM      5  C   UNL     1       6.379  -2.693  -6.793  1.00  0.00     0.006 C 
BRANCH   5   6
ATOM      6  C   UNL     1       6.076  -4.161  -6.483  1.00  0.00     0.053 C 
BRANCH   6   7
ATOM      7  C   UNL     1       7.048  -4.698  -5.480  1.00  0.00     0.041 C 
ATOM      8  O   UNL     1       6.793  -4.626  -4.250  1.00  0.00    -0.550 OA
ATOM      9  O   UNL     1       8.213  -5.323  -5.907  1.00  0.00    -0.550 OA
ENDBRANCH   6   7
ENDBRANCH   5   6
ENDBRANCH   4   5
ENDBRANCH   3   4
ENDBRANCH   2   3
ENDBRANCH   1   2
BRANCH   1  10
ATOM     10  C   UNL     1       4.120   2.189  -6.735  1.00  0.00     0.000 C 
BRANCH  10  11
ATOM     11  C   UNL     1       4.122   1.984  -8.258  1.00  0.00    -0.000 C 
BRANCH  11  12
ATOM     12  C   UNL     1       4.166   0.501  -8.656  1.00  0.00    -0.000 C 
BRANCH  12  13
ATOM     13  C   UNL     1       5.513   0.094  -9.280  1.00  0.00    -0.000 C 
BRANCH  13  14
ATOM     14  C   UNL     1       6.533   1.252  -9.270  1.00  0.00    -0.000 C 
BRANCH  14  15
ATOM     15  C   UNL     1       7.694   1.042  -8.284  1.00  0.00    -0.000 C 
BRANCH  15  16
ATOM     16  C   UNL     1       7.813   2.172  -7.253  1.00  0.00    -0.003 C 
ATOM     17  C   UNL     1       7.530   3.530  -7.890  1.00  0.00     0.004 C 
ENDBRANCH  15  16
ENDBRANCH  14  15
ENDBRANCH  13  14
ENDBRANCH  12  13
ENDBRANCH  11  12
ENDBRANCH  10  11
ENDBRANCH   1  10
TORSDOF 13
ENDMDL
MODEL 2
REMARK VINA RESULT:    -3.683      1.130      3.035
REMARK INTER + INTRA:          -8.779
REMARK INTER:                  -6.722
REMARK INTRA:                  -2.057
REMARK UNBOUND:                -2.297
REMARK SMILES CCCCCCCCCCCCCCC(=O)[O-]
REMARK SMILES IDX 9 1 10 2 11 3 12 4 13 5 14 6 15 7 16 8 17 9 8 10 7 11 6 12
REMARK SMILES IDX 5 13 4 14 3 15 2 16 1 17
REMARK H PARENT
REMARK Flexibility Score: inf
ROOT
ATOM      1  C   UNL     1       8.146   1.395  -6.790  1.00  0.00     0.000 C 
ENDROOT
BRANCH   1   2
ATOM      2  C   UNL     1       8.635  -0.046  -7.031  1.00  0.00     0.000 C 
BRANCH   2   3
ATOM      3  C   UNL     1       7.536  -1.049  -7.438  1.00  0.00     0.000 C 
BRANCH   3   4
ATOM      4  C   UNL     1       7.189  -2.105  -6.373  1.00  0.00     0.000 C 
BRANCH   4   5
ATOM      5  C   UNL     1       5.954  -2.940  -6.742  1.00  0.00     0.006 C 
BRANCH   5   6
ATOM      6  C   UNL     1       5.578  -3.893  -5.603  1.00  0.00     0.053 C 
BRANCH   6   7
ATOM      7  C   UNL     1       6.698  -4.845  -5.323  1.00  0.00     0.041 C 
ATOM      8  O   UNL     1       7.113  -5.618  -6.225  1.00  0.00    -0.550 OA
ATOM      9  O   UNL     1       7.318  -4.841  -4.080  1.00  0.00    -0.550 OA
ENDBRANCH   6   7
ENDBRANCH   5   6
ENDBRANCH   4   5
ENDBRANCH   3   4
ENDBRANCH   2   3
ENDBRANCH   1   2
BRANCH   1  10
ATOM     10  C   UNL     1       7.644   2.076  -8.071  1.00  0.00     0.000 C 
BRANCH  10  11
ATOM     11  C   UNL     1       6.818   3.329  -7.739  1.00  0.00    -0.000 C 
BRANCH  11  12
ATOM     12  C   UNL     1       5.308   3.052  -7.707  1.00  0.00    -0.000 C 
BRANCH  12  13
ATOM     13  C   UNL     1       4.892   1.916  -8.660  1.00  0.00    -0.000 C 
BRANCH  13  14
ATOM     14  C   UNL     1       4.184   0.763  -7.916  1.00  0.00    -0.000 C 
BRANCH  14  15
ATOM     15  C   UNL     1       3.849   1.090  -6.451  1.00  0.00    -0.000 C 
BRANCH  15  16
ATOM     16  C   UNL     1       4.474   0.099  -5.460  1.00  0.00    -0.003 C 
ATOM     17  C   UNL     1       5.482   0.794  -4.550  1.00  0.00     0.004 C 
ENDBRANCH  15  16
ENDBRANCH  14  15
ENDBRANCH  13  14
ENDBRANCH  12  13
ENDBRANCH  11  12
ENDBRANCH  10  11
ENDBRANCH   1  10
TORSDOF 13
ENDMDL
MODEL 3
REMARK VINA RESULT:    -3.630      0.652      1.373
REMARK INTER + INTRA:          -8.686
REMARK INTER:                  -6.664
REMARK INTRA:                  -2.022
REMARK UNBOUND:                -2.297
REMARK SMILES CCCCCCCCCCCCCCC(=O)[O-]
REMARK SMILES IDX 9 1 10 2 11 3 12 4 13 5 14 6 15 7 16 8 17 9 8 10 7 11 6 12
REMARK SMILES IDX 5 13 4 14 3 15 2 16 1 17
REMARK H PARENT
REMARK Flexibility Score: inf
ROOT
ATOM      1  C   UNL     1       5.140   1.051  -5.167  1.00  0.00     0.000 C 
ENDROOT
BRANCH   1   2
ATOM      2  C   UNL     1       6.023  -0.206  -5.273  1.00  0.00     0.000 C 
BRANCH   2   3
ATOM      3  C   UNL     1       5.366  -1.408  -5.982  1.00  0.00     0.000 C 
BRANCH   3   4
ATOM      4  C   UNL     1       6.289  -2.190  -6.933  1.00  0.00     0.000 C 
BRANCH   4   5
ATOM      5  C   UNL     1       5.996  -3.697  -6.944  1.00  0.00     0.006 C 
BRANCH   5   6
ATOM      6  C   UNL     1       5.807  -4.229  -5.520  1.00  0.00     0.053 C 
BRANCH   6   7
ATOM      7  C   UNL     1       7.060  -4.888  -5.036  1.00  0.00     0.041 C 
ATOM      8  O   UNL     1       8.009  -5.109  -5.833  1.00  0.00    -0.550 OA
ATOM      9  O   UNL     1       7.200  -5.210  -3.692  1.00  0.00    -0.550 OA
ENDBRANCH   6   7
ENDBRANCH   5   6
ENDBRANCH   4   5
ENDBRANCH   3   4
ENDBRANCH   2   3
ENDBRANCH   1   2
BRANCH   1  10
ATOM     10  C   UNL     1       4.017   1.082  -6.213  1.00  0.00     0.000 C 
BRANCH  10  11
ATOM     11  C   UNL     1       4.109   2.348  -7.080  1.00  0.00    -0.000 C 
BRANCH  11  12
ATOM     12  C   UNL     1       3.985   2.049  -8.581  1.00  0.00    -0.000 C 
BRANCH  12  13
ATOM     13  C   UNL     1       4.473   0.636  -8.948  1.00  0.00    -0.000 C 
BRANCH  13  14
ATOM     14  C   UNL     1       5.793   0.666  -9.748  1.00  0.00    -0.000 C 
BRANCH  14  15
ATOM     15  C   UNL     1       7.048   0.729  -8.861  1.00  0.00    -0.000 C 
BRANCH  15  16
ATOM     16  C   UNL     1       7.525   2.164  -8.603  1.00  0.00    -0.003 C 
ATOM     17  C   UNL     1       7.883   2.369  -7.134  1.00  0.00     0.004 C 
ENDBRANCH  15  16
ENDBRANCH  14  15
ENDBRANCH  13  14
ENDBRANCH  12  13
ENDBRANCH  11  12
ENDBRANCH  10  11
ENDBRANCH   1  10
TORSDOF 13
ENDMDL
MODEL 4
REMARK VINA RESULT:    -3.507      1.524      3.219
REMARK INTER + INTRA:          -8.469
REMARK INTER:                  -6.487
REMARK INTRA:                  -1.982
REMARK UNBOUND:                -2.297
REMARK SMILES CCCCCCCCCCCCCCC(=O)[O-]
REMARK SMILES IDX 9 1 10 2 11 3 12 4 13 5 14 6 15 7 16 8 17 9 8 10 7 11 6 12
REMARK SMILES IDX 5 13 4 14 3 15 2 16 1 17
REMARK H PARENT
REMARK Flexibility Score: inf
ROOT
ATOM      1  C   UNL     1       4.914  -0.347  -9.632  1.00  0.00     0.000 C 
ENDROOT
BRANCH   1   2
ATOM      2  C   UNL     1       4.419  -1.793  -9.441  1.00  0.00     0.000 C 
BRANCH   2   3
ATOM      3  C   UNL     1       5.521  -2.871  -9.470  1.00  0.00     0.000 C 
BRANCH   3   4
ATOM      4  C   UNL     1       5.238  -4.118  -8.615  1.00  0.00     0.000 C 
BRANCH   4   5
ATOM      5  C   UNL     1       6.413  -4.493  -7.699  1.00  0.00     0.006 C 
BRANCH   5   6
ATOM      6  C   UNL     1       5.985  -4.491  -6.229  1.00  0.00     0.053 C 
BRANCH   6   7
ATOM      7  C   UNL     1       7.129  -4.885  -5.349  1.00  0.00     0.041 C 
ATOM      8  O   UNL     1       7.006  -4.847  -4.096  1.00  0.00    -0.550 OA
ATOM      9  O   UNL     1       8.313  -5.344  -5.911  1.00  0.00    -0.550 OA
ENDBRANCH   6   7
ENDBRANCH   5   6
ENDBRANCH   4   5
ENDBRANCH   3   4
ENDBRANCH   2   3
ENDBRANCH   1   2
BRANCH   1  10
ATOM     10  C   UNL     1       3.975   0.692  -9.004  1.00  0.00     0.000 C 
BRANCH  10  11
ATOM     11  C   UNL     1       4.761   1.687  -8.135  1.00  0.00    -0.000 C 
BRANCH  11  12
ATOM     12  C   UNL     1       4.097   1.937  -6.773  1.00  0.00    -0.000 C 
BRANCH  12  13
ATOM     13  C   UNL     1       4.889   1.324  -5.604  1.00  0.00    -0.000 C 
BRANCH  13  14
ATOM     14  C   UNL     1       4.537  -0.162  -5.379  1.00  0.00    -0.000 C 
BRANCH  14  15
ATOM     15  C   UNL     1       5.578  -1.135  -5.957  1.00  0.00    -0.000 C 
BRANCH  15  16
ATOM     16  C   UNL     1       6.986  -0.530  -6.027  1.00  0.00    -0.003 C 
ATOM     17  C   UNL     1       7.741  -1.035  -7.254  1.00  0.00     0.004 C 
ENDBRANCH  15  16
ENDBRANCH  14  15
ENDBRANCH  13  14
ENDBRANCH  12  13
ENDBRANCH  11  12
ENDBRANCH  10  11
ENDBRANCH   1  10
TORSDOF 13
ENDMDL
MODEL 5
REMARK VINA RESULT:    -3.449      1.425      2.513
REMARK INTER + INTRA:          -8.367
REMARK INTER:                  -6.371
REMARK INTRA:                  -1.996
REMARK UNBOUND:                -2.297
REMARK SMILES CCCCCCCCCCCCCCC(=O)[O-]
REMARK SMILES IDX 9 1 10 2 11 3 12 4 13 5 14 6 15 7 16 8 17 9 8 10 7 11 6 12
REMARK SMILES IDX 5 13 4 14 3 15 2 16 1 17
REMARK H PARENT
REMARK Flexibility Score: inf
ROOT
ATOM      1  C   UNL     1       3.947   0.778  -6.327  1.00  0.00     0.000 C 
ENDROOT
BRANCH   1   2
ATOM      2  C   UNL     1       4.673  -0.192  -5.377  1.00  0.00     0.000 C 
BRANCH   2   3
ATOM      3  C   UNL     1       6.190  -0.332  -5.620  1.00  0.00     0.000 C 
BRANCH   3   4
ATOM      4  C   UNL     1       6.710  -1.779  -5.691  1.00  0.00     0.000 C 
BRANCH   4   5
ATOM      5  C   UNL     1       5.585  -2.808  -5.882  1.00  0.00     0.006 C 
BRANCH   5   6
ATOM      6  C   UNL     1       6.001  -4.179  -5.342  1.00  0.00     0.053 C 
BRANCH   6   7
ATOM      7  C   UNL     1       7.004  -4.819  -6.249  1.00  0.00     0.041 C 
ATOM      8  O   UNL     1       8.170  -5.056  -5.837  1.00  0.00    -0.550 OA
ATOM      9  O   UNL     1       6.636  -5.200  -7.533  1.00  0.00    -0.550 OA
ENDBRANCH   6   7
ENDBRANCH   5   6
ENDBRANCH   4   5
ENDBRANCH   3   4
ENDBRANCH   2   3
ENDBRANCH   1   2
BRANCH   1  10
ATOM     10  C   UNL     1       4.511   2.204  -6.269  1.00  0.00     0.000 C 
BRANCH  10  11
ATOM     11  C   UNL     1       5.143   2.599  -7.614  1.00  0.00    -0.000 C 
BRANCH  11  12
ATOM     12  C   UNL     1       4.137   2.565  -8.774  1.00  0.00    -0.000 C 
BRANCH  12  13
ATOM     13  C   UNL     1       4.498   1.518  -9.843  1.00  0.00    -0.000 C 
BRANCH  13  14
ATOM     14  C   UNL     1       5.940   0.993  -9.679  1.00  0.00    -0.000 C 
BRANCH  14  15
ATOM     15  C   UNL     1       6.014  -0.493  -9.291  1.00  0.00    -0.000 C 
BRANCH  15  16
ATOM     16  C   UNL     1       4.648  -1.190  -9.335  1.00  0.00    -0.003 C 
ATOM     17  C   UNL     1       4.806  -2.702  -9.468  1.00  0.00     0.004 C 
ENDBRANCH  15  16
ENDBRANCH  14  15
ENDBRANCH  13  14
ENDBRANCH  12  13
ENDBRANCH  11  12
ENDBRANCH  10  11
ENDBRANCH   1  10
TORSDOF 13
ENDMDL
MODEL 6
REMARK VINA RESULT:    -3.425      1.054      1.734
REMARK INTER + INTRA:          -8.324
REMARK INTER:                  -6.344
REMARK INTRA:                  -1.980
REMARK UNBOUND:                -2.297
REMARK SMILES CCCCCCCCCCCCCCC(=O)[O-]
REMARK SMILES IDX 9 1 10 2 11 3 12 4 13 5 14 6 15 7 16 8 17 9 8 10 7 11 6 12
REMARK SMILES IDX 5 13 4 14 3 15 2 16 1 17
REMARK H PARENT
REMARK Flexibility Score: inf
ROOT
ATOM      1  C   UNL     1       4.049   0.727  -5.994  1.00  0.00     0.000 C 
ENDROOT
BRANCH   1   2
ATOM      2  C   UNL     1       5.258   0.476  -5.075  1.00  0.00     0.000 C 
BRANCH   2   3
ATOM      3  C   UNL     1       6.246  -0.598  -5.573  1.00  0.00     0.000 C 
BRANCH   3   4
ATOM      4  C   UNL     1       5.867  -1.266  -6.906  1.00  0.00     0.000 C 
BRANCH   4   5
ATOM      5  C   UNL     1       5.956  -2.799  -6.853  1.00  0.00     0.006 C 
BRANCH   5   6
ATOM      6  C   UNL     1       5.853  -3.303  -5.411  1.00  0.00     0.053 C 
BRANCH   6   7
ATOM      7  C   UNL     1       6.633  -4.568  -5.240  1.00  0.00     0.041 C 
ATOM      8  O   UNL     1       7.051  -4.906  -4.101  1.00  0.00    -0.550 OA
ATOM      9  O   UNL     1       6.855  -5.400  -6.330  1.00  0.00    -0.550 OA
ENDBRANCH   6   7
ENDBRANCH   5   6
ENDBRANCH   4   5
ENDBRANCH   3   4
ENDBRANCH   2   3
ENDBRANCH   1   2
BRANCH   1  10
ATOM     10  C   UNL     1       4.112   2.086  -6.705  1.00  0.00     0.000 C 
BRANCH  10  11
ATOM     11  C   UNL     1       4.230   1.904  -8.227  1.00  0.00    -0.000 C 
BRANCH  11  12
ATOM     12  C   UNL     1       5.649   2.173  -8.748  1.00  0.00    -0.000 C 
BRANCH  12  13
ATOM     13  C   UNL     1       6.547   2.858  -7.702  1.00  0.00    -0.000 C 
BRANCH  13  14
ATOM     14  C   UNL     1       8.046   2.600  -7.965  1.00  0.00    -0.000 C 
BRANCH  14  15
ATOM     15  C   UNL     1       8.768   1.918  -6.791  1.00  0.00    -0.000 C 
BRANCH  15  16
ATOM     16  C   UNL     1       9.363   0.554  -7.168  1.00  0.00    -0.003 C 
ATOM     17  C   UNL     1       8.890   0.111  -8.549  1.00  0.00     0.004 C 
ENDBRANCH  15  16
ENDBRANCH  14  15
ENDBRANCH  13  14
ENDBRANCH  12  13
ENDBRANCH  11  12
ENDBRANCH  10  11
ENDBRANCH   1  10
TORSDOF 13
ENDMDL
MODEL 7
REMARK VINA RESULT:    -3.318      1.320      2.681
REMARK INTER + INTRA:          -8.136
REMARK INTER:                  -6.197
REMARK INTRA:                  -1.939
REMARK UNBOUND:                -2.297
REMARK SMILES CCCCCCCCCCCCCCC(=O)[O-]
REMARK SMILES IDX 9 1 10 2 11 3 12 4 13 5 14 6 15 7 16 8 17 9 8 10 7 11 6 12
REMARK SMILES IDX 5 13 4 14 3 15 2 16 1 17
REMARK H PARENT
REMARK Flexibility Score: inf
ROOT
ATOM      1  C   UNL     1       6.801  -0.805  -6.026  1.00  0.00     0.000 C 
ENDROOT
BRANCH   1   2
ATOM      2  C   UNL     1       7.182  -1.147  -7.479  1.00  0.00     0.000 C 
BRANCH   2   3
ATOM      3  C   UNL     1       6.127  -1.960  -8.257  1.00  0.00     0.000 C 
BRANCH   3   4
ATOM      4  C   UNL     1       6.578  -3.364  -8.696  1.00  0.00     0.000 C 
BRANCH   4   5
ATOM      5  C   UNL     1       6.111  -4.468  -7.735  1.00  0.00     0.006 C 
BRANCH   5   6
ATOM      6  C   UNL     1       7.170  -4.746  -6.664  1.00  0.00     0.053 C 
BRANCH   6   7
ATOM      7  C   UNL     1       6.583  -4.608  -5.295  1.00  0.00     0.041 C 
ATOM      8  O   UNL     1       7.290  -4.825  -4.277  1.00  0.00    -0.550 OA
ATOM      9  O   UNL     1       5.267  -4.188  -5.144  1.00  0.00    -0.550 OA
ENDBRANCH   6   7
ENDBRANCH   5   6
ENDBRANCH   4   5
ENDBRANCH   3   4
ENDBRANCH   2   3
ENDBRANCH   1   2
BRANCH   1  10
ATOM     10  C   UNL     1       5.289  -0.883  -5.772  1.00  0.00     0.000 C 
BRANCH  10  11
ATOM     11  C   UNL     1       4.807   0.325  -4.954  1.00  0.00    -0.000 C 
BRANCH  11  12
ATOM     12  C   UNL     1       4.639   1.590  -5.808  1.00  0.00    -0.000 C 
BRANCH  12  13
ATOM     13  C   UNL     1       4.065   1.292  -7.205  1.00  0.00    -0.000 C 
BRANCH  13  14
ATOM     14  C   UNL     1       4.674   2.205  -8.291  1.00  0.00    -0.000 C 
BRANCH  14  15
ATOM     15  C   UNL     1       5.709   3.204  -7.746  1.00  0.00    -0.000 C 
BRANCH  15  16
ATOM     16  C   UNL     1       7.118   2.967  -8.306  1.00  0.00    -0.003 C 
ATOM     17  C   UNL     1       8.059   2.445  -7.224  1.00  0.00     0.004 C 
ENDBRANCH  15  16
ENDBRANCH  14  15
ENDBRANCH  13  14
ENDBRANCH  12  13
ENDBRANCH  11  12
ENDBRANCH  10  11
ENDBRANCH   1  10
TORSDOF 13
ENDMDL
MODEL 8
REMARK VINA RESULT:    -3.302      1.558      3.326
REMARK INTER + INTRA:          -8.108
REMARK INTER:                  -6.245
REMARK INTRA:                  -1.864
REMARK UNBOUND:                -2.297
REMARK SMILES CCCCCCCCCCCCCCC(=O)[O-]
REMARK SMILES IDX 9 1 10 2 11 3 12 4 13 5 14 6 15 7 16 8 17 9 8 10 7 11 6 12
REMARK SMILES IDX 5 13 4 14 3 15 2 16 1 17
REMARK H PARENT
REMARK Flexibility Score: inf
ROOT
ATOM      1  C   UNL     1       6.912  -0.976  -7.556  1.00  0.00     0.000 C 
ENDROOT
BRANCH   1   2
ATOM      2  C   UNL     1       5.716  -1.711  -8.187  1.00  0.00     0.000 C 
BRANCH   2   3
ATOM      3  C   UNL     1       6.072  -2.666  -9.345  1.00  0.00     0.000 C 
BRANCH   3   4
ATOM      4  C   UNL     1       6.822  -3.944  -8.930  1.00  0.00     0.000 C 
BRANCH   4   5
ATOM      5  C   UNL     1       6.252  -4.583  -7.655  1.00  0.00     0.006 C 
BRANCH   5   6
ATOM      6  C   UNL     1       7.308  -4.632  -6.547  1.00  0.00     0.053 C 
BRANCH   6   7
ATOM      7  C   UNL     1       6.658  -4.582  -5.200  1.00  0.00     0.041 C 
ATOM      8  O   UNL     1       7.301  -4.925  -4.174  1.00  0.00    -0.550 OA
ATOM      9  O   UNL     1       5.360  -4.106  -5.073  1.00  0.00    -0.550 OA
ENDBRANCH   6   7
ENDBRANCH   5   6
ENDBRANCH   4   5
ENDBRANCH   3   4
ENDBRANCH   2   3
ENDBRANCH   1   2
BRANCH   1  10
ATOM     10  C   UNL     1       6.856  -0.952  -6.022  1.00  0.00     0.000 C 
BRANCH  10  11
ATOM     11  C   UNL     1       5.425  -0.685  -5.529  1.00  0.00    -0.000 C 
BRANCH  11  12
ATOM     12  C   UNL     1       5.278   0.683  -4.847  1.00  0.00    -0.000 C 
BRANCH  12  13
ATOM     13  C   UNL     1       4.975   1.815  -5.843  1.00  0.00    -0.000 C 
BRANCH  13  14
ATOM     14  C   UNL     1       3.780   1.478  -6.762  1.00  0.00    -0.000 C 
BRANCH  14  15
ATOM     15  C   UNL     1       4.118   1.544  -8.260  1.00  0.00    -0.000 C 
BRANCH  15  16
ATOM     16  C   UNL     1       5.406   2.326  -8.548  1.00  0.00    -0.003 C 
ATOM     17  C   UNL     1       5.099   3.774  -8.920  1.00  0.00     0.004 C 
ENDBRANCH  15  16
ENDBRANCH  14  15
ENDBRANCH  13  14
ENDBRANCH  12  13
ENDBRANCH  11  12
ENDBRANCH  10  11
ENDBRANCH   1  10
TORSDOF 13
ENDMDL
MODEL 9
REMARK VINA RESULT:    -3.099      3.383      5.768
REMARK INTER + INTRA:          -7.751
REMARK INTER:                  -5.567
REMARK INTRA:                  -2.184
REMARK UNBOUND:                -2.297
REMARK SMILES CCCCCCCCCCCCCCC(=O)[O-]
REMARK SMILES IDX 9 1 10 2 11 3 12 4 13 5 14 6 15 7 16 8 17 9 8 10 7 11 6 12
REMARK SMILES IDX 5 13 4 14 3 15 2 16 1 17
REMARK H PARENT
REMARK Flexibility Score: inf
ROOT
ATOM      1  C   UNL     1       5.472  -3.934  -5.604  1.00  0.00     0.000 C 
ENDROOT
BRANCH   1   2
ATOM      2  C   UNL     1       5.250  -2.411  -5.599  1.00  0.00     0.000 C 
BRANCH   2   3
ATOM      3  C   UNL     1       6.537  -1.563  -5.560  1.00  0.00     0.000 C 
BRANCH   3   4
ATOM      4  C   UNL     1       6.389  -0.125  -6.089  1.00  0.00     0.000 C 
BRANCH   4   5
ATOM      5  C   UNL     1       5.248   0.646  -5.408  1.00  0.00     0.006 C 
BRANCH   5   6
ATOM      6  C   UNL     1       4.091   0.885  -6.383  1.00  0.00     0.053 C 
BRANCH   6   7
ATOM      7  C   UNL     1       4.326   2.127  -7.183  1.00  0.00     0.041 C 
ATOM      8  O   UNL     1       5.073   3.036  -6.737  1.00  0.00    -0.550 OA
ATOM      9  O   UNL     1       3.761   2.257  -8.445  1.00  0.00    -0.550 OA
ENDBRANCH   6   7
ENDBRANCH   5   6
ENDBRANCH   4   5
ENDBRANCH   3   4
ENDBRANCH   2   3
ENDBRANCH   1   2
BRANCH   1  10
ATOM     10  C   UNL     1       6.872  -4.335  -5.118  1.00  0.00     0.000 C 
BRANCH  10  11
ATOM     11  C   UNL     1       7.562  -5.259  -6.133  1.00  0.00    -0.000 C 
BRANCH  11  12
ATOM     12  C   UNL     1       7.305  -4.840  -7.588  1.00  0.00    -0.000 C 
BRANCH  12  13
ATOM     13  C   UNL     1       8.194  -3.666  -8.034  1.00  0.00    -0.000 C 
BRANCH  13  14
ATOM     14  C   UNL     1       7.459  -2.715  -9.003  1.00  0.00    -0.000 C 
BRANCH  14  15
ATOM     15  C   UNL     1       5.999  -3.118  -9.271  1.00  0.00    -0.000 C 
BRANCH  15  16
ATOM     16  C   UNL     1       5.018  -1.949  -9.108  1.00  0.00    -0.003 C 
ATOM     17  C   UNL     1       5.623  -0.647  -9.624  1.00  0.00     0.004 C 
ENDBRANCH  15  16
ENDBRANCH  14  15
ENDBRANCH  13  14
ENDBRANCH  12  13
ENDBRANCH  11  12
ENDBRANCH  10  11
ENDBRANCH   1  10
TORSDOF 13
ENDMDL
