MODEL 1
REMARK VINA RESULT:    -4.971      0.000      0.000
REMARK INTER + INTRA:          -9.152
REMARK INTER:                  -7.878
REMARK INTRA:                  -1.274
REMARK UNBOUND:                -1.274
REMARK SMILES CCCCCCCCCCCC(=O)[O-]
REMARK SMILES IDX 7 1 8 2 9 3 10 4 11 5 12 6 13 7 14 8 6 9 5 10 4 11 3 12 2 13
REMARK SMILES IDX 1 14
REMARK H PARENT
REMARK Flexibility Score: inf
ROOT
ATOM      1  C   UNL     1      45.218  59.758  49.532  1.00  0.00     0.000 C 
ENDROOT
BRANCH   1   2
ATOM      2  C   UNL     1      44.765  58.293  49.483  1.00  0.00     0.000 C 
BRANCH   2   3
ATOM      3  C   UNL     1      45.287  57.599  48.216  1.00  0.00     0.000 C 
BRANCH   3   4
ATOM      4  C   UNL     1      44.157  57.028  47.340  1.00  0.00     0.006 C 
BRANCH   4   5
ATOM      5  C   UNL     1      43.746  57.932  46.168  1.00  0.00     0.053 C 
BRANCH   5   6
ATOM      6  C   UNL     1      42.668  57.313  45.332  1.00  0.00     0.041 C 
ATOM      7  O   UNL     1      41.499  57.204  45.787  1.00  0.00    -0.550 OA
ATOM      8  O   UNL     1      42.946  56.890  44.038  1.00  0.00    -0.550 OA
ENDBRANCH   5   6
ENDBRANCH   4   5
ENDBRANCH   3   4
ENDBRANCH   2   3
ENDBRANCH   1   2
BRANCH   1   9
ATOM      9  C   UNL     1      44.257  60.658  48.746  1.00  0.00     0.000 C 
BRANCH   9  10
ATOM     10  C   UNL     1      43.122  61.166  49.641  1.00  0.00    -0.000 C 
BRANCH  10  11
ATOM     11  C   UNL     1      41.763  61.023  48.941  1.00  0.00    -0.000 C 
BRANCH  11  12
ATOM     12  C   UNL     1      41.584  59.661  48.246  1.00  0.00    -0.000 C 
BRANCH  12  13
ATOM     13  C   UNL     1      41.139  58.515  49.173  1.00  0.00    -0.003 C 
ATOM     14  C   UNL     1      39.786  57.922  48.781  1.00  0.00     0.004 C 
ENDBRANCH  12  13
ENDBRANCH  11  12
ENDBRANCH  10  11
ENDBRANCH   9  10
ENDBRANCH   1   9
TORSDOF 10
ENDMDL
MODEL 2
REMARK VINA RESULT:    -4.959      2.515      5.225
REMARK INTER + INTRA:          -9.133
REMARK INTER:                  -7.814
REMARK INTRA:                  -1.319
REMARK UNBOUND:                -1.274
REMARK SMILES CCCCCCCCCCCC(=O)[O-]
REMARK SMILES IDX 7 1 8 2 9 3 10 4 11 5 12 6 13 7 14 8 6 9 5 10 4 11 3 12 2 13
REMARK SMILES IDX 1 14
REMARK H PARENT
REMARK Flexibility Score: inf
ROOT
ATOM      1  C   UNL     1      40.408  57.149  46.165  1.00  0.00     0.000 C 
ENDROOT
BRANCH   1   2
ATOM      2  C   UNL     1      40.779  56.835  47.620  1.00  0.00     0.000 C 
BRANCH   2   3
ATOM      3  C   UNL     1      40.368  57.984  48.552  1.00  0.00     0.000 C 
BRANCH   3   4
ATOM      4  C   UNL     1      41.572  58.661  49.232  1.00  0.00     0.006 C 
BRANCH   4   5
ATOM      5  C   UNL     1      41.948  60.028  48.640  1.00  0.00     0.053 C 
BRANCH   5   6
ATOM      6  C   UNL     1      43.047  60.692  49.412  1.00  0.00     0.041 C 
ATOM      7  O   UNL     1      42.878  61.845  49.889  1.00  0.00    -0.550 OA
ATOM      8  O   UNL     1      44.244  60.023  49.633  1.00  0.00    -0.550 OA
ENDBRANCH   5   6
ENDBRANCH   4   5
ENDBRANCH   3   4
ENDBRANCH   2   3
ENDBRANCH   1   2
BRANCH   1   9
ATOM      9  C   UNL     1      41.477  58.027  45.502  1.00  0.00     0.000 C 
BRANCH   9  10
ATOM     10  C   UNL     1      42.636  57.176  44.970  1.00  0.00    -0.000 C 
BRANCH  10  11
ATOM     11  C   UNL     1      43.984  57.872  45.205  1.00  0.00    -0.000 C 
BRANCH  11  12
ATOM     12  C   UNL     1      44.226  58.231  46.682  1.00  0.00    -0.000 C 
BRANCH  12  13
ATOM     13  C   UNL     1      44.484  57.028  47.606  1.00  0.00    -0.003 C 
ATOM     14  C   UNL     1      45.849  57.084  48.293  1.00  0.00     0.004 C 
ENDBRANCH  12  13
ENDBRANCH  11  12
ENDBRANCH  10  11
ENDBRANCH   9  10
ENDBRANCH   1   9
TORSDOF 10
ENDMDL
MODEL 3
REMARK VINA RESULT:    -4.871      2.390      4.275
REMARK INTER + INTRA:          -8.994
REMARK INTER:                  -7.715
REMARK INTRA:                  -1.279
REMARK UNBOUND:                -1.274
REMARK SMILES CCCCCCCCCCCC(=O)[O-]
REMARK SMILES IDX 7 1 8 2 9 3 10 4 11 5 12 6 13 7 14 8 6 9 5 10 4 11 3 12 2 13
REMARK SMILES IDX 1 14
REMARK H PARENT
REMARK Flexibility Score: inf
ROOT
ATOM      1  C   UNL     1      41.353  57.928  45.585  1.00  0.00     0.000 C 
ENDROOT
BRANCH   1   2
ATOM      2  C   UNL     1      42.532  57.114  45.038  1.00  0.00     0.000 C 
BRANCH   2   3
ATOM      3  C   UNL     1      43.834  57.928  45.093  1.00  0.00     0.000 C 
BRANCH   3   4
ATOM      4  C   UNL     1      44.135  58.476  46.499  1.00  0.00     0.006 C 
BRANCH   4   5
ATOM      5  C   UNL     1      44.477  57.399  47.540  1.00  0.00     0.053 C 
BRANCH   5   6
ATOM      6  C   UNL     1      45.487  57.879  48.536  1.00  0.00     0.041 C 
ATOM      7  O   UNL     1      45.245  58.890  49.247  1.00  0.00    -0.550 OA
ATOM      8  O   UNL     1      46.682  57.191  48.702  1.00  0.00    -0.550 OA
ENDBRANCH   5   6
ENDBRANCH   4   5
ENDBRANCH   3   4
ENDBRANCH   2   3
ENDBRANCH   1   2
BRANCH   1   9
ATOM      9  C   UNL     1      40.411  57.045  46.413  1.00  0.00     0.000 C 
BRANCH   9  10
ATOM     10  C   UNL     1      40.885  56.947  47.868  1.00  0.00    -0.000 C 
BRANCH  10  11
ATOM     11  C   UNL     1      40.516  58.214  48.654  1.00  0.00    -0.000 C 
BRANCH  11  12
ATOM     12  C   UNL     1      41.744  58.950  49.218  1.00  0.00    -0.000 C 
BRANCH  12  13
ATOM     13  C   UNL     1      41.944  60.380  48.684  1.00  0.00    -0.003 C 
ATOM     14  C   UNL     1      42.721  61.275  49.649  1.00  0.00     0.004 C 
ENDBRANCH  12  13
ENDBRANCH  11  12
ENDBRANCH  10  11
ENDBRANCH   9  10
ENDBRANCH   1   9
TORSDOF 10
ENDMDL
MODEL 4
REMARK VINA RESULT:    -4.758      1.072      3.611
REMARK INTER + INTRA:          -8.814
REMARK INTER:                  -7.511
REMARK INTRA:                  -1.303
REMARK UNBOUND:                -1.274
REMARK SMILES CCCCCCCCCCCC(=O)[O-]
REMARK SMILES IDX 7 1 8 2 9 3 10 4 11 5 12 6 13 7 14 8 6 9 5 10 4 11 3 12 2 13
REMARK SMILES IDX 1 14
REMARK H PARENT
REMARK Flexibility Score: inf
ROOT
ATOM      1  C   UNL     1      44.114  60.579  48.760  1.00  0.00     0.000 C 
ENDROOT
BRANCH   1   2
ATOM      2  C   UNL     1      42.681  60.611  49.307  1.00  0.00     0.000 C 
BRANCH   2   3
ATOM      3  C   UNL     1      41.725  59.838  48.387  1.00  0.00     0.000 C 
BRANCH   3   4
ATOM      4  C   UNL     1      41.238  58.516  49.007  1.00  0.00     0.006 C 
BRANCH   4   5
ATOM      5  C   UNL     1      40.006  57.909  48.319  1.00  0.00     0.053 C 
BRANCH   5   6
ATOM      6  C   UNL     1      40.378  57.070  47.136  1.00  0.00     0.041 C 
ATOM      7  O   UNL     1      40.820  55.902  47.302  1.00  0.00    -0.550 OA
ATOM      8  O   UNL     1      40.205  57.564  45.849  1.00  0.00    -0.550 OA
ENDBRANCH   5   6
ENDBRANCH   4   5
ENDBRANCH   3   4
ENDBRANCH   2   3
ENDBRANCH   1   2
BRANCH   1   9
ATOM      9  C   UNL     1      45.038  59.776  49.683  1.00  0.00     0.000 C 
BRANCH   9  10
ATOM     10  C   UNL     1      44.788  58.270  49.538  1.00  0.00    -0.000 C 
BRANCH  10  11
ATOM     11  C   UNL     1      45.277  57.759  48.176  1.00  0.00    -0.000 C 
BRANCH  11  12
ATOM     12  C   UNL     1      44.137  57.230  47.288  1.00  0.00    -0.000 C 
BRANCH  12  13
ATOM     13  C   UNL     1      43.835  58.085  46.045  1.00  0.00    -0.003 C 
ATOM     14  C   UNL     1      43.350  57.258  44.853  1.00  0.00     0.004 C 
ENDBRANCH  12  13
ENDBRANCH  11  12
ENDBRANCH  10  11
ENDBRANCH   9  10
ENDBRANCH   1   9
TORSDOF 10
ENDMDL
MODEL 5
REMARK VINA RESULT:    -4.690      2.212      4.088
REMARK INTER + INTRA:          -8.706
REMARK INTER:                  -7.610
REMARK INTRA:                  -1.096
REMARK UNBOUND:                -1.274
REMARK SMILES CCCCCCCCCCCC(=O)[O-]
REMARK SMILES IDX 7 1 8 2 9 3 10 4 11 5 12 6 13 7 14 8 6 9 5 10 4 11 3 12 2 13
REMARK SMILES IDX 1 14
REMARK H PARENT
REMARK Flexibility Score: inf
ROOT
ATOM      1  C   UNL     1      43.987  57.919  46.175  1.00  0.00     0.000 C 
ENDROOT
BRANCH   1   2
ATOM      2  C   UNL     1      44.141  57.146  47.491  1.00  0.00     0.000 C 
BRANCH   2   3
ATOM      3  C   UNL     1      45.200  57.800  48.391  1.00  0.00     0.000 C 
BRANCH   3   4
ATOM      4  C   UNL     1      44.584  58.616  49.541  1.00  0.00     0.006 C 
BRANCH   4   5
ATOM      5  C   UNL     1      44.675  60.138  49.357  1.00  0.00     0.053 C 
BRANCH   5   6
ATOM      6  C   UNL     1      43.328  60.761  49.150  1.00  0.00     0.041 C 
ATOM      7  O   UNL     1      42.872  61.578  49.993  1.00  0.00    -0.550 OA
ATOM      8  O   UNL     1      42.591  60.465  48.010  1.00  0.00    -0.550 OA
ENDBRANCH   5   6
ENDBRANCH   4   5
ENDBRANCH   3   4
ENDBRANCH   2   3
ENDBRANCH   1   2
BRANCH   1   9
ATOM      9  C   UNL     1      42.853  57.335  45.323  1.00  0.00     0.000 C 
BRANCH   9  10
ATOM     10  C   UNL     1      41.551  58.117  45.530  1.00  0.00    -0.000 C 
BRANCH  10  11
ATOM     11  C   UNL     1      40.398  57.176  45.909  1.00  0.00    -0.000 C 
BRANCH  11  12
ATOM     12  C   UNL     1      40.436  56.744  47.386  1.00  0.00    -0.000 C 
BRANCH  12  13
ATOM     13  C   UNL     1      39.871  57.777  48.377  1.00  0.00    -0.003 C 
ATOM     14  C   UNL     1      40.832  58.095  49.523  1.00  0.00     0.004 C 
ENDBRANCH  12  13
ENDBRANCH  11  12
ENDBRANCH  10  11
ENDBRANCH   9  10
ENDBRANCH   1   9
TORSDOF 10
ENDMDL
MODEL 6
REMARK VINA RESULT:    -4.648      1.041      2.102
REMARK INTER + INTRA:          -8.640
REMARK INTER:                  -7.384
REMARK INTRA:                  -1.256
REMARK UNBOUND:                -1.274
REMARK SMILES CCCCCCCCCCCC(=O)[O-]
REMARK SMILES IDX 7 1 8 2 9 3 10 4 11 5 12 6 13 7 14 8 6 9 5 10 4 11 3 12 2 13
REMARK SMILES IDX 1 14
REMARK H PARENT
REMARK Flexibility Score: inf
ROOT
ATOM      1  C   UNL     1      45.983  57.704  48.729  1.00  0.00     0.000 C 
ENDROOT
BRANCH   1   2
ATOM      2  C   UNL     1      45.272  56.640  47.884  1.00  0.00     0.000 C 
BRANCH   2   3
ATOM      3  C   UNL     1      43.832  57.066  47.561  1.00  0.00     0.000 C 
BRANCH   3   4
ATOM      4  C   UNL     1      43.715  57.798  46.211  1.00  0.00     0.006 C 
BRANCH   4   5
ATOM      5  C   UNL     1      42.763  57.127  45.208  1.00  0.00     0.053 C 
BRANCH   5   6
ATOM      6  C   UNL     1      41.325  57.379  45.544  1.00  0.00     0.041 C 
ATOM      7  O   UNL     1      40.690  58.296  44.959  1.00  0.00    -0.550 OA
ATOM      8  O   UNL     1      40.677  56.578  46.476  1.00  0.00    -0.550 OA
ENDBRANCH   5   6
ENDBRANCH   4   5
ENDBRANCH   3   4
ENDBRANCH   2   3
ENDBRANCH   1   2
BRANCH   1   9
ATOM      9  C   UNL     1      45.000  58.404  49.675  1.00  0.00     0.000 C 
BRANCH   9  10
ATOM     10  C   UNL     1      45.198  59.924  49.651  1.00  0.00    -0.000 C 
BRANCH  10  11
ATOM     11  C   UNL     1      44.216  60.592  48.680  1.00  0.00    -0.000 C 
BRANCH  11  12
ATOM     12  C   UNL     1      42.786  60.691  49.243  1.00  0.00    -0.000 C 
BRANCH  12  13
ATOM     13  C   UNL     1      41.704  60.017  48.382  1.00  0.00    -0.003 C 
ATOM     14  C   UNL     1      41.151  58.737  49.010  1.00  0.00     0.004 C 
ENDBRANCH  12  13
ENDBRANCH  11  12
ENDBRANCH  10  11
ENDBRANCH   9  10
ENDBRANCH   1   9
TORSDOF 10
ENDMDL
MODEL 7
REMARK VINA RESULT:    -4.608      1.679      3.258
REMARK INTER + INTRA:          -8.576
REMARK INTER:                  -7.303
REMARK INTRA:                  -1.273
REMARK UNBOUND:                -1.274
REMARK SMILES CCCCCCCCCCCC(=O)[O-]
REMARK SMILES IDX 7 1 8 2 9 3 10 4 11 5 12 6 13 7 14 8 6 9 5 10 4 11 3 12 2 13
REMARK SMILES IDX 1 14
REMARK H PARENT
REMARK Flexibility Score: inf
ROOT
ATOM      1  C   UNL     1      43.814  56.867  47.910  1.00  0.00     0.000 C 
ENDROOT
BRANCH   1   2
ATOM      2  C   UNL     1      44.385  57.658  46.726  1.00  0.00     0.000 C 
BRANCH   2   3
ATOM      3  C   UNL     1      43.265  58.352  45.937  1.00  0.00     0.000 C 
BRANCH   3   4
ATOM      4  C   UNL     1      42.222  57.363  45.386  1.00  0.00     0.006 C 
BRANCH   4   5
ATOM      5  C   UNL     1      40.769  57.710  45.744  1.00  0.00     0.053 C 
BRANCH   5   6
ATOM      6  C   UNL     1      40.301  56.979  46.965  1.00  0.00     0.041 C 
ATOM      7  O   UNL     1      40.196  57.584  48.065  1.00  0.00    -0.550 OA
ATOM      8  O   UNL     1      39.948  55.638  46.881  1.00  0.00    -0.550 OA
ENDBRANCH   5   6
ENDBRANCH   4   5
ENDBRANCH   3   4
ENDBRANCH   2   3
ENDBRANCH   1   2
BRANCH   1   9
ATOM      9  C   UNL     1      43.899  57.681  49.207  1.00  0.00     0.000 C 
BRANCH   9  10
ATOM     10  C   UNL     1      45.262  58.371  49.336  1.00  0.00    -0.000 C 
BRANCH  10  11
ATOM     11  C   UNL     1      45.115  59.768  49.955  1.00  0.00    -0.000 C 
BRANCH  11  12
ATOM     12  C   UNL     1      44.358  60.753  49.046  1.00  0.00    -0.000 C 
BRANCH  12  13
ATOM     13  C   UNL     1      42.942  61.119  49.526  1.00  0.00    -0.003 C 
ATOM     14  C   UNL     1      41.845  60.628  48.581  1.00  0.00     0.004 C 
ENDBRANCH  12  13
ENDBRANCH  11  12
ENDBRANCH  10  11
ENDBRANCH   9  10
ENDBRANCH   1   9
TORSDOF 10
ENDMDL
MODEL 8
REMARK VINA RESULT:    -4.546      0.963      3.374
REMARK INTER + INTRA:          -8.478
REMARK INTER:                  -7.334
REMARK INTRA:                  -1.144
REMARK UNBOUND:                -1.274
REMARK SMILES CCCCCCCCCCCC(=O)[O-]
REMARK SMILES IDX 7 1 8 2 9 3 10 4 11 5 12 6 13 7 14 8 6 9 5 10 4 11 3 12 2 13
REMARK SMILES IDX 1 14
REMARK H PARENT
REMARK Flexibility Score: inf
ROOT
ATOM      1  C   UNL     1      41.835  61.148  48.909  1.00  0.00     0.000 C 
ENDROOT
BRANCH   1   2
ATOM      2  C   UNL     1      41.842  59.874  48.054  1.00  0.00     0.000 C 
BRANCH   2   3
ATOM      3  C   UNL     1      41.157  58.714  48.792  1.00  0.00     0.000 C 
BRANCH   3   4
ATOM      4  C   UNL     1      40.464  57.726  47.837  1.00  0.00     0.006 C 
BRANCH   4   5
ATOM      5  C   UNL     1      41.428  56.827  47.047  1.00  0.00     0.053 C 
BRANCH   5   6
ATOM      6  C   UNL     1      41.676  57.347  45.665  1.00  0.00     0.041 C 
ATOM      7  O   UNL     1      42.805  57.200  45.126  1.00  0.00    -0.550 OA
ATOM      8  O   UNL     1      40.651  57.962  44.958  1.00  0.00    -0.550 OA
ENDBRANCH   5   6
ENDBRANCH   4   5
ENDBRANCH   3   4
ENDBRANCH   2   3
ENDBRANCH   1   2
BRANCH   1   9
ATOM      9  C   UNL     1      43.137  61.282  49.708  1.00  0.00     0.000 C 
BRANCH   9  10
ATOM     10  C   UNL     1      44.319  60.684  48.938  1.00  0.00    -0.000 C 
BRANCH  10  11
ATOM     11  C   UNL     1      45.231  59.873  49.870  1.00  0.00    -0.000 C 
BRANCH  11  12
ATOM     12  C   UNL     1      45.230  58.367  49.553  1.00  0.00    -0.000 C 
BRANCH  12  13
ATOM     13  C   UNL     1      44.897  58.014  48.092  1.00  0.00    -0.003 C 
ATOM     14  C   UNL     1      45.038  56.522  47.791  1.00  0.00     0.004 C 
ENDBRANCH  12  13
ENDBRANCH  11  12
ENDBRANCH  10  11
ENDBRANCH   9  10
ENDBRANCH   1   9
TORSDOF 10
ENDMDL
MODEL 9
REMARK VINA RESULT:    -4.513      2.778      3.927
REMARK INTER + INTRA:          -8.425
REMARK INTER:                  -7.072
REMARK INTRA:                  -1.354
REMARK UNBOUND:                -1.274
REMARK SMILES CCCCCCCCCCCC(=O)[O-]
REMARK SMILES IDX 7 1 8 2 9 3 10 4 11 5 12 6 13 7 14 8 6 9 5 10 4 11 3 12 2 13
REMARK SMILES IDX 1 14
REMARK H PARENT
REMARK Flexibility Score: inf
ROOT
ATOM      1  C   UNL     1      43.608  59.589  46.745  1.00  0.00     0.000 C 
ENDROOT
BRANCH   1   2
ATOM      2  C   UNL     1      43.789  58.231  46.055  1.00  0.00     0.000 C 
BRANCH   2   3
ATOM      3  C   UNL     1      44.125  57.135  47.077  1.00  0.00     0.000 C 
BRANCH   3   4
ATOM      4  C   UNL     1      45.197  57.574  48.091  1.00  0.00     0.006 C 
BRANCH   4   5
ATOM      5  C   UNL     1      44.671  57.776  49.520  1.00  0.00     0.053 C 
BRANCH   5   6
ATOM      6  C   UNL     1      45.307  58.955  50.191  1.00  0.00     0.041 C 
ATOM      7  O   UNL     1      45.268  60.090  49.647  1.00  0.00    -0.550 OA
ATOM      8  O   UNL     1      45.912  58.807  51.433  1.00  0.00    -0.550 OA
ENDBRANCH   5   6
ENDBRANCH   4   5
ENDBRANCH   3   4
ENDBRANCH   2   3
ENDBRANCH   1   2
BRANCH   1   9
ATOM      9  C   UNL     1      42.127  59.874  47.021  1.00  0.00     0.000 C 
BRANCH   9  10
ATOM     10  C   UNL     1      41.857  59.980  48.526  1.00  0.00    -0.000 C 
BRANCH  10  11
ATOM     11  C   UNL     1      41.404  58.630  49.101  1.00  0.00    -0.000 C 
BRANCH  11  12
ATOM     12  C   UNL     1      40.228  58.011  48.326  1.00  0.00    -0.000 C 
BRANCH  12  13
ATOM     13  C   UNL     1      40.564  56.717  47.563  1.00  0.00    -0.003 C 
ATOM     14  C   UNL     1      40.397  56.854  46.050  1.00  0.00     0.004 C 
ENDBRANCH  12  13
ENDBRANCH  11  12
ENDBRANCH  10  11
ENDBRANCH   9  10
ENDBRANCH   1   9
TORSDOF 10
ENDMDL
