MODEL 1
REMARK VINA RESULT:    -4.674      0.000      0.000
REMARK INTER + INTRA:          -6.571
REMARK INTER:                  -6.177
REMARK INTRA:                  -0.393
REMARK UNBOUND:                -0.393
REMARK SMILES CCCCC=CC=CCO
REMARK SMILES IDX 5 1 6 2 4 3 3 4 2 5 1 6 7 7 8 8 9 9 10 10
REMARK H PARENT 10 11
REMARK Flexibility Score: inf
ROOT
ATOM      1  C   UNL     1       7.445  -2.454  21.351  1.00  0.00    -0.027 C 
ATOM      2  C   UNL     1       7.880  -1.202  21.561  1.00  0.00    -0.005 C 
ENDROOT
BRANCH   1   3
ATOM      3  C   UNL     1       7.533  -3.185  20.039  1.00  0.00     0.027 C 
BRANCH   3   4
ATOM      4  C   UNL     1       6.259  -2.984  19.204  1.00  0.00     0.004 C 
BRANCH   4   5
ATOM      5  C   UNL     1       6.563  -2.691  17.728  1.00  0.00    -0.003 C 
ATOM      6  C   UNL     1       7.284  -1.359  17.525  1.00  0.00     0.004 C 
ENDBRANCH   4   5
ENDBRANCH   3   4
ENDBRANCH   1   3
BRANCH   2   7
ATOM      7  C   UNL     1       8.528  -0.365  20.523  1.00  0.00    -0.002 C 
ATOM      8  C   UNL     1       9.818  -0.477  20.180  1.00  0.00     0.001 C 
BRANCH   8   9
ATOM      9  C   UNL     1      10.777  -1.452  20.798  1.00  0.00     0.183 C 
BRANCH   9  10
ATOM     10  O   UNL     1      11.979  -0.803  21.107  1.00  0.00    -0.392 OA
ATOM     11  H   UNL     1      12.006   0.010  20.540  1.00  0.00     0.210 HD
ENDBRANCH   9  10
ENDBRANCH   8   9
ENDBRANCH   2   7
TORSDOF 6
ENDMDL
MODEL 2
REMARK VINA RESULT:    -4.530      2.804      4.874
REMARK INTER + INTRA:          -6.380
REMARK INTER:                  -5.870
REMARK INTRA:                  -0.511
REMARK UNBOUND:                -0.393
REMARK SMILES CCCCC=CC=CCO
REMARK SMILES IDX 5 1 6 2 4 3 3 4 2 5 1 6 7 7 8 8 9 9 10 10
REMARK H PARENT 10 11
REMARK Flexibility Score: inf
ROOT
ATOM      1  C   UNL     1       9.235  -0.608  20.548  1.00  0.00    -0.027 C 
ATOM      2  C   UNL     1       8.923  -1.910  20.464  1.00  0.00    -0.005 C 
ENDROOT
BRANCH   1   3
ATOM      3  C   UNL     1       8.284   0.479  20.971  1.00  0.00     0.027 C 
BRANCH   3   4
ATOM      4  C   UNL     1       8.749   1.149  22.273  1.00  0.00     0.004 C 
BRANCH   4   5
ATOM      5  C   UNL     1       7.625   1.251  23.316  1.00  0.00    -0.003 C 
ATOM      6  C   UNL     1       6.780  -0.019  23.401  1.00  0.00     0.004 C 
ENDBRANCH   4   5
ENDBRANCH   3   4
ENDBRANCH   1   3
BRANCH   2   7
ATOM      7  C   UNL     1       7.588  -2.464  20.796  1.00  0.00    -0.002 C 
ATOM      8  C   UNL     1       6.763  -3.001  19.889  1.00  0.00     0.001 C 
BRANCH   8   9
ATOM      9  C   UNL     1       7.069  -3.108  18.424  1.00  0.00     0.183 C 
BRANCH   9  10
ATOM     10  O   UNL     1       5.936  -2.766  17.675  1.00  0.00    -0.392 OA
ATOM     11  H   UNL     1       5.307  -2.335  18.310  1.00  0.00     0.210 HD
ENDBRANCH   9  10
ENDBRANCH   8   9
ENDBRANCH   2   7
TORSDOF 6
ENDMDL
MODEL 3
REMARK VINA RESULT:    -4.519      1.611      3.195
REMARK INTER + INTRA:          -6.365
REMARK INTER:                  -5.904
REMARK INTRA:                  -0.461
REMARK UNBOUND:                -0.393
REMARK SMILES CCCCC=CC=CCO
REMARK SMILES IDX 5 1 6 2 4 3 3 4 2 5 1 6 7 7 8 8 9 9 10 10
REMARK H PARENT 10 11
REMARK Flexibility Score: inf
ROOT
ATOM      1  C   UNL     1       7.510  -2.589  20.825  1.00  0.00    -0.027 C 
ATOM      2  C   UNL     1       8.226  -1.784  20.025  1.00  0.00    -0.005 C 
ENDROOT
BRANCH   1   3
ATOM      3  C   UNL     1       7.353  -2.406  22.311  1.00  0.00     0.027 C 
BRANCH   3   4
ATOM      4  C   UNL     1       6.364  -1.274  22.630  1.00  0.00     0.004 C 
BRANCH   4   5
ATOM      5  C   UNL     1       6.994  -0.167  23.489  1.00  0.00    -0.003 C 
ATOM      6  C   UNL     1       6.659   1.236  22.985  1.00  0.00     0.004 C 
ENDBRANCH   4   5
ENDBRANCH   3   4
ENDBRANCH   1   3
BRANCH   2   7
ATOM      7  C   UNL     1       8.955  -0.583  20.497  1.00  0.00    -0.002 C 
ATOM      8  C   UNL     1      10.256  -0.582  20.816  1.00  0.00     0.001 C 
BRANCH   8   9
ATOM      9  C   UNL     1      11.145  -1.789  20.745  1.00  0.00     0.183 C 
BRANCH   9  10
ATOM     10  O   UNL     1      12.487  -1.389  20.715  1.00  0.00    -0.392 OA
ATOM     11  H   UNL     1      12.482  -0.433  20.449  1.00  0.00     0.210 HD
ENDBRANCH   9  10
ENDBRANCH   8   9
ENDBRANCH   2   7
TORSDOF 6
ENDMDL
MODEL 4
REMARK VINA RESULT:    -4.443      2.066      2.342
REMARK INTER + INTRA:          -6.265
REMARK INTER:                  -5.804
REMARK INTRA:                  -0.461
REMARK UNBOUND:                -0.393
REMARK SMILES CCCCC=CC=CCO
REMARK SMILES IDX 5 1 6 2 4 3 3 4 2 5 1 6 7 7 8 8 9 9 10 10
REMARK H PARENT 10 11
REMARK Flexibility Score: inf
ROOT
ATOM      1  C   UNL     1       7.096  -2.384  21.362  1.00  0.00    -0.027 C 
ATOM      2  C   UNL     1       7.524  -1.217  21.865  1.00  0.00    -0.005 C 
ENDROOT
BRANCH   1   3
ATOM      3  C   UNL     1       7.587  -2.998  20.079  1.00  0.00     0.027 C 
BRANCH   3   4
ATOM      4  C   UNL     1       6.437  -3.192  19.080  1.00  0.00     0.004 C 
BRANCH   4   5
ATOM      5  C   UNL     1       6.762  -2.623  17.690  1.00  0.00    -0.003 C 
ATOM      6  C   UNL     1       7.384  -1.228  17.753  1.00  0.00     0.004 C 
ENDBRANCH   4   5
ENDBRANCH   3   4
ENDBRANCH   1   3
BRANCH   2   7
ATOM      7  C   UNL     1       8.561  -0.370  21.229  1.00  0.00    -0.002 C 
ATOM      8  C   UNL     1       8.897   0.848  21.671  1.00  0.00     0.001 C 
BRANCH   8   9
ATOM      9  C   UNL     1       8.271   1.521  22.857  1.00  0.00     0.183 C 
BRANCH   9  10
ATOM     10  O   UNL     1       8.342   2.912  22.705  1.00  0.00    -0.392 OA
ATOM     11  H   UNL     1       8.473   3.076  21.736  1.00  0.00     0.210 HD
ENDBRANCH   9  10
ENDBRANCH   8   9
ENDBRANCH   2   7
TORSDOF 6
ENDMDL
MODEL 5
REMARK VINA RESULT:    -4.366      2.312      3.898
REMARK INTER + INTRA:          -6.164
REMARK INTER:                  -5.573
REMARK INTRA:                  -0.590
REMARK UNBOUND:                -0.393
REMARK SMILES CCCCC=CC=CCO
REMARK SMILES IDX 5 1 6 2 4 3 3 4 2 5 1 6 7 7 8 8 9 9 10 10
REMARK H PARENT 10 11
REMARK Flexibility Score: inf
ROOT
ATOM      1  C   UNL     1       6.962  -2.673  21.191  1.00  0.00    -0.027 C 
ATOM      2  C   UNL     1       7.732  -2.346  20.143  1.00  0.00    -0.005 C 
ENDROOT
BRANCH   1   3
ATOM      3  C   UNL     1       7.153  -2.158  22.593  1.00  0.00     0.027 C 
BRANCH   3   4
ATOM      4  C   UNL     1       6.245  -0.951  22.870  1.00  0.00     0.004 C 
BRANCH   4   5
ATOM      5  C   UNL     1       6.955   0.147  23.676  1.00  0.00    -0.003 C 
ATOM      6  C   UNL     1       7.972   0.927  22.845  1.00  0.00     0.004 C 
ENDBRANCH   4   5
ENDBRANCH   3   4
ENDBRANCH   1   3
BRANCH   2   7
ATOM      7  C   UNL     1       8.880  -1.410  20.218  1.00  0.00    -0.002 C 
ATOM      8  C   UNL     1       9.062  -0.391  19.368  1.00  0.00     0.001 C 
BRANCH   8   9
ATOM      9  C   UNL     1       8.142  -0.064  18.229  1.00  0.00     0.183 C 
BRANCH   9  10
ATOM     10  O   UNL     1       8.724  -0.466  17.019  1.00  0.00    -0.392 OA
ATOM     11  H   UNL     1       7.989  -0.852  16.477  1.00  0.00     0.210 HD
ENDBRANCH   9  10
ENDBRANCH   8   9
ENDBRANCH   2   7
TORSDOF 6
ENDMDL
MODEL 6
REMARK VINA RESULT:    -4.352      2.635      4.461
REMARK INTER + INTRA:          -6.145
REMARK INTER:                  -5.569
REMARK INTRA:                  -0.576
REMARK UNBOUND:                -0.393
REMARK SMILES CCCCC=CC=CCO
REMARK SMILES IDX 5 1 6 2 4 3 3 4 2 5 1 6 7 7 8 8 9 9 10 10
REMARK H PARENT 10 11
REMARK Flexibility Score: inf
ROOT
ATOM      1  C   UNL     1       6.127  -1.268  22.845  1.00  0.00    -0.027 C 
ATOM      2  C   UNL     1       6.408  -2.226  21.948  1.00  0.00    -0.005 C 
ENDROOT
BRANCH   1   3
ATOM      3  C   UNL     1       7.108  -0.237  23.336  1.00  0.00     0.027 C 
BRANCH   3   4
ATOM      4  C   UNL     1       6.811   1.143  22.732  1.00  0.00     0.004 C 
BRANCH   4   5
ATOM      5  C   UNL     1       7.882   1.587  21.724  1.00  0.00    -0.003 C 
ATOM      6  C   UNL     1       9.232   0.908  21.957  1.00  0.00     0.004 C 
ENDBRANCH   4   5
ENDBRANCH   3   4
ENDBRANCH   1   3
BRANCH   2   7
ATOM      7  C   UNL     1       7.730  -2.391  21.298  1.00  0.00    -0.002 C 
ATOM      8  C   UNL     1       7.887  -2.775  20.025  1.00  0.00     0.001 C 
BRANCH   8   9
ATOM      9  C   UNL     1       6.756  -3.095  19.091  1.00  0.00     0.183 C 
BRANCH   9  10
ATOM     10  O   UNL     1       7.265  -3.480  17.845  1.00  0.00    -0.392 OA
ATOM     11  H   UNL     1       7.073  -2.729  17.226  1.00  0.00     0.210 HD
ENDBRANCH   9  10
ENDBRANCH   8   9
ENDBRANCH   2   7
TORSDOF 6
ENDMDL
MODEL 7
REMARK VINA RESULT:    -4.297      2.393      3.184
REMARK INTER + INTRA:          -6.072
REMARK INTER:                  -5.606
REMARK INTRA:                  -0.466
REMARK UNBOUND:                -0.393
REMARK SMILES CCCCC=CC=CCO
REMARK SMILES IDX 5 1 6 2 4 3 3 4 2 5 1 6 7 7 8 8 9 9 10 10
REMARK H PARENT 10 11
REMARK Flexibility Score: inf
ROOT
ATOM      1  C   UNL     1       9.341  -0.672  20.663  1.00  0.00    -0.027 C 
ATOM      2  C   UNL     1       9.235   0.360  21.513  1.00  0.00    -0.005 C 
ENDROOT
BRANCH   1   3
ATOM      3  C   UNL     1       8.249  -1.141  19.740  1.00  0.00     0.027 C 
BRANCH   3   4
ATOM      4  C   UNL     1       7.694  -2.503  20.183  1.00  0.00     0.004 C 
BRANCH   4   5
ATOM      5  C   UNL     1       7.158  -3.332  19.006  1.00  0.00    -0.003 C 
ATOM      6  C   UNL     1       6.842  -2.479  17.778  1.00  0.00     0.004 C 
ENDBRANCH   4   5
ENDBRANCH   3   4
ENDBRANCH   1   3
BRANCH   2   7
ATOM      7  C   UNL     1       8.020   1.200  21.649  1.00  0.00    -0.002 C 
ATOM      8  C   UNL     1       7.075   0.991  22.575  1.00  0.00     0.001 C 
BRANCH   8   9
ATOM      9  C   UNL     1       7.112  -0.114  23.588  1.00  0.00     0.183 C 
BRANCH   9  10
ATOM     10  O   UNL     1       6.383  -1.214  23.118  1.00  0.00    -0.392 OA
ATOM     11  H   UNL     1       6.876  -2.020  23.419  1.00  0.00     0.210 HD
ENDBRANCH   9  10
ENDBRANCH   8   9
ENDBRANCH   2   7
TORSDOF 6
ENDMDL
MODEL 8
REMARK VINA RESULT:    -4.248      2.490      4.382
REMARK INTER + INTRA:          -6.007
REMARK INTER:                  -5.593
REMARK INTRA:                  -0.414
REMARK UNBOUND:                -0.393
REMARK SMILES CCCCC=CC=CCO
REMARK SMILES IDX 5 1 6 2 4 3 3 4 2 5 1 6 7 7 8 8 9 9 10 10
REMARK H PARENT 10 11
REMARK Flexibility Score: inf
ROOT
ATOM      1  C   UNL     1       7.686  -2.504  21.474  1.00  0.00    -0.027 C 
ATOM      2  C   UNL     1       7.516  -3.102  20.286  1.00  0.00    -0.005 C 
ENDROOT
BRANCH   1   3
ATOM      3  C   UNL     1       6.600  -1.809  22.250  1.00  0.00     0.027 C 
BRANCH   3   4
ATOM      4  C   UNL     1       7.115  -0.507  22.884  1.00  0.00     0.004 C 
BRANCH   4   5
ATOM      5  C   UNL     1       7.626   0.494  21.838  1.00  0.00    -0.003 C 
ATOM      6  C   UNL     1       9.040   0.992  22.135  1.00  0.00     0.004 C 
ENDBRANCH   4   5
ENDBRANCH   3   4
ENDBRANCH   1   3
BRANCH   2   7
ATOM      7  C   UNL     1       6.217  -3.176  19.574  1.00  0.00    -0.002 C 
ATOM      8  C   UNL     1       6.052  -2.816  18.295  1.00  0.00     0.001 C 
BRANCH   8   9
ATOM      9  C   UNL     1       7.147  -2.287  17.416  1.00  0.00     0.183 C 
BRANCH   9  10
ATOM     10  O   UNL     1       7.091  -0.888  17.378  1.00  0.00    -0.392 OA
ATOM     11  H   UNL     1       8.017  -0.581  17.199  1.00  0.00     0.210 HD
ENDBRANCH   9  10
ENDBRANCH   8   9
ENDBRANCH   2   7
TORSDOF 6
ENDMDL
MODEL 9
REMARK VINA RESULT:    -4.227      2.859      4.148
REMARK INTER + INTRA:          -5.979
REMARK INTER:                  -5.405
REMARK INTRA:                  -0.573
REMARK UNBOUND:                -0.393
REMARK SMILES CCCCC=CC=CCO
REMARK SMILES IDX 5 1 6 2 4 3 3 4 2 5 1 6 7 7 8 8 9 9 10 10
REMARK H PARENT 10 11
REMARK Flexibility Score: inf
ROOT
ATOM      1  C   UNL     1       7.479  -1.195  21.763  1.00  0.00    -0.027 C 
ATOM      2  C   UNL     1       7.044  -2.422  21.439  1.00  0.00    -0.005 C 
ENDROOT
BRANCH   1   3
ATOM      3  C   UNL     1       8.641  -0.495  21.111  1.00  0.00     0.027 C 
BRANCH   3   4
ATOM      4  C   UNL     1       8.162   0.495  20.039  1.00  0.00     0.004 C 
BRANCH   4   5
ATOM      5  C   UNL     1       8.212  -0.100  18.624  1.00  0.00    -0.003 C 
ATOM      6  C   UNL     1       7.772   0.892  17.548  1.00  0.00     0.004 C 
ENDBRANCH   4   5
ENDBRANCH   3   4
ENDBRANCH   1   3
BRANCH   2   7
ATOM      7  C   UNL     1       7.644  -3.259  20.373  1.00  0.00    -0.002 C 
ATOM      8  C   UNL     1       7.030  -3.538  19.216  1.00  0.00     0.001 C 
BRANCH   8   9
ATOM      9  C   UNL     1       5.659  -3.053  18.847  1.00  0.00     0.183 C 
BRANCH   9  10
ATOM     10  O   UNL     1       4.701  -3.998  19.234  1.00  0.00    -0.392 OA
ATOM     11  H   UNL     1       4.531  -4.560  18.435  1.00  0.00     0.210 HD
ENDBRANCH   9  10
ENDBRANCH   8   9
ENDBRANCH   2   7
TORSDOF 6
ENDMDL
