MODEL 1
REMARK VINA RESULT:    -7.175      0.000      0.000
REMARK INTER + INTRA:          -9.556
REMARK INTER:                  -9.482
REMARK INTRA:                  -0.074
REMARK UNBOUND:                -0.074
REMARK SMILES CC[C@H](C=C[C@@H](C)[C@H]1CC[C@@H]2[C@H]3CC=C4C[C@H](O)CC[C@]4(C)[C@H]3CC[C@@]21C)C(C)C
REMARK SMILES IDX 6 1 7 2 5 3 4 4 3 5 2 6 1 7 28 8 29 9 30 10 8 11 9 12 26 13
REMARK SMILES IDX 10 14 11 15 25 16 27 17 12 18 24 19 23 20 13 21 21 22 14 23
REMARK SMILES IDX 15 24 20 25 22 26 16 27 19 28 17 29 18 30
REMARK H PARENT 18 31
REMARK Flexibility Score: inf
ROOT
ATOM      1  C   UNL     1     139.237 138.322 146.799  1.00  0.00     0.012 C 
ATOM      2  C   UNL     1     138.494 138.021 145.486  1.00  0.00     0.012 C 
ENDROOT
BRANCH   1   3
ATOM      3  C   UNL     1     139.188 139.819 147.061  1.00  0.00    -0.028 C 
ATOM      4  C   UNL     1     138.909 140.681 146.066  1.00  0.00    -0.027 C 
BRANCH   4   5
ATOM      5  C   UNL     1     138.993 142.192 146.203  1.00  0.00     0.014 C 
BRANCH   5   6
ATOM      6  C   UNL     1     138.102 142.906 145.152  1.00  0.00     0.004 C 
ATOM      7  C   UNL     1     137.865 142.127 143.858  1.00  0.00     0.004 C 
ENDBRANCH   5   6
BRANCH   5   8
ATOM      8  C   UNL     1     138.810 142.684 147.677  1.00  0.00    -0.011 C 
ATOM      9  C   UNL     1     137.333 142.956 148.010  1.00  0.00     0.008 C 
ATOM     10  C   UNL     1     139.622 143.965 147.940  1.00  0.00     0.008 C 
ENDBRANCH   5   8
ENDBRANCH   4   5
ENDBRANCH   1   3
BRANCH   1  11
ATOM     11  C   UNL     1     140.666 137.681 146.768  1.00  0.00     0.002 C 
ATOM     12  C   UNL     1     140.737 136.162 146.889  1.00  0.00     0.005 C 
ATOM     13  C   UNL     1     141.595 138.044 145.580  1.00  0.00    -0.026 C 
ATOM     14  C   UNL     1     142.164 135.803 146.489  1.00  0.00     0.005 C 
ATOM     15  C   UNL     1     142.755 137.001 145.702  1.00  0.00    -0.001 C 
ATOM     16  C   UNL     1     142.095 139.513 145.692  1.00  0.00     0.007 C 
ATOM     17  C   UNL     1     140.890 137.849 144.212  1.00  0.00     0.012 C 
ATOM     18  C   UNL     1     144.042 137.575 146.384  1.00  0.00     0.000 C 
ATOM     19  C   UNL     1     143.439 139.692 144.988  1.00  0.00     0.005 C 
ATOM     20  C   UNL     1     144.557 138.903 145.716  1.00  0.00     0.003 C 
ATOM     21  C   UNL     1     145.142 136.486 146.518  1.00  0.00     0.031 C 
ATOM     22  C   UNL     1     145.883 138.765 144.873  1.00  0.00    -0.008 C 
ATOM     23  C   UNL     1     146.544 137.024 146.530  1.00  0.00    -0.027 C 
ATOM     24  C   UNL     1     146.923 138.041 145.734  1.00  0.00    -0.065 C 
ATOM     25  C   UNL     1     146.387 140.199 144.504  1.00  0.00     0.014 C 
ATOM     26  C   UNL     1     145.673 137.951 143.569  1.00  0.00     0.016 C 
ATOM     27  C   UNL     1     148.410 138.262 145.524  1.00  0.00     0.063 C 
ATOM     28  C   UNL     1     147.862 140.253 144.092  1.00  0.00     0.033 C 
ATOM     29  C   UNL     1     148.758 139.719 145.213  1.00  0.00     0.118 C 
BRANCH  29  30
ATOM     30  O   UNL     1     148.616 140.494 146.377  1.00  0.00    -0.393 OA
ATOM     31  H   UNL     1     149.519 140.568 146.784  1.00  0.00     0.210 HD
ENDBRANCH  29  30
ENDBRANCH   1  11
TORSDOF 6
ENDMDL
MODEL 2
REMARK VINA RESULT:    -7.125      5.003      7.979
REMARK INTER + INTRA:          -9.490
REMARK INTER:                  -8.415
REMARK INTRA:                  -1.075
REMARK UNBOUND:                -0.074
REMARK SMILES CC[C@H](C=C[C@@H](C)[C@H]1CC[C@@H]2[C@H]3CC=C4C[C@H](O)CC[C@]4(C)[C@H]3CC[C@@]21C)C(C)C
REMARK SMILES IDX 6 1 7 2 5 3 4 4 3 5 2 6 1 7 28 8 29 9 30 10 8 11 9 12 26 13
REMARK SMILES IDX 10 14 11 15 25 16 27 17 12 18 24 19 23 20 13 21 21 22 14 23
REMARK SMILES IDX 15 24 20 25 22 26 16 27 19 28 17 29 18 30
REMARK H PARENT 18 31
REMARK Flexibility Score: inf
ROOT
ATOM      1  C   UNL     1     145.980 139.424 142.561  1.00  0.00     0.012 C 
ATOM      2  C   UNL     1     144.937 138.610 141.774  1.00  0.00     0.012 C 
ENDROOT
BRANCH   1   3
ATOM      3  C   UNL     1     146.881 140.152 141.577  1.00  0.00    -0.028 C 
ATOM      4  C   UNL     1     146.360 140.787 140.510  1.00  0.00    -0.027 C 
BRANCH   4   5
ATOM      5  C   UNL     1     147.194 141.404 139.399  1.00  0.00     0.014 C 
BRANCH   5   6
ATOM      6  C   UNL     1     148.613 140.778 139.343  1.00  0.00     0.004 C 
ATOM      7  C   UNL     1     149.089 140.360 137.950  1.00  0.00     0.004 C 
ENDBRANCH   5   6
BRANCH   5   8
ATOM      8  C   UNL     1     146.439 141.469 138.030  1.00  0.00    -0.011 C 
ATOM      9  C   UNL     1     146.480 142.882 137.422  1.00  0.00     0.008 C 
ATOM     10  C   UNL     1     144.970 141.039 138.186  1.00  0.00     0.008 C 
ENDBRANCH   5   8
ENDBRANCH   4   5
ENDBRANCH   1   3
BRANCH   1  11
ATOM     11  C   UNL     1     146.708 138.504 143.600  1.00  0.00     0.002 C 
ATOM     12  C   UNL     1     148.221 138.375 143.456  1.00  0.00     0.005 C 
ATOM     13  C   UNL     1     146.459 138.777 145.106  1.00  0.00    -0.026 C 
ATOM     14  C   UNL     1     148.686 137.732 144.758  1.00  0.00     0.005 C 
ATOM     15  C   UNL     1     147.563 137.923 145.812  1.00  0.00    -0.001 C 
ATOM     16  C   UNL     1     145.019 138.354 145.518  1.00  0.00     0.007 C 
ATOM     17  C   UNL     1     146.673 140.269 145.469  1.00  0.00     0.012 C 
ATOM     18  C   UNL     1     147.039 136.557 146.367  1.00  0.00     0.000 C 
ATOM     19  C   UNL     1     144.956 137.989 147.000  1.00  0.00     0.005 C 
ATOM     20  C   UNL     1     145.778 136.708 147.294  1.00  0.00     0.003 C 
ATOM     21  C   UNL     1     148.186 135.733 147.015  1.00  0.00     0.031 C 
ATOM     22  C   UNL     1     146.035 136.463 148.830  1.00  0.00    -0.008 C 
ATOM     23  C   UNL     1     147.734 134.794 148.096  1.00  0.00    -0.027 C 
ATOM     24  C   UNL     1     146.781 135.132 148.982  1.00  0.00    -0.065 C 
ATOM     25  C   UNL     1     144.654 136.397 149.561  1.00  0.00     0.014 C 
ATOM     26  C   UNL     1     146.894 137.583 149.473  1.00  0.00     0.016 C 
ATOM     27  C   UNL     1     146.661 134.304 150.249  1.00  0.00     0.063 C 
ATOM     28  C   UNL     1     144.710 135.728 150.938  1.00  0.00     0.033 C 
ATOM     29  C   UNL     1     145.245 134.298 150.825  1.00  0.00     0.118 C 
BRANCH  29  30
ATOM     30  O   UNL     1     144.409 133.516 150.010  1.00  0.00    -0.393 OA
ATOM     31  H   UNL     1     144.848 133.460 149.121  1.00  0.00     0.210 HD
ENDBRANCH  29  30
ENDBRANCH   1  11
TORSDOF 6
ENDMDL
MODEL 3
REMARK VINA RESULT:    -7.123      5.049      7.652
REMARK INTER + INTRA:          -9.488
REMARK INTER:                  -8.347
REMARK INTRA:                  -1.141
REMARK UNBOUND:                -0.074
REMARK SMILES CC[C@H](C=C[C@@H](C)[C@H]1CC[C@@H]2[C@H]3CC=C4C[C@H](O)CC[C@]4(C)[C@H]3CC[C@@]21C)C(C)C
REMARK SMILES IDX 6 1 7 2 5 3 4 4 3 5 2 6 1 7 28 8 29 9 30 10 8 11 9 12 26 13
REMARK SMILES IDX 10 14 11 15 25 16 27 17 12 18 24 19 23 20 13 21 21 22 14 23
REMARK SMILES IDX 15 24 20 25 22 26 16 27 19 28 17 29 18 30
REMARK H PARENT 18 31
REMARK Flexibility Score: inf
ROOT
ATOM      1  C   UNL     1     147.454 136.130 147.979  1.00  0.00     0.012 C 
ATOM      2  C   UNL     1     147.721 134.697 147.486  1.00  0.00     0.012 C 
ENDROOT
BRANCH   1   3
ATOM      3  C   UNL     1     146.543 136.072 149.195  1.00  0.00    -0.028 C 
ATOM      4  C   UNL     1     146.068 134.894 149.641  1.00  0.00    -0.027 C 
BRANCH   4   5
ATOM      5  C   UNL     1     145.034 134.760 150.747  1.00  0.00     0.014 C 
BRANCH   5   6
ATOM      6  C   UNL     1     145.708 134.523 152.125  1.00  0.00     0.004 C 
ATOM      7  C   UNL     1     147.142 133.995 152.070  1.00  0.00     0.004 C 
ENDBRANCH   5   6
BRANCH   5   8
ATOM      8  C   UNL     1     143.955 135.892 150.717  1.00  0.00    -0.011 C 
ATOM      9  C   UNL     1     143.359 136.150 152.112  1.00  0.00     0.008 C 
ATOM     10  C   UNL     1     142.813 135.545 149.747  1.00  0.00     0.008 C 
ENDBRANCH   5   8
ENDBRANCH   4   5
ENDBRANCH   1   3
BRANCH   1  11
ATOM     11  C   UNL     1     146.951 137.022 146.793  1.00  0.00     0.002 C 
ATOM     12  C   UNL     1     145.585 137.679 146.962  1.00  0.00     0.005 C 
ATOM     13  C   UNL     1     147.890 138.149 146.287  1.00  0.00    -0.026 C 
ATOM     14  C   UNL     1     145.512 138.726 145.856  1.00  0.00     0.005 C 
ATOM     15  C   UNL     1     146.958 139.005 145.368  1.00  0.00    -0.001 C 
ATOM     16  C   UNL     1     149.108 137.557 145.521  1.00  0.00     0.007 C 
ATOM     17  C   UNL     1     148.404 139.040 147.448  1.00  0.00     0.012 C 
ATOM     18  C   UNL     1     147.133 138.702 143.843  1.00  0.00     0.000 C 
ATOM     19  C   UNL     1     149.651 138.553 144.498  1.00  0.00     0.005 C 
ATOM     20  C   UNL     1     148.627 138.797 143.360  1.00  0.00     0.003 C 
ATOM     21  C   UNL     1     146.153 139.547 142.983  1.00  0.00     0.031 C 
ATOM     22  C   UNL     1     148.969 140.046 142.461  1.00  0.00    -0.008 C 
ATOM     23  C   UNL     1     146.642 139.833 141.593  1.00  0.00    -0.027 C 
ATOM     24  C   UNL     1     147.931 140.122 141.336  1.00  0.00    -0.065 C 
ATOM     25  C   UNL     1     150.401 139.851 141.865  1.00  0.00     0.014 C 
ATOM     26  C   UNL     1     148.929 141.377 143.257  1.00  0.00     0.016 C 
ATOM     27  C   UNL     1     148.262 140.767 140.002  1.00  0.00     0.063 C 
ATOM     28  C   UNL     1     150.691 140.728 140.642  1.00  0.00     0.033 C 
ATOM     29  C   UNL     1     149.681 140.454 139.525  1.00  0.00     0.118 C 
BRANCH  29  30
ATOM     30  O   UNL     1     149.751 139.113 139.109  1.00  0.00    -0.393 OA
ATOM     31  H   UNL     1     150.663 138.791 139.334  1.00  0.00     0.210 HD
ENDBRANCH  29  30
ENDBRANCH   1  11
TORSDOF 6
ENDMDL
MODEL 4
REMARK VINA RESULT:    -7.111      4.995      7.974
REMARK INTER + INTRA:          -9.472
REMARK INTER:                  -8.410
REMARK INTRA:                  -1.062
REMARK UNBOUND:                -0.074
REMARK SMILES CC[C@H](C=C[C@@H](C)[C@H]1CC[C@@H]2[C@H]3CC=C4C[C@H](O)CC[C@]4(C)[C@H]3CC[C@@]21C)C(C)C
REMARK SMILES IDX 6 1 7 2 5 3 4 4 3 5 2 6 1 7 28 8 29 9 30 10 8 11 9 12 26 13
REMARK SMILES IDX 10 14 11 15 25 16 27 17 12 18 24 19 23 20 13 21 21 22 14 23
REMARK SMILES IDX 15 24 20 25 22 26 16 27 19 28 17 29 18 30
REMARK H PARENT 18 31
REMARK Flexibility Score: inf
ROOT
ATOM      1  C   UNL     1     145.983 139.465 142.559  1.00  0.00     0.012 C 
ATOM      2  C   UNL     1     144.902 138.668 141.808  1.00  0.00     0.012 C 
ENDROOT
BRANCH   1   3
ATOM      3  C   UNL     1     146.879 140.157 141.544  1.00  0.00    -0.028 C 
ATOM      4  C   UNL     1     146.361 140.687 140.421  1.00  0.00    -0.027 C 
BRANCH   4   5
ATOM      5  C   UNL     1     147.199 141.255 139.287  1.00  0.00     0.014 C 
BRANCH   5   6
ATOM      6  C   UNL     1     146.978 142.783 139.132  1.00  0.00     0.004 C 
ATOM      7  C   UNL     1     145.979 143.403 140.110  1.00  0.00     0.004 C 
ENDBRANCH   5   6
BRANCH   5   8
ATOM      8  C   UNL     1     148.694 140.799 139.342  1.00  0.00    -0.011 C 
ATOM      9  C   UNL     1     149.614 141.916 139.866  1.00  0.00     0.008 C 
ATOM     10  C   UNL     1     149.192 140.358 137.954  1.00  0.00     0.008 C 
ENDBRANCH   5   8
ENDBRANCH   4   5
ENDBRANCH   1   3
BRANCH   1  11
ATOM     11  C   UNL     1     146.712 138.541 143.594  1.00  0.00     0.002 C 
ATOM     12  C   UNL     1     148.225 138.416 143.452  1.00  0.00     0.005 C 
ATOM     13  C   UNL     1     146.459 138.805 145.102  1.00  0.00    -0.026 C 
ATOM     14  C   UNL     1     148.689 137.767 144.752  1.00  0.00     0.005 C 
ATOM     15  C   UNL     1     147.565 137.949 145.804  1.00  0.00    -0.001 C 
ATOM     16  C   UNL     1     145.020 138.376 145.509  1.00  0.00     0.007 C 
ATOM     17  C   UNL     1     146.670 140.296 145.473  1.00  0.00     0.012 C 
ATOM     18  C   UNL     1     147.043 136.579 146.350  1.00  0.00     0.000 C 
ATOM     19  C   UNL     1     144.956 138.003 146.989  1.00  0.00     0.005 C 
ATOM     20  C   UNL     1     145.779 136.722 147.277  1.00  0.00     0.003 C 
ATOM     21  C   UNL     1     148.190 135.754 146.996  1.00  0.00     0.031 C 
ATOM     22  C   UNL     1     146.035 136.469 148.812  1.00  0.00    -0.008 C 
ATOM     23  C   UNL     1     147.739 134.807 148.070  1.00  0.00    -0.027 C 
ATOM     24  C   UNL     1     146.783 135.139 148.957  1.00  0.00    -0.065 C 
ATOM     25  C   UNL     1     144.653 136.395 149.540  1.00  0.00     0.014 C 
ATOM     26  C   UNL     1     146.890 137.587 149.463  1.00  0.00     0.016 C 
ATOM     27  C   UNL     1     146.664 134.303 150.219  1.00  0.00     0.063 C 
ATOM     28  C   UNL     1     144.707 135.719 150.913  1.00  0.00     0.033 C 
ATOM     29  C   UNL     1     145.246 134.290 150.793  1.00  0.00     0.118 C 
BRANCH  29  30
ATOM     30  O   UNL     1     144.414 133.511 149.972  1.00  0.00    -0.393 OA
ATOM     31  H   UNL     1     143.824 134.142 149.481  1.00  0.00     0.210 HD
ENDBRANCH  29  30
ENDBRANCH   1  11
TORSDOF 6
ENDMDL
MODEL 5
REMARK VINA RESULT:    -7.045      2.612      3.962
REMARK INTER + INTRA:          -9.385
REMARK INTER:                  -8.809
REMARK INTRA:                  -0.575
REMARK UNBOUND:                -0.074
REMARK SMILES CC[C@H](C=C[C@@H](C)[C@H]1CC[C@@H]2[C@H]3CC=C4C[C@H](O)CC[C@]4(C)[C@H]3CC[C@@]21C)C(C)C
REMARK SMILES IDX 6 1 7 2 5 3 4 4 3 5 2 6 1 7 28 8 29 9 30 10 8 11 9 12 26 13
REMARK SMILES IDX 10 14 11 15 25 16 27 17 12 18 24 19 23 20 13 21 21 22 14 23
REMARK SMILES IDX 15 24 20 25 22 26 16 27 19 28 17 29 18 30
REMARK H PARENT 18 31
REMARK Flexibility Score: inf
ROOT
ATOM      1  C   UNL     1     141.636 139.044 145.079  1.00  0.00     0.012 C 
ATOM      2  C   UNL     1     142.833 139.986 144.865  1.00  0.00     0.012 C 
ENDROOT
BRANCH   1   3
ATOM      3  C   UNL     1     140.375 139.879 145.238  1.00  0.00    -0.028 C 
ATOM      4  C   UNL     1     140.437 141.130 145.730  1.00  0.00    -0.027 C 
BRANCH   4   5
ATOM      5  C   UNL     1     139.217 141.972 146.066  1.00  0.00     0.014 C 
BRANCH   5   6
ATOM      6  C   UNL     1     138.165 141.924 144.926  1.00  0.00     0.004 C 
ATOM      7  C   UNL     1     137.775 143.281 144.338  1.00  0.00     0.004 C 
ENDBRANCH   5   6
BRANCH   5   8
ATOM      8  C   UNL     1     138.659 141.695 147.501  1.00  0.00    -0.011 C 
ATOM      9  C   UNL     1     137.772 142.848 148.002  1.00  0.00     0.008 C 
ATOM     10  C   UNL     1     139.801 141.474 148.508  1.00  0.00     0.008 C 
ENDBRANCH   5   8
ENDBRANCH   4   5
ENDBRANCH   1   3
BRANCH   1  11
ATOM     11  C   UNL     1     141.941 138.041 146.244  1.00  0.00     0.002 C 
ATOM     12  C   UNL     1     140.778 137.183 146.730  1.00  0.00     0.005 C 
ATOM     13  C   UNL     1     143.129 137.060 146.059  1.00  0.00    -0.026 C 
ATOM     14  C   UNL     1     141.422 136.099 147.588  1.00  0.00     0.005 C 
ATOM     15  C   UNL     1     142.928 136.034 147.223  1.00  0.00    -0.001 C 
ATOM     16  C   UNL     1     144.490 137.809 146.148  1.00  0.00     0.007 C 
ATOM     17  C   UNL     1     143.052 136.304 144.708  1.00  0.00     0.012 C 
ATOM     18  C   UNL     1     143.845 136.305 148.462  1.00  0.00     0.000 C 
ATOM     19  C   UNL     1     145.601 136.875 146.623  1.00  0.00     0.005 C 
ATOM     20  C   UNL     1     145.368 136.431 148.089  1.00  0.00     0.003 C 
ATOM     21  C   UNL     1     143.571 135.285 149.601  1.00  0.00     0.031 C 
ATOM     22  C   UNL     1     146.275 135.220 148.533  1.00  0.00    -0.008 C 
ATOM     23  C   UNL     1     144.750 135.031 150.496  1.00  0.00    -0.027 C 
ATOM     24  C   UNL     1     146.003 134.940 150.015  1.00  0.00    -0.065 C 
ATOM     25  C   UNL     1     147.772 135.617 148.322  1.00  0.00     0.014 C 
ATOM     26  C   UNL     1     145.975 133.929 147.727  1.00  0.00     0.016 C 
ATOM     27  C   UNL     1     147.060 134.307 150.903  1.00  0.00     0.063 C 
ATOM     28  C   UNL     1     148.763 134.753 149.110  1.00  0.00     0.033 C 
ATOM     29  C   UNL     1     148.470 134.824 150.611  1.00  0.00     0.118 C 
BRANCH  29  30
ATOM     30  O   UNL     1     148.594 136.143 151.081  1.00  0.00    -0.393 OA
ATOM     31  H   UNL     1     149.077 136.652 150.379  1.00  0.00     0.210 HD
ENDBRANCH  29  30
ENDBRANCH   1  11
TORSDOF 6
ENDMDL
MODEL 6
REMARK VINA RESULT:    -7.002      2.480      7.930
REMARK INTER + INTRA:          -9.327
REMARK INTER:                  -8.999
REMARK INTRA:                  -0.328
REMARK UNBOUND:                -0.074
REMARK SMILES CC[C@H](C=C[C@@H](C)[C@H]1CC[C@@H]2[C@H]3CC=C4C[C@H](O)CC[C@]4(C)[C@H]3CC[C@@]21C)C(C)C
REMARK SMILES IDX 6 1 7 2 5 3 4 4 3 5 2 6 1 7 28 8 29 9 30 10 8 11 9 12 26 13
REMARK SMILES IDX 10 14 11 15 25 16 27 17 12 18 24 19 23 20 13 21 21 22 14 23
REMARK SMILES IDX 15 24 20 25 22 26 16 27 19 28 17 29 18 30
REMARK H PARENT 18 31
REMARK Flexibility Score: inf
ROOT
ATOM      1  C   UNL     1     144.264 137.785 141.856  1.00  0.00     0.012 C 
ATOM      2  C   UNL     1     144.029 136.328 141.417  1.00  0.00     0.012 C 
ENDROOT
BRANCH   1   3
ATOM      3  C   UNL     1     145.211 137.795 143.045  1.00  0.00    -0.028 C 
ATOM      4  C   UNL     1     146.446 138.318 142.935  1.00  0.00    -0.027 C 
BRANCH   4   5
ATOM      5  C   UNL     1     147.506 138.229 144.021  1.00  0.00     0.014 C 
BRANCH   5   6
ATOM      6  C   UNL     1     148.878 138.747 143.516  1.00  0.00     0.004 C 
ATOM      7  C   UNL     1     148.886 139.295 142.088  1.00  0.00     0.004 C 
ENDBRANCH   5   6
BRANCH   5   8
ATOM      8  C   UNL     1     147.031 138.821 145.389  1.00  0.00    -0.011 C 
ATOM      9  C   UNL     1     146.859 140.349 145.322  1.00  0.00     0.008 C 
ATOM     10  C   UNL     1     148.023 138.483 146.515  1.00  0.00     0.008 C 
ENDBRANCH   5   8
ENDBRANCH   4   5
ENDBRANCH   1   3
BRANCH   1  11
ATOM     11  C   UNL     1     142.892 138.510 142.070  1.00  0.00     0.002 C 
ATOM     12  C   UNL     1     141.836 138.310 140.988  1.00  0.00     0.005 C 
ATOM     13  C   UNL     1     142.153 138.277 143.415  1.00  0.00    -0.026 C 
ATOM     14  C   UNL     1     140.538 138.819 141.606  1.00  0.00     0.005 C 
ATOM     15  C   UNL     1     140.728 138.862 143.145  1.00  0.00    -0.001 C 
ATOM     16  C   UNL     1     142.886 138.997 144.584  1.00  0.00     0.007 C 
ATOM     17  C   UNL     1     142.021 136.769 143.750  1.00  0.00     0.012 C 
ATOM     18  C   UNL     1     140.522 140.301 143.723  1.00  0.00     0.000 C 
ATOM     19  C   UNL     1     141.913 139.346 145.709  1.00  0.00     0.005 C 
ATOM     20  C   UNL     1     140.889 140.415 145.249  1.00  0.00     0.003 C 
ATOM     21  C   UNL     1     139.107 140.847 143.388  1.00  0.00     0.031 C 
ATOM     22  C   UNL     1     139.664 140.577 146.229  1.00  0.00    -0.008 C 
ATOM     23  C   UNL     1     138.582 141.848 144.377  1.00  0.00    -0.027 C 
ATOM     24  C   UNL     1     138.779 141.712 145.701  1.00  0.00    -0.065 C 
ATOM     25  C   UNL     1     140.210 140.932 147.651  1.00  0.00     0.014 C 
ATOM     26  C   UNL     1     138.806 139.289 146.322  1.00  0.00     0.016 C 
ATOM     27  C   UNL     1     137.907 142.529 146.637  1.00  0.00     0.063 C 
ATOM     28  C   UNL     1     139.164 141.554 148.581  1.00  0.00     0.033 C 
ATOM     29  C   UNL     1     138.588 142.835 147.971  1.00  0.00     0.118 C 
BRANCH  29  30
ATOM     30  O   UNL     1     139.600 143.791 147.774  1.00  0.00    -0.393 OA
ATOM     31  H   UNL     1     139.190 144.680 147.942  1.00  0.00     0.210 HD
ENDBRANCH  29  30
ENDBRANCH   1  11
TORSDOF 6
ENDMDL
MODEL 7
REMARK VINA RESULT:    -6.954      5.045      8.877
REMARK INTER + INTRA:          -9.264
REMARK INTER:                  -8.538
REMARK INTRA:                  -0.726
REMARK UNBOUND:                -0.074
REMARK SMILES CC[C@H](C=C[C@@H](C)[C@H]1CC[C@@H]2[C@H]3CC=C4C[C@H](O)CC[C@]4(C)[C@H]3CC[C@@]21C)C(C)C
REMARK SMILES IDX 6 1 7 2 5 3 4 4 3 5 2 6 1 7 28 8 29 9 30 10 8 11 9 12 26 13
REMARK SMILES IDX 10 14 11 15 25 16 27 17 12 18 24 19 23 20 13 21 21 22 14 23
REMARK SMILES IDX 15 24 20 25 22 26 16 27 19 28 17 29 18 30
REMARK H PARENT 18 31
REMARK Flexibility Score: inf
ROOT
ATOM      1  C   UNL     1     147.022 134.829 149.288  1.00  0.00     0.012 C 
ATOM      2  C   UNL     1     146.470 135.348 150.628  1.00  0.00     0.012 C 
ENDROOT
BRANCH   1   3
ATOM      3  C   UNL     1     148.535 134.721 149.386  1.00  0.00    -0.028 C 
ATOM      4  C   UNL     1     149.189 135.204 150.459  1.00  0.00    -0.027 C 
BRANCH   4   5
ATOM      5  C   UNL     1     150.703 135.277 150.567  1.00  0.00     0.014 C 
BRANCH   5   6
ATOM      6  C   UNL     1     151.364 133.925 150.187  1.00  0.00     0.004 C 
ATOM      7  C   UNL     1     151.969 133.142 151.353  1.00  0.00     0.004 C 
ENDBRANCH   5   6
BRANCH   5   8
ATOM      8  C   UNL     1     151.307 136.536 149.862  1.00  0.00    -0.011 C 
ATOM      9  C   UNL     1     152.845 136.497 149.841  1.00  0.00     0.008 C 
ATOM     10  C   UNL     1     150.854 137.832 150.556  1.00  0.00     0.008 C 
ENDBRANCH   5   8
ENDBRANCH   4   5
ENDBRANCH   1   3
BRANCH   1  11
ATOM     11  C   UNL     1     146.475 135.702 148.107  1.00  0.00     0.002 C 
ATOM     12  C   UNL     1     145.000 136.086 148.166  1.00  0.00     0.005 C 
ATOM     13  C   UNL     1     147.230 137.015 147.770  1.00  0.00    -0.026 C 
ATOM     14  C   UNL     1     144.838 137.182 147.119  1.00  0.00     0.005 C 
ATOM     15  C   UNL     1     146.245 137.755 146.806  1.00  0.00    -0.001 C 
ATOM     16  C   UNL     1     148.605 136.713 147.107  1.00  0.00     0.007 C 
ATOM     17  C   UNL     1     147.454 137.895 149.027  1.00  0.00     0.012 C 
ATOM     18  C   UNL     1     146.618 137.605 145.294  1.00  0.00     0.000 C 
ATOM     19  C   UNL     1     149.045 137.865 146.206  1.00  0.00     0.005 C 
ATOM     20  C   UNL     1     148.107 138.005 144.981  1.00  0.00     0.003 C 
ATOM     21  C   UNL     1     145.583 138.321 144.383  1.00  0.00     0.031 C 
ATOM     22  C   UNL     1     148.293 139.359 144.195  1.00  0.00    -0.008 C 
ATOM     23  C   UNL     1     146.141 138.794 143.071  1.00  0.00    -0.027 C 
ATOM     24  C   UNL     1     147.370 139.331 142.972  1.00  0.00    -0.065 C 
ATOM     25  C   UNL     1     149.786 139.473 143.746  1.00  0.00     0.014 C 
ATOM     26  C   UNL     1     147.928 140.597 145.056  1.00  0.00     0.016 C 
ATOM     27  C   UNL     1     147.700 140.124 141.720  1.00  0.00     0.063 C 
ATOM     28  C   UNL     1     150.021 140.478 142.614  1.00  0.00     0.033 C 
ATOM     29  C   UNL     1     149.191 140.110 141.381  1.00  0.00     0.118 C 
BRANCH  29  30
ATOM     30  O   UNL     1     149.551 138.839 140.899  1.00  0.00    -0.393 OA
ATOM     31  H   UNL     1     149.259 138.180 141.583  1.00  0.00     0.210 HD
ENDBRANCH  29  30
ENDBRANCH   1  11
TORSDOF 6
ENDMDL
MODEL 8
REMARK VINA RESULT:    -6.763      4.928      8.290
REMARK INTER + INTRA:          -9.012
REMARK INTER:                  -8.399
REMARK INTRA:                  -0.613
REMARK UNBOUND:                -0.074
REMARK SMILES CC[C@H](C=C[C@@H](C)[C@H]1CC[C@@H]2[C@H]3CC=C4C[C@H](O)CC[C@]4(C)[C@H]3CC[C@@]21C)C(C)C
REMARK SMILES IDX 6 1 7 2 5 3 4 4 3 5 2 6 1 7 28 8 29 9 30 10 8 11 9 12 26 13
REMARK SMILES IDX 10 14 11 15 25 16 27 17 12 18 24 19 23 20 13 21 21 22 14 23
REMARK SMILES IDX 15 24 20 25 22 26 16 27 19 28 17 29 18 30
REMARK H PARENT 18 31
REMARK Flexibility Score: inf
ROOT
ATOM      1  C   UNL     1     145.690 136.653 147.498  1.00  0.00     0.012 C 
ATOM      2  C   UNL     1     144.717 137.396 148.431  1.00  0.00     0.012 C 
ENDROOT
BRANCH   1   3
ATOM      3  C   UNL     1     146.888 136.185 148.308  1.00  0.00    -0.028 C 
ATOM      4  C   UNL     1     146.838 136.154 149.653  1.00  0.00    -0.027 C 
BRANCH   4   5
ATOM      5  C   UNL     1     148.035 135.851 150.539  1.00  0.00     0.014 C 
BRANCH   5   6
ATOM      6  C   UNL     1     147.776 134.609 151.434  1.00  0.00     0.004 C 
ATOM      7  C   UNL     1     146.432 133.912 151.212  1.00  0.00     0.004 C 
ENDBRANCH   5   6
BRANCH   5   8
ATOM      8  C   UNL     1     149.390 135.838 149.757  1.00  0.00    -0.011 C 
ATOM      9  C   UNL     1     150.292 134.671 150.194  1.00  0.00     0.008 C 
ATOM     10  C   UNL     1     150.156 137.158 149.953  1.00  0.00     0.008 C 
ENDBRANCH   5   8
ENDBRANCH   4   5
ENDBRANCH   1   3
BRANCH   1  11
ATOM     11  C   UNL     1     146.016 137.538 146.246  1.00  0.00     0.002 C 
ATOM     12  C   UNL     1     145.084 138.716 145.981  1.00  0.00     0.005 C 
ATOM     13  C   UNL     1     147.452 138.111 146.120  1.00  0.00    -0.026 C 
ATOM     14  C   UNL     1     145.816 139.571 144.952  1.00  0.00     0.005 C 
ATOM     15  C   UNL     1     147.315 139.171 144.978  1.00  0.00    -0.001 C 
ATOM     16  C   UNL     1     148.472 136.987 145.776  1.00  0.00     0.007 C 
ATOM     17  C   UNL     1     147.906 138.829 147.417  1.00  0.00     0.012 C 
ATOM     18  C   UNL     1     147.810 138.657 143.585  1.00  0.00     0.000 C 
ATOM     19  C   UNL     1     149.677 137.549 145.027  1.00  0.00     0.005 C 
ATOM     20  C   UNL     1     149.269 138.070 143.625  1.00  0.00     0.003 C 
ATOM     21  C   UNL     1     147.609 139.733 142.483  1.00  0.00     0.031 C 
ATOM     22  C   UNL     1     150.375 138.958 142.936  1.00  0.00    -0.008 C 
ATOM     23  C   UNL     1     148.581 139.636 141.342  1.00  0.00    -0.027 C 
ATOM     24  C   UNL     1     149.878 139.335 141.535  1.00  0.00    -0.065 C 
ATOM     25  C   UNL     1     151.693 138.122 142.837  1.00  0.00     0.014 C 
ATOM     26  C   UNL     1     150.661 140.264 143.722  1.00  0.00     0.016 C 
ATOM     27  C   UNL     1     150.852 139.634 140.410  1.00  0.00     0.063 C 
ATOM     28  C   UNL     1     152.696 138.661 141.812  1.00  0.00     0.033 C 
ATOM     29  C   UNL     1     152.070 138.710 140.415  1.00  0.00     0.118 C 
BRANCH  29  30
ATOM     30  O   UNL     1     151.687 137.424 139.995  1.00  0.00    -0.393 OA
ATOM     31  H   UNL     1     152.472 137.029 139.532  1.00  0.00     0.210 HD
ENDBRANCH  29  30
ENDBRANCH   1  11
TORSDOF 6
ENDMDL
MODEL 9
REMARK VINA RESULT:    -6.698      4.702     10.141
REMARK INTER + INTRA:          -8.925
REMARK INTER:                  -8.053
REMARK INTRA:                  -0.873
REMARK UNBOUND:                -0.074
REMARK SMILES CC[C@H](C=C[C@@H](C)[C@H]1CC[C@@H]2[C@H]3CC=C4C[C@H](O)CC[C@]4(C)[C@H]3CC[C@@]21C)C(C)C
REMARK SMILES IDX 6 1 7 2 5 3 4 4 3 5 2 6 1 7 28 8 29 9 30 10 8 11 9 12 26 13
REMARK SMILES IDX 10 14 11 15 25 16 27 17 12 18 24 19 23 20 13 21 21 22 14 23
REMARK SMILES IDX 15 24 20 25 22 26 16 27 19 28 17 29 18 30
REMARK H PARENT 18 31
REMARK Flexibility Score: inf
ROOT
ATOM      1  C   UNL     1     147.643 134.910 150.626  1.00  0.00     0.012 C 
ATOM      2  C   UNL     1     146.850 134.500 151.879  1.00  0.00     0.012 C 
ENDROOT
BRANCH   1   3
ATOM      3  C   UNL     1     148.993 135.461 151.055  1.00  0.00    -0.028 C 
ATOM      4  C   UNL     1     150.126 135.039 150.464  1.00  0.00    -0.027 C 
BRANCH   4   5
ATOM      5  C   UNL     1     151.521 135.418 150.934  1.00  0.00     0.014 C 
BRANCH   5   6
ATOM      6  C   UNL     1     151.467 136.466 152.077  1.00  0.00     0.004 C 
ATOM      7  C   UNL     1     151.688 137.917 151.647  1.00  0.00     0.004 C 
ENDBRANCH   5   6
BRANCH   5   8
ATOM      8  C   UNL     1     152.433 134.177 151.209  1.00  0.00    -0.011 C 
ATOM      9  C   UNL     1     152.993 133.580 149.906  1.00  0.00     0.008 C 
ATOM     10  C   UNL     1     151.665 133.080 151.966  1.00  0.00     0.008 C 
ENDBRANCH   5   8
ENDBRANCH   4   5
ENDBRANCH   1   3
BRANCH   1  11
ATOM     11  C   UNL     1     146.775 135.855 149.726  1.00  0.00     0.002 C 
ATOM     12  C   UNL     1     147.511 136.985 149.013  1.00  0.00     0.005 C 
ATOM     13  C   UNL     1     145.879 135.199 148.642  1.00  0.00    -0.026 C 
ATOM     14  C   UNL     1     146.522 137.504 147.975  1.00  0.00     0.005 C 
ATOM     15  C   UNL     1     145.442 136.413 147.758  1.00  0.00    -0.001 C 
ATOM     16  C   UNL     1     144.671 134.463 149.290  1.00  0.00     0.007 C 
ATOM     17  C   UNL     1     146.672 134.199 147.761  1.00  0.00     0.012 C 
ATOM     18  C   UNL     1     144.003 136.938 148.083  1.00  0.00     0.000 C 
ATOM     19  C   UNL     1     143.488 134.394 148.326  1.00  0.00     0.005 C 
ATOM     20  C   UNL     1     142.910 135.806 148.053  1.00  0.00     0.003 C 
ATOM     21  C   UNL     1     143.640 138.169 147.207  1.00  0.00     0.031 C 
ATOM     22  C   UNL     1     141.920 135.856 146.827  1.00  0.00    -0.008 C 
ATOM     23  C   UNL     1     142.169 138.333 146.955  1.00  0.00    -0.027 C 
ATOM     24  C   UNL     1     141.365 137.280 146.719  1.00  0.00    -0.065 C 
ATOM     25  C   UNL     1     140.760 134.840 147.084  1.00  0.00     0.014 C 
ATOM     26  C   UNL     1     142.617 135.499 145.487  1.00  0.00     0.016 C 
ATOM     27  C   UNL     1     140.005 137.550 146.101  1.00  0.00     0.063 C 
ATOM     28  C   UNL     1     139.512 135.090 146.231  1.00  0.00     0.033 C 
ATOM     29  C   UNL     1     138.961 136.497 146.476  1.00  0.00     0.118 C 
BRANCH  29  30
ATOM     30  O   UNL     1     138.591 136.660 147.822  1.00  0.00    -0.393 OA
ATOM     31  H   UNL     1     139.251 137.283 148.226  1.00  0.00     0.210 HD
ENDBRANCH  29  30
ENDBRANCH   1  11
TORSDOF 6
ENDMDL
