MODEL 1
REMARK VINA RESULT:    -2.915      0.000      0.000
REMARK INTER + INTRA:         -10.705
REMARK INTER:                  -6.322
REMARK INTRA:                  -4.383
REMARK UNBOUND:                -4.383
REMARK SMILES CCCCCCCCCCCCCCCCCCCCCC(=O)[O-]
REMARK SMILES IDX 12 1 11 2 10 3 9 4 8 5 7 6 6 7 5 8 4 9 3 10 2 11 1 12 13 13
REMARK SMILES IDX 14 14 15 15 16 16 17 17 18 18 19 19 20 20 21 21 22 22 23 23
REMARK SMILES IDX 24 24
REMARK H PARENT
REMARK Flexibility Score: inf
ROOT
ATOM      1  C   UNL     1     -98.780 -44.108 -11.873  1.00  0.00     0.000 C 
ENDROOT
BRANCH   1   2
ATOM      2  C   UNL     1     -98.675 -45.570 -12.338  1.00  0.00     0.000 C 
BRANCH   2   3
ATOM      3  C   UNL     1     -98.679 -46.564 -11.165  1.00  0.00     0.000 C 
BRANCH   3   4
ATOM      4  C   UNL     1     -98.353 -48.000 -11.608  1.00  0.00    -0.000 C 
BRANCH   4   5
ATOM      5  C   UNL     1     -98.717 -48.259 -13.079  1.00  0.00    -0.000 C 
BRANCH   5   6
ATOM      6  C   UNL     1    -100.136 -48.830 -13.249  1.00  0.00    -0.000 C 
BRANCH   6   7
ATOM      7  C   UNL     1    -101.099 -47.825 -13.902  1.00  0.00    -0.000 C 
BRANCH   7   8
ATOM      8  C   UNL     1    -102.375 -47.605 -13.076  1.00  0.00    -0.000 C 
BRANCH   8   9
ATOM      9  C   UNL     1    -102.334 -46.258 -12.345  1.00  0.00    -0.000 C 
BRANCH   9  10
ATOM     10  C   UNL     1    -102.300 -46.458 -10.823  1.00  0.00    -0.000 C 
BRANCH  10  11
ATOM     11  C   UNL     1    -101.932 -45.174 -10.064  1.00  0.00    -0.003 C 
ATOM     12  C   UNL     1    -101.212 -45.452  -8.744  1.00  0.00     0.004 C 
ENDBRANCH  10  11
ENDBRANCH   9  10
ENDBRANCH   8   9
ENDBRANCH   7   8
ENDBRANCH   6   7
ENDBRANCH   5   6
ENDBRANCH   4   5
ENDBRANCH   3   4
ENDBRANCH   2   3
ENDBRANCH   1   2
BRANCH   1  13
ATOM     13  C   UNL     1     -97.388 -43.469 -11.744  1.00  0.00     0.000 C 
BRANCH  13  14
ATOM     14  C   UNL     1     -96.999 -43.167 -10.286  1.00  0.00     0.000 C 
BRANCH  14  15
ATOM     15  C   UNL     1     -98.121 -43.382  -9.255  1.00  0.00     0.000 C 
BRANCH  15  16
ATOM     16  C   UNL     1     -97.710 -44.314  -8.105  1.00  0.00     0.000 C 
BRANCH  16  17
ATOM     17  C   UNL     1     -96.352 -44.971  -8.391  1.00  0.00     0.000 C 
BRANCH  17  18
ATOM     18  C   UNL     1     -96.426 -46.507  -8.383  1.00  0.00     0.000 C 
BRANCH  18  19
ATOM     19  C   UNL     1     -95.429 -47.150  -9.362  1.00  0.00     0.000 C 
BRANCH  19  20
ATOM     20  C   UNL     1     -94.728 -46.112 -10.252  1.00  0.00     0.006 C 
BRANCH  20  21
ATOM     21  C   UNL     1     -95.040 -46.309 -11.742  1.00  0.00     0.053 C 
BRANCH  21  22
ATOM     22  C   UNL     1     -94.319 -47.508 -12.273  1.00  0.00     0.041 C 
ATOM     23  O   UNL     1     -93.060 -47.535 -12.289  1.00  0.00    -0.550 OA
ATOM     24  O   UNL     1     -95.038 -48.612 -12.715  1.00  0.00    -0.550 OA
ENDBRANCH  21  22
ENDBRANCH  20  21
ENDBRANCH  19  20
ENDBRANCH  18  19
ENDBRANCH  17  18
ENDBRANCH  16  17
ENDBRANCH  15  16
ENDBRANCH  14  15
ENDBRANCH  13  14
ENDBRANCH   1  13
TORSDOF 20
ENDMDL
MODEL 2
REMARK VINA RESULT:    -2.805      2.630      6.384
REMARK INTER + INTRA:         -10.468
REMARK INTER:                  -6.439
REMARK INTRA:                  -4.030
REMARK UNBOUND:                -4.383
REMARK SMILES CCCCCCCCCCCCCCCCCCCCCC(=O)[O-]
REMARK SMILES IDX 12 1 11 2 10 3 9 4 8 5 7 6 6 7 5 8 4 9 3 10 2 11 1 12 13 13
REMARK SMILES IDX 14 14 15 15 16 16 17 17 18 18 19 19 20 20 21 21 22 22 23 23
REMARK SMILES IDX 24 24
REMARK H PARENT
REMARK Flexibility Score: inf
ROOT
ATOM      1  C   UNL     1     -99.703 -44.589 -12.237  1.00  0.00     0.000 C 
ENDROOT
BRANCH   1   2
ATOM      2  C   UNL     1     -98.207 -44.912 -12.103  1.00  0.00     0.000 C 
BRANCH   2   3
ATOM      3  C   UNL     1     -97.360 -43.667 -11.790  1.00  0.00     0.000 C 
BRANCH   3   4
ATOM      4  C   UNL     1     -97.713 -43.040 -10.430  1.00  0.00    -0.000 C 
BRANCH   4   5
ATOM      5  C   UNL     1     -96.649 -43.322  -9.358  1.00  0.00    -0.000 C 
BRANCH   5   6
ATOM      6  C   UNL     1     -97.076 -44.420  -8.368  1.00  0.00    -0.000 C 
BRANCH   6   7
ATOM      7  C   UNL     1     -96.364 -45.756  -8.630  1.00  0.00    -0.000 C 
BRANCH   7   8
ATOM      8  C   UNL     1     -95.010 -45.578  -9.332  1.00  0.00    -0.000 C 
BRANCH   8   9
ATOM      9  C   UNL     1     -94.990 -46.297 -10.685  1.00  0.00    -0.000 C 
BRANCH   9  10
ATOM     10  C   UNL     1     -94.182 -47.601 -10.604  1.00  0.00    -0.000 C 
BRANCH  10  11
ATOM     11  C   UNL     1     -93.779 -48.136 -11.986  1.00  0.00    -0.003 C 
ATOM     12  C   UNL     1     -94.940 -48.802 -12.725  1.00  0.00     0.004 C 
ENDBRANCH  10  11
ENDBRANCH   9  10
ENDBRANCH   8   9
ENDBRANCH   7   8
ENDBRANCH   6   7
ENDBRANCH   5   6
ENDBRANCH   4   5
ENDBRANCH   3   4
ENDBRANCH   2   3
ENDBRANCH   1   2
BRANCH   1  13
ATOM     13  C   UNL     1    -100.554 -45.558 -11.402  1.00  0.00     0.000 C 
BRANCH  13  14
ATOM     14  C   UNL     1     -99.849 -46.020 -10.113  1.00  0.00     0.000 C 
BRANCH  14  15
ATOM     15  C   UNL     1    -100.168 -47.462  -9.678  1.00  0.00     0.000 C 
BRANCH  15  16
ATOM     16  C   UNL     1     -98.912 -48.334  -9.527  1.00  0.00     0.000 C 
BRANCH  16  17
ATOM     17  C   UNL     1     -98.044 -48.270 -10.792  1.00  0.00     0.000 C 
BRANCH  17  18
ATOM     18  C   UNL     1     -98.568 -49.183 -11.913  1.00  0.00     0.000 C 
BRANCH  18  19
ATOM     19  C   UNL     1     -98.870 -48.409 -13.209  1.00  0.00     0.000 C 
BRANCH  19  20
ATOM     20  C   UNL     1    -100.351 -48.494 -13.610  1.00  0.00     0.006 C 
BRANCH  20  21
ATOM     21  C   UNL     1    -101.166 -49.386 -12.664  1.00  0.00     0.053 C 
BRANCH  21  22
ATOM     22  C   UNL     1    -101.556 -50.658 -13.349  1.00  0.00     0.041 C 
ATOM     23  O   UNL     1    -101.073 -51.757 -12.967  1.00  0.00    -0.550 OA
ATOM     24  O   UNL     1    -102.482 -50.634 -14.385  1.00  0.00    -0.550 OA
ENDBRANCH  21  22
ENDBRANCH  20  21
ENDBRANCH  19  20
ENDBRANCH  18  19
ENDBRANCH  17  18
ENDBRANCH  16  17
ENDBRANCH  15  16
ENDBRANCH  14  15
ENDBRANCH  13  14
ENDBRANCH   1  13
TORSDOF 20
ENDMDL
MODEL 3
REMARK VINA RESULT:    -2.754      1.213      3.201
REMARK INTER + INTRA:         -10.357
REMARK INTER:                  -6.293
REMARK INTRA:                  -4.064
REMARK UNBOUND:                -4.383
REMARK SMILES CCCCCCCCCCCCCCCCCCCCCC(=O)[O-]
REMARK SMILES IDX 12 1 11 2 10 3 9 4 8 5 7 6 6 7 5 8 4 9 3 10 2 11 1 12 13 13
REMARK SMILES IDX 14 14 15 15 16 16 17 17 18 18 19 19 20 20 21 21 22 22 23 23
REMARK SMILES IDX 24 24
REMARK H PARENT
REMARK Flexibility Score: inf
ROOT
ATOM      1  C   UNL     1     -98.120 -45.434 -12.306  1.00  0.00     0.000 C 
ENDROOT
BRANCH   1   2
ATOM      2  C   UNL     1     -99.419 -44.615 -12.378  1.00  0.00     0.000 C 
BRANCH   2   3
ATOM      3  C   UNL     1    -100.606 -45.332 -11.715  1.00  0.00     0.000 C 
BRANCH   3   4
ATOM      4  C   UNL     1    -100.791 -44.928 -10.243  1.00  0.00    -0.000 C 
BRANCH   4   5
ATOM      5  C   UNL     1    -100.582 -46.106  -9.278  1.00  0.00    -0.000 C 
BRANCH   5   6
ATOM      6  C   UNL     1    -100.184 -47.405 -10.001  1.00  0.00    -0.000 C 
BRANCH   6   7
ATOM      7  C   UNL     1     -98.910 -48.036  -9.417  1.00  0.00    -0.000 C 
BRANCH   7   8
ATOM      8  C   UNL     1     -98.100 -48.813 -10.465  1.00  0.00    -0.000 C 
BRANCH   8   9
ATOM      9  C   UNL     1     -98.788 -48.774 -11.834  1.00  0.00    -0.000 C 
BRANCH   9  10
ATOM     10  C   UNL     1     -99.621 -50.044 -12.068  1.00  0.00    -0.000 C 
BRANCH  10  11
ATOM     11  C   UNL     1    -100.696 -49.857 -13.149  1.00  0.00    -0.003 C 
ATOM     12  C   UNL     1    -100.717 -48.440 -13.725  1.00  0.00     0.004 C 
ENDBRANCH  10  11
ENDBRANCH   9  10
ENDBRANCH   8   9
ENDBRANCH   7   8
ENDBRANCH   6   7
ENDBRANCH   5   6
ENDBRANCH   4   5
ENDBRANCH   3   4
ENDBRANCH   2   3
ENDBRANCH   1   2
BRANCH   1  13
ATOM     13  C   UNL     1     -96.954 -44.574 -11.796  1.00  0.00     0.000 C 
BRANCH  13  14
ATOM     14  C   UNL     1     -97.418 -43.276 -11.112  1.00  0.00     0.000 C 
BRANCH  14  15
ATOM     15  C   UNL     1     -96.858 -43.050  -9.696  1.00  0.00     0.000 C 
BRANCH  15  16
ATOM     16  C   UNL     1     -97.828 -43.492  -8.589  1.00  0.00     0.000 C 
BRANCH  16  17
ATOM     17  C   UNL     1     -97.409 -44.848  -8.002  1.00  0.00     0.000 C 
BRANCH  17  18
ATOM     18  C   UNL     1     -95.913 -45.142  -8.207  1.00  0.00     0.000 C 
BRANCH  18  19
ATOM     19  C   UNL     1     -95.670 -46.489  -8.911  1.00  0.00     0.000 C 
BRANCH  19  20
ATOM     20  C   UNL     1     -94.413 -46.469  -9.796  1.00  0.00     0.006 C 
BRANCH  20  21
ATOM     21  C   UNL     1     -94.232 -47.772 -10.587  1.00  0.00     0.053 C 
BRANCH  21  22
ATOM     22  C   UNL     1     -94.435 -47.529 -12.049  1.00  0.00     0.041 C 
ATOM     23  O   UNL     1     -95.037 -48.381 -12.755  1.00  0.00    -0.550 OA
ATOM     24  O   UNL     1     -93.992 -46.344 -12.625  1.00  0.00    -0.550 OA
ENDBRANCH  21  22
ENDBRANCH  20  21
ENDBRANCH  19  20
ENDBRANCH  18  19
ENDBRANCH  17  18
ENDBRANCH  16  17
ENDBRANCH  15  16
ENDBRANCH  14  15
ENDBRANCH  13  14
ENDBRANCH   1  13
TORSDOF 20
ENDMDL
MODEL 4
REMARK VINA RESULT:    -2.753      2.598      5.429
REMARK INTER + INTRA:         -10.355
REMARK INTER:                  -6.686
REMARK INTRA:                  -3.669
REMARK UNBOUND:                -4.383
REMARK SMILES CCCCCCCCCCCCCCCCCCCCCC(=O)[O-]
REMARK SMILES IDX 12 1 11 2 10 3 9 4 8 5 7 6 6 7 5 8 4 9 3 10 2 11 1 12 13 13
REMARK SMILES IDX 14 14 15 15 16 16 17 17 18 18 19 19 20 20 21 21 22 22 23 23
REMARK SMILES IDX 24 24
REMARK H PARENT
REMARK Flexibility Score: inf
ROOT
ATOM      1  C   UNL     1     -97.351 -44.760  -8.252  1.00  0.00     0.000 C 
ENDROOT
BRANCH   1   2
ATOM      2  C   UNL     1     -95.878 -44.988  -8.625  1.00  0.00     0.000 C 
BRANCH   2   3
ATOM      3  C   UNL     1     -95.371 -46.379  -8.209  1.00  0.00     0.000 C 
BRANCH   3   4
ATOM      4  C   UNL     1     -94.696 -47.131  -9.367  1.00  0.00    -0.000 C 
BRANCH   4   5
ATOM      5  C   UNL     1     -94.467 -46.238 -10.596  1.00  0.00    -0.000 C 
BRANCH   5   6
ATOM      6  C   UNL     1     -94.887 -46.915 -11.913  1.00  0.00    -0.000 C 
BRANCH   6   7
ATOM      7  C   UNL     1     -96.407 -47.113 -12.013  1.00  0.00    -0.000 C 
BRANCH   7   8
ATOM      8  C   UNL     1     -96.793 -48.545 -12.410  1.00  0.00    -0.000 C 
BRANCH   8   9
ATOM      9  C   UNL     1     -96.766 -49.481 -11.197  1.00  0.00    -0.000 C 
BRANCH   9  10
ATOM     10  C   UNL     1     -98.146 -49.551 -10.524  1.00  0.00    -0.000 C 
BRANCH  10  11
ATOM     11  C   UNL     1     -98.210 -48.745  -9.218  1.00  0.00    -0.003 C 
ATOM     12  C   UNL     1     -99.173 -47.560  -9.301  1.00  0.00     0.004 C 
ENDBRANCH  10  11
ENDBRANCH   9  10
ENDBRANCH   8   9
ENDBRANCH   7   8
ENDBRANCH   6   7
ENDBRANCH   5   6
ENDBRANCH   4   5
ENDBRANCH   3   4
ENDBRANCH   2   3
ENDBRANCH   1   2
BRANCH   1  13
ATOM     13  C   UNL     1     -97.953 -43.602  -9.062  1.00  0.00     0.000 C 
BRANCH  13  14
ATOM     14  C   UNL     1     -96.977 -43.026 -10.104  1.00  0.00     0.000 C 
BRANCH  14  15
ATOM     15  C   UNL     1     -97.183 -43.538 -11.541  1.00  0.00     0.000 C 
BRANCH  15  16
ATOM     16  C   UNL     1     -98.648 -43.468 -11.999  1.00  0.00     0.000 C 
BRANCH  16  17
ATOM     17  C   UNL     1     -99.191 -44.869 -12.313  1.00  0.00     0.000 C 
BRANCH  17  18
ATOM     18  C   UNL     1    -100.704 -44.866 -12.590  1.00  0.00     0.000 C 
BRANCH  18  19
ATOM     19  C   UNL     1    -101.206 -46.218 -13.129  1.00  0.00     0.000 C 
BRANCH  19  20
ATOM     20  C   UNL     1    -100.267 -47.379 -12.766  1.00  0.00     0.006 C 
BRANCH  20  21
ATOM     21  C   UNL     1    -100.335 -48.528 -13.781  1.00  0.00     0.053 C 
BRANCH  21  22
ATOM     22  C   UNL     1    -101.319 -49.563 -13.336  1.00  0.00     0.041 C 
ATOM     23  O   UNL     1    -102.154 -50.036 -14.154  1.00  0.00    -0.550 OA
ATOM     24  O   UNL     1    -101.292 -50.034 -12.029  1.00  0.00    -0.550 OA
ENDBRANCH  21  22
ENDBRANCH  20  21
ENDBRANCH  19  20
ENDBRANCH  18  19
ENDBRANCH  17  18
ENDBRANCH  16  17
ENDBRANCH  15  16
ENDBRANCH  14  15
ENDBRANCH  13  14
ENDBRANCH   1  13
TORSDOF 20
ENDMDL
MODEL 5
REMARK VINA RESULT:    -2.733      2.602      5.734
REMARK INTER + INTRA:         -10.312
REMARK INTER:                  -6.641
REMARK INTRA:                  -3.671
REMARK UNBOUND:                -4.383
REMARK SMILES CCCCCCCCCCCCCCCCCCCCCC(=O)[O-]
REMARK SMILES IDX 12 1 11 2 10 3 9 4 8 5 7 6 6 7 5 8 4 9 3 10 2 11 1 12 13 13
REMARK SMILES IDX 14 14 15 15 16 16 17 17 18 18 19 19 20 20 21 21 22 22 23 23
REMARK SMILES IDX 24 24
REMARK H PARENT
REMARK Flexibility Score: inf
ROOT
ATOM      1  C   UNL     1     -97.787 -44.734  -8.206  1.00  0.00     0.000 C 
ENDROOT
BRANCH   1   2
ATOM      2  C   UNL     1     -96.364 -45.280  -8.011  1.00  0.00     0.000 C 
BRANCH   2   3
ATOM      3  C   UNL     1     -96.004 -46.370  -9.034  1.00  0.00     0.000 C 
BRANCH   3   4
ATOM      4  C   UNL     1     -96.540 -47.755  -8.633  1.00  0.00    -0.000 C 
BRANCH   4   5
ATOM      5  C   UNL     1     -97.921 -48.050  -9.241  1.00  0.00    -0.000 C 
BRANCH   5   6
ATOM      6  C   UNL     1     -97.957 -49.375 -10.023  1.00  0.00    -0.000 C 
BRANCH   6   7
ATOM      7  C   UNL     1     -96.606 -49.711 -10.674  1.00  0.00    -0.000 C 
BRANCH   7   8
ATOM      8  C   UNL     1     -96.532 -49.270 -12.144  1.00  0.00    -0.000 C 
BRANCH   8   9
ATOM      9  C   UNL     1     -95.086 -48.988 -12.564  1.00  0.00    -0.000 C 
BRANCH   9  10
ATOM     10  C   UNL     1     -94.740 -47.502 -12.385  1.00  0.00    -0.000 C 
BRANCH  10  11
ATOM     11  C   UNL     1     -93.478 -47.285 -11.537  1.00  0.00    -0.003 C 
ATOM     12  C   UNL     1     -93.111 -48.509 -10.697  1.00  0.00     0.004 C 
ENDBRANCH  10  11
ENDBRANCH   9  10
ENDBRANCH   8   9
ENDBRANCH   7   8
ENDBRANCH   6   7
ENDBRANCH   5   6
ENDBRANCH   4   5
ENDBRANCH   3   4
ENDBRANCH   2   3
ENDBRANCH   1   2
BRANCH   1  13
ATOM     13  C   UNL     1     -97.757 -43.257  -8.626  1.00  0.00     0.000 C 
BRANCH  13  14
ATOM     14  C   UNL     1     -96.866 -42.998  -9.855  1.00  0.00     0.000 C 
BRANCH  14  15
ATOM     15  C   UNL     1     -97.538 -43.266 -11.213  1.00  0.00     0.000 C 
BRANCH  15  16
ATOM     16  C   UNL     1     -96.901 -44.437 -11.977  1.00  0.00     0.000 C 
BRANCH  16  17
ATOM     17  C   UNL     1     -97.850 -45.643 -12.022  1.00  0.00     0.000 C 
BRANCH  17  18
ATOM     18  C   UNL     1     -99.328 -45.235 -11.906  1.00  0.00     0.000 C 
BRANCH  18  19
ATOM     19  C   UNL     1    -100.272 -46.241 -12.589  1.00  0.00     0.000 C 
BRANCH  19  20
ATOM     20  C   UNL     1     -99.606 -47.607 -12.819  1.00  0.00     0.006 C 
BRANCH  20  21
ATOM     21  C   UNL     1    -100.330 -48.440 -13.885  1.00  0.00     0.053 C 
BRANCH  21  22
ATOM     22  C   UNL     1    -101.034 -49.599 -13.255  1.00  0.00     0.041 C 
ATOM     23  O   UNL     1    -101.718 -50.386 -13.964  1.00  0.00    -0.550 OA
ATOM     24  O   UNL     1    -100.905 -49.835 -11.892  1.00  0.00    -0.550 OA
ENDBRANCH  21  22
ENDBRANCH  20  21
ENDBRANCH  19  20
ENDBRANCH  18  19
ENDBRANCH  17  18
ENDBRANCH  16  17
ENDBRANCH  15  16
ENDBRANCH  14  15
ENDBRANCH  13  14
ENDBRANCH   1  13
TORSDOF 20
ENDMDL
MODEL 6
REMARK VINA RESULT:    -2.731      1.184      2.073
REMARK INTER + INTRA:         -10.306
REMARK INTER:                  -6.158
REMARK INTRA:                  -4.148
REMARK UNBOUND:                -4.383
REMARK SMILES CCCCCCCCCCCCCCCCCCCCCC(=O)[O-]
REMARK SMILES IDX 12 1 11 2 10 3 9 4 8 5 7 6 6 7 5 8 4 9 3 10 2 11 1 12 13 13
REMARK SMILES IDX 14 14 15 15 16 16 17 17 18 18 19 19 20 20 21 21 22 22 23 23
REMARK SMILES IDX 24 24
REMARK H PARENT
REMARK Flexibility Score: inf
ROOT
ATOM      1  C   UNL     1     -97.441 -43.711 -11.958  1.00  0.00     0.000 C 
ENDROOT
BRANCH   1   2
ATOM      2  C   UNL     1     -98.529 -44.795 -12.016  1.00  0.00     0.000 C 
BRANCH   2   3
ATOM      3  C   UNL     1     -97.946 -46.218 -12.001  1.00  0.00     0.000 C 
BRANCH   3   4
ATOM      4  C   UNL     1     -98.470 -47.057 -10.823  1.00  0.00    -0.000 C 
BRANCH   4   5
ATOM      5  C   UNL     1     -97.847 -48.461 -10.779  1.00  0.00    -0.000 C 
BRANCH   5   6
ATOM      6  C   UNL     1     -98.388 -49.389 -11.881  1.00  0.00    -0.000 C 
BRANCH   6   7
ATOM      7  C   UNL     1     -99.893 -49.663 -11.732  1.00  0.00    -0.000 C 
BRANCH   7   8
ATOM      8  C   UNL     1    -100.629 -49.675 -13.080  1.00  0.00    -0.000 C 
BRANCH   8   9
ATOM      9  C   UNL     1    -100.447 -48.346 -13.821  1.00  0.00    -0.000 C 
BRANCH   9  10
ATOM     10  C   UNL     1    -101.747 -47.527 -13.809  1.00  0.00    -0.000 C 
BRANCH  10  11
ATOM     11  C   UNL     1    -101.650 -46.274 -12.926  1.00  0.00    -0.003 C 
ATOM     12  C   UNL     1    -102.052 -46.541 -11.475  1.00  0.00     0.004 C 
ENDBRANCH  10  11
ENDBRANCH   9  10
ENDBRANCH   8   9
ENDBRANCH   7   8
ENDBRANCH   6   7
ENDBRANCH   5   6
ENDBRANCH   4   5
ENDBRANCH   3   4
ENDBRANCH   2   3
ENDBRANCH   1   2
BRANCH   1  13
ATOM     13  C   UNL     1     -97.201 -43.248 -10.513  1.00  0.00     0.000 C 
BRANCH  13  14
ATOM     14  C   UNL     1     -98.415 -43.485  -9.596  1.00  0.00     0.000 C 
BRANCH  14  15
ATOM     15  C   UNL     1     -98.132 -44.344  -8.350  1.00  0.00     0.000 C 
BRANCH  15  16
ATOM     16  C   UNL     1     -96.648 -44.711  -8.198  1.00  0.00     0.000 C 
BRANCH  16  17
ATOM     17  C   UNL     1     -96.473 -46.225  -8.020  1.00  0.00     0.000 C 
BRANCH  17  18
ATOM     18  C   UNL     1     -95.140 -46.737  -8.590  1.00  0.00     0.000 C 
BRANCH  18  19
ATOM     19  C   UNL     1     -94.679 -45.934  -9.820  1.00  0.00     0.000 C 
BRANCH  19  20
ATOM     20  C   UNL     1     -94.540 -46.811 -11.074  1.00  0.00     0.006 C 
BRANCH  20  21
ATOM     21  C   UNL     1     -94.196 -48.268 -10.737  1.00  0.00     0.053 C 
BRANCH  21  22
ATOM     22  C   UNL     1     -94.280 -49.123 -11.961  1.00  0.00     0.041 C 
ATOM     23  O   UNL     1     -93.636 -50.204 -12.025  1.00  0.00    -0.550 OA
ATOM     24  O   UNL     1     -95.100 -48.746 -13.018  1.00  0.00    -0.550 OA
ENDBRANCH  21  22
ENDBRANCH  20  21
ENDBRANCH  19  20
ENDBRANCH  18  19
ENDBRANCH  17  18
ENDBRANCH  16  17
ENDBRANCH  15  16
ENDBRANCH  14  15
ENDBRANCH  13  14
ENDBRANCH   1  13
TORSDOF 20
ENDMDL
MODEL 7
REMARK VINA RESULT:    -2.730      1.111      2.346
REMARK INTER + INTRA:         -10.305
REMARK INTER:                  -6.105
REMARK INTRA:                  -4.200
REMARK UNBOUND:                -4.383
REMARK SMILES CCCCCCCCCCCCCCCCCCCCCC(=O)[O-]
REMARK SMILES IDX 12 1 11 2 10 3 9 4 8 5 7 6 6 7 5 8 4 9 3 10 2 11 1 12 13 13
REMARK SMILES IDX 14 14 15 15 16 16 17 17 18 18 19 19 20 20 21 21 22 22 23 23
REMARK SMILES IDX 24 24
REMARK H PARENT
REMARK Flexibility Score: inf
ROOT
ATOM      1  C   UNL     1     -97.808 -46.703 -11.992  1.00  0.00     0.000 C 
ENDROOT
BRANCH   1   2
ATOM      2  C   UNL     1     -97.997 -48.100 -12.603  1.00  0.00     0.000 C 
BRANCH   2   3
ATOM      3  C   UNL     1     -99.241 -48.187 -13.502  1.00  0.00     0.000 C 
BRANCH   3   4
ATOM      4  C   UNL     1    -100.254 -49.234 -13.008  1.00  0.00    -0.000 C 
BRANCH   4   5
ATOM      5  C   UNL     1    -101.683 -48.947 -13.497  1.00  0.00    -0.000 C 
BRANCH   5   6
ATOM      6  C   UNL     1    -101.911 -47.463 -13.833  1.00  0.00    -0.000 C 
BRANCH   6   7
ATOM      7  C   UNL     1    -102.512 -46.679 -12.656  1.00  0.00    -0.000 C 
BRANCH   7   8
ATOM      8  C   UNL     1    -103.305 -47.573 -11.693  1.00  0.00    -0.000 C 
BRANCH   8   9
ATOM      9  C   UNL     1    -102.683 -47.565 -10.292  1.00  0.00    -0.000 C 
BRANCH   9  10
ATOM     10  C   UNL     1    -101.761 -46.350 -10.106  1.00  0.00    -0.000 C 
BRANCH  10  11
ATOM     11  C   UNL     1    -100.498 -46.683  -9.298  1.00  0.00    -0.003 C 
ATOM     12  C   UNL     1    -100.081 -48.149  -9.428  1.00  0.00     0.004 C 
ENDBRANCH  10  11
ENDBRANCH   9  10
ENDBRANCH   8   9
ENDBRANCH   7   8
ENDBRANCH   6   7
ENDBRANCH   5   6
ENDBRANCH   4   5
ENDBRANCH   3   4
ENDBRANCH   2   3
ENDBRANCH   1   2
BRANCH   1  13
ATOM     13  C   UNL     1     -98.945 -45.759 -12.411  1.00  0.00     0.000 C 
BRANCH  13  14
ATOM     14  C   UNL     1     -98.673 -44.289 -12.042  1.00  0.00     0.000 C 
BRANCH  14  15
ATOM     15  C   UNL     1     -97.220 -43.976 -11.644  1.00  0.00     0.000 C 
BRANCH  15  16
ATOM     16  C   UNL     1     -97.113 -43.204 -10.320  1.00  0.00     0.000 C 
BRANCH  16  17
ATOM     17  C   UNL     1     -97.798 -43.971  -9.180  1.00  0.00     0.000 C 
BRANCH  17  18
ATOM     18  C   UNL     1     -96.800 -44.766  -8.321  1.00  0.00     0.000 C 
BRANCH  18  19
ATOM     19  C   UNL     1     -96.867 -46.280  -8.589  1.00  0.00     0.000 C 
BRANCH  19  20
ATOM     20  C   UNL     1     -95.485 -46.886  -8.881  1.00  0.00     0.006 C 
BRANCH  20  21
ATOM     21  C   UNL     1     -94.672 -46.042  -9.872  1.00  0.00     0.053 C 
BRANCH  21  22
ATOM     22  C   UNL     1     -94.345 -46.839 -11.095  1.00  0.00     0.041 C 
ATOM     23  O   UNL     1     -94.518 -48.087 -11.102  1.00  0.00    -0.550 OA
ATOM     24  O   UNL     1     -93.886 -46.200 -12.240  1.00  0.00    -0.550 OA
ENDBRANCH  21  22
ENDBRANCH  20  21
ENDBRANCH  19  20
ENDBRANCH  18  19
ENDBRANCH  17  18
ENDBRANCH  16  17
ENDBRANCH  15  16
ENDBRANCH  14  15
ENDBRANCH  13  14
ENDBRANCH   1  13
TORSDOF 20
ENDMDL
MODEL 8
REMARK VINA RESULT:    -2.721      1.890      3.902
REMARK INTER + INTRA:         -10.285
REMARK INTER:                  -6.329
REMARK INTRA:                  -3.955
REMARK UNBOUND:                -4.383
REMARK SMILES CCCCCCCCCCCCCCCCCCCCCC(=O)[O-]
REMARK SMILES IDX 12 1 11 2 10 3 9 4 8 5 7 6 6 7 5 8 4 9 3 10 2 11 1 12 13 13
REMARK SMILES IDX 14 14 15 15 16 16 17 17 18 18 19 19 20 20 21 21 22 22 23 23
REMARK SMILES IDX 24 24
REMARK H PARENT
REMARK Flexibility Score: inf
ROOT
ATOM      1  C   UNL     1     -98.063 -43.388  -9.307  1.00  0.00     0.000 C 
ENDROOT
BRANCH   1   2
ATOM      2  C   UNL     1     -96.955 -43.188 -10.353  1.00  0.00     0.000 C 
BRANCH   2   3
ATOM      3  C   UNL     1     -97.367 -43.680 -11.750  1.00  0.00     0.000 C 
BRANCH   3   4
ATOM      4  C   UNL     1     -98.867 -43.480 -12.028  1.00  0.00    -0.000 C 
BRANCH   4   5
ATOM      5  C   UNL     1     -99.587 -44.798 -12.352  1.00  0.00    -0.000 C 
BRANCH   5   6
ATOM      6  C   UNL     1     -98.656 -46.021 -12.272  1.00  0.00    -0.000 C 
BRANCH   6   7
ATOM      7  C   UNL     1     -99.088 -47.019 -11.186  1.00  0.00    -0.000 C 
BRANCH   7   8
ATOM      8  C   UNL     1     -99.383 -48.417 -11.750  1.00  0.00    -0.000 C 
BRANCH   8   9
ATOM      9  C   UNL     1     -99.419 -48.398 -13.282  1.00  0.00    -0.000 C 
BRANCH   9  10
ATOM     10  C   UNL     1    -100.836 -48.685 -13.803  1.00  0.00    -0.000 C 
BRANCH  10  11
ATOM     11  C   UNL     1    -101.693 -47.416 -13.921  1.00  0.00    -0.003 C 
ATOM     12  C   UNL     1    -102.682 -47.260 -12.765  1.00  0.00     0.004 C 
ENDBRANCH  10  11
ENDBRANCH   9  10
ENDBRANCH   8   9
ENDBRANCH   7   8
ENDBRANCH   6   7
ENDBRANCH   5   6
ENDBRANCH   4   5
ENDBRANCH   3   4
ENDBRANCH   2   3
ENDBRANCH   1   2
BRANCH   1  13
ATOM     13  C   UNL     1     -97.948 -44.766  -8.638  1.00  0.00     0.000 C 
BRANCH  13  14
ATOM     14  C   UNL     1     -96.489 -45.204  -8.411  1.00  0.00     0.000 C 
BRANCH  14  15
ATOM     15  C   UNL     1     -96.113 -46.560  -9.035  1.00  0.00     0.000 C 
BRANCH  15  16
ATOM     16  C   UNL     1     -94.620 -46.669  -9.379  1.00  0.00     0.000 C 
BRANCH  16  17
ATOM     17  C   UNL     1     -94.354 -46.209 -10.819  1.00  0.00     0.000 C 
BRANCH  17  18
ATOM     18  C   UNL     1     -95.345 -46.819 -11.825  1.00  0.00     0.000 C 
BRANCH  18  19
ATOM     19  C   UNL     1     -94.865 -48.173 -12.377  1.00  0.00     0.000 C 
BRANCH  19  20
ATOM     20  C   UNL     1     -95.909 -49.285 -12.191  1.00  0.00     0.006 C 
BRANCH  20  21
ATOM     21  C   UNL     1     -95.882 -49.886 -10.779  1.00  0.00     0.053 C 
BRANCH  21  22
ATOM     22  C   UNL     1     -96.714 -51.128 -10.721  1.00  0.00     0.041 C 
ATOM     23  O   UNL     1     -97.460 -51.436 -11.689  1.00  0.00    -0.550 OA
ATOM     24  O   UNL     1     -96.636 -51.967  -9.616  1.00  0.00    -0.550 OA
ENDBRANCH  21  22
ENDBRANCH  20  21
ENDBRANCH  19  20
ENDBRANCH  18  19
ENDBRANCH  17  18
ENDBRANCH  16  17
ENDBRANCH  15  16
ENDBRANCH  14  15
ENDBRANCH  13  14
ENDBRANCH   1  13
TORSDOF 20
ENDMDL
MODEL 9
REMARK VINA RESULT:    -2.717      3.266      7.121
REMARK INTER + INTRA:         -10.276
REMARK INTER:                  -6.367
REMARK INTRA:                  -3.909
REMARK UNBOUND:                -4.383
REMARK SMILES CCCCCCCCCCCCCCCCCCCCCC(=O)[O-]
REMARK SMILES IDX 12 1 11 2 10 3 9 4 8 5 7 6 6 7 5 8 4 9 3 10 2 11 1 12 13 13
REMARK SMILES IDX 14 14 15 15 16 16 17 17 18 18 19 19 20 20 21 21 22 22 23 23
REMARK SMILES IDX 24 24
REMARK H PARENT
REMARK Flexibility Score: inf
ROOT
ATOM      1  C   UNL     1     -99.538 -44.694 -12.388  1.00  0.00     0.000 C 
ENDROOT
BRANCH   1   2
ATOM      2  C   UNL     1     -98.829 -43.380 -12.026  1.00  0.00     0.000 C 
BRANCH   2   3
ATOM      3  C   UNL     1     -97.319 -43.566 -11.802  1.00  0.00     0.000 C 
BRANCH   3   4
ATOM      4  C   UNL     1     -96.871 -43.120 -10.400  1.00  0.00    -0.000 C 
BRANCH   4   5
ATOM      5  C   UNL     1     -97.932 -43.405  -9.325  1.00  0.00    -0.000 C 
BRANCH   5   6
ATOM      6  C   UNL     1     -97.448 -44.404  -8.259  1.00  0.00    -0.000 C 
BRANCH   6   7
ATOM      7  C   UNL     1     -96.100 -45.045  -8.623  1.00  0.00    -0.000 C 
BRANCH   7   8
ATOM      8  C   UNL     1     -96.103 -46.571  -8.450  1.00  0.00    -0.000 C 
BRANCH   8   9
ATOM      9  C   UNL     1     -95.245 -47.250  -9.522  1.00  0.00    -0.000 C 
BRANCH   9  10
ATOM     10  C   UNL     1     -94.694 -46.221 -10.520  1.00  0.00    -0.000 C 
BRANCH  10  11
ATOM     11  C   UNL     1     -95.077 -46.540 -11.973  1.00  0.00    -0.003 C 
ATOM     12  C   UNL     1     -94.968 -48.030 -12.301  1.00  0.00     0.004 C 
ENDBRANCH  10  11
ENDBRANCH   9  10
ENDBRANCH   8   9
ENDBRANCH   7   8
ENDBRANCH   6   7
ENDBRANCH   5   6
ENDBRANCH   4   5
ENDBRANCH   3   4
ENDBRANCH   2   3
ENDBRANCH   1   2
BRANCH   1  13
ATOM     13  C   UNL     1     -98.612 -45.900 -12.165  1.00  0.00     0.000 C 
BRANCH  13  14
ATOM     14  C   UNL     1     -98.952 -46.691 -10.889  1.00  0.00     0.000 C 
BRANCH  14  15
ATOM     15  C   UNL     1     -98.460 -48.149 -10.878  1.00  0.00     0.000 C 
BRANCH  15  16
ATOM     16  C   UNL     1     -98.693 -48.872 -12.213  1.00  0.00     0.000 C 
BRANCH  16  17
ATOM     17  C   UNL     1    -100.002 -49.672 -12.183  1.00  0.00     0.000 C 
BRANCH  17  18
ATOM     18  C   UNL     1    -100.843 -49.476 -13.456  1.00  0.00     0.000 C 
BRANCH  18  19
ATOM     19  C   UNL     1    -101.026 -47.992 -13.818  1.00  0.00     0.000 C 
BRANCH  19  20
ATOM     20  C   UNL     1    -102.129 -47.317 -12.987  1.00  0.00     0.006 C 
BRANCH  20  21
ATOM     21  C   UNL     1    -103.464 -48.072 -13.061  1.00  0.00     0.053 C 
BRANCH  21  22
ATOM     22  C   UNL     1    -104.343 -47.479 -14.116  1.00  0.00     0.041 C 
ATOM     23  O   UNL     1    -104.108 -47.701 -15.334  1.00  0.00    -0.550 OA
ATOM     24  O   UNL     1    -105.445 -46.714 -13.754  1.00  0.00    -0.550 OA
ENDBRANCH  21  22
ENDBRANCH  20  21
ENDBRANCH  19  20
ENDBRANCH  18  19
ENDBRANCH  17  18
ENDBRANCH  16  17
ENDBRANCH  15  16
ENDBRANCH  14  15
ENDBRANCH  13  14
ENDBRANCH   1  13
TORSDOF 20
ENDMDL
