MODEL 1
REMARK VINA RESULT:    -4.567      0.000      0.000
REMARK INTER + INTRA:          -4.567
REMARK INTER:                  -4.567
REMARK INTRA:                   0.000
REMARK UNBOUND:                 0.000
REMARK SMILES C=C1CCC[C@]2(C)CC(=O)C(=C(C)C)C[C@H]12
REMARK SMILES IDX 13 1 12 2 11 3 15 4 16 5 2 6 1 7 3 8 4 9 5 10 6 11 8 12 9 13
REMARK SMILES IDX 10 14 7 15 14 16
REMARK H PARENT
REMARK Flexibility Score: inf
ROOT
ATOM      1  C   UNL     1     -13.340  -0.214 -18.639  1.00  0.00     0.039 C 
ATOM      2  C   UNL     1     -12.149  -0.060 -19.555  1.00  0.00    -0.070 C 
ATOM      3  C   UNL     1     -11.012   0.566 -19.142  1.00  0.00    -0.006 C 
ATOM      4  C   UNL     1     -10.848   1.159 -17.761  1.00  0.00     0.047 C 
ATOM      5  C   UNL     1     -10.295   2.602 -17.817  1.00  0.00     0.025 C 
ATOM      6  C   UNL     1     -11.372   3.605 -18.218  1.00  0.00    -0.073 C 
ATOM      7  C   UNL     1     -12.446   3.799 -17.432  1.00  0.00     0.008 C 
ATOM      8  C   UNL     1     -11.214   4.423 -19.475  1.00  0.00     0.031 C 
ATOM      9  C   UNL     1      -9.798   5.016 -19.618  1.00  0.00     0.005 C 
ATOM     10  C   UNL     1      -8.677   4.225 -18.902  1.00  0.00     0.008 C 
ATOM     11  C   UNL     1      -8.990   2.720 -18.686  1.00  0.00    -0.018 C 
ATOM     12  C   UNL     1      -9.094   2.002 -20.071  1.00  0.00     0.088 C 
ATOM     13  C   UNL     1      -9.820   0.693 -20.005  1.00  0.00     0.159 C 
ATOM     14  O   UNL     1      -9.420  -0.275 -20.708  1.00  0.00    -0.295 OA
ATOM     15  C   UNL     1      -7.802   2.098 -17.910  1.00  0.00     0.012 C 
ATOM     16  C   UNL     1     -12.281  -0.586 -20.966  1.00  0.00     0.039 C 
ENDROOT
TORSDOF 0
ENDMDL
MODEL 2
REMARK VINA RESULT:    -3.610      2.635      4.762
REMARK INTER + INTRA:          -3.610
REMARK INTER:                  -3.610
REMARK INTRA:                   0.000
REMARK UNBOUND:                 0.000
REMARK SMILES C=C1CCC[C@]2(C)CC(=O)C(=C(C)C)C[C@H]12
REMARK SMILES IDX 13 1 12 2 11 3 15 4 16 5 2 6 1 7 3 8 4 9 5 10 6 11 8 12 9 13
REMARK SMILES IDX 10 14 7 15 14 16
REMARK H PARENT
REMARK Flexibility Score: inf
ROOT
ATOM      1  C   UNL     1     -11.781   5.001 -22.450  1.00  0.00     0.039 C 
ATOM      2  C   UNL     1     -12.356   5.355 -21.100  1.00  0.00    -0.070 C 
ATOM      3  C   UNL     1     -11.674   5.101 -19.948  1.00  0.00    -0.006 C 
ATOM      4  C   UNL     1     -10.311   4.447 -19.921  1.00  0.00     0.047 C 
ATOM      5  C   UNL     1     -10.251   3.285 -18.902  1.00  0.00     0.025 C 
ATOM      6  C   UNL     1     -10.942   2.032 -19.431  1.00  0.00    -0.073 C 
ATOM      7  C   UNL     1     -10.469   1.406 -20.522  1.00  0.00     0.008 C 
ATOM      8  C   UNL     1     -12.131   1.459 -18.702  1.00  0.00     0.031 C 
ATOM      9  C   UNL     1     -11.911   1.391 -17.177  1.00  0.00     0.005 C 
ATOM     10  C   UNL     1     -10.909   2.424 -16.609  1.00  0.00     0.008 C 
ATOM     11  C   UNL     1     -10.750   3.706 -17.471  1.00  0.00    -0.018 C 
ATOM     12  C   UNL     1     -12.098   4.498 -17.487  1.00  0.00     0.088 C 
ATOM     13  C   UNL     1     -12.196   5.475 -18.619  1.00  0.00     0.159 C 
ATOM     14  O   UNL     1     -12.748   6.592 -18.428  1.00  0.00    -0.295 OA
ATOM     15  C   UNL     1      -9.676   4.597 -16.797  1.00  0.00     0.012 C 
ATOM     16  C   UNL     1     -13.741   5.960 -21.068  1.00  0.00     0.039 C 
ENDROOT
TORSDOF 0
ENDMDL
MODEL 3
REMARK VINA RESULT:    -3.065     15.036     17.201
REMARK INTER + INTRA:          -3.065
REMARK INTER:                  -3.065
REMARK INTRA:                   0.000
REMARK UNBOUND:                 0.000
REMARK SMILES C=C1CCC[C@]2(C)CC(=O)C(=C(C)C)C[C@H]12
REMARK SMILES IDX 13 1 12 2 11 3 15 4 16 5 2 6 1 7 3 8 4 9 5 10 6 11 8 12 9 13
REMARK SMILES IDX 10 14 7 15 14 16
REMARK H PARENT
REMARK Flexibility Score: inf
ROOT
ATOM      1  C   UNL     1       5.113   8.910 -10.633  1.00  0.00     0.039 C 
ATOM      2  C   UNL     1       4.862   8.404 -12.033  1.00  0.00    -0.070 C 
ATOM      3  C   UNL     1       4.590   9.258 -13.059  1.00  0.00    -0.006 C 
ATOM      4  C   UNL     1       4.507  10.758 -12.888  1.00  0.00     0.047 C 
ATOM      5  C   UNL     1       3.230  11.341 -13.535  1.00  0.00     0.025 C 
ATOM      6  C   UNL     1       1.994  11.085 -12.677  1.00  0.00    -0.073 C 
ATOM      7  C   UNL     1       1.898  11.623 -11.449  1.00  0.00     0.008 C 
ATOM      8  C   UNL     1       0.851  10.267 -13.223  1.00  0.00     0.031 C 
ATOM      9  C   UNL     1       0.474  10.669 -14.663  1.00  0.00     0.005 C 
ATOM     10  C   UNL     1       1.620  11.296 -15.493  1.00  0.00     0.008 C 
ATOM     11  C   UNL     1       3.045  10.891 -15.030  1.00  0.00    -0.018 C 
ATOM     12  C   UNL     1       3.253   9.357 -15.251  1.00  0.00     0.088 C 
ATOM     13  C   UNL     1       4.381   8.791 -14.445  1.00  0.00     0.159 C 
ATOM     14  O   UNL     1       5.121   7.903 -14.949  1.00  0.00    -0.295 OA
ATOM     15  C   UNL     1       4.064  11.647 -15.920  1.00  0.00     0.012 C 
ATOM     16  C   UNL     1       4.876   6.908 -12.247  1.00  0.00     0.039 C 
ENDROOT
TORSDOF 0
ENDMDL
MODEL 4
REMARK VINA RESULT:    -2.883     14.155     16.686
REMARK INTER + INTRA:          -2.883
REMARK INTER:                  -2.883
REMARK INTRA:                   0.000
REMARK UNBOUND:                 0.000
REMARK SMILES C=C1CCC[C@]2(C)CC(=O)C(=C(C)C)C[C@H]12
REMARK SMILES IDX 13 1 12 2 11 3 15 4 16 5 2 6 1 7 3 8 4 9 5 10 6 11 8 12 9 13
REMARK SMILES IDX 10 14 7 15 14 16
REMARK H PARENT
REMARK Flexibility Score: inf
ROOT
ATOM      1  C   UNL     1      -0.843  12.113 -14.549  1.00  0.00     0.039 C 
ATOM      2  C   UNL     1      -0.277  11.025 -13.668  1.00  0.00    -0.070 C 
ATOM      3  C   UNL     1       1.025  11.041 -13.267  1.00  0.00    -0.006 C 
ATOM      4  C   UNL     1       2.001  12.124 -13.668  1.00  0.00     0.047 C 
ATOM      5  C   UNL     1       3.330  11.534 -14.194  1.00  0.00     0.025 C 
ATOM      6  C   UNL     1       3.190  11.008 -15.619  1.00  0.00    -0.073 C 
ATOM      7  C   UNL     1       2.894  11.847 -16.627  1.00  0.00     0.008 C 
ATOM      8  C   UNL     1       3.432   9.549 -15.914  1.00  0.00     0.031 C 
ATOM      9  C   UNL     1       4.704   9.012 -15.228  1.00  0.00     0.005 C 
ATOM     10  C   UNL     1       5.125   9.761 -13.940  1.00  0.00     0.008 C 
ATOM     11  C   UNL     1       3.961  10.484 -13.209  1.00  0.00    -0.018 C 
ATOM     12  C   UNL     1       2.936   9.428 -12.681  1.00  0.00     0.088 C 
ATOM     13  C   UNL     1       1.592  10.011 -12.373  1.00  0.00     0.159 C 
ATOM     14  O   UNL     1       0.949   9.596 -11.371  1.00  0.00    -0.295 OA
ATOM     15  C   UNL     1       4.560  11.225 -11.987  1.00  0.00     0.012 C 
ATOM     16  C   UNL     1      -1.197   9.888 -13.285  1.00  0.00     0.039 C 
ENDROOT
TORSDOF 0
ENDMDL
MODEL 5
REMARK VINA RESULT:    -2.676     15.080     17.677
REMARK INTER + INTRA:          -2.676
REMARK INTER:                  -2.676
REMARK INTRA:                   0.000
REMARK UNBOUND:                 0.000
REMARK SMILES C=C1CCC[C@]2(C)CC(=O)C(=C(C)C)C[C@H]12
REMARK SMILES IDX 13 1 12 2 11 3 15 4 16 5 2 6 1 7 3 8 4 9 5 10 6 11 8 12 9 13
REMARK SMILES IDX 10 14 7 15 14 16
REMARK H PARENT
REMARK Flexibility Score: inf
ROOT
ATOM      1  C   UNL     1       5.123   9.128 -10.540  1.00  0.00     0.039 C 
ATOM      2  C   UNL     1       4.209  10.330 -10.529  1.00  0.00    -0.070 C 
ATOM      3  C   UNL     1       3.085  10.374 -11.296  1.00  0.00    -0.006 C 
ATOM      4  C   UNL     1       2.665   9.250 -12.216  1.00  0.00     0.047 C 
ATOM      5  C   UNL     1       2.308   9.765 -13.629  1.00  0.00     0.025 C 
ATOM      6  C   UNL     1       3.555  10.088 -14.446  1.00  0.00    -0.073 C 
ATOM      7  C   UNL     1       4.426   9.116 -14.768  1.00  0.00     0.008 C 
ATOM      8  C   UNL     1       3.793  11.493 -14.939  1.00  0.00     0.031 C 
ATOM      9  C   UNL     1       2.528  12.124 -15.554  1.00  0.00     0.005 C 
ATOM     10  C   UNL     1       1.187  11.563 -15.023  1.00  0.00     0.008 C 
ATOM     11  C   UNL     1       1.268  10.945 -13.601  1.00  0.00    -0.018 C 
ATOM     12  C   UNL     1       1.616  12.060 -12.562  1.00  0.00     0.088 C 
ATOM     13  C   UNL     1       2.153  11.520 -11.272  1.00  0.00     0.159 C 
ATOM     14  O   UNL     1       1.826  12.069 -10.185  1.00  0.00    -0.295 OA
ATOM     15  C   UNL     1      -0.133  10.382 -13.251  1.00  0.00     0.012 C 
ATOM     16  C   UNL     1       4.613  11.506  -9.669  1.00  0.00     0.039 C 
ENDROOT
TORSDOF 0
ENDMDL
MODEL 6
REMARK VINA RESULT:    -2.646      1.933      3.429
REMARK INTER + INTRA:          -2.646
REMARK INTER:                  -2.646
REMARK INTRA:                   0.000
REMARK UNBOUND:                 0.000
REMARK SMILES C=C1CCC[C@]2(C)CC(=O)C(=C(C)C)C[C@H]12
REMARK SMILES IDX 13 1 12 2 11 3 15 4 16 5 2 6 1 7 3 8 4 9 5 10 6 11 8 12 9 13
REMARK SMILES IDX 10 14 7 15 14 16
REMARK H PARENT
REMARK Flexibility Score: inf
ROOT
ATOM      1  C   UNL     1     -10.544  -0.239 -20.704  1.00  0.00     0.039 C 
ATOM      2  C   UNL     1     -11.381   0.292 -19.565  1.00  0.00    -0.070 C 
ATOM      3  C   UNL     1     -11.450   1.626 -19.295  1.00  0.00    -0.006 C 
ATOM      4  C   UNL     1     -10.702   2.671 -20.092  1.00  0.00     0.047 C 
ATOM      5  C   UNL     1      -9.941   3.657 -19.175  1.00  0.00     0.025 C 
ATOM      6  C   UNL     1      -8.664   3.038 -18.616  1.00  0.00    -0.073 C 
ATOM      7  C   UNL     1      -7.667   2.676 -19.442  1.00  0.00     0.008 C 
ATOM      8  C   UNL     1      -8.490   2.876 -17.127  1.00  0.00     0.031 C 
ATOM      9  C   UNL     1      -8.905   4.139 -16.344  1.00  0.00     0.005 C 
ATOM     10  C   UNL     1      -9.957   5.032 -17.044  1.00  0.00     0.008 C 
ATOM     11  C   UNL     1     -10.859   4.284 -18.062  1.00  0.00    -0.018 C 
ATOM     12  C   UNL     1     -11.738   3.232 -17.311  1.00  0.00     0.088 C 
ATOM     13  C   UNL     1     -12.293   2.173 -18.213  1.00  0.00     0.159 C 
ATOM     14  O   UNL     1     -13.462   1.742 -18.020  1.00  0.00    -0.295 OA
ATOM     15  C   UNL     1     -11.805   5.327 -18.710  1.00  0.00     0.012 C 
ATOM     16  C   UNL     1     -12.105  -0.716 -18.702  1.00  0.00     0.039 C 
ENDROOT
TORSDOF 0
ENDMDL
MODEL 7
REMARK VINA RESULT:    -2.594     15.422     16.814
REMARK INTER + INTRA:          -2.594
REMARK INTER:                  -2.594
REMARK INTRA:                   0.000
REMARK UNBOUND:                 0.000
REMARK SMILES C=C1CCC[C@]2(C)CC(=O)C(=C(C)C)C[C@H]12
REMARK SMILES IDX 13 1 12 2 11 3 15 4 16 5 2 6 1 7 3 8 4 9 5 10 6 11 8 12 9 13
REMARK SMILES IDX 10 14 7 15 14 16
REMARK H PARENT
REMARK Flexibility Score: inf
ROOT
ATOM      1  C   UNL     1       5.036   6.178 -14.311  1.00  0.00     0.039 C 
ATOM      2  C   UNL     1       4.487   7.013 -15.444  1.00  0.00    -0.070 C 
ATOM      3  C   UNL     1       4.532   8.374 -15.410  1.00  0.00    -0.006 C 
ATOM      4  C   UNL     1       5.117   9.154 -14.254  1.00  0.00     0.047 C 
ATOM      5  C   UNL     1       4.170  10.283 -13.785  1.00  0.00     0.025 C 
ATOM      6  C   UNL     1       3.013   9.741 -12.951  1.00  0.00    -0.073 C 
ATOM      7  C   UNL     1       3.249   9.134 -11.775  1.00  0.00     0.008 C 
ATOM      8  C   UNL     1       1.591   9.927 -13.419  1.00  0.00     0.031 C 
ATOM      9  C   UNL     1       1.317  11.362 -13.914  1.00  0.00     0.005 C 
ATOM     10  C   UNL     1       2.555  12.124 -14.444  1.00  0.00     0.008 C 
ATOM     11  C   UNL     1       3.697  11.210 -14.964  1.00  0.00    -0.018 C 
ATOM     12  C   UNL     1       3.208  10.421 -16.221  1.00  0.00     0.088 C 
ATOM     13  C   UNL     1       4.040   9.212 -16.522  1.00  0.00     0.159 C 
ATOM     14  O   UNL     1       4.285   8.909 -17.721  1.00  0.00    -0.295 OA
ATOM     15  C   UNL     1       4.872  12.123 -15.397  1.00  0.00     0.012 C 
ATOM     16  C   UNL     1       3.840   6.283 -16.599  1.00  0.00     0.039 C 
ENDROOT
TORSDOF 0
ENDMDL
MODEL 8
REMARK VINA RESULT:    -2.330      1.961      4.823
REMARK INTER + INTRA:          -2.330
REMARK INTER:                  -2.330
REMARK INTRA:                   0.000
REMARK UNBOUND:                 0.000
REMARK SMILES C=C1CCC[C@]2(C)CC(=O)C(=C(C)C)C[C@H]12
REMARK SMILES IDX 13 1 12 2 11 3 15 4 16 5 2 6 1 7 3 8 4 9 5 10 6 11 8 12 9 13
REMARK SMILES IDX 10 14 7 15 14 16
REMARK H PARENT
REMARK Flexibility Score: inf
ROOT
ATOM      1  C   UNL     1      -8.880   4.955 -19.635  1.00  0.00     0.039 C 
ATOM      2  C   UNL     1     -10.277   4.788 -19.087  1.00  0.00    -0.070 C 
ATOM      3  C   UNL     1     -10.618   3.710 -18.327  1.00  0.00    -0.006 C 
ATOM      4  C   UNL     1      -9.648   2.604 -17.978  1.00  0.00     0.047 C 
ATOM      5  C   UNL     1     -10.252   1.205 -18.246  1.00  0.00     0.025 C 
ATOM      6  C   UNL     1     -10.249   0.863 -19.732  1.00  0.00    -0.073 C 
ATOM      7  C   UNL     1      -9.087   0.744 -20.398  1.00  0.00     0.008 C 
ATOM      8  C   UNL     1     -11.548   0.605 -20.452  1.00  0.00     0.031 C 
ATOM      9  C   UNL     1     -12.491  -0.318 -19.654  1.00  0.00     0.005 C 
ATOM     10  C   UNL     1     -12.291  -0.297 -18.120  1.00  0.00     0.008 C 
ATOM     11  C   UNL     1     -11.660   1.012 -17.573  1.00  0.00    -0.018 C 
ATOM     12  C   UNL     1     -12.638   2.208 -17.815  1.00  0.00     0.088 C 
ATOM     13  C   UNL     1     -11.966   3.545 -17.746  1.00  0.00     0.159 C 
ATOM     14  O   UNL     1     -12.570   4.517 -17.219  1.00  0.00    -0.295 OA
ATOM     15  C   UNL     1     -11.476   0.843 -16.043  1.00  0.00     0.012 C 
ATOM     16  C   UNL     1     -11.300   5.838 -19.454  1.00  0.00     0.039 C 
ENDROOT
TORSDOF 0
ENDMDL
MODEL 9
REMARK VINA RESULT:    -1.991     15.974     17.690
REMARK INTER + INTRA:          -1.991
REMARK INTER:                  -1.991
REMARK INTRA:                   0.000
REMARK UNBOUND:                 0.000
REMARK SMILES C=C1CCC[C@]2(C)CC(=O)C(=C(C)C)C[C@H]12
REMARK SMILES IDX 13 1 12 2 11 3 15 4 16 5 2 6 1 7 3 8 4 9 5 10 6 11 8 12 9 13
REMARK SMILES IDX 10 14 7 15 14 16
REMARK H PARENT
REMARK Flexibility Score: inf
ROOT
ATOM      1  C   UNL     1       4.525   7.550 -15.478  1.00  0.00     0.039 C 
ATOM      2  C   UNL     1       3.926   8.934 -15.399  1.00  0.00    -0.070 C 
ATOM      3  C   UNL     1       4.193   9.765 -14.353  1.00  0.00    -0.006 C 
ATOM      4  C   UNL     1       5.089   9.379 -13.197  1.00  0.00     0.047 C 
ATOM      5  C   UNL     1       4.432   9.689 -11.832  1.00  0.00     0.025 C 
ATOM      6  C   UNL     1       3.367   8.658 -11.469  1.00  0.00    -0.073 C 
ATOM      7  C   UNL     1       3.707   7.372 -11.275  1.00  0.00     0.008 C 
ATOM      8  C   UNL     1       1.934   9.086 -11.277  1.00  0.00     0.031 C 
ATOM      9  C   UNL     1       1.810  10.362 -10.421  1.00  0.00     0.005 C 
ATOM     10  C   UNL     1       3.041  11.299 -10.452  1.00  0.00     0.008 C 
ATOM     11  C   UNL     1       3.914  11.171 -11.729  1.00  0.00    -0.018 C 
ATOM     12  C   UNL     1       3.091  11.633 -12.976  1.00  0.00     0.088 C 
ATOM     13  C   UNL     1       3.653  11.137 -14.273  1.00  0.00     0.159 C 
ATOM     14  O   UNL     1       3.633  11.887 -15.286  1.00  0.00    -0.295 OA
ATOM     15  C   UNL     1       5.125  12.125 -11.572  1.00  0.00     0.012 C 
ATOM     16  C   UNL     1       2.978   9.348 -16.501  1.00  0.00     0.039 C 
ENDROOT
TORSDOF 0
ENDMDL
