MODEL 1
REMARK VINA RESULT:    -3.759      0.000      0.000
REMARK INTER + INTRA:          -3.997
REMARK INTER:                  -4.638
REMARK INTRA:                   0.641
REMARK UNBOUND:                 0.641
REMARK SMILES C=C1[C@H]2CC[C@@H]3[C@H]2C(C)(C)CCC[C@]13C
REMARK SMILES IDX 14 1 6 2 7 3 3 4 2 5 1 6 4 7 5 8 15 9 8 10 9 11 10 12 11 13
REMARK SMILES IDX 13 15 12 16
REMARK H PARENT
REMARK Flexibility Score: 80.00
ROOT
ATOM      1  C   UNL     1     134.188 137.555 134.196  1.00  0.00    -0.008 C 
ATOM      2  C   UNL     1     133.759 136.232 133.449  1.00  0.00     0.003 C 
ATOM      3  C   UNL     1     132.729 135.571 134.387  1.00  0.00     0.006 C 
ATOM      4  C   UNL     1     131.875 136.834 134.503  1.00  0.00     0.019 C 
ATOM      5  C   UNL     1     132.893 137.865 134.904  1.00  0.00    -0.068 C 
ATOM      6  C   UNL     1     132.648 138.925 135.684  1.00  0.00     0.009 C 
ATOM      7  C   UNL     1     131.541 137.100 133.015  1.00  0.00     0.008 C 
ATOM      8  C   UNL     1     132.802 136.586 132.276  1.00  0.00     0.005 C 
ATOM      9  C   UNL     1     134.578 138.712 133.235  1.00  0.00     0.016 C 
ENDROOT
BRANCH   3  10
ATOM     10  C   UNL     1     133.219 134.823 135.701  1.00  0.00    -0.032 C 
ATOM     11  C   UNL     1     133.102 133.294 135.451  1.00  0.00     0.011 C 
ATOM     12  C   UNL     1     132.298 135.135 136.909  1.00  0.00     0.011 C 
BRANCH  10  13
ATOM     13  C   UNL     1     134.709 135.065 136.076  1.00  0.00     0.007 CG0
ATOM     14  G   UNL     1     135.086 136.504 136.416  1.00  0.00     0.000 G0
ENDBRANCH  10  13
ENDBRANCH   3  10
BRANCH   1  15
ATOM     15  C   UNL     1     135.380 137.338 135.166  1.00  0.00     0.011 C 
BRANCH  15  16
ATOM     16  C   UNL     1     135.087 136.498 136.406  1.00  0.00     0.001 CG0
ATOM     17  G   UNL     1     134.713 135.060 136.062  1.00  0.00     0.000 G0
ENDBRANCH  15  16
ENDBRANCH   1  15
TORSDOF 0
ENDMDL
MODEL 2
REMARK VINA RESULT:    -3.729      3.069      4.682
REMARK INTER + INTRA:          -3.961
REMARK INTER:                  -4.605
REMARK INTRA:                   0.644
REMARK UNBOUND:                 0.641
REMARK SMILES C=C1[C@H]2CC[C@@H]3[C@H]2C(C)(C)CCC[C@]13C
REMARK SMILES IDX 14 1 6 2 7 3 3 4 2 5 1 6 4 7 5 8 15 9 8 10 9 11 10 12 11 13
REMARK SMILES IDX 13 15 12 16
REMARK H PARENT
REMARK Flexibility Score: 80.00
ROOT
ATOM      1  C   UNL     1     135.046 134.186 134.067  1.00  0.00    -0.008 C 
ATOM      2  C   UNL     1     136.339 133.713 133.292  1.00  0.00     0.003 C 
ATOM      3  C   UNL     1     137.017 132.707 134.244  1.00  0.00     0.006 C 
ATOM      4  C   UNL     1     135.748 131.875 134.430  1.00  0.00     0.019 C 
ATOM      5  C   UNL     1     134.743 132.920 134.828  1.00  0.00    -0.068 C 
ATOM      6  C   UNL     1     133.707 132.717 135.651  1.00  0.00     0.009 C 
ATOM      7  C   UNL     1     135.429 131.494 132.964  1.00  0.00     0.008 C 
ATOM      8  C   UNL     1     135.934 132.722 132.165  1.00  0.00     0.005 C 
ATOM      9  C   UNL     1     133.863 134.559 133.131  1.00  0.00     0.016 C 
ENDROOT
BRANCH   3  10
ATOM     10  C   UNL     1     137.813 133.231 135.515  1.00  0.00    -0.032 C 
ATOM     11  C   UNL     1     139.332 133.079 135.222  1.00  0.00     0.011 C 
ATOM     12  C   UNL     1     137.526 132.360 136.765  1.00  0.00     0.011 C 
BRANCH  10  13
ATOM     13  C   UNL     1     137.607 134.738 135.842  1.00  0.00     0.007 CG0
ATOM     14  G   UNL     1     136.187 135.150 136.218  1.00  0.00     0.000 G0
ENDBRANCH  10  13
ENDBRANCH   3  10
BRANCH   1  15
ATOM     15  C   UNL     1     135.310 135.407 134.987  1.00  0.00     0.011 C 
BRANCH  15  16
ATOM     16  C   UNL     1     136.182 135.144 136.212  1.00  0.00     0.001 CG0
ATOM     17  G   UNL     1     137.606 134.743 135.839  1.00  0.00     0.000 G0
ENDBRANCH  15  16
ENDBRANCH   1  15
TORSDOF 0
ENDMDL
MODEL 3
REMARK VINA RESULT:    -3.729      4.485      6.674
REMARK INTER + INTRA:          -3.960
REMARK INTER:                  -4.592
REMARK INTRA:                   0.632
REMARK UNBOUND:                 0.641
REMARK SMILES C=C1[C@H]2CC[C@@H]3[C@H]2C(C)(C)CCC[C@]13C
REMARK SMILES IDX 14 1 6 2 7 3 3 4 2 5 1 6 4 7 5 8 15 9 8 10 9 11 10 12 11 13
REMARK SMILES IDX 13 15 12 16
REMARK H PARENT
REMARK Flexibility Score: 80.00
ROOT
ATOM      1  C   UNL     1     138.477 135.063 133.953  1.00  0.00    -0.008 C 
ATOM      2  C   UNL     1     139.062 136.343 133.237  1.00  0.00     0.003 C 
ATOM      3  C   UNL     1     140.023 136.964 134.271  1.00  0.00     0.006 C 
ATOM      4  C   UNL     1     140.783 135.657 134.497  1.00  0.00     0.019 C 
ATOM      5  C   UNL     1     139.669 134.694 134.801  1.00  0.00    -0.068 C 
ATOM      6  C   UNL     1     139.766 133.639 135.618  1.00  0.00     0.009 C 
ATOM      7  C   UNL     1     141.258 135.341 133.058  1.00  0.00     0.008 C 
ATOM      8  C   UNL     1     140.116 135.911 132.180  1.00  0.00     0.005 C 
ATOM      9  C   UNL     1     138.125 133.910 132.972  1.00  0.00     0.016 C 
ENDROOT
BRANCH   3  10
ATOM     10  C   UNL     1     139.439 137.765 135.513  1.00  0.00    -0.032 C 
ATOM     11  C   UNL     1     139.661 139.281 135.249  1.00  0.00     0.011 C 
ATOM     12  C   UNL     1     140.214 137.437 136.816  1.00  0.00     0.011 C 
BRANCH  10  13
ATOM     13  C   UNL     1     137.908 137.607 135.735  1.00  0.00     0.007 CG0
ATOM     14  G   UNL     1     137.423 136.196 136.051  1.00  0.00     0.000 G0
ENDBRANCH  10  13
ENDBRANCH   3  10
BRANCH   1  15
ATOM     15  C   UNL     1     137.203 135.367 134.785  1.00  0.00     0.011 C 
BRANCH  15  16
ATOM     16  C   UNL     1     137.414 136.199 136.047  1.00  0.00     0.001 CG0
ATOM     17  G   UNL     1     137.916 137.607 135.741  1.00  0.00     0.000 G0
ENDBRANCH  15  16
ENDBRANCH   1  15
TORSDOF 0
ENDMDL
MODEL 4
REMARK VINA RESULT:    -3.690      1.547      3.658
REMARK INTER + INTRA:          -3.912
REMARK INTER:                  -4.544
REMARK INTRA:                   0.632
REMARK UNBOUND:                 0.641
REMARK SMILES C=C1[C@H]2CC[C@@H]3[C@H]2C(C)(C)CCC[C@]13C
REMARK SMILES IDX 14 1 6 2 7 3 3 4 2 5 1 6 4 7 5 8 15 9 8 10 9 11 10 12 11 13
REMARK SMILES IDX 13 15 12 16
REMARK H PARENT
REMARK Flexibility Score: 80.00
ROOT
ATOM      1  C   UNL     1     134.282 134.651 135.065  1.00  0.00    -0.008 C 
ATOM      2  C   UNL     1     134.011 135.142 136.542  1.00  0.00     0.003 C 
ATOM      3  C   UNL     1     133.165 136.421 136.379  1.00  0.00     0.006 C 
ATOM      4  C   UNL     1     132.135 135.743 135.473  1.00  0.00     0.019 C 
ATOM      5  C   UNL     1     133.007 135.126 134.414  1.00  0.00    -0.068 C 
ATOM      6  C   UNL     1     132.656 134.953 133.134  1.00  0.00     0.009 C 
ATOM      7  C   UNL     1     131.661 134.585 136.383  1.00  0.00     0.008 C 
ATOM      8  C   UNL     1     132.931 134.238 137.199  1.00  0.00     0.005 C 
ATOM      9  C   UNL     1     134.419 133.109 134.939  1.00  0.00     0.016 C 
ENDROOT
BRANCH   3  10
ATOM     10  C   UNL     1     133.856 137.775 135.917  1.00  0.00    -0.032 C 
ATOM     11  C   UNL     1     133.970 138.700 137.161  1.00  0.00     0.011 C 
ATOM     12  C   UNL     1     132.980 138.540 134.891  1.00  0.00     0.011 C 
BRANCH  10  13
ATOM     13  C   UNL     1     135.309 137.621 135.385  1.00  0.00     0.007 CG0
ATOM     14  G   UNL     1     135.473 136.767 134.132  1.00  0.00     0.000 G0
ENDBRANCH  10  13
ENDBRANCH   3  10
BRANCH   1  15
ATOM     15  C   UNL     1     135.558 135.281 134.446  1.00  0.00     0.011 C 
BRANCH  15  16
ATOM     16  C   UNL     1     135.480 136.772 134.130  1.00  0.00     0.001 CG0
ATOM     17  G   UNL     1     135.314 137.627 135.383  1.00  0.00     0.000 G0
ENDBRANCH  15  16
ENDBRANCH   1  15
TORSDOF 0
ENDMDL
MODEL 5
REMARK VINA RESULT:    -3.682      3.011      4.689
REMARK INTER + INTRA:          -3.902
REMARK INTER:                  -4.536
REMARK INTRA:                   0.634
REMARK UNBOUND:                 0.641
REMARK SMILES C=C1[C@H]2CC[C@@H]3[C@H]2C(C)(C)CCC[C@]13C
REMARK SMILES IDX 14 1 6 2 7 3 3 4 2 5 1 6 4 7 5 8 15 9 8 10 9 11 10 12 11 13
REMARK SMILES IDX 13 15 12 16
REMARK H PARENT
REMARK Flexibility Score: 80.00
ROOT
ATOM      1  C   UNL     1     137.625 138.383 134.293  1.00  0.00    -0.008 C 
ATOM      2  C   UNL     1     136.305 138.870 133.576  1.00  0.00     0.003 C 
ATOM      3  C   UNL     1     135.653 139.844 134.579  1.00  0.00     0.006 C 
ATOM      4  C   UNL     1     136.923 140.679 134.747  1.00  0.00     0.019 C 
ATOM      5  C   UNL     1     137.947 139.629 135.080  1.00  0.00    -0.068 C 
ATOM      6  C   UNL     1     139.009 139.815 135.873  1.00  0.00     0.009 C 
ATOM      7  C   UNL     1     137.190 141.104 133.283  1.00  0.00     0.008 C 
ATOM      8  C   UNL     1     136.665 139.897 132.466  1.00  0.00     0.005 C 
ATOM      9  C   UNL     1     138.778 138.046 133.307  1.00  0.00     0.016 C 
ENDROOT
BRANCH   3  10
ATOM     10  C   UNL     1     134.903 139.277 135.860  1.00  0.00    -0.032 C 
ATOM     11  C   UNL     1     133.374 139.412 135.617  1.00  0.00     0.011 C 
ATOM     12  C   UNL     1     135.215 140.124 137.122  1.00  0.00     0.011 C 
BRANCH  10  13
ATOM     13  C   UNL     1     135.142 137.767 136.145  1.00  0.00     0.007 CG0
ATOM     14  G   UNL     1     136.583 137.365 136.444  1.00  0.00     0.000 G0
ENDBRANCH  10  13
ENDBRANCH   3  10
BRANCH   1  15
ATOM     15  C   UNL     1     137.400 137.134 135.185  1.00  0.00     0.011 C 
BRANCH  15  16
ATOM     16  C   UNL     1     136.573 137.357 136.449  1.00  0.00     0.001 CG0
ATOM     17  G   UNL     1     135.133 137.758 136.141  1.00  0.00     0.000 G0
ENDBRANCH  15  16
ENDBRANCH   1  15
TORSDOF 0
ENDMDL
MODEL 6
REMARK VINA RESULT:    -3.638      3.114      5.267
REMARK INTER + INTRA:          -3.849
REMARK INTER:                  -4.484
REMARK INTRA:                   0.635
REMARK UNBOUND:                 0.641
REMARK SMILES C=C1[C@H]2CC[C@@H]3[C@H]2C(C)(C)CCC[C@]13C
REMARK SMILES IDX 14 1 6 2 7 3 3 4 2 5 1 6 4 7 5 8 15 9 8 10 9 11 10 12 11 13
REMARK SMILES IDX 13 15 12 16
REMARK H PARENT
REMARK Flexibility Score: 80.00
ROOT
ATOM      1  C   UNL     1     137.984 134.332 135.107  1.00  0.00    -0.008 C 
ATOM      2  C   UNL     1     137.411 134.105 136.561  1.00  0.00     0.003 C 
ATOM      3  C   UNL     1     136.107 133.310 136.347  1.00  0.00     0.006 C 
ATOM      4  C   UNL     1     136.783 132.240 135.489  1.00  0.00     0.019 C 
ATOM      5  C   UNL     1     137.487 133.068 134.451  1.00  0.00    -0.068 C 
ATOM      6  C   UNL     1     137.708 132.690 133.186  1.00  0.00     0.009 C 
ATOM      7  C   UNL     1     137.875 131.732 136.462  1.00  0.00     0.008 C 
ATOM      8  C   UNL     1     138.235 132.999 137.277  1.00  0.00     0.005 C 
ATOM      9  C   UNL     1     139.535 134.403 135.056  1.00  0.00     0.016 C 
ENDROOT
BRANCH   3  10
ATOM     10  C   UNL     1     134.807 134.050 135.809  1.00  0.00    -0.032 C 
ATOM     11  C   UNL     1     133.825 134.214 137.003  1.00  0.00     0.011 C 
ATOM     12  C   UNL     1     134.061 133.193 134.753  1.00  0.00     0.011 C 
BRANCH  10  13
ATOM     13  C   UNL     1     135.046 135.490 135.273  1.00  0.00     0.007 CG0
ATOM     14  G   UNL     1     135.966 135.605 134.062  1.00  0.00     0.000 G0
ENDBRANCH  10  13
ENDBRANCH   3  10
BRANCH   1  15
ATOM     15  C   UNL     1     137.439 135.623 134.440  1.00  0.00     0.011 C 
BRANCH  15  16
ATOM     16  C   UNL     1     135.960 135.607 134.064  1.00  0.00     0.001 CG0
ATOM     17  G   UNL     1     135.049 135.492 135.282  1.00  0.00     0.000 G0
ENDBRANCH  15  16
ENDBRANCH   1  15
TORSDOF 0
ENDMDL
MODEL 7
REMARK VINA RESULT:    -3.635      2.837      4.839
REMARK INTER + INTRA:          -3.844
REMARK INTER:                  -4.477
REMARK INTRA:                   0.632
REMARK UNBOUND:                 0.641
REMARK SMILES C=C1[C@H]2CC[C@@H]3[C@H]2C(C)(C)CCC[C@]13C
REMARK SMILES IDX 14 1 6 2 7 3 3 4 2 5 1 6 4 7 5 8 15 9 8 10 9 11 10 12 11 13
REMARK SMILES IDX 13 15 12 16
REMARK H PARENT
REMARK Flexibility Score: 80.00
ROOT
ATOM      1  C   UNL     1     135.030 138.376 134.652  1.00  0.00    -0.008 C 
ATOM      2  C   UNL     1     135.216 138.478 136.217  1.00  0.00     0.003 C 
ATOM      3  C   UNL     1     136.453 139.379 136.405  1.00  0.00     0.006 C 
ATOM      4  C   UNL     1     135.904 140.490 135.508  1.00  0.00     0.019 C 
ATOM      5  C   UNL     1     135.548 139.736 134.257  1.00  0.00    -0.068 C 
ATOM      6  C   UNL     1     135.602 140.236 133.016  1.00  0.00     0.009 C 
ATOM      7  C   UNL     1     134.569 140.811 136.223  1.00  0.00     0.008 C 
ATOM      8  C   UNL     1     134.145 139.439 136.805  1.00  0.00     0.005 C 
ATOM      9  C   UNL     1     133.550 138.205 134.213  1.00  0.00     0.016 C 
ENDROOT
BRANCH   3  10
ATOM     10  C   UNL     1     137.907 138.795 136.140  1.00  0.00    -0.032 C 
ATOM     11  C   UNL     1     138.585 138.561 137.519  1.00  0.00     0.011 C 
ATOM     12  C   UNL     1     138.801 139.814 135.388  1.00  0.00     0.011 C 
BRANCH  10  13
ATOM     13  C   UNL     1     137.938 137.413 135.428  1.00  0.00     0.007 CG0
ATOM     14  G   UNL     1     137.353 137.376 134.019  1.00  0.00     0.000 G0
ENDBRANCH  10  13
ENDBRANCH   3  10
BRANCH   1  15
ATOM     15  C   UNL     1     135.836 137.206 134.026  1.00  0.00     0.011 C 
BRANCH  15  16
ATOM     16  C   UNL     1     137.353 137.371 134.018  1.00  0.00     0.001 CG0
ATOM     17  G   UNL     1     137.943 137.415 135.424  1.00  0.00     0.000 G0
ENDBRANCH  15  16
ENDBRANCH   1  15
TORSDOF 0
ENDMDL
MODEL 8
REMARK VINA RESULT:    -3.615      3.964      6.069
REMARK INTER + INTRA:          -3.820
REMARK INTER:                  -4.460
REMARK INTRA:                   0.640
REMARK UNBOUND:                 0.641
REMARK SMILES C=C1[C@H]2CC[C@@H]3[C@H]2C(C)(C)CCC[C@]13C
REMARK SMILES IDX 14 1 6 2 7 3 3 4 2 5 1 6 4 7 5 8 15 9 8 10 9 11 10 12 11 13
REMARK SMILES IDX 13 15 12 16
REMARK H PARENT
REMARK Flexibility Score: 80.00
ROOT
ATOM      1  C   UNL     1     138.018 137.679 135.747  1.00  0.00    -0.008 C 
ATOM      2  C   UNL     1     138.725 136.899 136.924  1.00  0.00     0.003 C 
ATOM      3  C   UNL     1     139.630 135.867 136.220  1.00  0.00     0.006 C 
ATOM      4  C   UNL     1     140.300 136.914 135.329  1.00  0.00     0.019 C 
ATOM      5  C   UNL     1     139.116 137.608 134.715  1.00  0.00    -0.068 C 
ATOM      6  C   UNL     1     139.090 138.146 133.490  1.00  0.00     0.009 C 
ATOM      7  C   UNL     1     140.873 137.881 136.393  1.00  0.00     0.008 C 
ATOM      8  C   UNL     1     139.838 137.790 137.542  1.00  0.00     0.005 C 
ATOM      9  C   UNL     1     137.687 139.157 136.093  1.00  0.00     0.016 C 
ENDROOT
BRANCH   3  10
ATOM     10  C   UNL     1     138.990 134.566 135.568  1.00  0.00    -0.032 C 
ATOM     11  C   UNL     1     139.318 133.360 136.492  1.00  0.00     0.011 C 
ATOM     12  C   UNL     1     139.634 134.243 134.194  1.00  0.00     0.011 C 
BRANCH  10  13
ATOM     13  C   UNL     1     137.440 134.586 135.452  1.00  0.00     0.007 CG0
ATOM     14  G   UNL     1     136.852 135.671 134.556  1.00  0.00     0.000 G0
ENDBRANCH  10  13
ENDBRANCH   3  10
BRANCH   1  15
ATOM     15  C   UNL     1     136.698 137.005 135.286  1.00  0.00     0.011 C 
BRANCH  15  16
ATOM     16  C   UNL     1     136.848 135.670 134.561  1.00  0.00     0.001 CG0
ATOM     17  G   UNL     1     137.444 134.585 135.453  1.00  0.00     0.000 G0
ENDBRANCH  15  16
ENDBRANCH   1  15
TORSDOF 0
ENDMDL
MODEL 9
REMARK VINA RESULT:    -3.594      3.205      5.489
REMARK INTER + INTRA:          -3.793
REMARK INTER:                  -4.425
REMARK INTRA:                   0.632
REMARK UNBOUND:                 0.641
REMARK SMILES C=C1[C@H]2CC[C@@H]3[C@H]2C(C)(C)CCC[C@]13C
REMARK SMILES IDX 14 1 6 2 7 3 3 4 2 5 1 6 4 7 5 8 15 9 8 10 9 11 10 12 11 13
REMARK SMILES IDX 13 15 12 16
REMARK H PARENT
REMARK Flexibility Score: 80.00
ROOT
ATOM      1  C   UNL     1     136.357 133.598 136.551  1.00  0.00    -0.008 C 
ATOM      2  C   UNL     1     136.767 132.232 135.872  1.00  0.00     0.003 C 
ATOM      3  C   UNL     1     137.079 132.602 134.408  1.00  0.00     0.006 C 
ATOM      4  C   UNL     1     138.048 133.721 134.792  1.00  0.00     0.019 C 
ATOM      5  C   UNL     1     137.222 134.537 135.747  1.00  0.00    -0.068 C 
ATOM      6  C   UNL     1     137.318 135.862 135.909  1.00  0.00     0.009 C 
ATOM      7  C   UNL     1     139.071 132.940 135.651  1.00  0.00     0.008 C 
ATOM      8  C   UNL     1     138.205 131.842 136.317  1.00  0.00     0.005 C 
ATOM      9  C   UNL     1     136.720 133.674 138.059  1.00  0.00     0.016 C 
ENDROOT
BRANCH   3  10
ATOM     10  C   UNL     1     135.890 132.897 133.395  1.00  0.00    -0.032 C 
ATOM     11  C   UNL     1     135.750 131.669 132.453  1.00  0.00     0.011 C 
ATOM     12  C   UNL     1     136.210 134.108 132.480  1.00  0.00     0.011 C 
BRANCH  10  13
ATOM     13  C   UNL     1     134.493 133.069 134.056  1.00  0.00     0.007 CG0
ATOM     14  G   UNL     1     134.351 134.243 135.020  1.00  0.00     0.000 G0
ENDBRANCH  10  13
ENDBRANCH   3  10
BRANCH   1  15
ATOM     15  C   UNL     1     134.840 133.901 136.424  1.00  0.00     0.011 C 
BRANCH  15  16
ATOM     16  C   UNL     1     134.343 134.240 135.021  1.00  0.00     0.001 CG0
ATOM     17  G   UNL     1     134.496 133.073 134.050  1.00  0.00     0.000 G0
ENDBRANCH  15  16
ENDBRANCH   1  15
TORSDOF 0
ENDMDL
