MODEL 1
REMARK VINA RESULT:    -4.090      0.000      0.000
REMARK INTER + INTRA:          -4.820
REMARK INTER:                  -4.687
REMARK INTRA:                  -0.133
REMARK UNBOUND:                -0.133
REMARK SMILES COc1cc(C(C)=O)ccc1O
REMARK SMILES IDX 5 1 4 2 3 3 11 4 10 5 9 6 6 7 7 8 8 9 2 10 1 11 12 12
REMARK H PARENT 12 13
REMARK Flexibility Score: inf
ROOT
ATOM      1  C   UNL     1      28.198  36.232  20.421  1.00  0.00     0.021 A 
ATOM      2  C   UNL     1      27.202  37.212  20.597  1.00  0.00     0.062 A 
ATOM      3  C   UNL     1      27.132  38.333  19.744  1.00  0.00     0.161 A 
ATOM      4  C   UNL     1      28.066  38.469  18.710  1.00  0.00     0.157 A 
ATOM      5  C   UNL     1      29.058  37.498  18.528  1.00  0.00     0.051 A 
ATOM      6  C   UNL     1      29.125  36.390  19.374  1.00  0.00     0.016 A 
ENDROOT
BRANCH   1   7
ATOM      7  C   UNL     1      28.255  35.056  21.332  1.00  0.00     0.159 C 
ATOM      8  C   UNL     1      28.750  33.717  20.869  1.00  0.00     0.093 C 
ATOM      9  O   UNL     1      27.881  35.172  22.530  1.00  0.00    -0.295 OA
ENDBRANCH   1   7
BRANCH   3  10
ATOM     10  O   UNL     1      26.152  39.327  19.894  1.00  0.00    -0.493 OA
ATOM     11  C   UNL     1      26.193  40.361  20.871  1.00  0.00     0.278 C 
ENDBRANCH   3  10
BRANCH   4  12
ATOM     12  O   UNL     1      28.001  39.575  17.864  1.00  0.00    -0.504 OA
ATOM     13  H   UNL     1      28.662  40.339  17.939  1.00  0.00     0.293 HD
ENDBRANCH   4  12
TORSDOF 3
ENDMDL
MODEL 2
REMARK VINA RESULT:    -3.964      2.555      5.233
REMARK INTER + INTRA:          -4.676
REMARK INTER:                  -4.544
REMARK INTRA:                  -0.132
REMARK UNBOUND:                -0.133
REMARK SMILES COc1cc(C(C)=O)ccc1O
REMARK SMILES IDX 5 1 4 2 3 3 11 4 10 5 9 6 6 7 7 8 8 9 2 10 1 11 12 12
REMARK H PARENT 12 13
REMARK Flexibility Score: inf
ROOT
ATOM      1  C   UNL     1      26.822  41.554  20.788  1.00  0.00     0.021 A 
ATOM      2  C   UNL     1      26.256  40.285  21.023  1.00  0.00     0.062 A 
ATOM      3  C   UNL     1      26.364  39.257  20.065  1.00  0.00     0.161 A 
ATOM      4  C   UNL     1      27.044  39.504  18.866  1.00  0.00     0.157 A 
ATOM      5  C   UNL     1      27.609  40.761  18.625  1.00  0.00     0.051 A 
ATOM      6  C   UNL     1      27.500  41.778  19.576  1.00  0.00     0.016 A 
ENDROOT
BRANCH   1   7
ATOM      7  C   UNL     1      26.698  42.627  21.813  1.00  0.00     0.159 C 
ATOM      8  C   UNL     1      26.844  44.078  21.463  1.00  0.00     0.093 C 
ATOM      9  O   UNL     1      26.461  42.322  23.013  1.00  0.00    -0.295 OA
ENDBRANCH   1   7
BRANCH   3  10
ATOM     10  O   UNL     1      25.812  37.983  20.269  1.00  0.00    -0.493 OA
ATOM     11  C   UNL     1      26.232  37.073  21.281  1.00  0.00     0.278 C 
ENDBRANCH   3  10
BRANCH   4  12
ATOM     12  O   UNL     1      27.154  38.490  17.915  1.00  0.00    -0.504 OA
ATOM     13  H   UNL     1      26.522  38.434  17.124  1.00  0.00     0.293 HD
ENDBRANCH   4  12
TORSDOF 3
ENDMDL
MODEL 3
REMARK VINA RESULT:    -3.938      2.600      3.178
REMARK INTER + INTRA:          -4.646
REMARK INTER:                  -4.534
REMARK INTRA:                  -0.113
REMARK UNBOUND:                -0.133
REMARK SMILES COc1cc(C(C)=O)ccc1O
REMARK SMILES IDX 5 1 4 2 3 3 11 4 10 5 9 6 6 7 7 8 8 9 2 10 1 11 12 12
REMARK H PARENT 12 13
REMARK Flexibility Score: inf
ROOT
ATOM      1  C   UNL     1      26.307  38.520  20.234  1.00  0.00     0.021 A 
ATOM      2  C   UNL     1      26.024  39.694  20.961  1.00  0.00     0.062 A 
ATOM      3  C   UNL     1      26.485  40.949  20.515  1.00  0.00     0.161 A 
ATOM      4  C   UNL     1      27.234  41.026  19.334  1.00  0.00     0.157 A 
ATOM      5  C   UNL     1      27.520  39.865  18.607  1.00  0.00     0.051 A 
ATOM      6  C   UNL     1      27.061  38.623  19.051  1.00  0.00     0.016 A 
ENDROOT
BRANCH   1   7
ATOM      7  C   UNL     1      25.810  37.205  20.721  1.00  0.00     0.159 C 
ATOM      8  C   UNL     1      24.363  36.973  21.044  1.00  0.00     0.093 C 
ATOM      9  O   UNL     1      26.616  36.247  20.871  1.00  0.00    -0.295 OA
ENDBRANCH   1   7
BRANCH   3  10
ATOM     10  O   UNL     1      26.220  42.136  21.215  1.00  0.00    -0.493 OA
ATOM     11  C   UNL     1      26.859  42.517  22.430  1.00  0.00     0.278 C 
ENDBRANCH   3  10
BRANCH   4  12
ATOM     12  O   UNL     1      27.694  42.265  18.889  1.00  0.00    -0.504 OA
ATOM     13  H   UNL     1      27.324  42.697  18.051  1.00  0.00     0.293 HD
ENDBRANCH   4  12
TORSDOF 3
ENDMDL
MODEL 4
REMARK VINA RESULT:    -3.920      2.651      5.868
REMARK INTER + INTRA:          -4.626
REMARK INTER:                  -4.507
REMARK INTRA:                  -0.120
REMARK UNBOUND:                -0.133
REMARK SMILES COc1cc(C(C)=O)ccc1O
REMARK SMILES IDX 5 1 4 2 3 3 11 4 10 5 9 6 6 7 7 8 8 9 2 10 1 11 12 12
REMARK H PARENT 12 13
REMARK Flexibility Score: inf
ROOT
ATOM      1  C   UNL     1      27.244  41.676  19.589  1.00  0.00     0.021 A 
ATOM      2  C   UNL     1      27.668  40.708  18.658  1.00  0.00     0.062 A 
ATOM      3  C   UNL     1      27.352  39.345  18.837  1.00  0.00     0.161 A 
ATOM      4  C   UNL     1      26.609  38.954  19.957  1.00  0.00     0.157 A 
ATOM      5  C   UNL     1      26.185  39.910  20.887  1.00  0.00     0.051 A 
ATOM      6  C   UNL     1      26.499  41.258  20.707  1.00  0.00     0.016 A 
ENDROOT
BRANCH   1   7
ATOM      7  C   UNL     1      27.587  43.109  19.382  1.00  0.00     0.159 C 
ATOM      8  C   UNL     1      26.552  44.125  18.997  1.00  0.00     0.093 C 
ATOM      9  O   UNL     1      28.778  43.497  19.531  1.00  0.00    -0.295 OA
ENDBRANCH   1   7
BRANCH   3  10
ATOM     10  O   UNL     1      27.759  38.357  17.927  1.00  0.00    -0.493 OA
ATOM     11  C   UNL     1      29.062  37.785  17.885  1.00  0.00     0.278 C 
ENDBRANCH   3  10
BRANCH   4  12
ATOM     12  O   UNL     1      26.294  37.608  20.140  1.00  0.00    -0.504 OA
ATOM     13  H   UNL     1      26.047  37.240  21.051  1.00  0.00     0.293 HD
ENDBRANCH   4  12
TORSDOF 3
ENDMDL
MODEL 5
REMARK VINA RESULT:    -3.913      2.736      4.092
REMARK INTER + INTRA:          -4.618
REMARK INTER:                  -4.496
REMARK INTRA:                  -0.122
REMARK UNBOUND:                -0.133
REMARK SMILES COc1cc(C(C)=O)ccc1O
REMARK SMILES IDX 5 1 4 2 3 3 11 4 10 5 9 6 6 7 7 8 8 9 2 10 1 11 12 12
REMARK H PARENT 12 13
REMARK Flexibility Score: inf
ROOT
ATOM      1  C   UNL     1      27.548  38.979  19.160  1.00  0.00     0.021 A 
ATOM      2  C   UNL     1      27.815  40.358  19.267  1.00  0.00     0.062 A 
ATOM      3  C   UNL     1      27.118  41.159  20.195  1.00  0.00     0.161 A 
ATOM      4  C   UNL     1      26.149  40.573  21.018  1.00  0.00     0.157 A 
ATOM      5  C   UNL     1      25.878  39.203  20.917  1.00  0.00     0.051 A 
ATOM      6  C   UNL     1      26.569  38.413  19.998  1.00  0.00     0.016 A 
ENDROOT
BRANCH   1   7
ATOM      7  C   UNL     1      28.294  38.150  18.174  1.00  0.00     0.159 C 
ATOM      8  C   UNL     1      29.125  36.973  18.595  1.00  0.00     0.093 C 
ATOM      9  O   UNL     1      28.235  38.431  16.947  1.00  0.00    -0.295 OA
ENDBRANCH   1   7
BRANCH   3  10
ATOM     10  O   UNL     1      27.361  42.535  20.326  1.00  0.00    -0.493 OA
ATOM     11  C   UNL     1      26.809  43.538  19.479  1.00  0.00     0.278 C 
ENDBRANCH   3  10
BRANCH   4  12
ATOM     12  O   UNL     1      25.457  41.360  21.937  1.00  0.00    -0.504 OA
ATOM     13  H   UNL     1      24.700  41.969  21.650  1.00  0.00     0.293 HD
ENDBRANCH   4  12
TORSDOF 3
ENDMDL
MODEL 6
REMARK VINA RESULT:    -3.899      1.761      2.080
REMARK INTER + INTRA:          -4.601
REMARK INTER:                  -4.505
REMARK INTRA:                  -0.096
REMARK UNBOUND:                -0.133
REMARK SMILES COc1cc(C(C)=O)ccc1O
REMARK SMILES IDX 5 1 4 2 3 3 11 4 10 5 9 6 6 7 7 8 8 9 2 10 1 11 12 12
REMARK H PARENT 12 13
REMARK Flexibility Score: inf
ROOT
ATOM      1  C   UNL     1      27.666  35.960  21.510  1.00  0.00     0.021 A 
ATOM      2  C   UNL     1      26.408  36.573  21.678  1.00  0.00     0.062 A 
ATOM      3  C   UNL     1      25.989  37.610  20.820  1.00  0.00     0.161 A 
ATOM      4  C   UNL     1      26.837  38.034  19.789  1.00  0.00     0.157 A 
ATOM      5  C   UNL     1      28.088  37.430  19.616  1.00  0.00     0.051 A 
ATOM      6  C   UNL     1      28.500  36.403  20.467  1.00  0.00     0.016 A 
ENDROOT
BRANCH   1   7
ATOM      7  C   UNL     1      28.089  34.865  22.426  1.00  0.00     0.159 C 
ATOM      8  C   UNL     1      28.106  35.041  23.916  1.00  0.00     0.093 C 
ATOM      9  O   UNL     1      28.445  33.753  21.951  1.00  0.00    -0.295 OA
ENDBRANCH   1   7
BRANCH   3  10
ATOM     10  O   UNL     1      24.743  38.241  20.961  1.00  0.00    -0.493 OA
ATOM     11  C   UNL     1      23.539  37.576  21.330  1.00  0.00     0.278 C 
ENDBRANCH   3  10
BRANCH   4  12
ATOM     12  O   UNL     1      26.429  39.059  18.938  1.00  0.00    -0.504 OA
ATOM     13  H   UNL     1      26.861  39.975  18.965  1.00  0.00     0.293 HD
ENDBRANCH   4  12
TORSDOF 3
ENDMDL
MODEL 7
REMARK VINA RESULT:    -3.894     12.489     13.266
REMARK INTER + INTRA:          -4.596
REMARK INTER:                  -4.483
REMARK INTRA:                  -0.114
REMARK UNBOUND:                -0.133
REMARK SMILES COc1cc(C(C)=O)ccc1O
REMARK SMILES IDX 5 1 4 2 3 3 11 4 10 5 9 6 6 7 7 8 8 9 2 10 1 11 12 12
REMARK H PARENT 12 13
REMARK Flexibility Score: inf
ROOT
ATOM      1  C   UNL     1      26.762  27.574  28.336  1.00  0.00     0.021 A 
ATOM      2  C   UNL     1      25.415  27.644  27.929  1.00  0.00     0.062 A 
ATOM      3  C   UNL     1      24.458  28.326  28.709  1.00  0.00     0.161 A 
ATOM      4  C   UNL     1      24.856  28.940  29.903  1.00  0.00     0.157 A 
ATOM      5  C   UNL     1      26.192  28.874  30.314  1.00  0.00     0.051 A 
ATOM      6  C   UNL     1      27.137  28.199  29.540  1.00  0.00     0.016 A 
ENDROOT
BRANCH   1   7
ATOM      7  C   UNL     1      27.757  26.850  27.499  1.00  0.00     0.159 C 
ATOM      8  C   UNL     1      27.624  26.764  26.007  1.00  0.00     0.093 C 
ATOM      9  O   UNL     1      28.745  26.289  28.044  1.00  0.00    -0.295 OA
ENDBRANCH   1   7
BRANCH   3  10
ATOM     10  O   UNL     1      23.109  28.414  28.330  1.00  0.00    -0.493 OA
ATOM     11  C   UNL     1      22.179  27.339  28.398  1.00  0.00     0.278 C 
ENDBRANCH   3  10
BRANCH   4  12
ATOM     12  O   UNL     1      23.915  29.615  30.678  1.00  0.00    -0.504 OA
ATOM     13  H   UNL     1      24.186  30.348  31.323  1.00  0.00     0.293 HD
ENDBRANCH   4  12
TORSDOF 3
ENDMDL
MODEL 8
REMARK VINA RESULT:    -3.835      2.679      4.902
REMARK INTER + INTRA:          -4.528
REMARK INTER:                  -4.413
REMARK INTRA:                  -0.115
REMARK UNBOUND:                -0.133
REMARK SMILES COc1cc(C(C)=O)ccc1O
REMARK SMILES IDX 5 1 4 2 3 3 11 4 10 5 9 6 6 7 7 8 8 9 2 10 1 11 12 12
REMARK H PARENT 12 13
REMARK Flexibility Score: inf
ROOT
ATOM      1  C   UNL     1      27.003  40.183  20.734  1.00  0.00     0.021 A 
ATOM      2  C   UNL     1      25.934  39.298  20.494  1.00  0.00     0.062 A 
ATOM      3  C   UNL     1      26.069  37.917  20.745  1.00  0.00     0.161 A 
ATOM      4  C   UNL     1      27.283  37.424  21.238  1.00  0.00     0.157 A 
ATOM      5  C   UNL     1      28.350  38.297  21.479  1.00  0.00     0.051 A 
ATOM      6  C   UNL     1      28.213  39.664  21.230  1.00  0.00     0.016 A 
ENDROOT
BRANCH   1   7
ATOM      7  C   UNL     1      26.840  41.638  20.464  1.00  0.00     0.159 C 
ATOM      8  C   UNL     1      27.465  42.297  19.269  1.00  0.00     0.093 C 
ATOM      9  O   UNL     1      26.159  42.350  21.251  1.00  0.00    -0.295 OA
ENDBRANCH   1   7
BRANCH   3  10
ATOM     10  O   UNL     1      25.023  37.009  20.516  1.00  0.00    -0.493 OA
ATOM     11  C   UNL     1      23.776  37.023  21.203  1.00  0.00     0.278 C 
ENDBRANCH   3  10
BRANCH   4  12
ATOM     12  O   UNL     1      27.423  36.059  21.488  1.00  0.00    -0.504 OA
ATOM     13  H   UNL     1      28.198  35.528  21.110  1.00  0.00     0.293 HD
ENDBRANCH   4  12
TORSDOF 3
ENDMDL
MODEL 9
REMARK VINA RESULT:    -3.806      9.742     12.567
REMARK INTER + INTRA:          -4.496
REMARK INTER:                  -4.384
REMARK INTRA:                  -0.112
REMARK UNBOUND:                -0.133
REMARK SMILES COc1cc(C(C)=O)ccc1O
REMARK SMILES IDX 5 1 4 2 3 3 11 4 10 5 9 6 6 7 7 8 8 9 2 10 1 11 12 12
REMARK H PARENT 12 13
REMARK Flexibility Score: inf
ROOT
ATOM      1  C   UNL     1      27.549  28.453  26.974  1.00  0.00     0.021 A 
ATOM      2  C   UNL     1      26.255  27.920  27.138  1.00  0.00     0.062 A 
ATOM      3  C   UNL     1      25.713  27.720  28.425  1.00  0.00     0.161 A 
ATOM      4  C   UNL     1      26.475  28.057  29.551  1.00  0.00     0.157 A 
ATOM      5  C   UNL     1      27.761  28.586  29.396  1.00  0.00     0.051 A 
ATOM      6  C   UNL     1      28.294  28.783  28.121  1.00  0.00     0.016 A 
ENDROOT
BRANCH   1   7
ATOM      7  C   UNL     1      28.103  28.657  25.608  1.00  0.00     0.159 C 
ATOM      8  C   UNL     1      27.615  29.756  24.710  1.00  0.00     0.093 C 
ATOM      9  O   UNL     1      29.010  27.893  25.179  1.00  0.00    -0.295 OA
ENDBRANCH   1   7
BRANCH   3  10
ATOM     10  O   UNL     1      24.428  27.191  28.621  1.00  0.00    -0.493 OA
ATOM     11  C   UNL     1      23.218  27.884  28.335  1.00  0.00     0.278 C 
ENDBRANCH   3  10
BRANCH   4  12
ATOM     12  O   UNL     1      25.944  27.861  30.825  1.00  0.00    -0.504 OA
ATOM     13  H   UNL     1      24.969  27.623  30.963  1.00  0.00     0.293 HD
ENDBRANCH   4  12
TORSDOF 3
ENDMDL
