MODEL 1
REMARK VINA RESULT:    -3.811      0.000      0.000
REMARK INTER + INTRA:          -4.323
REMARK INTER:                  -4.257
REMARK INTRA:                  -0.066
REMARK UNBOUND:                -0.066
REMARK SMILES COc1ccc(C(=O)[O-])cc1
REMARK SMILES IDX 6 1 5 2 10 3 4 4 11 5 3 6 7 7 8 8 9 9 2 10 1 11
REMARK H PARENT
REMARK Flexibility Score: inf
ROOT
ATOM      1  C   UNL     1      18.169  12.066   2.799  1.00  0.00    -0.003 A 
ATOM      2  C   UNL     1      18.247  10.810   3.424  1.00  0.00     0.014 A 
ATOM      3  C   UNL     1      17.719  12.139   1.469  1.00  0.00     0.014 A 
ATOM      4  C   UNL     1      17.881   9.652   2.732  1.00  0.00     0.047 A 
ATOM      5  C   UNL     1      17.354  10.979   0.778  1.00  0.00     0.047 A 
ATOM      6  C   UNL     1      17.434   9.723   1.408  1.00  0.00     0.118 A 
ENDROOT
BRANCH   1   7
ATOM      7  C   UNL     1      18.556  13.291   3.534  1.00  0.00     0.071 C 
ATOM      8  O   UNL     1      18.803  13.246   4.769  1.00  0.00    -0.545 OA
ATOM      9  O   UNL     1      18.652  14.509   2.872  1.00  0.00    -0.545 OA
ENDBRANCH   1   7
BRANCH   6  10
ATOM     10  O   UNL     1      17.080   8.531   0.758  1.00  0.00    -0.497 OA
ATOM     11  C   UNL     1      17.837   7.327   0.818  1.00  0.00     0.278 C 
ENDBRANCH   6  10
TORSDOF 2
ENDMDL
MODEL 2
REMARK VINA RESULT:    -3.808      0.092      1.462
REMARK INTER + INTRA:          -4.319
REMARK INTER:                  -4.256
REMARK INTRA:                  -0.062
REMARK UNBOUND:                -0.066
REMARK SMILES COc1ccc(C(=O)[O-])cc1
REMARK SMILES IDX 6 1 5 2 10 3 4 4 11 5 3 6 7 7 8 8 9 9 2 10 1 11
REMARK H PARENT
REMARK Flexibility Score: inf
ROOT
ATOM      1  C   UNL     1      18.160  12.053   2.813  1.00  0.00    -0.003 A 
ATOM      2  C   UNL     1      17.702  12.127   1.487  1.00  0.00     0.014 A 
ATOM      3  C   UNL     1      18.243  10.797   3.437  1.00  0.00     0.014 A 
ATOM      4  C   UNL     1      17.334  10.966   0.800  1.00  0.00     0.047 A 
ATOM      5  C   UNL     1      17.874   9.636   2.748  1.00  0.00     0.047 A 
ATOM      6  C   UNL     1      17.415   9.715   1.420  1.00  0.00     0.118 A 
ENDROOT
BRANCH   1   7
ATOM      7  C   UNL     1      18.549  13.283   3.537  1.00  0.00     0.071 C 
ATOM      8  O   UNL     1      18.798  13.249   4.772  1.00  0.00    -0.545 OA
ATOM      9  O   UNL     1      18.647  14.496   2.865  1.00  0.00    -0.545 OA
ENDBRANCH   1   7
BRANCH   6  10
ATOM     10  O   UNL     1      17.033   8.581   0.687  1.00  0.00    -0.497 OA
ATOM     11  C   UNL     1      17.828   7.408   0.549  1.00  0.00     0.278 C 
ENDBRANCH   6  10
TORSDOF 2
ENDMDL
MODEL 3
REMARK VINA RESULT:    -3.634      4.008      5.725
REMARK INTER + INTRA:          -4.125
REMARK INTER:                  -4.065
REMARK INTRA:                  -0.060
REMARK UNBOUND:                -0.066
REMARK SMILES COc1ccc(C(=O)[O-])cc1
REMARK SMILES IDX 6 1 5 2 10 3 4 4 11 5 3 6 7 7 8 8 9 9 2 10 1 11
REMARK H PARENT
REMARK Flexibility Score: inf
ROOT
ATOM      1  C   UNL     1      18.189   6.964   0.533  1.00  0.00    -0.003 A 
ATOM      2  C   UNL     1      17.599   8.031   1.232  1.00  0.00     0.014 A 
ATOM      3  C   UNL     1      18.275   7.032  -0.868  1.00  0.00     0.014 A 
ATOM      4  C   UNL     1      17.106   9.142   0.542  1.00  0.00     0.047 A 
ATOM      5  C   UNL     1      17.781   8.144  -1.557  1.00  0.00     0.047 A 
ATOM      6  C   UNL     1      17.191   9.210  -0.853  1.00  0.00     0.118 A 
ENDROOT
BRANCH   1   7
ATOM      7  C   UNL     1      18.711   5.789   1.266  1.00  0.00     0.071 C 
ATOM      8  O   UNL     1      19.488   5.939   2.247  1.00  0.00    -0.545 OA
ATOM      9  O   UNL     1      18.352   4.502   0.883  1.00  0.00    -0.545 OA
ENDBRANCH   1   7
BRANCH   6  10
ATOM     10  O   UNL     1      16.680  10.347  -1.498  1.00  0.00    -0.497 OA
ATOM     11  C   UNL     1      16.423  10.431  -2.895  1.00  0.00     0.278 C 
ENDBRANCH   6  10
TORSDOF 2
ENDMDL
MODEL 4
REMARK VINA RESULT:    -3.575      2.378      3.591
REMARK INTER + INTRA:          -4.059
REMARK INTER:                  -3.999
REMARK INTRA:                  -0.060
REMARK UNBOUND:                -0.066
REMARK SMILES COc1ccc(C(=O)[O-])cc1
REMARK SMILES IDX 6 1 5 2 10 3 4 4 11 5 3 6 7 7 8 8 9 9 2 10 1 11
REMARK H PARENT
REMARK Flexibility Score: inf
ROOT
ATOM      1  C   UNL     1      17.660   8.817   1.676  1.00  0.00    -0.003 A 
ATOM      2  C   UNL     1      18.106   7.674   2.362  1.00  0.00     0.014 A 
ATOM      3  C   UNL     1      17.397   8.725   0.299  1.00  0.00     0.014 A 
ATOM      4  C   UNL     1      18.284   6.466   1.683  1.00  0.00     0.047 A 
ATOM      5  C   UNL     1      17.575   7.514  -0.379  1.00  0.00     0.047 A 
ATOM      6  C   UNL     1      18.022   6.373   0.311  1.00  0.00     0.118 A 
ENDROOT
BRANCH   1   7
ATOM      7  C   UNL     1      17.473  10.095   2.397  1.00  0.00     0.071 C 
ATOM      8  O   UNL     1      16.435  10.297   3.083  1.00  0.00    -0.545 OA
ATOM      9  O   UNL     1      18.439  11.091   2.330  1.00  0.00    -0.545 OA
ENDBRANCH   1   7
BRANCH   6  10
ATOM     10  O   UNL     1      18.217   5.137  -0.323  1.00  0.00    -0.497 OA
ATOM     11  C   UNL     1      18.178   3.878   0.340  1.00  0.00     0.278 C 
ENDBRANCH   6  10
TORSDOF 2
ENDMDL
MODEL 5
REMARK VINA RESULT:    -3.571      2.460      6.260
REMARK INTER + INTRA:          -4.054
REMARK INTER:                  -3.991
REMARK INTRA:                  -0.063
REMARK UNBOUND:                -0.066
REMARK SMILES COc1ccc(C(=O)[O-])cc1
REMARK SMILES IDX 6 1 5 2 10 3 4 4 11 5 3 6 7 7 8 8 9 9 2 10 1 11
REMARK H PARENT
REMARK Flexibility Score: inf
ROOT
ATOM      1  C   UNL     1      17.758   6.259   0.362  1.00  0.00    -0.003 A 
ATOM      2  C   UNL     1      18.151   6.245   1.710  1.00  0.00     0.014 A 
ATOM      3  C   UNL     1      17.384   7.479  -0.227  1.00  0.00     0.014 A 
ATOM      4  C   UNL     1      18.171   7.429   2.454  1.00  0.00     0.047 A 
ATOM      5  C   UNL     1      17.405   8.663   0.519  1.00  0.00     0.047 A 
ATOM      6  C   UNL     1      17.799   8.644   1.869  1.00  0.00     0.118 A 
ENDROOT
BRANCH   1   7
ATOM      7  C   UNL     1      17.738   5.005  -0.423  1.00  0.00     0.071 C 
ATOM      8  O   UNL     1      18.461   4.028  -0.088  1.00  0.00    -0.545 OA
ATOM      9  O   UNL     1      16.922   4.885  -1.541  1.00  0.00    -0.545 OA
ENDBRANCH   1   7
BRANCH   6  10
ATOM     10  O   UNL     1      17.836   9.804   2.658  1.00  0.00    -0.497 OA
ATOM     11  C   UNL     1      18.186  11.096   2.174  1.00  0.00     0.278 C 
ENDBRANCH   6  10
TORSDOF 2
ENDMDL
MODEL 6
REMARK VINA RESULT:    -3.504      1.186      4.721
REMARK INTER + INTRA:          -3.980
REMARK INTER:                  -3.916
REMARK INTRA:                  -0.063
REMARK UNBOUND:                -0.066
REMARK SMILES COc1ccc(C(=O)[O-])cc1
REMARK SMILES IDX 6 1 5 2 10 3 4 4 11 5 3 6 7 7 8 8 9 9 2 10 1 11
REMARK H PARENT
REMARK Flexibility Score: inf
ROOT
ATOM      1  C   UNL     1      17.715   9.624   1.901  1.00  0.00    -0.003 A 
ATOM      2  C   UNL     1      18.086  10.192   3.132  1.00  0.00     0.014 A 
ATOM      3  C   UNL     1      17.322  10.471   0.851  1.00  0.00     0.014 A 
ATOM      4  C   UNL     1      18.063  11.579   3.306  1.00  0.00     0.047 A 
ATOM      5  C   UNL     1      17.300  11.858   1.027  1.00  0.00     0.047 A 
ATOM      6  C   UNL     1      17.671  12.423   2.262  1.00  0.00     0.118 A 
ENDROOT
BRANCH   1   7
ATOM      7  C   UNL     1      17.741   8.156   1.719  1.00  0.00     0.071 C 
ATOM      8  O   UNL     1      17.282   7.632   0.668  1.00  0.00    -0.545 OA
ATOM      9  O   UNL     1      18.271   7.332   2.705  1.00  0.00    -0.545 OA
ENDBRANCH   1   7
BRANCH   6  10
ATOM     10  O   UNL     1      17.666  13.807   2.488  1.00  0.00    -0.497 OA
ATOM     11  C   UNL     1      18.811  14.565   2.863  1.00  0.00     0.278 C 
ENDBRANCH   6  10
TORSDOF 2
ENDMDL
MODEL 7
REMARK VINA RESULT:    -3.466      0.981      4.831
REMARK INTER + INTRA:          -3.938
REMARK INTER:                  -3.873
REMARK INTRA:                  -0.064
REMARK UNBOUND:                -0.066
REMARK SMILES COc1ccc(C(=O)[O-])cc1
REMARK SMILES IDX 6 1 5 2 10 3 4 4 11 5 3 6 7 7 8 8 9 9 2 10 1 11
REMARK H PARENT
REMARK Flexibility Score: inf
ROOT
ATOM      1  C   UNL     1      17.407   9.480   1.167  1.00  0.00    -0.003 A 
ATOM      2  C   UNL     1      17.820   9.505   2.509  1.00  0.00     0.014 A 
ATOM      3  C   UNL     1      17.218  10.697   0.489  1.00  0.00     0.014 A 
ATOM      4  C   UNL     1      18.039  10.723   3.160  1.00  0.00     0.047 A 
ATOM      5  C   UNL     1      17.439  11.915   1.142  1.00  0.00     0.047 A 
ATOM      6  C   UNL     1      17.852  11.934   2.486  1.00  0.00     0.118 A 
ENDROOT
BRANCH   1   7
ATOM      7  C   UNL     1      17.175   8.190   0.481  1.00  0.00     0.071 C 
ATOM      8  O   UNL     1      16.070   7.949  -0.077  1.00  0.00    -0.545 OA
ATOM      9  O   UNL     1      18.173   7.223   0.441  1.00  0.00    -0.545 OA
ENDBRANCH   1   7
BRANCH   6  10
ATOM     10  O   UNL     1      18.085  13.129   3.184  1.00  0.00    -0.497 OA
ATOM     11  C   UNL     1      18.661  13.201   4.484  1.00  0.00     0.278 C 
ENDBRANCH   6  10
TORSDOF 2
ENDMDL
MODEL 8
REMARK VINA RESULT:    -3.449      3.195      4.585
REMARK INTER + INTRA:          -3.918
REMARK INTER:                  -3.861
REMARK INTRA:                  -0.058
REMARK UNBOUND:                -0.066
REMARK SMILES COc1ccc(C(=O)[O-])cc1
REMARK SMILES IDX 6 1 5 2 10 3 4 4 11 5 3 6 7 7 8 8 9 9 2 10 1 11
REMARK H PARENT
REMARK Flexibility Score: inf
ROOT
ATOM      1  C   UNL     1      17.415   8.915  -0.016  1.00  0.00    -0.003 A 
ATOM      2  C   UNL     1      17.746   8.113  -1.121  1.00  0.00     0.014 A 
ATOM      3  C   UNL     1      17.521   8.372   1.276  1.00  0.00     0.014 A 
ATOM      4  C   UNL     1      18.172   6.795  -0.936  1.00  0.00     0.047 A 
ATOM      5  C   UNL     1      17.948   7.053   1.459  1.00  0.00     0.047 A 
ATOM      6  C   UNL     1      18.277   6.253   0.350  1.00  0.00     0.118 A 
ENDROOT
BRANCH   1   7
ATOM      7  C   UNL     1      16.964  10.310  -0.215  1.00  0.00     0.071 C 
ATOM      8  O   UNL     1      16.154  10.597  -1.137  1.00  0.00    -0.545 OA
ATOM      9  O   UNL     1      17.428  11.326   0.612  1.00  0.00    -0.545 OA
ENDBRANCH   1   7
BRANCH   6  10
ATOM     10  O   UNL     1      18.710   4.925   0.481  1.00  0.00    -0.497 OA
ATOM     11  C   UNL     1      18.028   3.928   1.235  1.00  0.00     0.278 C 
ENDBRANCH   6  10
TORSDOF 2
ENDMDL
MODEL 9
REMARK VINA RESULT:    -3.386      2.248      4.648
REMARK INTER + INTRA:          -3.847
REMARK INTER:                  -3.779
REMARK INTRA:                  -0.069
REMARK UNBOUND:                -0.066
REMARK SMILES COc1ccc(C(=O)[O-])cc1
REMARK SMILES IDX 6 1 5 2 10 3 4 4 11 5 3 6 7 7 8 8 9 9 2 10 1 11
REMARK H PARENT
REMARK Flexibility Score: inf
ROOT
ATOM      1  C   UNL     1      17.855  12.230   2.650  1.00  0.00    -0.003 A 
ATOM      2  C   UNL     1      16.935  12.267   1.588  1.00  0.00     0.014 A 
ATOM      3  C   UNL     1      18.510  13.416   3.025  1.00  0.00     0.014 A 
ATOM      4  C   UNL     1      16.677  13.465   0.917  1.00  0.00     0.047 A 
ATOM      5  C   UNL     1      18.250  14.615   2.352  1.00  0.00     0.047 A 
ATOM      6  C   UNL     1      17.329  14.646   1.289  1.00  0.00     0.118 A 
ENDROOT
BRANCH   1   7
ATOM      7  C   UNL     1      18.126  10.960   3.359  1.00  0.00     0.071 C 
ATOM      8  O   UNL     1      18.486  10.965   4.567  1.00  0.00    -0.545 OA
ATOM      9  O   UNL     1      17.988   9.743   2.703  1.00  0.00    -0.545 OA
ENDBRANCH   1   7
BRANCH   6  10
ATOM     10  O   UNL     1      17.035  15.822   0.583  1.00  0.00    -0.497 OA
ATOM     11  C   UNL     1      16.113  15.901  -0.499  1.00  0.00     0.278 C 
ENDBRANCH   6  10
TORSDOF 2
ENDMDL
