MODEL 1
REMARK VINA RESULT:    -4.266      0.000      0.000
REMARK INTER + INTRA:          -4.266
REMARK INTER:                  -4.266
REMARK INTRA:                   0.000
REMARK UNBOUND:                 0.000
REMARK SMILES CC1=CC[C@H]2C[C@@H]1C2(C)C
REMARK SMILES IDX 1 1 2 2 3 3 4 4 5 5 6 6 7 7 8 8 9 9 10 10
REMARK H PARENT
REMARK Flexibility Score: inf
ROOT
ATOM      1  C   UNL     1     -60.534  19.426 -16.207  1.00  0.00     0.039 C 
ATOM      2  C   UNL     1     -59.525  18.491 -16.804  1.00  0.00    -0.074 C 
ATOM      3  C   UNL     1     -58.303  18.934 -17.221  1.00  0.00    -0.027 C 
ATOM      4  C   UNL     1     -57.324  17.924 -17.852  1.00  0.00     0.031 C 
ATOM      5  C   UNL     1     -57.957  16.489 -17.851  1.00  0.00    -0.000 C 
ATOM      6  C   UNL     1     -58.536  16.290 -16.435  1.00  0.00     0.013 C 
ATOM      7  C   UNL     1     -59.806  16.989 -16.959  1.00  0.00     0.021 C 
ATOM      8  C   UNL     1     -59.413  16.539 -18.392  1.00  0.00    -0.026 C 
ATOM      9  C   UNL     1     -59.734  17.489 -19.579  1.00  0.00     0.012 C 
ATOM     10  C   UNL     1     -59.958  15.129 -18.735  1.00  0.00     0.012 C 
ENDROOT
TORSDOF 0
ENDMDL
MODEL 2
REMARK VINA RESULT:    -4.126      0.927      3.204
REMARK INTER + INTRA:          -4.126
REMARK INTER:                  -4.126
REMARK INTRA:                   0.000
REMARK UNBOUND:                 0.000
REMARK SMILES CC1=CC[C@H]2C[C@@H]1C2(C)C
REMARK SMILES IDX 1 1 2 2 3 3 4 4 5 5 6 6 7 7 8 8 9 9 10 10
REMARK H PARENT
REMARK Flexibility Score: inf
ROOT
ATOM      1  C   UNL     1     -60.647  17.453 -20.125  1.00  0.00     0.039 C 
ATOM      2  C   UNL     1     -59.842  17.146 -18.898  1.00  0.00    -0.074 C 
ATOM      3  C   UNL     1     -60.238  16.192 -18.006  1.00  0.00    -0.027 C 
ATOM      4  C   UNL     1     -59.378  15.946 -16.751  1.00  0.00     0.031 C 
ATOM      5  C   UNL     1     -58.116  16.876 -16.774  1.00  0.00    -0.000 C 
ATOM      6  C   UNL     1     -57.536  16.757 -18.198  1.00  0.00     0.013 C 
ATOM      7  C   UNL     1     -58.524  17.873 -18.592  1.00  0.00     0.021 C 
ATOM      8  C   UNL     1     -58.526  18.337 -17.111  1.00  0.00    -0.026 C 
ATOM      9  C   UNL     1     -59.847  18.896 -16.514  1.00  0.00     0.012 C 
ATOM     10  C   UNL     1     -57.390  19.348 -16.810  1.00  0.00     0.012 C 
ENDROOT
TORSDOF 0
ENDMDL
MODEL 3
REMARK VINA RESULT:    -4.111      1.167      2.166
REMARK INTER + INTRA:          -4.111
REMARK INTER:                  -4.111
REMARK INTRA:                   0.000
REMARK UNBOUND:                 0.000
REMARK SMILES CC1=CC[C@H]2C[C@@H]1C2(C)C
REMARK SMILES IDX 1 1 2 2 3 3 4 4 5 5 6 6 7 7 8 8 9 9 10 10
REMARK H PARENT
REMARK Flexibility Score: inf
ROOT
ATOM      1  C   UNL     1     -61.628  16.312 -17.901  1.00  0.00     0.039 C 
ATOM      2  C   UNL     1     -60.314  16.941 -17.546  1.00  0.00    -0.074 C 
ATOM      3  C   UNL     1     -60.247  18.199 -17.018  1.00  0.00    -0.027 C 
ATOM      4  C   UNL     1     -58.862  18.797 -16.703  1.00  0.00     0.031 C 
ATOM      5  C   UNL     1     -57.738  17.756 -17.036  1.00  0.00    -0.000 C 
ATOM      6  C   UNL     1     -58.210  16.422 -16.424  1.00  0.00     0.013 C 
ATOM      7  C   UNL     1     -58.983  16.201 -17.739  1.00  0.00     0.021 C 
ATOM      8  C   UNL     1     -57.970  17.141 -18.444  1.00  0.00    -0.026 C 
ATOM      9  C   UNL     1     -58.487  18.064 -19.583  1.00  0.00     0.012 C 
ATOM     10  C   UNL     1     -56.723  16.380 -18.963  1.00  0.00     0.012 C 
ENDROOT
TORSDOF 0
ENDMDL
MODEL 4
REMARK VINA RESULT:    -4.015      0.888      2.693
REMARK INTER + INTRA:          -4.015
REMARK INTER:                  -4.015
REMARK INTRA:                   0.000
REMARK UNBOUND:                 0.000
REMARK SMILES CC1=CC[C@H]2C[C@@H]1C2(C)C
REMARK SMILES IDX 1 1 2 2 3 3 4 4 5 5 6 6 7 7 8 8 9 9 10 10
REMARK H PARENT
REMARK Flexibility Score: inf
ROOT
ATOM      1  C   UNL     1     -60.530  19.361 -16.226  1.00  0.00     0.039 C 
ATOM      2  C   UNL     1     -60.139  18.185 -17.069  1.00  0.00    -0.074 C 
ATOM      3  C   UNL     1     -60.986  17.132 -17.259  1.00  0.00    -0.027 C 
ATOM      4  C   UNL     1     -60.509  15.942 -18.115  1.00  0.00     0.031 C 
ATOM      5  C   UNL     1     -59.067  16.218 -18.664  1.00  0.00    -0.000 C 
ATOM      6  C   UNL     1     -59.099  17.659 -19.214  1.00  0.00     0.013 C 
ATOM      7  C   UNL     1     -58.777  18.113 -17.776  1.00  0.00     0.021 C 
ATOM      8  C   UNL     1     -58.140  16.721 -17.522  1.00  0.00    -0.026 C 
ATOM      9  C   UNL     1     -58.287  16.087 -16.111  1.00  0.00     0.012 C 
ATOM     10  C   UNL     1     -56.643  16.678 -17.922  1.00  0.00     0.012 C 
ENDROOT
TORSDOF 0
ENDMDL
MODEL 5
REMARK VINA RESULT:    -4.007      0.833      2.717
REMARK INTER + INTRA:          -4.007
REMARK INTER:                  -4.007
REMARK INTRA:                   0.000
REMARK UNBOUND:                 0.000
REMARK SMILES CC1=CC[C@H]2C[C@@H]1C2(C)C
REMARK SMILES IDX 1 1 2 2 3 3 4 4 5 5 6 6 7 7 8 8 9 9 10 10
REMARK H PARENT
REMARK Flexibility Score: inf
ROOT
ATOM      1  C   UNL     1     -56.618  18.527 -18.615  1.00  0.00     0.039 C 
ATOM      2  C   UNL     1     -57.997  18.225 -18.111  1.00  0.00    -0.074 C 
ATOM      3  C   UNL     1     -58.582  18.985 -17.140  1.00  0.00    -0.027 C 
ATOM      4  C   UNL     1     -59.991  18.602 -16.646  1.00  0.00     0.031 C 
ATOM      5  C   UNL     1     -60.520  17.358 -17.441  1.00  0.00    -0.000 C 
ATOM      6  C   UNL     1     -60.226  17.656 -18.925  1.00  0.00     0.013 C 
ATOM      7  C   UNL     1     -58.827  17.061 -18.671  1.00  0.00     0.021 C 
ATOM      8  C   UNL     1     -59.433  16.249 -17.495  1.00  0.00    -0.026 C 
ATOM      9  C   UNL     1     -58.554  16.006 -16.236  1.00  0.00     0.012 C 
ATOM     10  C   UNL     1     -60.009  14.886 -17.956  1.00  0.00     0.012 C 
ENDROOT
TORSDOF 0
ENDMDL
MODEL 6
REMARK VINA RESULT:    -3.927      1.279      2.375
REMARK INTER + INTRA:          -3.927
REMARK INTER:                  -3.927
REMARK INTRA:                   0.000
REMARK UNBOUND:                 0.000
REMARK SMILES CC1=CC[C@H]2C[C@@H]1C2(C)C
REMARK SMILES IDX 1 1 2 2 3 3 4 4 5 5 6 6 7 7 8 8 9 9 10 10
REMARK H PARENT
REMARK Flexibility Score: inf
ROOT
ATOM      1  C   UNL     1     -57.661  18.988 -20.124  1.00  0.00     0.039 C 
ATOM      2  C   UNL     1     -57.989  18.175 -18.908  1.00  0.00    -0.074 C 
ATOM      3  C   UNL     1     -57.016  17.539 -18.193  1.00  0.00    -0.027 C 
ATOM      4  C   UNL     1     -57.426  16.696 -16.969  1.00  0.00     0.031 C 
ATOM      5  C   UNL     1     -58.977  16.779 -16.754  1.00  0.00    -0.000 C 
ATOM      6  C   UNL     1     -59.335  18.274 -16.874  1.00  0.00     0.013 C 
ATOM      7  C   UNL     1     -59.429  18.033 -18.394  1.00  0.00     0.021 C 
ATOM      8  C   UNL     1     -59.722  16.538 -18.096  1.00  0.00    -0.026 C 
ATOM      9  C   UNL     1     -59.166  15.467 -19.075  1.00  0.00     0.012 C 
ATOM     10  C   UNL     1     -61.234  16.267 -17.885  1.00  0.00     0.012 C 
ENDROOT
TORSDOF 0
ENDMDL
MODEL 7
REMARK VINA RESULT:    -3.787     16.183     17.684
REMARK INTER + INTRA:          -3.787
REMARK INTER:                  -3.787
REMARK INTRA:                   0.000
REMARK UNBOUND:                 0.000
REMARK SMILES CC1=CC[C@H]2C[C@@H]1C2(C)C
REMARK SMILES IDX 1 1 2 2 3 3 4 4 5 5 6 6 7 7 8 8 9 9 10 10
REMARK H PARENT
REMARK Flexibility Score: inf
ROOT
ATOM      1  C   UNL     1     -54.372  11.529  -2.402  1.00  0.00     0.039 C 
ATOM      2  C   UNL     1     -53.341  12.488  -1.887  1.00  0.00    -0.074 C 
ATOM      3  C   UNL     1     -52.960  12.487  -0.576  1.00  0.00    -0.027 C 
ATOM      4  C   UNL     1     -51.914  13.518  -0.106  1.00  0.00     0.031 C 
ATOM      5  C   UNL     1     -51.439  14.391  -1.319  1.00  0.00    -0.000 C 
ATOM      6  C   UNL     1     -51.149  13.396  -2.461  1.00  0.00     0.013 C 
ATOM      7  C   UNL     1     -52.648  13.503  -2.807  1.00  0.00     0.021 C 
ATOM      8  C   UNL     1     -52.661  14.901  -2.132  1.00  0.00    -0.026 C 
ATOM      9  C   UNL     1     -53.938  15.336  -1.361  1.00  0.00     0.012 C 
ATOM     10  C   UNL     1     -52.278  16.034  -3.117  1.00  0.00     0.012 C 
ENDROOT
TORSDOF 0
ENDMDL
MODEL 8
REMARK VINA RESULT:    -3.732      1.286      2.201
REMARK INTER + INTRA:          -3.732
REMARK INTER:                  -3.732
REMARK INTRA:                   0.000
REMARK UNBOUND:                 0.000
REMARK SMILES CC1=CC[C@H]2C[C@@H]1C2(C)C
REMARK SMILES IDX 1 1 2 2 3 3 4 4 5 5 6 6 7 7 8 8 9 9 10 10
REMARK H PARENT
REMARK Flexibility Score: inf
ROOT
ATOM      1  C   UNL     1     -56.806  19.650 -16.614  1.00  0.00     0.039 C 
ATOM      2  C   UNL     1     -57.441  18.654 -17.539  1.00  0.00    -0.074 C 
ATOM      3  C   UNL     1     -57.811  18.997 -18.807  1.00  0.00    -0.027 C 
ATOM      4  C   UNL     1     -58.485  17.932 -19.696  1.00  0.00     0.031 C 
ATOM      5  C   UNL     1     -58.578  16.569 -18.926  1.00  0.00    -0.000 C 
ATOM      6  C   UNL     1     -57.186  16.349 -18.299  1.00  0.00     0.013 C 
ATOM      7  C   UNL     1     -57.689  17.199 -17.115  1.00  0.00     0.021 C 
ATOM      8  C   UNL     1     -59.138  16.794 -17.494  1.00  0.00    -0.026 C 
ATOM      9  C   UNL     1     -60.273  17.837 -17.294  1.00  0.00     0.012 C 
ATOM     10  C   UNL     1     -59.573  15.468 -16.821  1.00  0.00     0.012 C 
ENDROOT
TORSDOF 0
ENDMDL
MODEL 9
REMARK VINA RESULT:    -3.664      1.217      2.977
REMARK INTER + INTRA:          -3.664
REMARK INTER:                  -3.664
REMARK INTRA:                   0.000
REMARK UNBOUND:                 0.000
REMARK SMILES CC1=CC[C@H]2C[C@@H]1C2(C)C
REMARK SMILES IDX 1 1 2 2 3 3 4 4 5 5 6 6 7 7 8 8 9 9 10 10
REMARK H PARENT
REMARK Flexibility Score: inf
ROOT
ATOM      1  C   UNL     1     -60.667  16.006 -17.873  1.00  0.00     0.039 C 
ATOM      2  C   UNL     1     -59.578  17.012 -18.094  1.00  0.00    -0.074 C 
ATOM      3  C   UNL     1     -59.402  17.617 -19.305  1.00  0.00    -0.027 C 
ATOM      4  C   UNL     1     -58.245  18.622 -19.471  1.00  0.00     0.031 C 
ATOM      5  C   UNL     1     -57.478  18.788 -18.113  1.00  0.00    -0.000 C 
ATOM      6  C   UNL     1     -58.568  18.968 -17.038  1.00  0.00     0.013 C 
ATOM      7  C   UNL     1     -58.620  17.429 -16.968  1.00  0.00     0.021 C 
ATOM      8  C   UNL     1     -57.162  17.397 -17.497  1.00  0.00    -0.026 C 
ATOM      9  C   UNL     1     -56.745  16.239 -18.446  1.00  0.00     0.012 C 
ATOM     10  C   UNL     1     -56.119  17.487 -16.353  1.00  0.00     0.012 C 
ENDROOT
TORSDOF 0
ENDMDL
