MODEL 1
REMARK VINA RESULT:    -4.714      0.000      0.000
REMARK INTER + INTRA:         -10.758
REMARK INTER:                  -8.573
REMARK INTRA:                  -2.185
REMARK UNBOUND:                -2.185
REMARK SMILES CCCCCCCCCCCCCC[C@H](C)C(=O)[O-]
REMARK SMILES IDX 9 1 10 2 11 3 12 4 13 5 14 6 15 7 16 8 17 9 18 10 19 11 8 12
REMARK SMILES IDX 7 13 6 14 5 15 4 16 3 17 2 18 1 19
REMARK H PARENT
REMARK Flexibility Score: inf
ROOT
ATOM      1  C   UNL     1      26.400  15.600  -9.631  1.00  0.00     0.000 C 
ENDROOT
BRANCH   1   2
ATOM      2  C   UNL     1      24.939  15.800  -9.200  1.00  0.00     0.000 C 
BRANCH   2   3
ATOM      3  C   UNL     1      24.491  17.250  -9.445  1.00  0.00     0.000 C 
BRANCH   3   4
ATOM      4  C   UNL     1      23.992  17.481 -10.881  1.00  0.00     0.000 C 
BRANCH   4   5
ATOM      5  C   UNL     1      24.949  18.357 -11.705  1.00  0.00     0.001 C 
BRANCH   5   6
ATOM      6  C   UNL     1      25.258  17.783 -13.103  1.00  0.00     0.009 C 
BRANCH   6   7
ATOM      7  C   UNL     1      26.753  17.552 -13.447  1.00  0.00     0.032 C 
ATOM      8  C   UNL     1      27.686  17.829 -12.259  1.00  0.00     0.014 C 
BRANCH   7   9
ATOM      9  C   UNL     1      27.176  18.290 -14.694  1.00  0.00     0.044 C 
ATOM     10  O   UNL     1      26.416  19.163 -15.192  1.00  0.00    -0.550 OA
ATOM     11  O   UNL     1      28.383  18.006 -15.322  1.00  0.00    -0.550 OA
ENDBRANCH   7   9
ENDBRANCH   6   7
ENDBRANCH   5   6
ENDBRANCH   4   5
ENDBRANCH   3   4
ENDBRANCH   2   3
ENDBRANCH   1   2
BRANCH   1  12
ATOM     12  C   UNL     1      27.214  14.785  -8.614  1.00  0.00     0.000 C 
BRANCH  12  13
ATOM     13  C   UNL     1      28.637  14.472  -9.109  1.00  0.00    -0.000 C 
BRANCH  13  14
ATOM     14  C   UNL     1      28.750  14.509 -10.642  1.00  0.00    -0.000 C 
BRANCH  14  15
ATOM     15  C   UNL     1      28.711  13.106 -11.271  1.00  0.00    -0.000 C 
BRANCH  15  16
ATOM     16  C   UNL     1      27.331  12.760 -11.854  1.00  0.00    -0.000 C 
BRANCH  16  17
ATOM     17  C   UNL     1      27.259  12.973 -13.376  1.00  0.00    -0.000 C 
BRANCH  17  18
ATOM     18  C   UNL     1      25.970  13.688 -13.810  1.00  0.00    -0.003 C 
ATOM     19  C   UNL     1      25.057  14.026 -12.632  1.00  0.00     0.004 C 
ENDBRANCH  17  18
ENDBRANCH  16  17
ENDBRANCH  15  16
ENDBRANCH  14  15
ENDBRANCH  13  14
ENDBRANCH  12  13
ENDBRANCH   1  12
TORSDOF 14
ENDMDL
MODEL 2
REMARK VINA RESULT:    -4.645      3.020      5.490
REMARK INTER + INTRA:         -10.631
REMARK INTER:                  -7.867
REMARK INTRA:                  -2.764
REMARK UNBOUND:                -2.185
REMARK SMILES CCCCCCCCCCCCCC[C@H](C)C(=O)[O-]
REMARK SMILES IDX 9 1 10 2 11 3 12 4 13 5 14 6 15 7 16 8 17 9 18 10 19 11 8 12
REMARK SMILES IDX 7 13 6 14 5 15 4 16 3 17 2 18 1 19
REMARK H PARENT
REMARK Flexibility Score: inf
ROOT
ATOM      1  C   UNL     1      28.382  13.129 -10.083  1.00  0.00     0.000 C 
ENDROOT
BRANCH   1   2
ATOM      2  C   UNL     1      28.644  13.010 -11.592  1.00  0.00     0.000 C 
BRANCH   2   3
ATOM      3  C   UNL     1      27.392  12.506 -12.326  1.00  0.00     0.000 C 
BRANCH   3   4
ATOM      4  C   UNL     1      26.764  13.578 -13.232  1.00  0.00     0.000 C 
BRANCH   4   5
ATOM      5  C   UNL     1      25.349  13.975 -12.783  1.00  0.00     0.001 C 
BRANCH   5   6
ATOM      6  C   UNL     1      24.884  13.251 -11.502  1.00  0.00     0.009 C 
BRANCH   6   7
ATOM      7  C   UNL     1      24.333  14.142 -10.358  1.00  0.00     0.032 C 
ATOM      8  C   UNL     1      25.058  13.913  -9.024  1.00  0.00     0.014 C 
BRANCH   7   9
ATOM      9  C   UNL     1      22.834  14.039 -10.222  1.00  0.00     0.044 C 
ATOM     10  O   UNL     1      22.185  13.286 -10.995  1.00  0.00    -0.550 OA
ATOM     11  O   UNL     1      22.146  14.784  -9.269  1.00  0.00    -0.550 OA
ENDBRANCH   7   9
ENDBRANCH   6   7
ENDBRANCH   5   6
ENDBRANCH   4   5
ENDBRANCH   3   4
ENDBRANCH   2   3
ENDBRANCH   1   2
BRANCH   1  12
ATOM     12  C   UNL     1      28.777  14.503  -9.518  1.00  0.00     0.000 C 
BRANCH  12  13
ATOM     13  C   UNL     1      28.800  15.602 -10.595  1.00  0.00    -0.000 C 
BRANCH  13  14
ATOM     14  C   UNL     1      27.427  16.267 -10.789  1.00  0.00    -0.000 C 
BRANCH  14  15
ATOM     15  C   UNL     1      27.441  17.338 -11.893  1.00  0.00    -0.000 C 
BRANCH  15  16
ATOM     16  C   UNL     1      26.031  17.674 -12.406  1.00  0.00    -0.000 C 
BRANCH  16  17
ATOM     17  C   UNL     1      25.241  18.566 -11.432  1.00  0.00    -0.000 C 
BRANCH  17  18
ATOM     18  C   UNL     1      24.056  17.830 -10.788  1.00  0.00    -0.003 C 
ATOM     19  C   UNL     1      24.267  17.563  -9.298  1.00  0.00     0.004 C 
ENDBRANCH  17  18
ENDBRANCH  16  17
ENDBRANCH  15  16
ENDBRANCH  14  15
ENDBRANCH  13  14
ENDBRANCH  12  13
ENDBRANCH   1  12
TORSDOF 14
ENDMDL
MODEL 3
REMARK VINA RESULT:    -4.640      4.920      6.739
REMARK INTER + INTRA:         -10.623
REMARK INTER:                  -9.647
REMARK INTRA:                  -0.975
REMARK UNBOUND:                -2.185
REMARK SMILES CCCCCCCCCCCCCC[C@H](C)C(=O)[O-]
REMARK SMILES IDX 9 1 10 2 11 3 12 4 13 5 14 6 15 7 16 8 17 9 18 10 19 11 8 12
REMARK SMILES IDX 7 13 6 14 5 15 4 16 3 17 2 18 1 19
REMARK H PARENT
REMARK Flexibility Score: inf
ROOT
ATOM      1  C   UNL     1      24.702  17.309 -10.085  1.00  0.00     0.000 C 
ENDROOT
BRANCH   1   2
ATOM      2  C   UNL     1      23.880  17.197  -8.791  1.00  0.00     0.000 C 
BRANCH   2   3
ATOM      3  C   UNL     1      22.392  17.459  -9.066  1.00  0.00     0.000 C 
BRANCH   3   4
ATOM      4  C   UNL     1      21.467  16.615  -8.172  1.00  0.00     0.000 C 
BRANCH   4   5
ATOM      5  C   UNL     1      20.619  17.475  -7.221  1.00  0.00     0.001 C 
BRANCH   5   6
ATOM      6  C   UNL     1      21.456  18.433  -6.348  1.00  0.00     0.009 C 
BRANCH   6   7
ATOM      7  C   UNL     1      20.691  19.238  -5.265  1.00  0.00     0.032 C 
ATOM      8  C   UNL     1      19.848  18.343  -4.344  1.00  0.00     0.014 C 
BRANCH   7   9
ATOM      9  C   UNL     1      19.890  20.374  -5.852  1.00  0.00     0.044 C 
ATOM     10  O   UNL     1      20.485  21.348  -6.386  1.00  0.00    -0.550 OA
ATOM     11  O   UNL     1      18.501  20.379  -5.792  1.00  0.00    -0.550 OA
ENDBRANCH   7   9
ENDBRANCH   6   7
ENDBRANCH   5   6
ENDBRANCH   4   5
ENDBRANCH   3   4
ENDBRANCH   2   3
ENDBRANCH   1   2
BRANCH   1  12
ATOM     12  C   UNL     1      25.521  16.042 -10.380  1.00  0.00     0.000 C 
BRANCH  12  13
ATOM     13  C   UNL     1      25.927  15.288  -9.102  1.00  0.00    -0.000 C 
BRANCH  13  14
ATOM     14  C   UNL     1      27.452  15.175  -8.941  1.00  0.00    -0.000 C 
BRANCH  14  15
ATOM     15  C   UNL     1      28.201  15.365 -10.271  1.00  0.00    -0.000 C 
BRANCH  15  16
ATOM     16  C   UNL     1      29.266  14.281 -10.507  1.00  0.00    -0.000 C 
BRANCH  16  17
ATOM     17  C   UNL     1      28.666  12.957 -11.011  1.00  0.00    -0.000 C 
BRANCH  17  18
ATOM     18  C   UNL     1      27.345  13.161 -11.769  1.00  0.00    -0.003 C 
ATOM     19  C   UNL     1      27.445  12.772 -13.244  1.00  0.00     0.004 C 
ENDBRANCH  17  18
ENDBRANCH  16  17
ENDBRANCH  15  16
ENDBRANCH  14  15
ENDBRANCH  13  14
ENDBRANCH  12  13
ENDBRANCH   1  12
TORSDOF 14
ENDMDL
MODEL 4
REMARK VINA RESULT:    -4.616      1.357      3.551
REMARK INTER + INTRA:         -10.578
REMARK INTER:                  -8.018
REMARK INTRA:                  -2.560
REMARK UNBOUND:                -2.185
REMARK SMILES CCCCCCCCCCCCCC[C@H](C)C(=O)[O-]
REMARK SMILES IDX 9 1 10 2 11 3 12 4 13 5 14 6 15 7 16 8 17 9 18 10 19 11 8 12
REMARK SMILES IDX 7 13 6 14 5 15 4 16 3 17 2 18 1 19
REMARK H PARENT
REMARK Flexibility Score: inf
ROOT
ATOM      1  C   UNL     1      27.308  12.622 -11.765  1.00  0.00     0.000 C 
ENDROOT
BRANCH   1   2
ATOM      2  C   UNL     1      26.766  13.521 -12.887  1.00  0.00     0.000 C 
BRANCH   2   3
ATOM      3  C   UNL     1      25.266  13.791 -12.694  1.00  0.00     0.000 C 
BRANCH   3   4
ATOM      4  C   UNL     1      24.927  15.291 -12.714  1.00  0.00     0.000 C 
BRANCH   4   5
ATOM      5  C   UNL     1      25.976  16.124 -13.467  1.00  0.00     0.001 C 
BRANCH   5   6
ATOM      6  C   UNL     1      26.681  17.172 -12.581  1.00  0.00     0.009 C 
BRANCH   6   7
ATOM      7  C   UNL     1      25.970  18.541 -12.420  1.00  0.00     0.032 C 
ATOM      8  C   UNL     1      25.195  18.658 -11.099  1.00  0.00     0.014 C 
BRANCH   7   9
ATOM      9  C   UNL     1      25.120  18.891 -13.617  1.00  0.00     0.044 C 
ATOM     10  O   UNL     1      25.669  19.275 -14.684  1.00  0.00    -0.550 OA
ATOM     11  O   UNL     1      23.732  18.823 -13.557  1.00  0.00    -0.550 OA
ENDBRANCH   7   9
ENDBRANCH   6   7
ENDBRANCH   5   6
ENDBRANCH   4   5
ENDBRANCH   3   4
ENDBRANCH   2   3
ENDBRANCH   1   2
BRANCH   1  12
ATOM     12  C   UNL     1      28.692  13.065 -11.264  1.00  0.00     0.000 C 
BRANCH  12  13
ATOM     13  C   UNL     1      28.699  14.516 -10.752  1.00  0.00    -0.000 C 
BRANCH  13  14
ATOM     14  C   UNL     1      28.673  14.601  -9.217  1.00  0.00    -0.000 C 
BRANCH  14  15
ATOM     15  C   UNL     1      27.246  14.549  -8.646  1.00  0.00    -0.000 C 
BRANCH  15  16
ATOM     16  C   UNL     1      26.309  15.573  -9.308  1.00  0.00    -0.000 C 
BRANCH  16  17
ATOM     17  C   UNL     1      24.821  15.230  -9.113  1.00  0.00    -0.000 C 
BRANCH  17  18
ATOM     18  C   UNL     1      24.570  13.716  -9.047  1.00  0.00    -0.003 C 
ATOM     19  C   UNL     1      23.104  13.372  -8.783  1.00  0.00     0.004 C 
ENDBRANCH  17  18
ENDBRANCH  16  17
ENDBRANCH  15  16
ENDBRANCH  14  15
ENDBRANCH  13  14
ENDBRANCH  12  13
ENDBRANCH   1  12
TORSDOF 14
ENDMDL
MODEL 5
REMARK VINA RESULT:    -4.596      1.329      4.088
REMARK INTER + INTRA:         -10.543
REMARK INTER:                  -8.482
REMARK INTRA:                  -2.061
REMARK UNBOUND:                -2.185
REMARK SMILES CCCCCCCCCCCCCC[C@H](C)C(=O)[O-]
REMARK SMILES IDX 9 1 10 2 11 3 12 4 13 5 14 6 15 7 16 8 17 9 18 10 19 11 8 12
REMARK SMILES IDX 7 13 6 14 5 15 4 16 3 17 2 18 1 19
REMARK H PARENT
REMARK Flexibility Score: inf
ROOT
ATOM      1  C   UNL     1      28.717  13.002 -11.570  1.00  0.00     0.000 C 
ENDROOT
BRANCH   1   2
ATOM      2  C   UNL     1      27.257  12.786 -11.996  1.00  0.00     0.000 C 
BRANCH   2   3
ATOM      3  C   UNL     1      27.100  12.957 -13.515  1.00  0.00     0.000 C 
BRANCH   3   4
ATOM      4  C   UNL     1      25.680  13.387 -13.920  1.00  0.00     0.000 C 
BRANCH   4   5
ATOM      5  C   UNL     1      25.241  14.693 -13.239  1.00  0.00     0.001 C 
BRANCH   5   6
ATOM      6  C   UNL     1      26.118  15.906 -13.613  1.00  0.00     0.009 C 
BRANCH   6   7
ATOM      7  C   UNL     1      25.522  16.907 -14.638  1.00  0.00     0.032 C 
ATOM      8  C   UNL     1      24.025  16.678 -14.891  1.00  0.00     0.014 C 
BRANCH   7   9
ATOM      9  C   UNL     1      26.319  16.961 -15.918  1.00  0.00     0.044 C 
ATOM     10  O   UNL     1      26.143  17.913 -16.725  1.00  0.00    -0.550 OA
ATOM     11  O   UNL     1      27.231  15.962 -16.240  1.00  0.00    -0.550 OA
ENDBRANCH   7   9
ENDBRANCH   6   7
ENDBRANCH   5   6
ENDBRANCH   4   5
ENDBRANCH   3   4
ENDBRANCH   2   3
ENDBRANCH   1   2
BRANCH   1  12
ATOM     12  C   UNL     1      28.842  13.737 -10.226  1.00  0.00     0.000 C 
BRANCH  12  13
ATOM     13  C   UNL     1      27.594  13.569  -9.341  1.00  0.00    -0.000 C 
BRANCH  13  14
ATOM     14  C   UNL     1      27.071  14.908  -8.798  1.00  0.00    -0.000 C 
BRANCH  14  15
ATOM     15  C   UNL     1      26.309  15.719  -9.860  1.00  0.00    -0.000 C 
BRANCH  15  16
ATOM     16  C   UNL     1      24.852  15.998  -9.456  1.00  0.00    -0.000 C 
BRANCH  16  17
ATOM     17  C   UNL     1      24.469  17.482  -9.597  1.00  0.00    -0.000 C 
BRANCH  17  18
ATOM     18  C   UNL     1      24.402  17.936 -11.063  1.00  0.00    -0.003 C 
ATOM     19  C   UNL     1      25.394  19.054 -11.381  1.00  0.00     0.004 C 
ENDBRANCH  17  18
ENDBRANCH  16  17
ENDBRANCH  15  16
ENDBRANCH  14  15
ENDBRANCH  13  14
ENDBRANCH  12  13
ENDBRANCH   1  12
TORSDOF 14
ENDMDL
MODEL 6
REMARK VINA RESULT:    -4.587      3.007      5.532
REMARK INTER + INTRA:         -10.525
REMARK INTER:                  -8.355
REMARK INTRA:                  -2.170
REMARK UNBOUND:                -2.185
REMARK SMILES CCCCCCCCCCCCCC[C@H](C)C(=O)[O-]
REMARK SMILES IDX 9 1 10 2 11 3 12 4 13 5 14 6 15 7 16 8 17 9 18 10 19 11 8 12
REMARK SMILES IDX 7 13 6 14 5 15 4 16 3 17 2 18 1 19
REMARK H PARENT
REMARK Flexibility Score: inf
ROOT
ATOM      1  C   UNL     1      28.835  13.016 -11.407  1.00  0.00     0.000 C 
ENDROOT
BRANCH   1   2
ATOM      2  C   UNL     1      28.996  13.794 -10.092  1.00  0.00     0.000 C 
BRANCH   2   3
ATOM      3  C   UNL     1      28.103  15.044 -10.084  1.00  0.00     0.000 C 
BRANCH   3   4
ATOM      4  C   UNL     1      27.197  15.118  -8.843  1.00  0.00     0.000 C 
BRANCH   4   5
ATOM      5  C   UNL     1      25.788  15.635  -9.171  1.00  0.00     0.001 C 
BRANCH   5   6
ATOM      6  C   UNL     1      24.834  14.537  -9.687  1.00  0.00     0.009 C 
BRANCH   6   7
ATOM      7  C   UNL     1      23.513  14.334  -8.900  1.00  0.00     0.032 C 
ATOM      8  C   UNL     1      23.378  12.919  -8.319  1.00  0.00     0.014 C 
BRANCH   7   9
ATOM      9  C   UNL     1      22.300  14.746  -9.698  1.00  0.00     0.044 C 
ATOM     10  O   UNL     1      21.944  14.060 -10.693  1.00  0.00    -0.550 OA
ATOM     11  O   UNL     1      21.578  15.887  -9.370  1.00  0.00    -0.550 OA
ENDBRANCH   7   9
ENDBRANCH   6   7
ENDBRANCH   5   6
ENDBRANCH   4   5
ENDBRANCH   3   4
ENDBRANCH   2   3
ENDBRANCH   1   2
BRANCH   1  12
ATOM     12  C   UNL     1      27.365  12.718 -11.746  1.00  0.00     0.000 C 
BRANCH  12  13
ATOM     13  C   UNL     1      26.966  13.223 -13.143  1.00  0.00    -0.000 C 
BRANCH  13  14
ATOM     14  C   UNL     1      25.443  13.351 -13.311  1.00  0.00    -0.000 C 
BRANCH  14  15
ATOM     15  C   UNL     1      24.999  14.798 -13.587  1.00  0.00    -0.000 C 
BRANCH  15  16
ATOM     16  C   UNL     1      26.019  15.833 -13.086  1.00  0.00    -0.000 C 
BRANCH  16  17
ATOM     17  C   UNL     1      25.352  17.059 -12.436  1.00  0.00    -0.000 C 
BRANCH  17  18
ATOM     18  C   UNL     1      26.287  18.277 -12.380  1.00  0.00    -0.003 C 
ATOM     19  C   UNL     1      27.761  17.885 -12.274  1.00  0.00     0.004 C 
ENDBRANCH  17  18
ENDBRANCH  16  17
ENDBRANCH  15  16
ENDBRANCH  14  15
ENDBRANCH  13  14
ENDBRANCH  12  13
ENDBRANCH   1  12
TORSDOF 14
ENDMDL
MODEL 7
REMARK VINA RESULT:    -4.560      2.125      3.614
REMARK INTER + INTRA:         -10.478
REMARK INTER:                  -7.980
REMARK INTRA:                  -2.498
REMARK UNBOUND:                -2.185
REMARK SMILES CCCCCCCCCCCCCC[C@H](C)C(=O)[O-]
REMARK SMILES IDX 9 1 10 2 11 3 12 4 13 5 14 6 15 7 16 8 17 9 18 10 19 11 8 12
REMARK SMILES IDX 7 13 6 14 5 15 4 16 3 17 2 18 1 19
REMARK H PARENT
REMARK Flexibility Score: inf
ROOT
ATOM      1  C   UNL     1      25.693  16.360 -10.259  1.00  0.00     0.000 C 
ENDROOT
BRANCH   1   2
ATOM      2  C   UNL     1      24.867  17.651 -10.363  1.00  0.00     0.000 C 
BRANCH   2   3
ATOM      3  C   UNL     1      25.418  18.564 -11.470  1.00  0.00     0.000 C 
BRANCH   3   4
ATOM      4  C   UNL     1      26.700  18.009 -12.113  1.00  0.00     0.000 C 
BRANCH   4   5
ATOM      5  C   UNL     1      26.560  17.807 -13.630  1.00  0.00     0.001 C 
BRANCH   5   6
ATOM      6  C   UNL     1      25.146  18.116 -14.163  1.00  0.00     0.009 C 
BRANCH   6   7
ATOM      7  C   UNL     1      24.278  16.901 -14.584  1.00  0.00     0.032 C 
ATOM      8  C   UNL     1      24.305  16.647 -16.099  1.00  0.00     0.014 C 
BRANCH   7   9
ATOM      9  C   UNL     1      22.872  16.983 -14.041  1.00  0.00     0.044 C 
ATOM     10  O   UNL     1      21.951  17.457 -14.759  1.00  0.00    -0.550 OA
ATOM     11  O   UNL     1      22.577  16.568 -12.747  1.00  0.00    -0.550 OA
ENDBRANCH   7   9
ENDBRANCH   6   7
ENDBRANCH   5   6
ENDBRANCH   4   5
ENDBRANCH   3   4
ENDBRANCH   2   3
ENDBRANCH   1   2
BRANCH   1  12
ATOM     12  C   UNL     1      24.854  15.152  -9.812  1.00  0.00     0.000 C 
BRANCH  12  13
ATOM     13  C   UNL     1      24.894  13.996 -10.827  1.00  0.00    -0.000 C 
BRANCH  13  14
ATOM     14  C   UNL     1      25.339  14.453 -12.226  1.00  0.00    -0.000 C 
BRANCH  14  15
ATOM     15  C   UNL     1      26.602  13.721 -12.712  1.00  0.00    -0.000 C 
BRANCH  15  16
ATOM     16  C   UNL     1      27.150  12.736 -11.668  1.00  0.00    -0.000 C 
BRANCH  16  17
ATOM     17  C   UNL     1      28.610  13.032 -11.280  1.00  0.00    -0.000 C 
BRANCH  17  18
ATOM     18  C   UNL     1      28.718  13.908 -10.022  1.00  0.00    -0.003 C 
ATOM     19  C   UNL     1      29.063  15.362 -10.344  1.00  0.00     0.004 C 
ENDBRANCH  17  18
ENDBRANCH  16  17
ENDBRANCH  15  16
ENDBRANCH  14  15
ENDBRANCH  13  14
ENDBRANCH  12  13
ENDBRANCH   1  12
TORSDOF 14
ENDMDL
MODEL 8
REMARK VINA RESULT:    -4.558      1.287      3.005
REMARK INTER + INTRA:         -10.474
REMARK INTER:                  -8.387
REMARK INTRA:                  -2.087
REMARK UNBOUND:                -2.185
REMARK SMILES CCCCCCCCCCCCCC[C@H](C)C(=O)[O-]
REMARK SMILES IDX 9 1 10 2 11 3 12 4 13 5 14 6 15 7 16 8 17 9 18 10 19 11 8 12
REMARK SMILES IDX 7 13 6 14 5 15 4 16 3 17 2 18 1 19
REMARK H PARENT
REMARK Flexibility Score: inf
ROOT
ATOM      1  C   UNL     1      24.637  15.267 -10.091  1.00  0.00     0.000 C 
ENDROOT
BRANCH   1   2
ATOM      2  C   UNL     1      24.785  16.779  -9.863  1.00  0.00     0.000 C 
BRANCH   2   3
ATOM      3  C   UNL     1      24.539  17.555 -11.166  1.00  0.00     0.000 C 
BRANCH   3   4
ATOM      4  C   UNL     1      25.654  18.569 -11.472  1.00  0.00     0.000 C 
BRANCH   4   5
ATOM      5  C   UNL     1      26.834  17.939 -12.229  1.00  0.00     0.001 C 
BRANCH   5   6
ATOM      6  C   UNL     1      26.414  17.197 -13.514  1.00  0.00     0.009 C 
BRANCH   6   7
ATOM      7  C   UNL     1      26.876  17.814 -14.860  1.00  0.00     0.032 C 
ATOM      8  C   UNL     1      25.962  18.952 -15.337  1.00  0.00     0.014 C 
BRANCH   7   9
ATOM      9  C   UNL     1      27.097  16.770 -15.926  1.00  0.00     0.044 C 
ATOM     10  O   UNL     1      28.159  16.783 -16.604  1.00  0.00    -0.550 OA
ATOM     11  O   UNL     1      26.135  15.802 -16.194  1.00  0.00    -0.550 OA
ENDBRANCH   7   9
ENDBRANCH   6   7
ENDBRANCH   5   6
ENDBRANCH   4   5
ENDBRANCH   3   4
ENDBRANCH   2   3
ENDBRANCH   1   2
BRANCH   1  12
ATOM     12  C   UNL     1      24.299  14.916 -11.549  1.00  0.00     0.000 C 
BRANCH  12  13
ATOM     13  C   UNL     1      24.814  13.525 -11.957  1.00  0.00    -0.000 C 
BRANCH  13  14
ATOM     14  C   UNL     1      25.743  13.575 -13.182  1.00  0.00    -0.000 C 
BRANCH  14  15
ATOM     15  C   UNL     1      27.140  13.004 -12.887  1.00  0.00    -0.000 C 
BRANCH  15  16
ATOM     16  C   UNL     1      27.482  13.027 -11.389  1.00  0.00    -0.000 C 
BRANCH  16  17
ATOM     17  C   UNL     1      28.996  13.115 -11.125  1.00  0.00    -0.000 C 
BRANCH  17  18
ATOM     18  C   UNL     1      29.385  14.378 -10.342  1.00  0.00    -0.003 C 
ATOM     19  C   UNL     1      28.225  15.363 -10.197  1.00  0.00     0.004 C 
ENDBRANCH  17  18
ENDBRANCH  16  17
ENDBRANCH  15  16
ENDBRANCH  14  15
ENDBRANCH  13  14
ENDBRANCH  12  13
ENDBRANCH   1  12
TORSDOF 14
ENDMDL
MODEL 9
REMARK VINA RESULT:    -4.540      1.934      4.332
REMARK INTER + INTRA:         -10.441
REMARK INTER:                  -8.014
REMARK INTRA:                  -2.427
REMARK UNBOUND:                -2.185
REMARK SMILES CCCCCCCCCCCCCC[C@H](C)C(=O)[O-]
REMARK SMILES IDX 9 1 10 2 11 3 12 4 13 5 14 6 15 7 16 8 17 9 18 10 19 11 8 12
REMARK SMILES IDX 7 13 6 14 5 15 4 16 3 17 2 18 1 19
REMARK H PARENT
REMARK Flexibility Score: inf
ROOT
ATOM      1  C   UNL     1      28.817  14.015 -10.213  1.00  0.00     0.000 C 
ENDROOT
BRANCH   1   2
ATOM      2  C   UNL     1      28.720  12.994 -11.358  1.00  0.00     0.000 C 
BRANCH   2   3
ATOM      3  C   UNL     1      27.267  12.845 -11.834  1.00  0.00     0.000 C 
BRANCH   3   4
ATOM      4  C   UNL     1      27.138  12.883 -13.367  1.00  0.00     0.000 C 
BRANCH   4   5
ATOM      5  C   UNL     1      25.855  13.588 -13.834  1.00  0.00     0.001 C 
BRANCH   5   6
ATOM      6  C   UNL     1      25.080  14.275 -12.691  1.00  0.00     0.009 C 
BRANCH   6   7
ATOM      7  C   UNL     1      24.916  15.815 -12.787  1.00  0.00     0.032 C 
ATOM      8  C   UNL     1      23.919  16.241 -13.875  1.00  0.00     0.014 C 
BRANCH   7   9
ATOM      9  C   UNL     1      26.241  16.527 -12.911  1.00  0.00     0.044 C 
ATOM     10  O   UNL     1      27.052  16.512 -11.948  1.00  0.00    -0.550 OA
ATOM     11  O   UNL     1      26.575  17.225 -14.066  1.00  0.00    -0.550 OA
ENDBRANCH   7   9
ENDBRANCH   6   7
ENDBRANCH   5   6
ENDBRANCH   4   5
ENDBRANCH   3   4
ENDBRANCH   2   3
ENDBRANCH   1   2
BRANCH   1  12
ATOM     12  C   UNL     1      27.689  13.860  -9.180  1.00  0.00     0.000 C 
BRANCH  12  13
ATOM     13  C   UNL     1      26.949  15.181  -8.910  1.00  0.00    -0.000 C 
BRANCH  13  14
ATOM     14  C   UNL     1      25.429  15.057  -9.107  1.00  0.00    -0.000 C 
BRANCH  14  15
ATOM     15  C   UNL     1      24.939  13.602  -9.017  1.00  0.00    -0.000 C 
BRANCH  15  16
ATOM     16  C   UNL     1      23.436  13.504  -8.708  1.00  0.00    -0.000 C 
BRANCH  16  17
ATOM     17  C   UNL     1      22.670  14.790  -9.069  1.00  0.00    -0.000 C 
BRANCH  17  18
ATOM     18  C   UNL     1      21.992  14.705 -10.445  1.00  0.00    -0.003 C 
ATOM     19  C   UNL     1      21.591  16.075 -10.990  1.00  0.00     0.004 C 
ENDBRANCH  17  18
ENDBRANCH  16  17
ENDBRANCH  15  16
ENDBRANCH  14  15
ENDBRANCH  13  14
ENDBRANCH  12  13
ENDBRANCH   1  12
TORSDOF 14
ENDMDL
