MODEL 1
REMARK VINA RESULT:    -5.217      0.000      0.000
REMARK INTER + INTRA:          -5.217
REMARK INTER:                  -5.217
REMARK INTRA:                   0.000
REMARK UNBOUND:                 0.000
REMARK SMILES C=C1CCC[C@]2(C)CC(=O)C(=C(C)C)C[C@H]12
REMARK SMILES IDX 13 1 12 2 11 3 15 4 16 5 2 6 1 7 3 8 4 9 5 10 6 11 8 12 9 13
REMARK SMILES IDX 10 14 7 15 14 16
REMARK H PARENT
REMARK Flexibility Score: inf
ROOT
ATOM      1  C   UNL     1      -3.497 -39.341 220.716  1.00  0.00     0.039 C 
ATOM      2  C   UNL     1      -4.575 -39.154 219.674  1.00  0.00    -0.070 C 
ATOM      3  C   UNL     1      -4.395 -39.561 218.384  1.00  0.00    -0.006 C 
ATOM      4  C   UNL     1      -5.452 -39.350 217.318  1.00  0.00     0.047 C 
ATOM      5  C   UNL     1      -4.862 -39.074 215.911  1.00  0.00     0.025 C 
ATOM      6  C   UNL     1      -5.988 -39.122 214.892  1.00  0.00    -0.073 C 
ATOM      7  C   UNL     1      -6.566 -37.989 214.461  1.00  0.00     0.008 C 
ATOM      8  C   UNL     1      -6.552 -40.468 214.493  1.00  0.00     0.031 C 
ATOM      9  C   UNL     1      -5.439 -41.477 214.176  1.00  0.00     0.005 C 
ATOM     10  C   UNL     1      -4.321 -41.481 215.235  1.00  0.00     0.008 C 
ATOM     11  C   UNL     1      -3.727 -40.064 215.495  1.00  0.00    -0.018 C 
ATOM     12  C   UNL     1      -2.641 -40.136 216.601  1.00  0.00     0.088 C 
ATOM     13  C   UNL     1      -3.219 -40.356 217.961  1.00  0.00     0.159 C 
ATOM     14  O   UNL     1      -2.699 -41.213 218.725  1.00  0.00    -0.295 OA
ATOM     15  C   UNL     1      -3.026 -39.545 214.211  1.00  0.00     0.012 C 
ATOM     16  C   UNL     1      -5.846 -38.463 220.110  1.00  0.00     0.039 C 
ENDROOT
TORSDOF 0
ENDMDL
MODEL 2
REMARK VINA RESULT:    -5.198     12.595     14.433
REMARK INTER + INTRA:          -5.198
REMARK INTER:                  -5.198
REMARK INTRA:                   0.000
REMARK UNBOUND:                 0.000
REMARK SMILES C=C1CCC[C@]2(C)CC(=O)C(=C(C)C)C[C@H]12
REMARK SMILES IDX 13 1 12 2 11 3 15 4 16 5 2 6 1 7 3 8 4 9 5 10 6 11 8 12 9 13
REMARK SMILES IDX 10 14 7 15 14 16
REMARK H PARENT
REMARK Flexibility Score: inf
ROOT
ATOM      1  C   UNL     1     -13.600 -39.849 206.747  1.00  0.00     0.039 C 
ATOM      2  C   UNL     1     -14.120 -40.611 207.944  1.00  0.00    -0.070 C 
ATOM      3  C   UNL     1     -15.169 -40.147 208.682  1.00  0.00    -0.006 C 
ATOM      4  C   UNL     1     -15.681 -40.881 209.906  1.00  0.00     0.047 C 
ATOM      5  C   UNL     1     -16.204 -39.936 211.017  1.00  0.00     0.025 C 
ATOM      6  C   UNL     1     -16.907 -40.769 212.076  1.00  0.00    -0.073 C 
ATOM      7  C   UNL     1     -16.266 -41.125 213.200  1.00  0.00     0.008 C 
ATOM      8  C   UNL     1     -18.282 -41.324 211.771  1.00  0.00     0.031 C 
ATOM      9  C   UNL     1     -19.204 -40.254 211.169  1.00  0.00     0.005 C 
ATOM     10  C   UNL     1     -18.522 -39.442 210.052  1.00  0.00     0.008 C 
ATOM     11  C   UNL     1     -17.166 -38.819 210.498  1.00  0.00    -0.018 C 
ATOM     12  C   UNL     1     -16.515 -38.054 209.314  1.00  0.00     0.088 C 
ATOM     13  C   UNL     1     -15.970 -38.972 208.268  1.00  0.00     0.159 C 
ATOM     14  O   UNL     1     -16.201 -38.733 207.052  1.00  0.00    -0.295 OA
ATOM     15  C   UNL     1     -17.411 -37.776 211.622  1.00  0.00     0.012 C 
ATOM     16  C   UNL     1     -13.404 -41.890 208.314  1.00  0.00     0.039 C 
ENDROOT
TORSDOF 0
ENDMDL
MODEL 3
REMARK VINA RESULT:    -5.150     13.546     16.437
REMARK INTER + INTRA:          -5.150
REMARK INTER:                  -5.150
REMARK INTRA:                   0.000
REMARK UNBOUND:                 0.000
REMARK SMILES C=C1CCC[C@]2(C)CC(=O)C(=C(C)C)C[C@H]12
REMARK SMILES IDX 13 1 12 2 11 3 15 4 16 5 2 6 1 7 3 8 4 9 5 10 6 11 8 12 9 13
REMARK SMILES IDX 10 14 7 15 14 16
REMARK H PARENT
REMARK Flexibility Score: inf
ROOT
ATOM      1  C   UNL     1     -20.125 -36.657 205.876  1.00  0.00     0.039 C 
ATOM      2  C   UNL     1     -19.165 -36.456 207.026  1.00  0.00    -0.070 C 
ATOM      3  C   UNL     1     -18.801 -37.489 207.838  1.00  0.00    -0.006 C 
ATOM      4  C   UNL     1     -17.868 -37.298 209.017  1.00  0.00     0.047 C 
ATOM      5  C   UNL     1     -18.198 -38.217 210.221  1.00  0.00     0.025 C 
ATOM      6  C   UNL     1     -17.070 -38.118 211.235  1.00  0.00    -0.073 C 
ATOM      7  C   UNL     1     -17.180 -37.310 212.301  1.00  0.00     0.008 C 
ATOM      8  C   UNL     1     -15.762 -38.820 210.938  1.00  0.00     0.031 C 
ATOM      9  C   UNL     1     -15.989 -40.261 210.460  1.00  0.00     0.005 C 
ATOM     10  C   UNL     1     -17.089 -40.366 209.388  1.00  0.00     0.008 C 
ATOM     11  C   UNL     1     -18.431 -39.712 209.831  1.00  0.00    -0.018 C 
ATOM     12  C   UNL     1     -19.478 -39.815 208.689  1.00  0.00     0.088 C 
ATOM     13  C   UNL     1     -19.179 -38.892 207.552  1.00  0.00     0.159 C 
ATOM     14  O   UNL     1     -19.253 -39.322 206.369  1.00  0.00    -0.295 OA
ATOM     15  C   UNL     1     -19.017 -40.483 211.045  1.00  0.00     0.012 C 
ATOM     16  C   UNL     1     -18.655 -35.053 207.263  1.00  0.00     0.039 C 
ENDROOT
TORSDOF 0
ENDMDL
MODEL 4
REMARK VINA RESULT:    -4.994     12.773     15.203
REMARK INTER + INTRA:          -4.994
REMARK INTER:                  -4.994
REMARK INTRA:                   0.000
REMARK UNBOUND:                 0.000
REMARK SMILES C=C1CCC[C@]2(C)CC(=O)C(=C(C)C)C[C@H]12
REMARK SMILES IDX 13 1 12 2 11 3 15 4 16 5 2 6 1 7 3 8 4 9 5 10 6 11 8 12 9 13
REMARK SMILES IDX 10 14 7 15 14 16
REMARK H PARENT
REMARK Flexibility Score: inf
ROOT
ATOM      1  C   UNL     1     -16.386 -39.202 213.343  1.00  0.00     0.039 C 
ATOM      2  C   UNL     1     -16.902 -40.035 212.192  1.00  0.00    -0.070 C 
ATOM      3  C   UNL     1     -17.134 -39.487 210.965  1.00  0.00    -0.006 C 
ATOM      4  C   UNL     1     -17.684 -40.299 209.810  1.00  0.00     0.047 C 
ATOM      5  C   UNL     1     -18.618 -39.487 208.876  1.00  0.00     0.025 C 
ATOM      6  C   UNL     1     -18.911 -40.318 207.637  1.00  0.00    -0.073 C 
ATOM      7  C   UNL     1     -20.049 -41.024 207.543  1.00  0.00     0.008 C 
ATOM      8  C   UNL     1     -17.832 -40.464 206.586  1.00  0.00     0.031 C 
ATOM      9  C   UNL     1     -17.192 -39.112 206.240  1.00  0.00     0.005 C 
ATOM     10  C   UNL     1     -16.835 -38.286 207.489  1.00  0.00     0.008 C 
ATOM     11  C   UNL     1     -18.042 -38.097 208.456  1.00  0.00    -0.018 C 
ATOM     12  C   UNL     1     -17.600 -37.296 209.711  1.00  0.00     0.088 C 
ATOM     13  C   UNL     1     -16.739 -38.099 210.631  1.00  0.00     0.159 C 
ATOM     14  O   UNL     1     -15.691 -37.584 211.107  1.00  0.00    -0.295 OA
ATOM     15  C   UNL     1     -19.149 -37.261 207.759  1.00  0.00     0.012 C 
ATOM     16  C   UNL     1     -17.190 -41.493 212.468  1.00  0.00     0.039 C 
ENDROOT
TORSDOF 0
ENDMDL
MODEL 5
REMARK VINA RESULT:    -4.991      2.251      4.595
REMARK INTER + INTRA:          -4.991
REMARK INTER:                  -4.991
REMARK INTRA:                   0.000
REMARK UNBOUND:                 0.000
REMARK SMILES C=C1CCC[C@]2(C)CC(=O)C(=C(C)C)C[C@H]12
REMARK SMILES IDX 13 1 12 2 11 3 15 4 16 5 2 6 1 7 3 8 4 9 5 10 6 11 8 12 9 13
REMARK SMILES IDX 10 14 7 15 14 16
REMARK H PARENT
REMARK Flexibility Score: inf
ROOT
ATOM      1  C   UNL     1      -0.022 -40.293 214.107  1.00  0.00     0.039 C 
ATOM      2  C   UNL     1      -1.375 -40.673 213.553  1.00  0.00    -0.070 C 
ATOM      3  C   UNL     1      -2.529 -40.218 214.120  1.00  0.00    -0.006 C 
ATOM      4  C   UNL     1      -3.896 -40.617 213.599  1.00  0.00     0.047 C 
ATOM      5  C   UNL     1      -4.966 -40.747 214.713  1.00  0.00     0.025 C 
ATOM      6  C   UNL     1      -6.330 -40.908 214.062  1.00  0.00    -0.073 C 
ATOM      7  C   UNL     1      -6.876 -42.125 213.915  1.00  0.00     0.008 C 
ATOM      8  C   UNL     1      -6.988 -39.694 213.442  1.00  0.00     0.031 C 
ATOM      9  C   UNL     1      -6.931 -38.478 214.377  1.00  0.00     0.005 C 
ATOM     10  C   UNL     1      -5.537 -38.269 214.996  1.00  0.00     0.008 C 
ATOM     11  C   UNL     1      -4.993 -39.543 215.709  1.00  0.00    -0.018 C 
ATOM     12  C   UNL     1      -3.570 -39.274 216.269  1.00  0.00     0.088 C 
ATOM     13  C   UNL     1      -2.535 -39.197 215.193  1.00  0.00     0.159 C 
ATOM     14  O   UNL     1      -1.685 -38.266 215.216  1.00  0.00    -0.295 OA
ATOM     15  C   UNL     1      -5.894 -39.890 216.924  1.00  0.00     0.012 C 
ATOM     16  C   UNL     1      -1.399 -41.612 212.369  1.00  0.00     0.039 C 
ENDROOT
TORSDOF 0
ENDMDL
MODEL 6
REMARK VINA RESULT:    -4.949      2.559      5.099
REMARK INTER + INTRA:          -4.949
REMARK INTER:                  -4.949
REMARK INTRA:                   0.000
REMARK UNBOUND:                 0.000
REMARK SMILES C=C1CCC[C@]2(C)CC(=O)C(=C(C)C)C[C@H]12
REMARK SMILES IDX 13 1 12 2 11 3 15 4 16 5 2 6 1 7 3 8 4 9 5 10 6 11 8 12 9 13
REMARK SMILES IDX 10 14 7 15 14 16
REMARK H PARENT
REMARK Flexibility Score: inf
ROOT
ATOM      1  C   UNL     1      -1.967 -40.990 211.502  1.00  0.00     0.039 C 
ATOM      2  C   UNL     1      -2.204 -40.663 212.959  1.00  0.00    -0.070 C 
ATOM      3  C   UNL     1      -3.457 -40.674 213.496  1.00  0.00    -0.006 C 
ATOM      4  C   UNL     1      -3.717 -40.315 214.946  1.00  0.00     0.047 C 
ATOM      5  C   UNL     1      -5.069 -39.590 215.169  1.00  0.00     0.025 C 
ATOM      6  C   UNL     1      -5.333 -39.499 216.663  1.00  0.00    -0.073 C 
ATOM      7  C   UNL     1      -5.046 -38.376 217.339  1.00  0.00     0.008 C 
ATOM      8  C   UNL     1      -5.772 -40.745 217.401  1.00  0.00     0.031 C 
ATOM      9  C   UNL     1      -6.898 -41.478 216.657  1.00  0.00     0.005 C 
ATOM     10  C   UNL     1      -6.613 -41.629 215.151  1.00  0.00     0.008 C 
ATOM     11  C   UNL     1      -6.280 -40.275 214.458  1.00  0.00    -0.018 C 
ATOM     12  C   UNL     1      -5.962 -40.508 212.956  1.00  0.00     0.088 C 
ATOM     13  C   UNL     1      -4.636 -41.165 212.745  1.00  0.00     0.159 C 
ATOM     14  O   UNL     1      -4.542 -42.125 211.934  1.00  0.00    -0.295 OA
ATOM     15  C   UNL     1      -7.516 -39.337 214.513  1.00  0.00     0.012 C 
ATOM     16  C   UNL     1      -0.997 -40.287 213.788  1.00  0.00     0.039 C 
ENDROOT
TORSDOF 0
ENDMDL
MODEL 7
REMARK VINA RESULT:    -4.876     13.071     15.394
REMARK INTER + INTRA:          -4.876
REMARK INTER:                  -4.876
REMARK INTRA:                   0.000
REMARK UNBOUND:                 0.000
REMARK SMILES C=C1CCC[C@]2(C)CC(=O)C(=C(C)C)C[C@H]12
REMARK SMILES IDX 13 1 12 2 11 3 15 4 16 5 2 6 1 7 3 8 4 9 5 10 6 11 8 12 9 13
REMARK SMILES IDX 10 14 7 15 14 16
REMARK H PARENT
REMARK Flexibility Score: inf
ROOT
ATOM      1  C   UNL     1     -16.295 -39.618 212.990  1.00  0.00     0.039 C 
ATOM      2  C   UNL     1     -17.098 -38.646 212.156  1.00  0.00    -0.070 C 
ATOM      3  C   UNL     1     -17.415 -38.917 210.857  1.00  0.00    -0.006 C 
ATOM      4  C   UNL     1     -18.189 -37.939 209.996  1.00  0.00     0.047 C 
ATOM      5  C   UNL     1     -17.765 -37.961 208.505  1.00  0.00     0.025 C 
ATOM      6  C   UNL     1     -18.756 -37.134 207.703  1.00  0.00    -0.073 C 
ATOM      7  C   UNL     1     -18.476 -35.862 207.376  1.00  0.00     0.008 C 
ATOM      8  C   UNL     1     -20.125 -37.713 207.419  1.00  0.00     0.031 C 
ATOM      9  C   UNL     1     -20.034 -39.160 206.914  1.00  0.00     0.005 C 
ATOM     10  C   UNL     1     -19.078 -40.024 207.756  1.00  0.00     0.008 C 
ATOM     11  C   UNL     1     -17.660 -39.397 207.898  1.00  0.00    -0.018 C 
ATOM     12  C   UNL     1     -16.765 -40.297 208.792  1.00  0.00     0.088 C 
ATOM     13  C   UNL     1     -17.149 -40.235 210.236  1.00  0.00     0.159 C 
ATOM     14  O   UNL     1     -17.242 -41.302 210.899  1.00  0.00    -0.295 OA
ATOM     15  C   UNL     1     -16.974 -39.327 206.507  1.00  0.00     0.012 C 
ATOM     16  C   UNL     1     -17.500 -37.344 212.808  1.00  0.00     0.039 C 
ENDROOT
TORSDOF 0
ENDMDL
MODEL 8
REMARK VINA RESULT:    -4.825      1.823      3.430
REMARK INTER + INTRA:          -4.825
REMARK INTER:                  -4.825
REMARK INTRA:                   0.000
REMARK UNBOUND:                 0.000
REMARK SMILES C=C1CCC[C@]2(C)CC(=O)C(=C(C)C)C[C@H]12
REMARK SMILES IDX 13 1 12 2 11 3 15 4 16 5 2 6 1 7 3 8 4 9 5 10 6 11 8 12 9 13
REMARK SMILES IDX 10 14 7 15 14 16
REMARK H PARENT
REMARK Flexibility Score: inf
ROOT
ATOM      1  C   UNL     1      -5.489 -39.501 222.234  1.00  0.00     0.039 C 
ATOM      2  C   UNL     1      -4.420 -39.489 221.166  1.00  0.00    -0.070 C 
ATOM      3  C   UNL     1      -4.738 -39.562 219.841  1.00  0.00    -0.006 C 
ATOM      4  C   UNL     1      -3.677 -39.586 218.758  1.00  0.00     0.047 C 
ATOM      5  C   UNL     1      -4.066 -40.454 217.534  1.00  0.00     0.025 C 
ATOM      6  C   UNL     1      -3.056 -40.213 216.424  1.00  0.00    -0.073 C 
ATOM      7  C   UNL     1      -2.037 -41.065 216.233  1.00  0.00     0.008 C 
ATOM      8  C   UNL     1      -3.127 -38.917 215.646  1.00  0.00     0.031 C 
ATOM      9  C   UNL     1      -4.562 -38.599 215.203  1.00  0.00     0.005 C 
ATOM     10  C   UNL     1      -5.587 -38.782 216.337  1.00  0.00     0.008 C 
ATOM     11  C   UNL     1      -5.511 -40.188 217.003  1.00  0.00    -0.018 C 
ATOM     12  C   UNL     1      -6.539 -40.286 218.162  1.00  0.00     0.088 C 
ATOM     13  C   UNL     1      -6.135 -39.484 219.357  1.00  0.00     0.159 C 
ATOM     14  O   UNL     1      -6.988 -38.756 219.932  1.00  0.00    -0.295 OA
ATOM     15  C   UNL     1      -5.897 -41.281 215.970  1.00  0.00     0.012 C 
ATOM     16  C   UNL     1      -2.982 -39.434 221.627  1.00  0.00     0.039 C 
ENDROOT
TORSDOF 0
ENDMDL
MODEL 9
REMARK VINA RESULT:    -4.610      2.022      4.054
REMARK INTER + INTRA:          -4.610
REMARK INTER:                  -4.610
REMARK INTRA:                   0.000
REMARK UNBOUND:                 0.000
REMARK SMILES C=C1CCC[C@]2(C)CC(=O)C(=C(C)C)C[C@H]12
REMARK SMILES IDX 13 1 12 2 11 3 15 4 16 5 2 6 1 7 3 8 4 9 5 10 6 11 8 12 9 13
REMARK SMILES IDX 10 14 7 15 14 16
REMARK H PARENT
REMARK Flexibility Score: inf
ROOT
ATOM      1  C   UNL     1      -0.232 -41.251 214.603  1.00  0.00     0.039 C 
ATOM      2  C   UNL     1      -1.044 -40.894 215.828  1.00  0.00    -0.070 C 
ATOM      3  C   UNL     1      -2.389 -40.680 215.751  1.00  0.00    -0.006 C 
ATOM      4  C   UNL     1      -3.212 -40.287 216.962  1.00  0.00     0.047 C 
ATOM      5  C   UNL     1      -4.386 -39.331 216.625  1.00  0.00     0.025 C 
ATOM      6  C   UNL     1      -5.276 -39.201 217.850  1.00  0.00    -0.073 C 
ATOM      7  C   UNL     1      -5.149 -38.151 218.676  1.00  0.00     0.008 C 
ATOM      8  C   UNL     1      -6.192 -40.351 218.209  1.00  0.00     0.031 C 
ATOM      9  C   UNL     1      -6.962 -40.865 216.985  1.00  0.00     0.005 C 
ATOM     10  C   UNL     1      -6.059 -41.058 215.753  1.00  0.00     0.008 C 
ATOM     11  C   UNL     1      -5.238 -39.783 215.397  1.00  0.00    -0.018 C 
ATOM     12  C   UNL     1      -4.320 -40.063 214.177  1.00  0.00     0.088 C 
ATOM     13  C   UNL     1      -3.164 -40.947 214.518  1.00  0.00     0.159 C 
ATOM     14  O   UNL     1      -2.869 -41.905 213.754  1.00  0.00    -0.295 OA
ATOM     15  C   UNL     1      -6.200 -38.639 214.979  1.00  0.00     0.012 C 
ATOM     16  C   UNL     1      -0.297 -40.744 217.133  1.00  0.00     0.039 C 
ENDROOT
TORSDOF 0
ENDMDL
