MODEL 1
REMARK VINA RESULT:    -0.469      0.000      0.000
REMARK INTER + INTRA:           2.412
REMARK INTER:                  -0.716
REMARK INTRA:                   3.128
REMARK UNBOUND:                 3.128
REMARK SMILES CC1=CCC[C@H](C)C(=O)C[C@H](C(C)C)C(=O)C1
REMARK SMILES IDX 8 1 9 2 6 3 7 4 5 5 4 6 3 7 2 8 1 9 10 11 11 12 15 13 16 14
REMARK SMILES IDX 17 15 12 17 13 18 14 19
REMARK H PARENT
REMARK Flexibility Score: 70.00
ROOT
ATOM      1  C   UNL     1      27.107  12.589  25.197  1.00  0.00     0.136 C 
ATOM      2  O   UNL     1      26.240  12.565  26.061  1.00  0.00    -0.299 OA
ENDROOT
BRANCH   1   3
ATOM      3  C   UNL     1      28.322  13.487  25.359  1.00  0.00     0.053 C 
ATOM      4  C   UNL     1      29.466  12.794  26.119  1.00  0.00     0.016 C 
BRANCH   3   5
ATOM      5  C   UNL     1      28.805  14.041  24.002  1.00  0.00     0.015 C 
BRANCH   5   6
ATOM      6  C   UNL     1      27.889  13.676  22.810  1.00  0.00     0.028 C 
BRANCH   6   7
ATOM      7  C   UNL     1      28.692  13.088  21.675  1.00  0.00    -0.028 C 
ATOM      8  C   UNL     1      29.471  11.981  21.750  1.00  0.00    -0.070 CG0
ATOM      9  C   UNL     1      30.125  11.494  20.483  1.00  0.00     0.039 C 
ATOM     10  G   UNL     1      29.743  11.236  23.048  1.00  0.00     0.000 G0
ENDBRANCH   6   7
ENDBRANCH   5   6
ENDBRANCH   3   5
ENDBRANCH   1   3
BRANCH   1  11
ATOM     11  C   UNL     1      26.953  11.697  23.985  1.00  0.00     0.087 C 
BRANCH  11  12
ATOM     12  C   UNL     1      27.525  10.266  24.185  1.00  0.00     0.066 C 
BRANCH  12  13
ATOM     13  C   UNL     1      28.822  10.088  23.400  1.00  0.00     0.140 C 
ATOM     14  O   UNL     1      29.114   8.966  23.011  1.00  0.00    -0.299 OA
BRANCH  13  15
ATOM     15  C   UNL     1      29.772  11.218  23.050  1.00  0.00     0.106 CG0
ATOM     16  G   UNL     1      29.502  11.930  21.734  1.00  0.00     0.000 G0
ENDBRANCH  13  15
ENDBRANCH  12  13
BRANCH  12  17
ATOM     17  C   UNL     1      27.763   9.946  25.696  1.00  0.00    -0.006 C 
ATOM     18  C   UNL     1      27.089   8.631  26.125  1.00  0.00     0.008 C 
ATOM     19  C   UNL     1      29.265   9.863  26.024  1.00  0.00     0.008 C 
ENDBRANCH  12  17
ENDBRANCH  11  12
ENDBRANCH   1  11
TORSDOF 1
ENDMDL
MODEL 2
REMARK VINA RESULT:     2.417      1.700      3.539
REMARK INTER + INTRA:           6.816
REMARK INTER:                   4.661
REMARK INTRA:                   2.156
REMARK UNBOUND:                 3.128
REMARK SMILES CC1=CCC[C@H](C)C(=O)C[C@H](C(C)C)C(=O)C1
REMARK SMILES IDX 8 1 9 2 6 3 7 4 5 5 4 6 3 7 2 8 1 9 10 11 11 12 15 13 16 14
REMARK SMILES IDX 17 15 12 17 13 18 14 19
REMARK H PARENT
REMARK Flexibility Score: 70.00
ROOT
ATOM      1  C   UNL     1      27.953   9.780  24.450  1.00  0.00     0.136 C 
ATOM      2  O   UNL     1      27.939   8.750  23.789  1.00  0.00    -0.299 OA
ENDROOT
BRANCH   1   3
ATOM      3  C   UNL     1      29.195  10.167  25.235  1.00  0.00     0.053 C 
ATOM      4  C   UNL     1      30.112   8.964  25.511  1.00  0.00     0.016 C 
BRANCH   3   5
ATOM      5  C   UNL     1      29.967  11.314  24.549  1.00  0.00     0.015 C 
BRANCH   5   6
ATOM      6  C   UNL     1      30.067  11.177  23.011  1.00  0.00     0.028 C 
BRANCH   6   7
ATOM      7  C   UNL     1      30.091  12.534  22.351  1.00  0.00    -0.028 C 
ATOM      8  C   UNL     1      29.600  13.679  22.884  1.00  0.00    -0.070 CG0
ATOM      9  C   UNL     1      29.799  14.957  22.110  1.00  0.00     0.039 C 
ATOM     10  G   UNL     1      28.833  13.731  24.197  1.00  0.00     0.000 G0
ENDBRANCH   6   7
ENDBRANCH   5   6
ENDBRANCH   3   5
ENDBRANCH   1   3
BRANCH   1  11
ATOM     11  C   UNL     1      26.724  10.662  24.451  1.00  0.00     0.087 C 
BRANCH  11  12
ATOM     12  C   UNL     1      26.942  12.038  25.142  1.00  0.00     0.066 C 
BRANCH  12  13
ATOM     13  C   UNL     1      27.422  13.078  24.133  1.00  0.00     0.140 C 
ATOM     14  O   UNL     1      26.656  13.417  23.243  1.00  0.00    -0.299 OA
BRANCH  13  15
ATOM     15  C   UNL     1      28.788  13.736  24.168  1.00  0.00     0.106 CG0
ATOM     16  G   UNL     1      29.597  13.657  22.881  1.00  0.00     0.000 G0
ENDBRANCH  13  15
ENDBRANCH  12  13
BRANCH  12  17
ATOM     17  C   UNL     1      25.643  12.537  25.853  1.00  0.00    -0.006 C 
ATOM     18  C   UNL     1      25.671  14.053  26.117  1.00  0.00     0.008 C 
ATOM     19  C   UNL     1      24.386  12.200  25.030  1.00  0.00     0.008 C 
ENDBRANCH  12  17
ENDBRANCH  11  12
ENDBRANCH   1  11
TORSDOF 1
ENDMDL
