MODEL 1
REMARK VINA RESULT:    -7.582      0.000      0.000
REMARK INTER + INTRA:         -11.478
REMARK INTER:                 -10.242
REMARK INTRA:                  -1.236
REMARK UNBOUND:                -1.236
REMARK SMILES CC[C@H](CC[C@H](C)[C@@H]1CC[C@H]2[C@H]3CC(=O)C4=CC(=O)CC[C@@]4(C)[C@@H]3CC[C@]21C)C(C)C
REMARK SMILES IDX 4 1 3 2 2 3 1 4 29 5 30 6 31 7 5 8 6 9 7 10 8 11 9 12 27 13
REMARK SMILES IDX 10 14 11 15 26 16 28 17 12 18 25 19 24 20 13 21 22 22 14 23
REMARK SMILES IDX 16 24 21 25 23 26 15 27 17 28 20 29 18 30 19 31
REMARK H PARENT
REMARK Flexibility Score: inf
ROOT
ATOM      1  C   UNL     1      38.699  24.403  28.631  1.00  0.00     0.004 C 
ENDROOT
BRANCH   1   2
ATOM      2  C   UNL     1      40.127  24.966  28.911  1.00  0.00    -0.009 C 
BRANCH   2   3
ATOM      3  C   UNL     1      40.114  26.477  29.293  1.00  0.00     0.000 C 
ATOM      4  C   UNL     1      41.133  27.328  28.528  1.00  0.00     0.004 C 
ENDBRANCH   2   3
BRANCH   2   5
ATOM      5  C   UNL     1      40.892  24.080  29.958  1.00  0.00    -0.014 C 
ATOM      6  C   UNL     1      41.881  23.104  29.290  1.00  0.00     0.007 C 
ATOM      7  C   UNL     1      39.927  23.266  30.844  1.00  0.00     0.007 C 
ENDBRANCH   2   5
ENDBRANCH   1   2
BRANCH   1   8
ATOM      8  C   UNL     1      38.521  23.784  27.226  1.00  0.00     0.004 C 
BRANCH   8   9
ATOM      9  C   UNL     1      37.212  22.957  27.054  1.00  0.00    -0.011 C 
ATOM     10  C   UNL     1      36.130  23.470  28.035  1.00  0.00     0.008 C 
BRANCH   9  11
ATOM     11  C   UNL     1      37.380  21.387  27.226  1.00  0.00    -0.002 C 
ATOM     12  C   UNL     1      38.559  20.975  28.126  1.00  0.00     0.005 C 
ATOM     13  C   UNL     1      37.639  20.574  25.890  1.00  0.00    -0.026 C 
ATOM     14  C   UNL     1      39.750  20.792  27.209  1.00  0.00     0.005 C 
ATOM     15  C   UNL     1      39.191  20.435  25.817  1.00  0.00    -0.001 C 
ATOM     16  C   UNL     1      36.925  19.172  25.941  1.00  0.00     0.007 C 
ATOM     17  C   UNL     1      37.131  21.255  24.583  1.00  0.00     0.012 C 
ATOM     18  C   UNL     1      39.636  19.049  25.271  1.00  0.00     0.004 C 
ATOM     19  C   UNL     1      37.692  18.048  26.653  1.00  0.00     0.005 C 
ATOM     20  C   UNL     1      39.169  17.871  26.176  1.00  0.00     0.003 C 
ATOM     21  C   UNL     1      41.152  18.996  25.025  1.00  0.00     0.085 C 
ATOM     22  C   UNL     1      39.485  16.460  25.537  1.00  0.00    -0.000 C 
ATOM     23  C   UNL     1      41.570  17.655  24.514  1.00  0.00     0.159 C 
ATOM     24  C   UNL     1      40.940  16.421  25.044  1.00  0.00     0.005 C 
ATOM     25  C   UNL     1      39.289  15.355  26.626  1.00  0.00     0.020 C 
ATOM     26  C   UNL     1      38.569  16.166  24.317  1.00  0.00     0.017 C 
ATOM     27  O   UNL     1      42.520  17.584  23.687  1.00  0.00    -0.295 OA
ATOM     28  C   UNL     1      41.629  15.264  24.997  1.00  0.00     0.055 C 
ATOM     29  C   UNL     1      39.725  13.962  26.157  1.00  0.00     0.081 C 
ATOM     30  C   UNL     1      41.081  14.006  25.525  1.00  0.00     0.156 C 
ATOM     31  O   UNL     1      41.750  12.945  25.418  1.00  0.00    -0.295 OA
ENDBRANCH   9  11
ENDBRANCH   8   9
ENDBRANCH   1   8
TORSDOF 6
ENDMDL
MODEL 2
REMARK VINA RESULT:    -7.375      3.665      6.758
REMARK INTER + INTRA:         -11.198
REMARK INTER:                  -9.188
REMARK INTRA:                  -2.009
REMARK UNBOUND:                -1.236
REMARK SMILES CC[C@H](CC[C@H](C)[C@@H]1CC[C@H]2[C@H]3CC(=O)C4=CC(=O)CC[C@@]4(C)[C@@H]3CC[C@]21C)C(C)C
REMARK SMILES IDX 4 1 3 2 2 3 1 4 29 5 30 6 31 7 5 8 6 9 7 10 8 11 9 12 27 13
REMARK SMILES IDX 10 14 11 15 26 16 28 17 12 18 25 19 24 20 13 21 22 22 14 23
REMARK SMILES IDX 16 24 21 25 23 26 15 27 17 28 20 29 18 30 19 31
REMARK H PARENT
REMARK Flexibility Score: inf
ROOT
ATOM      1  C   UNL     1      45.124  18.461  25.420  1.00  0.00     0.004 C 
ENDROOT
BRANCH   1   2
ATOM      2  C   UNL     1      44.630  19.807  26.036  1.00  0.00    -0.009 C 
BRANCH   2   3
ATOM      3  C   UNL     1      44.000  20.759  24.975  1.00  0.00     0.000 C 
ATOM      4  C   UNL     1      44.936  21.118  23.817  1.00  0.00     0.004 C 
ENDBRANCH   2   3
BRANCH   2   5
ATOM      5  C   UNL     1      43.686  19.556  27.266  1.00  0.00    -0.014 C 
ATOM      6  C   UNL     1      43.080  20.862  27.818  1.00  0.00     0.007 C 
ATOM      7  C   UNL     1      44.414  18.832  28.417  1.00  0.00     0.007 C 
ENDBRANCH   2   5
ENDBRANCH   1   2
BRANCH   1   8
ATOM      8  C   UNL     1      44.140  17.817  24.418  1.00  0.00     0.004 C 
BRANCH   8   9
ATOM      9  C   UNL     1      43.257  16.686  25.025  1.00  0.00    -0.011 C 
ATOM     10  C   UNL     1      43.823  15.303  24.623  1.00  0.00     0.008 C 
BRANCH   9  11
ATOM     11  C   UNL     1      41.717  16.757  24.647  1.00  0.00    -0.002 C 
ATOM     12  C   UNL     1      41.396  17.726  23.494  1.00  0.00     0.005 C 
ATOM     13  C   UNL     1      40.747  17.236  25.806  1.00  0.00    -0.026 C 
ATOM     14  C   UNL     1      41.086  19.061  24.135  1.00  0.00     0.005 C 
ATOM     15  C   UNL     1      40.575  18.766  25.560  1.00  0.00    -0.001 C 
ATOM     16  C   UNL     1      39.373  16.471  25.736  1.00  0.00     0.007 C 
ATOM     17  C   UNL     1      41.276  17.013  27.255  1.00  0.00     0.012 C 
ATOM     18  C   UNL     1      39.128  19.254  25.848  1.00  0.00     0.004 C 
ATOM     19  C   UNL     1      38.328  17.044  24.767  1.00  0.00     0.005 C 
ATOM     20  C   UNL     1      38.073  18.577  24.924  1.00  0.00     0.003 C 
ATOM     21  C   UNL     1      39.022  20.786  25.787  1.00  0.00     0.085 C 
ATOM     22  C   UNL     1      36.591  18.954  25.325  1.00  0.00    -0.000 C 
ATOM     23  C   UNL     1      37.622  21.241  26.051  1.00  0.00     0.159 C 
ATOM     24  C   UNL     1      36.471  20.474  25.517  1.00  0.00     0.005 C 
ATOM     25  C   UNL     1      35.626  18.511  24.177  1.00  0.00     0.020 C 
ATOM     26  C   UNL     1      36.170  18.278  26.658  1.00  0.00     0.017 C 
ATOM     27  O   UNL     1      37.439  22.328  26.664  1.00  0.00    -0.295 OA
ATOM     28  C   UNL     1      35.305  21.115  25.298  1.00  0.00     0.055 C 
ATOM     29  C   UNL     1      34.180  18.974  24.392  1.00  0.00     0.081 C 
ATOM     30  C   UNL     1      34.128  20.427  24.748  1.00  0.00     0.156 C 
ATOM     31  O   UNL     1      33.051  21.063  24.602  1.00  0.00    -0.295 OA
ENDBRANCH   9  11
ENDBRANCH   8   9
ENDBRANCH   1   8
TORSDOF 6
ENDMDL
MODEL 3
REMARK VINA RESULT:    -7.193      2.869      6.128
REMARK INTER + INTRA:         -10.953
REMARK INTER:                 -10.228
REMARK INTRA:                  -0.725
REMARK UNBOUND:                -1.236
REMARK SMILES CC[C@H](CC[C@H](C)[C@@H]1CC[C@H]2[C@H]3CC(=O)C4=CC(=O)CC[C@@]4(C)[C@@H]3CC[C@]21C)C(C)C
REMARK SMILES IDX 4 1 3 2 2 3 1 4 29 5 30 6 31 7 5 8 6 9 7 10 8 11 9 12 27 13
REMARK SMILES IDX 10 14 11 15 26 16 28 17 12 18 25 19 24 20 13 21 22 22 14 23
REMARK SMILES IDX 16 24 21 25 23 26 15 27 17 28 20 29 18 30 19 31
REMARK H PARENT
REMARK Flexibility Score: inf
ROOT
ATOM      1  C   UNL     1      34.368  19.658  25.091  1.00  0.00     0.004 C 
ENDROOT
BRANCH   1   2
ATOM      2  C   UNL     1      33.819  19.368  23.659  1.00  0.00    -0.009 C 
BRANCH   2   3
ATOM      3  C   UNL     1      32.645  18.343  23.661  1.00  0.00     0.000 C 
ATOM      4  C   UNL     1      31.891  18.252  24.990  1.00  0.00     0.004 C 
ENDBRANCH   2   3
BRANCH   2   5
ATOM      5  C   UNL     1      33.465  20.700  22.905  1.00  0.00    -0.014 C 
ATOM      6  C   UNL     1      32.229  21.402  23.503  1.00  0.00     0.007 C 
ATOM      7  C   UNL     1      33.214  20.465  21.402  1.00  0.00     0.007 C 
ENDBRANCH   2   5
ENDBRANCH   1   2
BRANCH   1   8
ATOM      8  C   UNL     1      35.216  20.945  25.200  1.00  0.00     0.004 C 
BRANCH   8   9
ATOM      9  C   UNL     1      36.380  20.858  26.233  1.00  0.00    -0.011 C 
ATOM     10  C   UNL     1      36.594  22.236  26.904  1.00  0.00     0.008 C 
BRANCH   9  11
ATOM     11  C   UNL     1      37.761  20.334  25.649  1.00  0.00    -0.002 C 
ATOM     12  C   UNL     1      37.618  19.417  24.420  1.00  0.00     0.005 C 
ATOM     13  C   UNL     1      38.645  19.475  26.645  1.00  0.00    -0.026 C 
ATOM     14  C   UNL     1      37.545  18.002  24.953  1.00  0.00     0.005 C 
ATOM     15  C   UNL     1      38.281  17.996  26.309  1.00  0.00    -0.001 C 
ATOM     16  C   UNL     1      40.176  19.767  26.426  1.00  0.00     0.007 C 
ATOM     17  C   UNL     1      38.384  19.728  28.160  1.00  0.00     0.012 C 
ATOM     18  C   UNL     1      39.514  17.052  26.378  1.00  0.00     0.004 C 
ATOM     19  C   UNL     1      40.862  18.979  25.301  1.00  0.00     0.005 C 
ATOM     20  C   UNL     1      40.621  17.436  25.352  1.00  0.00     0.003 C 
ATOM     21  C   UNL     1      39.108  15.577  26.234  1.00  0.00     0.085 C 
ATOM     22  C   UNL     1      41.934  16.576  25.534  1.00  0.00    -0.000 C 
ATOM     23  C   UNL     1      40.303  14.680  26.288  1.00  0.00     0.159 C 
ATOM     24  C   UNL     1      41.574  15.085  25.640  1.00  0.00     0.005 C 
ATOM     25  C   UNL     1      42.856  16.787  24.289  1.00  0.00     0.020 C 
ATOM     26  C   UNL     1      42.699  16.966  26.828  1.00  0.00     0.017 C 
ATOM     27  O   UNL     1      40.190  13.542  26.821  1.00  0.00    -0.295 OA
ATOM     28  C   UNL     1      42.435  14.130  25.238  1.00  0.00     0.055 C 
ATOM     29  C   UNL     1      44.086  15.872  24.286  1.00  0.00     0.081 C 
ATOM     30  C   UNL     1      43.703  14.453  24.567  1.00  0.00     0.156 C 
ATOM     31  O   UNL     1      44.491  13.523  24.249  1.00  0.00    -0.295 OA
ENDBRANCH   9  11
ENDBRANCH   8   9
ENDBRANCH   1   8
TORSDOF 6
ENDMDL
MODEL 4
REMARK VINA RESULT:    -7.164      4.298      8.177
REMARK INTER + INTRA:         -10.913
REMARK INTER:                 -10.101
REMARK INTRA:                  -0.812
REMARK UNBOUND:                -1.236
REMARK SMILES CC[C@H](CC[C@H](C)[C@@H]1CC[C@H]2[C@H]3CC(=O)C4=CC(=O)CC[C@@]4(C)[C@@H]3CC[C@]21C)C(C)C
REMARK SMILES IDX 4 1 3 2 2 3 1 4 29 5 30 6 31 7 5 8 6 9 7 10 8 11 9 12 27 13
REMARK SMILES IDX 10 14 11 15 26 16 28 17 12 18 25 19 24 20 13 21 22 22 14 23
REMARK SMILES IDX 16 24 21 25 23 26 15 27 17 28 20 29 18 30 19 31
REMARK H PARENT
REMARK Flexibility Score: inf
ROOT
ATOM      1  C   UNL     1      35.065  19.272  24.583  1.00  0.00     0.004 C 
ENDROOT
BRANCH   1   2
ATOM      2  C   UNL     1      33.554  19.660  24.585  1.00  0.00    -0.009 C 
BRANCH   2   3
ATOM      3  C   UNL     1      33.200  20.706  23.485  1.00  0.00     0.000 C 
ATOM      4  C   UNL     1      32.024  21.620  23.841  1.00  0.00     0.004 C 
ENDBRANCH   2   3
BRANCH   2   5
ATOM      5  C   UNL     1      32.640  18.384  24.530  1.00  0.00    -0.014 C 
ATOM      6  C   UNL     1      32.229  18.017  23.090  1.00  0.00     0.007 C 
ATOM      7  C   UNL     1      31.361  18.551  25.375  1.00  0.00     0.007 C 
ENDBRANCH   2   5
ENDBRANCH   1   2
BRANCH   1   8
ATOM      8  C   UNL     1      35.827  19.665  25.869  1.00  0.00     0.004 C 
BRANCH   8   9
ATOM      9  C   UNL     1      36.521  21.058  25.801  1.00  0.00    -0.011 C 
ATOM     10  C   UNL     1      36.730  21.471  24.324  1.00  0.00     0.008 C 
BRANCH   9  11
ATOM     11  C   UNL     1      37.901  21.163  26.580  1.00  0.00    -0.002 C 
ATOM     12  C   UNL     1      38.488  19.804  27.006  1.00  0.00     0.005 C 
ATOM     13  C   UNL     1      37.863  21.985  27.934  1.00  0.00    -0.026 C 
ATOM     14  C   UNL     1      37.961  19.532  28.399  1.00  0.00     0.005 C 
ATOM     15  C   UNL     1      37.660  20.903  29.039  1.00  0.00    -0.001 C 
ATOM     16  C   UNL     1      39.202  22.788  28.138  1.00  0.00     0.007 C 
ATOM     17  C   UNL     1      36.722  23.040  28.046  1.00  0.00     0.012 C 
ATOM     18  C   UNL     1      38.471  21.212  30.328  1.00  0.00     0.004 C 
ATOM     19  C   UNL     1      40.370  22.010  28.762  1.00  0.00     0.005 C 
ATOM     20  C   UNL     1      40.008  21.245  30.076  1.00  0.00     0.003 C 
ATOM     21  C   UNL     1      38.115  20.246  31.469  1.00  0.00     0.085 C 
ATOM     22  C   UNL     1      40.817  21.716  31.349  1.00  0.00    -0.000 C 
ATOM     23  C   UNL     1      38.912  20.545  32.698  1.00  0.00     0.159 C 
ATOM     24  C   UNL     1      40.335  20.948  32.590  1.00  0.00     0.005 C 
ATOM     25  C   UNL     1      42.335  21.416  31.126  1.00  0.00     0.020 C 
ATOM     26  C   UNL     1      40.615  23.231  31.628  1.00  0.00     0.017 C 
ATOM     27  O   UNL     1      38.379  20.371  33.829  1.00  0.00    -0.295 OA
ATOM     28  C   UNL     1      41.161  20.712  33.629  1.00  0.00     0.055 C 
ATOM     29  C   UNL     1      43.193  21.685  32.367  1.00  0.00     0.081 C 
ATOM     30  C   UNL     1      42.588  21.061  33.586  1.00  0.00     0.156 C 
ATOM     31  O   UNL     1      43.307  20.857  34.600  1.00  0.00    -0.295 OA
ENDBRANCH   9  11
ENDBRANCH   8   9
ENDBRANCH   1   8
TORSDOF 6
ENDMDL
MODEL 5
REMARK VINA RESULT:    -7.108      3.525      6.545
REMARK INTER + INTRA:         -10.838
REMARK INTER:                  -8.367
REMARK INTRA:                  -2.471
REMARK UNBOUND:                -1.236
REMARK SMILES CC[C@H](CC[C@H](C)[C@@H]1CC[C@H]2[C@H]3CC(=O)C4=CC(=O)CC[C@@]4(C)[C@@H]3CC[C@]21C)C(C)C
REMARK SMILES IDX 4 1 3 2 2 3 1 4 29 5 30 6 31 7 5 8 6 9 7 10 8 11 9 12 27 13
REMARK SMILES IDX 10 14 11 15 26 16 28 17 12 18 25 19 24 20 13 21 22 22 14 23
REMARK SMILES IDX 16 24 21 25 23 26 15 27 17 28 20 29 18 30 19 31
REMARK H PARENT
REMARK Flexibility Score: inf
ROOT
ATOM      1  C   UNL     1      44.179  25.476  32.071  1.00  0.00     0.004 C 
ENDROOT
BRANCH   1   2
ATOM      2  C   UNL     1      42.689  25.651  32.500  1.00  0.00    -0.009 C 
BRANCH   2   3
ATOM      3  C   UNL     1      42.523  25.838  34.038  1.00  0.00     0.000 C 
ATOM      4  C   UNL     1      41.958  24.613  34.763  1.00  0.00     0.004 C 
ENDBRANCH   2   3
BRANCH   2   5
ATOM      5  C   UNL     1      41.989  26.786  31.669  1.00  0.00    -0.014 C 
ATOM      6  C   UNL     1      40.508  26.471  31.376  1.00  0.00     0.007 C 
ATOM      7  C   UNL     1      42.706  27.050  30.329  1.00  0.00     0.007 C 
ENDBRANCH   2   5
ENDBRANCH   1   2
BRANCH   1   8
ATOM      8  C   UNL     1      44.545  24.050  31.601  1.00  0.00     0.004 C 
BRANCH   8   9
ATOM      9  C   UNL     1      43.545  22.948  32.063  1.00  0.00    -0.011 C 
ATOM     10  C   UNL     1      44.246  21.978  33.044  1.00  0.00     0.008 C 
BRANCH   9  11
ATOM     11  C   UNL     1      42.869  22.118  30.891  1.00  0.00    -0.002 C 
ATOM     12  C   UNL     1      43.008  22.763  29.500  1.00  0.00     0.005 C 
ATOM     13  C   UNL     1      41.308  21.882  31.030  1.00  0.00    -0.026 C 
ATOM     14  C   UNL     1      41.782  23.631  29.311  1.00  0.00     0.005 C 
ATOM     15  C   UNL     1      40.666  23.028  30.188  1.00  0.00    -0.001 C 
ATOM     16  C   UNL     1      40.907  20.460  30.487  1.00  0.00     0.007 C 
ATOM     17  C   UNL     1      40.747  21.947  32.483  1.00  0.00     0.012 C 
ATOM     18  C   UNL     1      39.406  22.558  29.409  1.00  0.00     0.004 C 
ATOM     19  C   UNL     1      40.684  20.352  28.971  1.00  0.00     0.005 C 
ATOM     20  C   UNL     1      39.723  21.433  28.380  1.00  0.00     0.003 C 
ATOM     21  C   UNL     1      38.679  23.736  28.742  1.00  0.00     0.085 C 
ATOM     22  C   UNL     1      38.418  20.849  27.707  1.00  0.00    -0.000 C 
ATOM     23  C   UNL     1      37.478  23.269  27.984  1.00  0.00     0.159 C 
ATOM     24  C   UNL     1      37.518  21.997  27.223  1.00  0.00     0.005 C 
ATOM     25  C   UNL     1      38.829  19.975  26.476  1.00  0.00     0.020 C 
ATOM     26  C   UNL     1      37.591  19.995  28.706  1.00  0.00     0.017 C 
ATOM     27  O   UNL     1      36.459  24.012  27.936  1.00  0.00    -0.295 OA
ATOM     28  C   UNL     1      36.691  21.839  26.170  1.00  0.00     0.055 C 
ATOM     29  C   UNL     1      37.631  19.491  25.652  1.00  0.00     0.081 C 
ATOM     30  C   UNL     1      36.692  20.617  25.354  1.00  0.00     0.156 C 
ATOM     31  O   UNL     1      35.869  20.504  24.407  1.00  0.00    -0.295 OA
ENDBRANCH   9  11
ENDBRANCH   8   9
ENDBRANCH   1   8
TORSDOF 6
ENDMDL
MODEL 6
REMARK VINA RESULT:    -7.076      2.270      3.809
REMARK INTER + INTRA:         -10.794
REMARK INTER:                  -9.160
REMARK INTRA:                  -1.634
REMARK UNBOUND:                -1.236
REMARK SMILES CC[C@H](CC[C@H](C)[C@@H]1CC[C@H]2[C@H]3CC(=O)C4=CC(=O)CC[C@@]4(C)[C@@H]3CC[C@]21C)C(C)C
REMARK SMILES IDX 4 1 3 2 2 3 1 4 29 5 30 6 31 7 5 8 6 9 7 10 8 11 9 12 27 13
REMARK SMILES IDX 10 14 11 15 26 16 28 17 12 18 25 19 24 20 13 21 22 22 14 23
REMARK SMILES IDX 16 24 21 25 23 26 15 27 17 28 20 29 18 30 19 31
REMARK H PARENT
REMARK Flexibility Score: inf
ROOT
ATOM      1  C   UNL     1      37.868  21.877  26.350  1.00  0.00     0.004 C 
ENDROOT
BRANCH   1   2
ATOM      2  C   UNL     1      38.606  22.286  27.663  1.00  0.00    -0.009 C 
BRANCH   2   3
ATOM      3  C   UNL     1      37.912  23.472  28.399  1.00  0.00     0.000 C 
ATOM      4  C   UNL     1      36.523  23.823  27.857  1.00  0.00     0.004 C 
ENDBRANCH   2   3
BRANCH   2   5
ATOM      5  C   UNL     1      38.839  21.043  28.595  1.00  0.00    -0.014 C 
ATOM      6  C   UNL     1      38.109  21.177  29.946  1.00  0.00     0.007 C 
ATOM      7  C   UNL     1      40.336  20.798  28.870  1.00  0.00     0.007 C 
ENDBRANCH   2   5
ENDBRANCH   1   2
BRANCH   1   8
ATOM      8  C   UNL     1      37.230  20.470  26.388  1.00  0.00     0.004 C 
BRANCH   8   9
ATOM      9  C   UNL     1      37.240  19.726  25.019  1.00  0.00    -0.011 C 
ATOM     10  C   UNL     1      35.804  19.659  24.446  1.00  0.00     0.008 C 
BRANCH   9  11
ATOM     11  C   UNL     1      37.866  18.267  25.049  1.00  0.00    -0.002 C 
ATOM     12  C   UNL     1      37.619  17.504  26.363  1.00  0.00     0.005 C 
ATOM     13  C   UNL     1      39.439  18.193  24.873  1.00  0.00    -0.026 C 
ATOM     14  C   UNL     1      38.803  17.805  27.258  1.00  0.00     0.005 C 
ATOM     15  C   UNL     1      39.990  18.139  26.331  1.00  0.00    -0.001 C 
ATOM     16  C   UNL     1      39.849  16.919  24.043  1.00  0.00     0.007 C 
ATOM     17  C   UNL     1      40.088  19.400  24.132  1.00  0.00     0.012 C 
ATOM     18  C   UNL     1      41.213  17.189  26.469  1.00  0.00     0.004 C 
ATOM     19  C   UNL     1      39.979  15.609  24.834  1.00  0.00     0.005 C 
ATOM     20  C   UNL     1      40.866  15.712  26.116  1.00  0.00     0.003 C 
ATOM     21  C   UNL     1      41.860  17.293  27.859  1.00  0.00     0.085 C 
ATOM     22  C   UNL     1      42.144  14.782  26.101  1.00  0.00    -0.000 C 
ATOM     23  C   UNL     1      43.025  16.364  27.983  1.00  0.00     0.159 C 
ATOM     24  C   UNL     1      42.975  15.014  27.373  1.00  0.00     0.005 C 
ATOM     25  C   UNL     1      41.683  13.288  26.063  1.00  0.00     0.020 C 
ATOM     26  C   UNL     1      43.058  15.082  24.882  1.00  0.00     0.017 C 
ATOM     27  O   UNL     1      44.015  16.717  28.681  1.00  0.00    -0.295 OA
ATOM     28  C   UNL     1      43.739  14.033  27.895  1.00  0.00     0.055 C 
ATOM     29  C   UNL     1      42.842  12.295  26.210  1.00  0.00     0.081 C 
ATOM     30  C   UNL     1      43.725  12.664  27.361  1.00  0.00     0.156 C 
ATOM     31  O   UNL     1      44.489  11.796  27.859  1.00  0.00    -0.295 OA
ENDBRANCH   9  11
ENDBRANCH   8   9
ENDBRANCH   1   8
TORSDOF 6
ENDMDL
MODEL 7
REMARK VINA RESULT:    -7.022      3.355      6.309
REMARK INTER + INTRA:         -10.721
REMARK INTER:                  -8.548
REMARK INTRA:                  -2.174
REMARK UNBOUND:                -1.236
REMARK SMILES CC[C@H](CC[C@H](C)[C@@H]1CC[C@H]2[C@H]3CC(=O)C4=CC(=O)CC[C@@]4(C)[C@@H]3CC[C@]21C)C(C)C
REMARK SMILES IDX 4 1 3 2 2 3 1 4 29 5 30 6 31 7 5 8 6 9 7 10 8 11 9 12 27 13
REMARK SMILES IDX 10 14 11 15 26 16 28 17 12 18 25 19 24 20 13 21 22 22 14 23
REMARK SMILES IDX 16 24 21 25 23 26 15 27 17 28 20 29 18 30 19 31
REMARK H PARENT
REMARK Flexibility Score: inf
ROOT
ATOM      1  C   UNL     1      43.294  26.481  32.043  1.00  0.00     0.004 C 
ENDROOT
BRANCH   1   2
ATOM      2  C   UNL     1      42.653  27.500  31.051  1.00  0.00    -0.009 C 
BRANCH   2   3
ATOM      3  C   UNL     1      43.095  27.263  29.575  1.00  0.00     0.000 C 
ATOM      4  C   UNL     1      44.019  28.348  29.014  1.00  0.00     0.004 C 
ENDBRANCH   2   3
BRANCH   2   5
ATOM      5  C   UNL     1      41.092  27.550  31.218  1.00  0.00    -0.014 C 
ATOM      6  C   UNL     1      40.565  26.445  32.155  1.00  0.00     0.007 C 
ATOM      7  C   UNL     1      40.360  27.433  29.866  1.00  0.00     0.007 C 
ENDBRANCH   2   5
ENDBRANCH   1   2
BRANCH   1   8
ATOM      8  C   UNL     1      43.836  25.196  31.379  1.00  0.00     0.004 C 
BRANCH   8   9
ATOM      9  C   UNL     1      43.200  23.880  31.919  1.00  0.00    -0.011 C 
ATOM     10  C   UNL     1      44.219  23.129  32.809  1.00  0.00     0.008 C 
BRANCH   9  11
ATOM     11  C   UNL     1      42.643  22.894  30.805  1.00  0.00    -0.002 C 
ATOM     12  C   UNL     1      42.718  23.455  29.373  1.00  0.00     0.005 C 
ATOM     13  C   UNL     1      41.120  22.480  30.955  1.00  0.00    -0.026 C 
ATOM     14  C   UNL     1      41.398  24.152  29.121  1.00  0.00     0.005 C 
ATOM     15  C   UNL     1      40.354  23.479  30.034  1.00  0.00    -0.001 C 
ATOM     16  C   UNL     1      40.901  20.986  30.512  1.00  0.00     0.007 C 
ATOM     17  C   UNL     1      40.539  22.576  32.399  1.00  0.00     0.012 C 
ATOM     18  C   UNL     1      39.169  22.807  29.287  1.00  0.00     0.004 C 
ATOM     19  C   UNL     1      40.710  20.748  29.006  1.00  0.00     0.005 C 
ATOM     20  C   UNL     1      39.632  21.661  28.339  1.00  0.00     0.003 C 
ATOM     21  C   UNL     1      38.312  23.838  28.537  1.00  0.00     0.085 C 
ATOM     22  C   UNL     1      38.415  20.876  27.704  1.00  0.00    -0.000 C 
ATOM     23  C   UNL     1      37.185  23.178  27.810  1.00  0.00     0.159 C 
ATOM     24  C   UNL     1      37.388  21.870  27.139  1.00  0.00     0.005 C 
ATOM     25  C   UNL     1      38.944  19.977  26.539  1.00  0.00     0.020 C 
ATOM     26  C   UNL     1      37.687  19.999  28.759  1.00  0.00     0.017 C 
ATOM     27  O   UNL     1      36.084  23.786  27.708  1.00  0.00    -0.295 OA
ATOM     28  C   UNL     1      36.599  21.541  26.098  1.00  0.00     0.055 C 
ATOM     29  C   UNL     1      37.822  19.295  25.747  1.00  0.00     0.081 C 
ATOM     30  C   UNL     1      36.756  20.275  25.368  1.00  0.00     0.156 C 
ATOM     31  O   UNL     1      35.965  19.998  24.429  1.00  0.00    -0.295 OA
ENDBRANCH   9  11
ENDBRANCH   8   9
ENDBRANCH   1   8
TORSDOF 6
ENDMDL
MODEL 8
REMARK VINA RESULT:    -7.015      3.722      8.290
REMARK INTER + INTRA:         -10.712
REMARK INTER:                  -9.582
REMARK INTRA:                  -1.130
REMARK UNBOUND:                -1.236
REMARK SMILES CC[C@H](CC[C@H](C)[C@@H]1CC[C@H]2[C@H]3CC(=O)C4=CC(=O)CC[C@@]4(C)[C@@H]3CC[C@]21C)C(C)C
REMARK SMILES IDX 4 1 3 2 2 3 1 4 29 5 30 6 31 7 5 8 6 9 7 10 8 11 9 12 27 13
REMARK SMILES IDX 10 14 11 15 26 16 28 17 12 18 25 19 24 20 13 21 22 22 14 23
REMARK SMILES IDX 16 24 21 25 23 26 15 27 17 28 20 29 18 30 19 31
REMARK H PARENT
REMARK Flexibility Score: inf
ROOT
ATOM      1  C   UNL     1      35.280  19.708  24.127  1.00  0.00     0.004 C 
ENDROOT
BRANCH   1   2
ATOM      2  C   UNL     1      33.732  19.887  24.193  1.00  0.00    -0.009 C 
BRANCH   2   3
ATOM      3  C   UNL     1      33.187  20.828  23.076  1.00  0.00     0.000 C 
ATOM      4  C   UNL     1      32.036  21.735  23.524  1.00  0.00     0.004 C 
ENDBRANCH   2   3
BRANCH   2   5
ATOM      5  C   UNL     1      33.000  18.498  24.230  1.00  0.00    -0.014 C 
ATOM      6  C   UNL     1      32.575  18.020  22.827  1.00  0.00     0.007 C 
ATOM      7  C   UNL     1      31.753  18.524  25.136  1.00  0.00     0.007 C 
ENDBRANCH   2   5
ENDBRANCH   1   2
BRANCH   1   8
ATOM      8  C   UNL     1      35.821  18.515  24.948  1.00  0.00     0.004 C 
BRANCH   8   9
ATOM      9  C   UNL     1      37.373  18.478  25.076  1.00  0.00    -0.011 C 
ATOM     10  C   UNL     1      37.903  17.087  24.654  1.00  0.00     0.008 C 
BRANCH   9  11
ATOM     11  C   UNL     1      37.939  18.846  26.513  1.00  0.00    -0.002 C 
ATOM     12  C   UNL     1      36.887  19.429  27.474  1.00  0.00     0.005 C 
ATOM     13  C   UNL     1      39.096  19.929  26.538  1.00  0.00    -0.026 C 
ATOM     14  C   UNL     1      36.939  20.932  27.299  1.00  0.00     0.005 C 
ATOM     15  C   UNL     1      38.360  21.277  26.809  1.00  0.00    -0.001 C 
ATOM     16  C   UNL     1      40.148  19.598  27.662  1.00  0.00     0.007 C 
ATOM     17  C   UNL     1      39.920  20.059  25.221  1.00  0.00     0.012 C 
ATOM     18  C   UNL     1      39.166  22.214  27.751  1.00  0.00     0.004 C 
ATOM     19  C   UNL     1      39.802  20.085  29.077  1.00  0.00     0.005 C 
ATOM     20  C   UNL     1      39.396  21.592  29.160  1.00  0.00     0.003 C 
ATOM     21  C   UNL     1      38.522  23.605  27.854  1.00  0.00     0.085 C 
ATOM     22  C   UNL     1      40.349  22.476  30.059  1.00  0.00    -0.000 C 
ATOM     23  C   UNL     1      39.298  24.492  28.775  1.00  0.00     0.159 C 
ATOM     24  C   UNL     1      39.897  23.944  30.015  1.00  0.00     0.005 C 
ATOM     25  C   UNL     1      40.270  21.966  31.536  1.00  0.00     0.020 C 
ATOM     26  C   UNL     1      41.819  22.422  29.561  1.00  0.00     0.017 C 
ATOM     27  O   UNL     1      39.365  25.726  28.521  1.00  0.00    -0.295 OA
ATOM     28  C   UNL     1      40.121  24.774  31.054  1.00  0.00     0.055 C 
ATOM     29  C   UNL     1      41.033  22.857  32.523  1.00  0.00     0.081 C 
ATOM     30  C   UNL     1      40.689  24.300  32.324  1.00  0.00     0.156 C 
ATOM     31  O   UNL     1      40.916  25.124  33.248  1.00  0.00    -0.295 OA
ENDBRANCH   9  11
ENDBRANCH   8   9
ENDBRANCH   1   8
TORSDOF 6
ENDMDL
MODEL 9
REMARK VINA RESULT:    -6.970      2.418      4.637
REMARK INTER + INTRA:         -10.650
REMARK INTER:                  -8.082
REMARK INTRA:                  -2.568
REMARK UNBOUND:                -1.236
REMARK SMILES CC[C@H](CC[C@H](C)[C@@H]1CC[C@H]2[C@H]3CC(=O)C4=CC(=O)CC[C@@]4(C)[C@@H]3CC[C@]21C)C(C)C
REMARK SMILES IDX 4 1 3 2 2 3 1 4 29 5 30 6 31 7 5 8 6 9 7 10 8 11 9 12 27 13
REMARK SMILES IDX 10 14 11 15 26 16 28 17 12 18 25 19 24 20 13 21 22 22 14 23
REMARK SMILES IDX 16 24 21 25 23 26 15 27 17 28 20 29 18 30 19 31
REMARK H PARENT
REMARK Flexibility Score: inf
ROOT
ATOM      1  C   UNL     1      42.879  22.945  33.466  1.00  0.00     0.004 C 
ENDROOT
BRANCH   1   2
ATOM      2  C   UNL     1      43.492  23.292  32.074  1.00  0.00    -0.009 C 
BRANCH   2   3
ATOM      3  C   UNL     1      44.223  24.669  32.064  1.00  0.00     0.000 C 
ATOM      4  C   UNL     1      43.721  25.640  30.992  1.00  0.00     0.004 C 
ENDBRANCH   2   3
BRANCH   2   5
ATOM      5  C   UNL     1      44.391  22.120  31.540  1.00  0.00    -0.014 C 
ATOM      6  C   UNL     1      44.255  21.922  30.017  1.00  0.00     0.007 C 
ATOM      7  C   UNL     1      44.073  20.782  32.237  1.00  0.00     0.007 C 
ENDBRANCH   2   5
ENDBRANCH   1   2
BRANCH   1   8
ATOM      8  C   UNL     1      41.334  22.963  33.507  1.00  0.00     0.004 C 
BRANCH   8   9
ATOM      9  C   UNL     1      40.672  23.697  32.302  1.00  0.00    -0.011 C 
ATOM     10  C   UNL     1      39.915  24.951  32.801  1.00  0.00     0.008 C 
BRANCH   9  11
ATOM     11  C   UNL     1      39.695  22.804  31.424  1.00  0.00    -0.002 C 
ATOM     12  C   UNL     1      39.721  21.306  31.780  1.00  0.00     0.005 C 
ATOM     13  C   UNL     1      39.974  22.813  29.864  1.00  0.00    -0.026 C 
ATOM     14  C   UNL     1      40.766  20.675  30.884  1.00  0.00     0.005 C 
ATOM     15  C   UNL     1      40.863  21.555  29.621  1.00  0.00    -0.001 C 
ATOM     16  C   UNL     1      38.625  22.745  29.055  1.00  0.00     0.007 C 
ATOM     17  C   UNL     1      40.720  24.071  29.325  1.00  0.00     0.012 C 
ATOM     18  C   UNL     1      40.514  20.830  28.292  1.00  0.00     0.004 C 
ATOM     19  C   UNL     1      38.038  21.342  28.837  1.00  0.00     0.005 C 
ATOM     20  C   UNL     1      39.050  20.299  28.266  1.00  0.00     0.003 C 
ATOM     21  C   UNL     1      41.519  19.712  27.974  1.00  0.00     0.085 C 
ATOM     22  C   UNL     1      38.651  19.705  26.856  1.00  0.00    -0.000 C 
ATOM     23  C   UNL     1      41.164  19.013  26.701  1.00  0.00     0.159 C 
ATOM     24  C   UNL     1      39.745  18.746  26.362  1.00  0.00     0.005 C 
ATOM     25  C   UNL     1      37.311  18.912  27.001  1.00  0.00     0.020 C 
ATOM     26  C   UNL     1      38.490  20.822  25.790  1.00  0.00     0.017 C 
ATOM     27  O   UNL     1      42.092  18.583  25.961  1.00  0.00    -0.295 OA
ATOM     28  C   UNL     1      39.452  17.715  25.545  1.00  0.00     0.055 C 
ATOM     29  C   UNL     1      36.915  18.158  25.726  1.00  0.00     0.081 C 
ATOM     30  C   UNL     1      38.069  17.374  25.184  1.00  0.00     0.156 C 
ATOM     31  O   UNL     1      37.852  16.426  24.384  1.00  0.00    -0.295 OA
ENDBRANCH   9  11
ENDBRANCH   8   9
ENDBRANCH   1   8
TORSDOF 6
ENDMDL
