MODEL 1
REMARK VINA RESULT:    -3.071      0.000      0.000
REMARK INTER + INTRA:          -3.340
REMARK INTER:                  -3.340
REMARK INTRA:                   0.000
REMARK UNBOUND:                 0.000
REMARK SMILES [NH3+]CC(=O)[O-]
REMARK SMILES IDX 2 1 1 2 3 6 4 7 5 8
REMARK H PARENT 1 3 1 4 1 5
REMARK Flexibility Score: inf
ROOT
ATOM      1  C   UNL     1      67.378  -1.046   4.363  1.00  0.00     0.312 C 
ENDROOT
BRANCH   1   2
ATOM      2  N   UNL     1      68.504  -0.545   3.580  1.00  0.00    -0.353 N 
ATOM      3  H   UNL     1      68.437  -0.918   2.605  1.00  0.00     0.344 HD
ATOM      4  H   UNL     1      69.407  -0.863   4.002  1.00  0.00     0.344 HD
ATOM      5  H   UNL     1      68.480   0.501   3.543  1.00  0.00     0.344 HD
ENDBRANCH   1   2
BRANCH   1   6
ATOM      6  C   UNL     1      66.283  -0.027   4.427  1.00  0.00     0.096 C 
ATOM      7  O   UNL     1      65.768   0.281   5.535  1.00  0.00    -0.544 OA
ATOM      8  O   UNL     1      65.866   0.618   3.270  1.00  0.00    -0.544 OA
ENDBRANCH   1   6
TORSDOF 2
ENDMDL
MODEL 2
REMARK VINA RESULT:    -2.876      2.066      2.353
REMARK INTER + INTRA:          -3.128
REMARK INTER:                  -3.128
REMARK INTRA:                   0.000
REMARK UNBOUND:                 0.000
REMARK SMILES [NH3+]CC(=O)[O-]
REMARK SMILES IDX 2 1 1 2 3 6 4 7 5 8
REMARK H PARENT 1 3 1 4 1 5
REMARK Flexibility Score: inf
ROOT
ATOM      1  C   UNL     1      66.315   0.105   3.303  1.00  0.00     0.312 C 
ENDROOT
BRANCH   1   2
ATOM      2  N   UNL     1      65.266   1.103   3.108  1.00  0.00    -0.353 N 
ATOM      3  H   UNL     1      65.383   1.544   2.167  1.00  0.00     0.344 HD
ATOM      4  H   UNL     1      65.334   1.845   3.841  1.00  0.00     0.344 HD
ATOM      5  H   UNL     1      64.324   0.647   3.151  1.00  0.00     0.344 HD
ENDBRANCH   1   2
BRANCH   1   6
ATOM      6  C   UNL     1      66.373  -0.327   4.735  1.00  0.00     0.096 C 
ATOM      7  O   UNL     1      67.124  -1.277   5.081  1.00  0.00    -0.544 OA
ATOM      8  O   UNL     1      65.635   0.352   5.697  1.00  0.00    -0.544 OA
ENDBRANCH   1   6
TORSDOF 2
ENDMDL
MODEL 3
REMARK VINA RESULT:    -2.870      2.323      2.507
REMARK INTER + INTRA:          -3.122
REMARK INTER:                  -3.122
REMARK INTRA:                   0.000
REMARK UNBOUND:                 0.000
REMARK SMILES [NH3+]CC(=O)[O-]
REMARK SMILES IDX 2 1 1 2 3 6 4 7 5 8
REMARK H PARENT 1 3 1 4 1 5
REMARK Flexibility Score: inf
ROOT
ATOM      1  C   UNL     1      66.147   0.254   4.167  1.00  0.00     0.312 C 
ENDROOT
BRANCH   1   2
ATOM      2  N   UNL     1      65.660   0.502   5.521  1.00  0.00    -0.353 N 
ATOM      3  H   UNL     1      66.345   0.113   6.209  1.00  0.00     0.344 HD
ATOM      4  H   UNL     1      64.736   0.034   5.663  1.00  0.00     0.344 HD
ATOM      5  H   UNL     1      65.564   1.531   5.686  1.00  0.00     0.344 HD
ENDBRANCH   1   2
BRANCH   1   6
ATOM      6  C   UNL     1      67.347  -0.640   4.192  1.00  0.00     0.096 C 
ATOM      7  O   UNL     1      67.462  -1.523   5.083  1.00  0.00    -0.544 OA
ATOM      8  O   UNL     1      68.316  -0.532   3.202  1.00  0.00    -0.544 OA
ENDBRANCH   1   6
TORSDOF 2
ENDMDL
MODEL 4
REMARK VINA RESULT:    -2.788      2.245      2.361
REMARK INTER + INTRA:          -3.032
REMARK INTER:                  -3.032
REMARK INTRA:                   0.000
REMARK UNBOUND:                 0.000
REMARK SMILES [NH3+]CC(=O)[O-]
REMARK SMILES IDX 2 1 1 2 3 6 4 7 5 8
REMARK H PARENT 1 3 1 4 1 5
REMARK Flexibility Score: inf
ROOT
ATOM      1  C   UNL     1      65.947  -0.536   5.160  1.00  0.00     0.312 C 
ENDROOT
BRANCH   1   2
ATOM      2  N   UNL     1      65.418   0.605   5.902  1.00  0.00    -0.353 N 
ATOM      3  H   UNL     1      65.568   0.448   6.925  1.00  0.00     0.344 HD
ATOM      4  H   UNL     1      64.392   0.707   5.723  1.00  0.00     0.344 HD
ATOM      5  H   UNL     1      65.915   1.481   5.619  1.00  0.00     0.344 HD
ENDBRANCH   1   2
BRANCH   1   6
ATOM      6  C   UNL     1      66.598  -0.084   3.890  1.00  0.00     0.096 C 
ATOM      7  O   UNL     1      67.779  -0.433   3.623  1.00  0.00    -0.544 OA
ATOM      8  O   UNL     1      65.884   0.682   2.977  1.00  0.00    -0.544 OA
ENDBRANCH   1   6
TORSDOF 2
ENDMDL
MODEL 5
REMARK VINA RESULT:    -2.685      7.457      7.881
REMARK INTER + INTRA:          -2.921
REMARK INTER:                  -2.921
REMARK INTRA:                   0.000
REMARK UNBOUND:                 0.000
REMARK SMILES [NH3+]CC(=O)[O-]
REMARK SMILES IDX 2 1 1 2 3 6 4 7 5 8
REMARK H PARENT 1 3 1 4 1 5
REMARK Flexibility Score: inf
ROOT
ATOM      1  C   UNL     1      69.969  -7.620   6.649  1.00  0.00     0.312 C 
ENDROOT
BRANCH   1   2
ATOM      2  N   UNL     1      68.557  -7.609   7.023  1.00  0.00    -0.353 N 
ATOM      3  H   UNL     1      68.422  -8.210   7.868  1.00  0.00     0.344 HD
ATOM      4  H   UNL     1      67.975  -7.988   6.242  1.00  0.00     0.344 HD
ATOM      5  H   UNL     1      68.254  -6.634   7.251  1.00  0.00     0.344 HD
ENDBRANCH   1   2
BRANCH   1   6
ATOM      6  C   UNL     1      70.476  -6.225   6.456  1.00  0.00     0.096 C 
ATOM      7  O   UNL     1      71.662  -6.027   6.081  1.00  0.00    -0.544 OA
ATOM      8  O   UNL     1      69.623  -5.144   6.641  1.00  0.00    -0.544 OA
ENDBRANCH   1   6
TORSDOF 2
ENDMDL
MODEL 6
REMARK VINA RESULT:    -2.536      6.853      7.386
REMARK INTER + INTRA:          -2.759
REMARK INTER:                  -2.759
REMARK INTRA:                   0.000
REMARK UNBOUND:                 0.000
REMARK SMILES [NH3+]CC(=O)[O-]
REMARK SMILES IDX 2 1 1 2 3 6 4 7 5 8
REMARK H PARENT 1 3 1 4 1 5
REMARK Flexibility Score: inf
ROOT
ATOM      1  C   UNL     1      71.011  -6.450   6.264  1.00  0.00     0.312 C 
ENDROOT
BRANCH   1   2
ATOM      2  N   UNL     1      70.616  -6.942   4.946  1.00  0.00    -0.353 N 
ATOM      3  H   UNL     1      69.577  -7.056   4.919  1.00  0.00     0.344 HD
ATOM      4  H   UNL     1      71.063  -7.869   4.759  1.00  0.00     0.344 HD
ATOM      5  H   UNL     1      70.899  -6.257   4.207  1.00  0.00     0.344 HD
ENDBRANCH   1   2
BRANCH   1   6
ATOM      6  C   UNL     1      69.832  -5.882   6.991  1.00  0.00     0.096 C 
ATOM      7  O   UNL     1      69.264  -4.843   6.563  1.00  0.00    -0.544 OA
ATOM      8  O   UNL     1      69.329  -6.529   8.113  1.00  0.00    -0.544 OA
ENDBRANCH   1   6
TORSDOF 2
ENDMDL
MODEL 7
REMARK VINA RESULT:    -2.449      9.218      9.597
REMARK INTER + INTRA:          -2.664
REMARK INTER:                  -2.664
REMARK INTRA:                   0.000
REMARK UNBOUND:                 0.000
REMARK SMILES [NH3+]CC(=O)[O-]
REMARK SMILES IDX 2 1 1 2 3 6 4 7 5 8
REMARK H PARENT 1 3 1 4 1 5
REMARK Flexibility Score: inf
ROOT
ATOM      1  C   UNL     1      70.504  -8.818   3.722  1.00  0.00     0.312 C 
ENDROOT
BRANCH   1   2
ATOM      2  N   UNL     1      70.036  -8.043   2.575  1.00  0.00    -0.353 N 
ATOM      3  H   UNL     1      69.245  -8.551   2.118  1.00  0.00     0.344 HD
ATOM      4  H   UNL     1      70.809  -7.924   1.881  1.00  0.00     0.344 HD
ATOM      5  H   UNL     1      69.696  -7.105   2.890  1.00  0.00     0.344 HD
ENDBRANCH   1   2
BRANCH   1   6
ATOM      6  C   UNL     1      71.733  -8.199   4.312  1.00  0.00     0.096 C 
ATOM      7  O   UNL     1      72.139  -7.080   3.901  1.00  0.00    -0.544 OA
ATOM      8  O   UNL     1      72.402  -8.835   5.350  1.00  0.00    -0.544 OA
ENDBRANCH   1   6
TORSDOF 2
ENDMDL
MODEL 8
REMARK VINA RESULT:    -2.428      8.220      8.638
REMARK INTER + INTRA:          -2.641
REMARK INTER:                  -2.641
REMARK INTRA:                   0.000
REMARK UNBOUND:                 0.000
REMARK SMILES [NH3+]CC(=O)[O-]
REMARK SMILES IDX 2 1 1 2 3 6 4 7 5 8
REMARK H PARENT 1 3 1 4 1 5
REMARK Flexibility Score: inf
ROOT
ATOM      1  C   UNL     1      71.659  -7.226   4.467  1.00  0.00     0.312 C 
ENDROOT
BRANCH   1   2
ATOM      2  N   UNL     1      70.462  -7.979   4.096  1.00  0.00    -0.353 N 
ATOM      3  H   UNL     1      70.225  -8.646   4.866  1.00  0.00     0.344 HD
ATOM      4  H   UNL     1      70.636  -8.522   3.220  1.00  0.00     0.344 HD
ATOM      5  H   UNL     1      69.657  -7.326   3.955  1.00  0.00     0.344 HD
ENDBRANCH   1   2
BRANCH   1   6
ATOM      6  C   UNL     1      71.621  -6.853   5.916  1.00  0.00     0.096 C 
ATOM      7  O   UNL     1      72.375  -7.435   6.740  1.00  0.00    -0.544 OA
ATOM      8  O   UNL     1      70.789  -5.828   6.349  1.00  0.00    -0.544 OA
ENDBRANCH   1   6
TORSDOF 2
ENDMDL
MODEL 9
REMARK VINA RESULT:    -2.326     10.848     11.036
REMARK INTER + INTRA:          -2.530
REMARK INTER:                  -2.530
REMARK INTRA:                   0.000
REMARK UNBOUND:                 0.000
REMARK SMILES [NH3+]CC(=O)[O-]
REMARK SMILES IDX 2 1 1 2 3 6 4 7 5 8
REMARK H PARENT 1 3 1 4 1 5
REMARK Flexibility Score: inf
ROOT
ATOM      1  C   UNL     1      65.679  10.617   7.777  1.00  0.00     0.312 C 
ENDROOT
BRANCH   1   2
ATOM      2  N   UNL     1      66.513  10.678   6.579  1.00  0.00    -0.353 N 
ATOM      3  H   UNL     1      67.028  11.588   6.566  1.00  0.00     0.344 HD
ATOM      4  H   UNL     1      65.918  10.614   5.722  1.00  0.00     0.344 HD
ATOM      5  H   UNL     1      67.210   9.897   6.586  1.00  0.00     0.344 HD
ENDBRANCH   1   2
BRANCH   1   6
ATOM      6  C   UNL     1      64.359   9.981   7.470  1.00  0.00     0.096 C 
ATOM      7  O   UNL     1      63.932   9.948   6.285  1.00  0.00    -0.544 OA
ATOM      8  O   UNL     1      63.624   9.381   8.484  1.00  0.00    -0.544 OA
ENDBRANCH   1   6
TORSDOF 2
ENDMDL
