MODEL 1
REMARK VINA RESULT:    -5.056      0.000      0.000
REMARK INTER + INTRA:         -17.680
REMARK INTER:                 -13.332
REMARK INTRA:                  -4.347
REMARK UNBOUND:                -4.347
REMARK SMILES CCCCCCCCCCCCCCCCCCCCCCCCCCCCCC(=O)[O-]
REMARK SMILES IDX 16 1 17 2 18 3 19 4 20 5 21 6 22 7 23 8 24 9 25 10 26 11
REMARK SMILES IDX 27 12 28 13 29 14 30 15 31 16 32 17 15 18 14 19 13 20 12 21
REMARK SMILES IDX 11 22 10 23 9 24 8 25 7 26 6 27 5 28 4 29 3 30 2 31 1 32
REMARK H PARENT
REMARK Flexibility Score: inf
ROOT
ATOM      1  C   UNL     1     126.931 136.690 137.371  1.00  0.00     0.000 C 
ENDROOT
BRANCH   1   2
ATOM      2  C   UNL     1     126.084 136.070 138.496  1.00  0.00     0.000 C 
BRANCH   2   3
ATOM      3  C   UNL     1     126.824 136.037 139.846  1.00  0.00     0.000 C 
BRANCH   3   4
ATOM      4  C   UNL     1     128.331 135.775 139.680  1.00  0.00     0.000 C 
BRANCH   4   5
ATOM      5  C   UNL     1     128.881 134.790 140.726  1.00  0.00     0.000 C 
BRANCH   5   6
ATOM      6  C   UNL     1     128.226 133.400 140.639  1.00  0.00     0.000 C 
BRANCH   6   7
ATOM      7  C   UNL     1     129.224 132.228 140.762  1.00  0.00     0.000 C 
BRANCH   7   8
ATOM      8  C   UNL     1     130.567 132.664 141.379  1.00  0.00     0.000 C 
BRANCH   8   9
ATOM      9  C   UNL     1     131.768 132.219 140.523  1.00  0.00     0.000 C 
BRANCH   9  10
ATOM     10  C   UNL     1     131.736 132.784 139.092  1.00  0.00     0.000 C 
BRANCH  10  11
ATOM     11  C   UNL     1     132.610 134.043 138.950  1.00  0.00     0.000 C 
BRANCH  11  12
ATOM     12  C   UNL     1     131.824 135.272 138.458  1.00  0.00     0.000 C 
BRANCH  12  13
ATOM     13  C   UNL     1     132.670 136.537 138.234  1.00  0.00     0.006 C 
BRANCH  13  14
ATOM     14  C   UNL     1     133.937 136.573 139.104  1.00  0.00     0.053 C 
BRANCH  14  15
ATOM     15  C   UNL     1     133.795 137.554 140.227  1.00  0.00     0.041 C 
ATOM     16  O   UNL     1     132.660 137.989 140.557  1.00  0.00    -0.550 OA
ATOM     17  O   UNL     1     134.919 137.960 140.937  1.00  0.00    -0.550 OA
ENDBRANCH  14  15
ENDBRANCH  13  14
ENDBRANCH  12  13
ENDBRANCH  11  12
ENDBRANCH  10  11
ENDBRANCH   9  10
ENDBRANCH   8   9
ENDBRANCH   7   8
ENDBRANCH   6   7
ENDBRANCH   5   6
ENDBRANCH   4   5
ENDBRANCH   3   4
ENDBRANCH   2   3
ENDBRANCH   1   2
BRANCH   1  18
ATOM     18  C   UNL     1     126.637 138.187 137.168  1.00  0.00     0.000 C 
BRANCH  18  19
ATOM     19  C   UNL     1     127.909 139.057 137.163  1.00  0.00     0.000 C 
BRANCH  19  20
ATOM     20  C   UNL     1     128.505 139.368 138.549  1.00  0.00     0.000 C 
BRANCH  20  21
ATOM     21  C   UNL     1     130.007 139.048 138.647  1.00  0.00     0.000 C 
BRANCH  21  22
ATOM     22  C   UNL     1     130.894 140.232 138.221  1.00  0.00     0.000 C 
BRANCH  22  23
ATOM     23  C   UNL     1     130.774 141.495 139.097  1.00  0.00     0.000 C 
BRANCH  23  24
ATOM     24  C   UNL     1     131.254 141.330 140.549  1.00  0.00    -0.000 C 
BRANCH  24  25
ATOM     25  C   UNL     1     130.103 141.379 141.565  1.00  0.00    -0.000 C 
BRANCH  25  26
ATOM     26  C   UNL     1     129.173 142.569 141.282  1.00  0.00    -0.000 C 
BRANCH  26  27
ATOM     27  C   UNL     1     127.693 142.163 141.204  1.00  0.00    -0.000 C 
BRANCH  27  28
ATOM     28  C   UNL     1     126.879 143.059 140.260  1.00  0.00    -0.000 C 
BRANCH  28  29
ATOM     29  C   UNL     1     127.436 142.993 138.829  1.00  0.00    -0.000 C 
BRANCH  29  30
ATOM     30  C   UNL     1     126.449 142.363 137.834  1.00  0.00    -0.000 C 
BRANCH  30  31
ATOM     31  C   UNL     1     126.008 143.343 136.737  1.00  0.00    -0.003 C 
ATOM     32  C   UNL     1     125.295 142.613 135.601  1.00  0.00     0.004 C 
ENDBRANCH  30  31
ENDBRANCH  29  30
ENDBRANCH  28  29
ENDBRANCH  27  28
ENDBRANCH  26  27
ENDBRANCH  25  26
ENDBRANCH  24  25
ENDBRANCH  23  24
ENDBRANCH  22  23
ENDBRANCH  21  22
ENDBRANCH  20  21
ENDBRANCH  19  20
ENDBRANCH  18  19
ENDBRANCH   1  18
TORSDOF 28
ENDMDL
MODEL 2
REMARK VINA RESULT:    -4.896      1.539      2.158
REMARK INTER + INTRA:         -17.257
REMARK INTER:                 -12.151
REMARK INTRA:                  -5.106
REMARK UNBOUND:                -4.347
REMARK SMILES CCCCCCCCCCCCCCCCCCCCCCCCCCCCCC(=O)[O-]
REMARK SMILES IDX 16 1 17 2 18 3 19 4 20 5 21 6 22 7 23 8 24 9 25 10 26 11
REMARK SMILES IDX 27 12 28 13 29 14 30 15 31 16 32 17 15 18 14 19 13 20 12 21
REMARK SMILES IDX 11 22 10 23 9 24 8 25 7 26 6 27 5 28 4 29 3 30 2 31 1 32
REMARK H PARENT
REMARK Flexibility Score: inf
ROOT
ATOM      1  C   UNL     1     127.839 137.600 137.847  1.00  0.00     0.000 C 
ENDROOT
BRANCH   1   2
ATOM      2  C   UNL     1     128.679 136.624 138.688  1.00  0.00     0.000 C 
BRANCH   2   3
ATOM      3  C   UNL     1     127.854 135.926 139.785  1.00  0.00     0.000 C 
BRANCH   3   4
ATOM      4  C   UNL     1     128.638 135.777 141.101  1.00  0.00     0.000 C 
BRANCH   4   5
ATOM      5  C   UNL     1     128.480 134.383 141.732  1.00  0.00     0.000 C 
BRANCH   5   6
ATOM      6  C   UNL     1     128.270 133.274 140.686  1.00  0.00     0.000 C 
BRANCH   6   7
ATOM      7  C   UNL     1     129.383 132.204 140.674  1.00  0.00     0.000 C 
BRANCH   7   8
ATOM      8  C   UNL     1     130.637 132.672 139.912  1.00  0.00     0.000 C 
BRANCH   8   9
ATOM      9  C   UNL     1     131.738 133.176 140.864  1.00  0.00     0.000 C 
BRANCH   9  10
ATOM     10  C   UNL     1     132.508 134.389 140.313  1.00  0.00     0.000 C 
BRANCH  10  11
ATOM     11  C   UNL     1     131.786 135.033 139.115  1.00  0.00     0.000 C 
BRANCH  11  12
ATOM     12  C   UNL     1     132.669 136.031 138.343  1.00  0.00     0.000 C 
BRANCH  12  13
ATOM     13  C   UNL     1     133.790 136.682 139.171  1.00  0.00     0.006 C 
BRANCH  13  14
ATOM     14  C   UNL     1     134.148 138.097 138.688  1.00  0.00     0.053 C 
BRANCH  14  15
ATOM     15  C   UNL     1     135.596 138.400 138.925  1.00  0.00     0.041 C 
ATOM     16  O   UNL     1     136.004 139.591 138.955  1.00  0.00    -0.550 OA
ATOM     17  O   UNL     1     136.492 137.361 139.150  1.00  0.00    -0.550 OA
ENDBRANCH  14  15
ENDBRANCH  13  14
ENDBRANCH  12  13
ENDBRANCH  11  12
ENDBRANCH  10  11
ENDBRANCH   9  10
ENDBRANCH   8   9
ENDBRANCH   7   8
ENDBRANCH   6   7
ENDBRANCH   5   6
ENDBRANCH   4   5
ENDBRANCH   3   4
ENDBRANCH   2   3
ENDBRANCH   1   2
BRANCH   1  18
ATOM     18  C   UNL     1     128.583 138.914 137.551  1.00  0.00     0.000 C 
BRANCH  18  19
ATOM     19  C   UNL     1     130.109 138.799 137.736  1.00  0.00     0.000 C 
BRANCH  19  20
ATOM     20  C   UNL     1     130.845 140.126 138.007  1.00  0.00     0.000 C 
BRANCH  20  21
ATOM     21  C   UNL     1     131.235 140.311 139.483  1.00  0.00     0.000 C 
BRANCH  21  22
ATOM     22  C   UNL     1     131.006 139.041 140.322  1.00  0.00     0.000 C 
BRANCH  22  23
ATOM     23  C   UNL     1     130.114 139.225 141.567  1.00  0.00     0.000 C 
BRANCH  23  24
ATOM     24  C   UNL     1     128.603 139.286 141.282  1.00  0.00    -0.000 C 
BRANCH  24  25
ATOM     25  C   UNL     1     127.944 140.555 141.843  1.00  0.00    -0.000 C 
BRANCH  25  26
ATOM     26  C   UNL     1     128.903 141.752 141.764  1.00  0.00    -0.000 C 
BRANCH  26  27
ATOM     27  C   UNL     1     128.335 142.917 140.937  1.00  0.00    -0.000 C 
BRANCH  27  28
ATOM     28  C   UNL     1     128.249 142.594 139.438  1.00  0.00    -0.000 C 
BRANCH  28  29
ATOM     29  C   UNL     1     126.830 142.846 138.906  1.00  0.00    -0.000 C 
BRANCH  29  30
ATOM     30  C   UNL     1     126.033 143.829 139.778  1.00  0.00    -0.000 C 
BRANCH  30  31
ATOM     31  C   UNL     1     126.288 145.296 139.400  1.00  0.00    -0.003 C 
ATOM     32  C   UNL     1     125.704 145.618 138.026  1.00  0.00     0.004 C 
ENDBRANCH  30  31
ENDBRANCH  29  30
ENDBRANCH  28  29
ENDBRANCH  27  28
ENDBRANCH  26  27
ENDBRANCH  25  26
ENDBRANCH  24  25
ENDBRANCH  23  24
ENDBRANCH  22  23
ENDBRANCH  21  22
ENDBRANCH  20  21
ENDBRANCH  19  20
ENDBRANCH  18  19
ENDBRANCH   1  18
TORSDOF 28
ENDMDL
MODEL 3
REMARK VINA RESULT:    -4.872      3.631      7.385
REMARK INTER + INTRA:         -17.193
REMARK INTER:                 -12.003
REMARK INTRA:                  -5.190
REMARK UNBOUND:                -4.347
REMARK SMILES CCCCCCCCCCCCCCCCCCCCCCCCCCCCCC(=O)[O-]
REMARK SMILES IDX 16 1 17 2 18 3 19 4 20 5 21 6 22 7 23 8 24 9 25 10 26 11
REMARK SMILES IDX 27 12 28 13 29 14 30 15 31 16 32 17 15 18 14 19 13 20 12 21
REMARK SMILES IDX 11 22 10 23 9 24 8 25 7 26 6 27 5 28 4 29 3 30 2 31 1 32
REMARK H PARENT
REMARK Flexibility Score: inf
ROOT
ATOM      1  C   UNL     1     133.419 134.254 140.570  1.00  0.00     0.000 C 
ENDROOT
BRANCH   1   2
ATOM      2  C   UNL     1     134.678 135.114 140.777  1.00  0.00     0.000 C 
BRANCH   2   3
ATOM      3  C   UNL     1     135.600 134.559 141.878  1.00  0.00     0.000 C 
BRANCH   3   4
ATOM      4  C   UNL     1     136.855 133.879 141.302  1.00  0.00     0.000 C 
BRANCH   4   5
ATOM      5  C   UNL     1     137.064 134.185 139.809  1.00  0.00     0.000 C 
BRANCH   5   6
ATOM      6  C   UNL     1     138.033 133.202 139.128  1.00  0.00     0.000 C 
BRANCH   6   7
ATOM      7  C   UNL     1     139.355 132.992 139.897  1.00  0.00     0.000 C 
BRANCH   7   8
ATOM      8  C   UNL     1     140.523 133.785 139.281  1.00  0.00     0.000 C 
BRANCH   8   9
ATOM      9  C   UNL     1     140.799 135.095 140.043  1.00  0.00     0.000 C 
BRANCH   9  10
ATOM     10  C   UNL     1     140.414 135.023 141.532  1.00  0.00     0.000 C 
BRANCH  10  11
ATOM     11  C   UNL     1     139.525 136.207 141.955  1.00  0.00     0.000 C 
BRANCH  11  12
ATOM     12  C   UNL     1     139.143 137.125 140.780  1.00  0.00     0.000 C 
BRANCH  12  13
ATOM     13  C   UNL     1     137.817 137.886 140.954  1.00  0.00     0.006 C 
BRANCH  13  14
ATOM     14  C   UNL     1     136.851 137.685 139.776  1.00  0.00     0.053 C 
BRANCH  14  15
ATOM     15  C   UNL     1     136.059 138.927 139.507  1.00  0.00     0.041 C 
ATOM     16  O   UNL     1     135.522 139.562 140.453  1.00  0.00    -0.550 OA
ATOM     17  O   UNL     1     135.944 139.406 138.207  1.00  0.00    -0.550 OA
ENDBRANCH  14  15
ENDBRANCH  13  14
ENDBRANCH  12  13
ENDBRANCH  11  12
ENDBRANCH  10  11
ENDBRANCH   9  10
ENDBRANCH   8   9
ENDBRANCH   7   8
ENDBRANCH   6   7
ENDBRANCH   5   6
ENDBRANCH   4   5
ENDBRANCH   3   4
ENDBRANCH   2   3
ENDBRANCH   1   2
BRANCH   1  18
ATOM     18  C   UNL     1     133.242 133.811 139.107  1.00  0.00     0.000 C 
BRANCH  18  19
ATOM     19  C   UNL     1     132.126 132.765 138.924  1.00  0.00     0.000 C 
BRANCH  19  20
ATOM     20  C   UNL     1     131.440 132.293 140.221  1.00  0.00     0.000 C 
BRANCH  20  21
ATOM     21  C   UNL     1     129.926 132.564 140.239  1.00  0.00     0.000 C 
BRANCH  21  22
ATOM     22  C   UNL     1     129.527 133.635 141.270  1.00  0.00     0.000 C 
BRANCH  22  23
ATOM     23  C   UNL     1     129.893 135.085 140.891  1.00  0.00     0.000 C 
BRANCH  23  24
ATOM     24  C   UNL     1     129.414 135.535 139.500  1.00  0.00    -0.000 C 
BRANCH  24  25
ATOM     25  C   UNL     1     129.991 136.896 139.085  1.00  0.00    -0.000 C 
BRANCH  25  26
ATOM     26  C   UNL     1     131.348 136.728 138.385  1.00  0.00    -0.000 C 
BRANCH  26  27
ATOM     27  C   UNL     1     132.457 137.579 139.023  1.00  0.00    -0.000 C 
BRANCH  27  28
ATOM     28  C   UNL     1     132.110 138.037 140.447  1.00  0.00    -0.000 C 
BRANCH  28  29
ATOM     29  C   UNL     1     132.056 139.571 140.529  1.00  0.00    -0.000 C 
BRANCH  29  30
ATOM     30  C   UNL     1     132.157 140.244 139.150  1.00  0.00    -0.000 C 
BRANCH  30  31
ATOM     31  C   UNL     1     130.804 140.771 138.650  1.00  0.00    -0.003 C 
ATOM     32  C   UNL     1     129.968 141.323 139.802  1.00  0.00     0.004 C 
ENDBRANCH  30  31
ENDBRANCH  29  30
ENDBRANCH  28  29
ENDBRANCH  27  28
ENDBRANCH  26  27
ENDBRANCH  25  26
ENDBRANCH  24  25
ENDBRANCH  23  24
ENDBRANCH  22  23
ENDBRANCH  21  22
ENDBRANCH  20  21
ENDBRANCH  19  20
ENDBRANCH  18  19
ENDBRANCH   1  18
TORSDOF 28
ENDMDL
MODEL 4
REMARK VINA RESULT:    -4.834      3.380      8.105
REMARK INTER + INTRA:         -17.093
REMARK INTER:                 -11.824
REMARK INTRA:                  -5.270
REMARK UNBOUND:                -4.347
REMARK SMILES CCCCCCCCCCCCCCCCCCCCCCCCCCCCCC(=O)[O-]
REMARK SMILES IDX 16 1 17 2 18 3 19 4 20 5 21 6 22 7 23 8 24 9 25 10 26 11
REMARK SMILES IDX 27 12 28 13 29 14 30 15 31 16 32 17 15 18 14 19 13 20 12 21
REMARK SMILES IDX 11 22 10 23 9 24 8 25 7 26 6 27 5 28 4 29 3 30 2 31 1 32
REMARK H PARENT
REMARK Flexibility Score: inf
ROOT
ATOM      1  C   UNL     1     135.987 134.669 139.978  1.00  0.00     0.000 C 
ENDROOT
BRANCH   1   2
ATOM      2  C   UNL     1     137.171 133.775 140.384  1.00  0.00     0.000 C 
BRANCH   2   3
ATOM      3  C   UNL     1     137.916 133.189 139.170  1.00  0.00     0.000 C 
BRANCH   3   4
ATOM      4  C   UNL     1     139.392 132.887 139.479  1.00  0.00     0.000 C 
BRANCH   4   5
ATOM      5  C   UNL     1     140.317 134.081 139.189  1.00  0.00     0.000 C 
BRANCH   5   6
ATOM      6  C   UNL     1     139.631 135.179 138.356  1.00  0.00     0.000 C 
BRANCH   6   7
ATOM      7  C   UNL     1     139.516 136.536 139.082  1.00  0.00     0.000 C 
BRANCH   7   8
ATOM      8  C   UNL     1     139.767 136.414 140.597  1.00  0.00     0.000 C 
BRANCH   8   9
ATOM      9  C   UNL     1     138.591 136.965 141.425  1.00  0.00     0.000 C 
BRANCH   9  10
ATOM     10  C   UNL     1     137.980 138.247 140.833  1.00  0.00     0.000 C 
BRANCH  10  11
ATOM     11  C   UNL     1     136.441 138.204 140.833  1.00  0.00     0.000 C 
BRANCH  11  12
ATOM     12  C   UNL     1     135.831 138.406 139.433  1.00  0.00     0.000 C 
BRANCH  12  13
ATOM     13  C   UNL     1     134.351 138.825 139.424  1.00  0.00     0.006 C 
BRANCH  13  14
ATOM     14  C   UNL     1     133.762 138.975 140.836  1.00  0.00     0.053 C 
BRANCH  14  15
ATOM     15  C   UNL     1     133.395 140.399 141.122  1.00  0.00     0.041 C 
ATOM     16  O   UNL     1     133.993 141.045 142.022  1.00  0.00    -0.550 OA
ATOM     17  O   UNL     1     132.412 141.025 140.364  1.00  0.00    -0.550 OA
ENDBRANCH  14  15
ENDBRANCH  13  14
ENDBRANCH  12  13
ENDBRANCH  11  12
ENDBRANCH  10  11
ENDBRANCH   9  10
ENDBRANCH   8   9
ENDBRANCH   7   8
ENDBRANCH   6   7
ENDBRANCH   5   6
ENDBRANCH   4   5
ENDBRANCH   3   4
ENDBRANCH   2   3
ENDBRANCH   1   2
BRANCH   1  18
ATOM     18  C   UNL     1     134.971 134.856 141.118  1.00  0.00     0.000 C 
BRANCH  18  19
ATOM     19  C   UNL     1     133.536 135.104 140.615  1.00  0.00     0.000 C 
BRANCH  19  20
ATOM     20  C   UNL     1     133.403 135.380 139.104  1.00  0.00     0.000 C 
BRANCH  20  21
ATOM     21  C   UNL     1     132.452 134.403 138.392  1.00  0.00     0.000 C 
BRANCH  21  22
ATOM     22  C   UNL     1     132.619 132.952 138.877  1.00  0.00     0.000 C 
BRANCH  22  23
ATOM     23  C   UNL     1     131.328 132.269 139.372  1.00  0.00     0.000 C 
BRANCH  23  24
ATOM     24  C   UNL     1     131.173 132.201 140.901  1.00  0.00    -0.000 C 
BRANCH  24  25
ATOM     25  C   UNL     1     129.865 132.838 141.394  1.00  0.00    -0.000 C 
BRANCH  25  26
ATOM     26  C   UNL     1     129.259 133.750 140.317  1.00  0.00    -0.000 C 
BRANCH  26  27
ATOM     27  C   UNL     1     129.484 135.243 140.605  1.00  0.00    -0.000 C 
BRANCH  27  28
ATOM     28  C   UNL     1     129.487 136.101 139.332  1.00  0.00    -0.000 C 
BRANCH  28  29
ATOM     29  C   UNL     1     130.317 137.378 139.535  1.00  0.00    -0.000 C 
BRANCH  29  30
ATOM     30  C   UNL     1     130.863 137.947 138.216  1.00  0.00    -0.000 C 
BRANCH  30  31
ATOM     31  C   UNL     1     129.906 138.957 137.566  1.00  0.00    -0.003 C 
ATOM     32  C   UNL     1     129.628 140.132 138.502  1.00  0.00     0.004 C 
ENDBRANCH  30  31
ENDBRANCH  29  30
ENDBRANCH  28  29
ENDBRANCH  27  28
ENDBRANCH  26  27
ENDBRANCH  25  26
ENDBRANCH  24  25
ENDBRANCH  23  24
ENDBRANCH  22  23
ENDBRANCH  21  22
ENDBRANCH  20  21
ENDBRANCH  19  20
ENDBRANCH  18  19
ENDBRANCH   1  18
TORSDOF 28
ENDMDL
MODEL 5
REMARK VINA RESULT:    -4.813      3.196      6.682
REMARK INTER + INTRA:         -17.039
REMARK INTER:                 -12.753
REMARK INTRA:                  -4.286
REMARK UNBOUND:                -4.347
REMARK SMILES CCCCCCCCCCCCCCCCCCCCCCCCCCCCCC(=O)[O-]
REMARK SMILES IDX 16 1 17 2 18 3 19 4 20 5 21 6 22 7 23 8 24 9 25 10 26 11
REMARK SMILES IDX 27 12 28 13 29 14 30 15 31 16 32 17 15 18 14 19 13 20 12 21
REMARK SMILES IDX 11 22 10 23 9 24 8 25 7 26 6 27 5 28 4 29 3 30 2 31 1 32
REMARK H PARENT
REMARK Flexibility Score: inf
ROOT
ATOM      1  C   UNL     1     130.963 140.237 137.942  1.00  0.00     0.000 C 
ENDROOT
BRANCH   1   2
ATOM      2  C   UNL     1     131.549 139.054 138.732  1.00  0.00     0.000 C 
BRANCH   2   3
ATOM      3  C   UNL     1     132.812 139.438 139.525  1.00  0.00     0.000 C 
BRANCH   3   4
ATOM      4  C   UNL     1     132.735 138.994 140.996  1.00  0.00     0.000 C 
BRANCH   4   5
ATOM      5  C   UNL     1     132.946 140.157 141.980  1.00  0.00     0.000 C 
BRANCH   5   6
ATOM      6  C   UNL     1     133.323 141.473 141.276  1.00  0.00     0.000 C 
BRANCH   6   7
ATOM      7  C   UNL     1     134.657 142.082 141.759  1.00  0.00     0.000 C 
BRANCH   7   8
ATOM      8  C   UNL     1     135.706 141.006 142.095  1.00  0.00     0.000 C 
BRANCH   8   9
ATOM      9  C   UNL     1     136.338 140.398 140.829  1.00  0.00     0.000 C 
BRANCH   9  10
ATOM     10  C   UNL     1     137.025 139.044 141.084  1.00  0.00     0.000 C 
BRANCH  10  11
ATOM     11  C   UNL     1     136.250 137.877 140.444  1.00  0.00     0.000 C 
BRANCH  11  12
ATOM     12  C   UNL     1     137.123 136.630 140.210  1.00  0.00     0.000 C 
BRANCH  12  13
ATOM     13  C   UNL     1     138.560 136.732 140.749  1.00  0.00     0.006 C 
BRANCH  13  14
ATOM     14  C   UNL     1     139.619 136.724 139.635  1.00  0.00     0.053 C 
BRANCH  14  15
ATOM     15  C   UNL     1     140.356 135.420 139.597  1.00  0.00     0.041 C 
ATOM     16  O   UNL     1     141.485 135.307 140.144  1.00  0.00    -0.550 OA
ATOM     17  O   UNL     1     139.775 134.315 138.986  1.00  0.00    -0.550 OA
ENDBRANCH  14  15
ENDBRANCH  13  14
ENDBRANCH  12  13
ENDBRANCH  11  12
ENDBRANCH  10  11
ENDBRANCH   9  10
ENDBRANCH   8   9
ENDBRANCH   7   8
ENDBRANCH   6   7
ENDBRANCH   5   6
ENDBRANCH   4   5
ENDBRANCH   3   4
ENDBRANCH   2   3
ENDBRANCH   1   2
BRANCH   1  18
ATOM     18  C   UNL     1     130.530 141.397 138.856  1.00  0.00     0.000 C 
BRANCH  18  19
ATOM     19  C   UNL     1     129.633 140.944 140.024  1.00  0.00     0.000 C 
BRANCH  19  20
ATOM     20  C   UNL     1     129.294 142.033 141.061  1.00  0.00     0.000 C 
BRANCH  20  21
ATOM     21  C   UNL     1     127.783 142.275 141.213  1.00  0.00     0.000 C 
BRANCH  21  22
ATOM     22  C   UNL     1     127.322 143.587 140.555  1.00  0.00     0.000 C 
BRANCH  22  23
ATOM     23  C   UNL     1     126.411 143.422 139.322  1.00  0.00     0.000 C 
BRANCH  23  24
ATOM     24  C   UNL     1     127.093 142.814 138.084  1.00  0.00    -0.000 C 
BRANCH  24  25
ATOM     25  C   UNL     1     126.093 142.426 136.985  1.00  0.00    -0.000 C 
BRANCH  25  26
ATOM     26  C   UNL     1     125.889 140.904 136.940  1.00  0.00    -0.000 C 
BRANCH  26  27
ATOM     27  C   UNL     1     127.153 140.122 137.332  1.00  0.00    -0.000 C 
BRANCH  27  28
ATOM     28  C   UNL     1     127.158 138.688 136.783  1.00  0.00    -0.000 C 
BRANCH  28  29
ATOM     29  C   UNL     1     127.171 137.665 137.930  1.00  0.00    -0.000 C 
BRANCH  29  30
ATOM     30  C   UNL     1     128.588 137.184 138.281  1.00  0.00    -0.000 C 
BRANCH  30  31
ATOM     31  C   UNL     1     128.820 137.085 139.797  1.00  0.00    -0.003 C 
ATOM     32  C   UNL     1     127.681 137.745 140.571  1.00  0.00     0.004 C 
ENDBRANCH  30  31
ENDBRANCH  29  30
ENDBRANCH  28  29
ENDBRANCH  27  28
ENDBRANCH  26  27
ENDBRANCH  25  26
ENDBRANCH  24  25
ENDBRANCH  23  24
ENDBRANCH  22  23
ENDBRANCH  21  22
ENDBRANCH  20  21
ENDBRANCH  19  20
ENDBRANCH  18  19
ENDBRANCH   1  18
TORSDOF 28
ENDMDL
MODEL 6
REMARK VINA RESULT:    -4.807      1.401      7.894
REMARK INTER + INTRA:         -17.022
REMARK INTER:                 -12.892
REMARK INTRA:                  -4.130
REMARK UNBOUND:                -4.347
REMARK SMILES CCCCCCCCCCCCCCCCCCCCCCCCCCCCCC(=O)[O-]
REMARK SMILES IDX 16 1 17 2 18 3 19 4 20 5 21 6 22 7 23 8 24 9 25 10 26 11
REMARK SMILES IDX 27 12 28 13 29 14 30 15 31 16 32 17 15 18 14 19 13 20 12 21
REMARK SMILES IDX 11 22 10 23 9 24 8 25 7 26 6 27 5 28 4 29 3 30 2 31 1 32
REMARK H PARENT
REMARK Flexibility Score: inf
ROOT
ATOM      1  C   UNL     1     126.029 139.185 137.037  1.00  0.00     0.000 C 
ENDROOT
BRANCH   1   2
ATOM      2  C   UNL     1     124.646 139.771 136.701  1.00  0.00     0.000 C 
BRANCH   2   3
ATOM      3  C   UNL     1     124.601 140.416 135.303  1.00  0.00     0.000 C 
BRANCH   3   4
ATOM      4  C   UNL     1     124.379 141.937 135.369  1.00  0.00     0.000 C 
BRANCH   4   5
ATOM      5  C   UNL     1     125.693 142.725 135.504  1.00  0.00     0.000 C 
BRANCH   5   6
ATOM      6  C   UNL     1     125.762 143.554 136.798  1.00  0.00     0.000 C 
BRANCH   6   7
ATOM      7  C   UNL     1     126.521 142.858 137.949  1.00  0.00     0.000 C 
BRANCH   7   8
ATOM      8  C   UNL     1     126.818 143.816 139.118  1.00  0.00     0.000 C 
BRANCH   8   9
ATOM      9  C   UNL     1     126.774 143.097 140.480  1.00  0.00     0.000 C 
BRANCH   9  10
ATOM     10  C   UNL     1     128.138 142.527 140.909  1.00  0.00     0.000 C 
BRANCH  10  11
ATOM     11  C   UNL     1     128.177 140.991 140.808  1.00  0.00     0.000 C 
BRANCH  11  12
ATOM     12  C   UNL     1     128.917 140.486 139.556  1.00  0.00     0.000 C 
BRANCH  12  13
ATOM     13  C   UNL     1     129.939 141.471 138.964  1.00  0.00     0.006 C 
BRANCH  13  14
ATOM     14  C   UNL     1     131.277 140.804 138.606  1.00  0.00     0.053 C 
BRANCH  14  15
ATOM     15  C   UNL     1     132.152 140.664 139.814  1.00  0.00     0.041 C 
ATOM     16  O   UNL     1     133.092 139.826 139.830  1.00  0.00    -0.550 OA
ATOM     17  O   UNL     1     131.950 141.491 140.914  1.00  0.00    -0.550 OA
ENDBRANCH  14  15
ENDBRANCH  13  14
ENDBRANCH  12  13
ENDBRANCH  11  12
ENDBRANCH  10  11
ENDBRANCH   9  10
ENDBRANCH   8   9
ENDBRANCH   7   8
ENDBRANCH   6   7
ENDBRANCH   5   6
ENDBRANCH   4   5
ENDBRANCH   3   4
ENDBRANCH   2   3
ENDBRANCH   1   2
BRANCH   1  18
ATOM     18  C   UNL     1     126.494 138.143 136.006  1.00  0.00     0.000 C 
BRANCH  18  19
ATOM     19  C   UNL     1     126.364 136.693 136.512  1.00  0.00     0.000 C 
BRANCH  19  20
ATOM     20  C   UNL     1     125.742 136.534 137.913  1.00  0.00     0.000 C 
BRANCH  20  21
ATOM     21  C   UNL     1     126.741 136.018 138.963  1.00  0.00     0.000 C 
BRANCH  21  22
ATOM     22  C   UNL     1     127.270 137.137 139.879  1.00  0.00     0.000 C 
BRANCH  22  23
ATOM     23  C   UNL     1     128.426 136.731 140.816  1.00  0.00     0.000 C 
BRANCH  23  24
ATOM     24  C   UNL     1     129.837 137.003 140.266  1.00  0.00    -0.000 C 
BRANCH  24  25
ATOM     25  C   UNL     1     129.938 136.774 138.751  1.00  0.00    -0.000 C 
BRANCH  25  26
ATOM     26  C   UNL     1     131.315 137.203 138.221  1.00  0.00    -0.000 C 
BRANCH  26  27
ATOM     27  C   UNL     1     132.428 136.205 138.580  1.00  0.00    -0.000 C 
BRANCH  27  28
ATOM     28  C   UNL     1     132.179 134.805 138.002  1.00  0.00    -0.000 C 
BRANCH  28  29
ATOM     29  C   UNL     1     132.655 133.718 138.978  1.00  0.00    -0.000 C 
BRANCH  29  30
ATOM     30  C   UNL     1     131.788 132.450 138.926  1.00  0.00    -0.000 C 
BRANCH  30  31
ATOM     31  C   UNL     1     131.023 132.203 140.236  1.00  0.00    -0.003 C 
ATOM     32  C   UNL     1     130.000 133.307 140.492  1.00  0.00     0.004 C 
ENDBRANCH  30  31
ENDBRANCH  29  30
ENDBRANCH  28  29
ENDBRANCH  27  28
ENDBRANCH  26  27
ENDBRANCH  25  26
ENDBRANCH  24  25
ENDBRANCH  23  24
ENDBRANCH  22  23
ENDBRANCH  21  22
ENDBRANCH  20  21
ENDBRANCH  19  20
ENDBRANCH  18  19
ENDBRANCH   1  18
TORSDOF 28
ENDMDL
MODEL 7
REMARK VINA RESULT:    -4.799      4.062     10.233
REMARK INTER + INTRA:         -17.003
REMARK INTER:                 -13.051
REMARK INTRA:                  -3.951
REMARK UNBOUND:                -4.347
REMARK SMILES CCCCCCCCCCCCCCCCCCCCCCCCCCCCCC(=O)[O-]
REMARK SMILES IDX 16 1 17 2 18 3 19 4 20 5 21 6 22 7 23 8 24 9 25 10 26 11
REMARK SMILES IDX 27 12 28 13 29 14 30 15 31 16 32 17 15 18 14 19 13 20 12 21
REMARK SMILES IDX 11 22 10 23 9 24 8 25 7 26 6 27 5 28 4 29 3 30 2 31 1 32
REMARK H PARENT
REMARK Flexibility Score: inf
ROOT
ATOM      1  C   UNL     1     134.212 137.967 138.402  1.00  0.00     0.000 C 
ENDROOT
BRANCH   1   2
ATOM      2  C   UNL     1     134.582 138.484 139.803  1.00  0.00     0.000 C 
BRANCH   2   3
ATOM      3  C   UNL     1     135.832 139.383 139.792  1.00  0.00     0.000 C 
BRANCH   3   4
ATOM      4  C   UNL     1     136.452 139.540 141.191  1.00  0.00     0.000 C 
BRANCH   4   5
ATOM      5  C   UNL     1     135.603 140.423 142.121  1.00  0.00     0.000 C 
BRANCH   5   6
ATOM      6  C   UNL     1     135.533 141.888 141.654  1.00  0.00     0.000 C 
BRANCH   6   7
ATOM      7  C   UNL     1     134.100 142.384 141.361  1.00  0.00     0.000 C 
BRANCH   7   8
ATOM      8  C   UNL     1     133.047 141.276 141.546  1.00  0.00     0.000 C 
BRANCH   8   9
ATOM      9  C   UNL     1     132.246 141.017 140.256  1.00  0.00     0.000 C 
BRANCH   9  10
ATOM     10  C   UNL     1     130.809 141.565 140.314  1.00  0.00     0.000 C 
BRANCH  10  11
ATOM     11  C   UNL     1     129.960 140.845 141.378  1.00  0.00     0.000 C 
BRANCH  11  12
ATOM     12  C   UNL     1     128.573 141.482 141.577  1.00  0.00     0.000 C 
BRANCH  12  13
ATOM     13  C   UNL     1     127.933 142.057 140.302  1.00  0.00     0.006 C 
BRANCH  13  14
ATOM     14  C   UNL     1     126.915 143.171 140.593  1.00  0.00     0.053 C 
BRANCH  14  15
ATOM     15  C   UNL     1     126.470 143.841 139.329  1.00  0.00     0.041 C 
ATOM     16  O   UNL     1     126.120 145.051 139.335  1.00  0.00    -0.550 OA
ATOM     17  O   UNL     1     126.476 143.134 138.132  1.00  0.00    -0.550 OA
ENDBRANCH  14  15
ENDBRANCH  13  14
ENDBRANCH  12  13
ENDBRANCH  11  12
ENDBRANCH  10  11
ENDBRANCH   9  10
ENDBRANCH   8   9
ENDBRANCH   7   8
ENDBRANCH   6   7
ENDBRANCH   5   6
ENDBRANCH   4   5
ENDBRANCH   3   4
ENDBRANCH   2   3
ENDBRANCH   1   2
BRANCH   1  18
ATOM     18  C   UNL     1     132.691 137.847 138.201  1.00  0.00     0.000 C 
BRANCH  18  19
ATOM     19  C   UNL     1     132.066 136.689 139.002  1.00  0.00     0.000 C 
BRANCH  19  20
ATOM     20  C   UNL     1     132.217 135.290 138.372  1.00  0.00     0.000 C 
BRANCH  20  21
ATOM     21  C   UNL     1     133.238 134.404 139.106  1.00  0.00     0.000 C 
BRANCH  21  22
ATOM     22  C   UNL     1     133.533 134.894 140.535  1.00  0.00     0.000 C 
BRANCH  22  23
ATOM     23  C   UNL     1     134.940 134.562 141.070  1.00  0.00     0.000 C 
BRANCH  23  24
ATOM     24  C   UNL     1     136.008 135.638 140.807  1.00  0.00    -0.000 C 
BRANCH  24  25
ATOM     25  C   UNL     1     137.070 135.703 141.915  1.00  0.00    -0.000 C 
BRANCH  25  26
ATOM     26  C   UNL     1     138.304 136.490 141.447  1.00  0.00    -0.000 C 
BRANCH  26  27
ATOM     27  C   UNL     1     138.346 136.679 139.922  1.00  0.00    -0.000 C 
BRANCH  27  28
ATOM     28  C   UNL     1     139.775 136.664 139.360  1.00  0.00    -0.000 C 
BRANCH  28  29
ATOM     29  C   UNL     1     140.497 135.363 139.740  1.00  0.00    -0.000 C 
BRANCH  29  30
ATOM     30  C   UNL     1     140.204 134.213 138.764  1.00  0.00    -0.000 C 
BRANCH  30  31
ATOM     31  C   UNL     1     139.646 132.967 139.467  1.00  0.00    -0.003 C 
ATOM     32  C   UNL     1     138.121 133.003 139.520  1.00  0.00     0.004 C 
ENDBRANCH  30  31
ENDBRANCH  29  30
ENDBRANCH  28  29
ENDBRANCH  27  28
ENDBRANCH  26  27
ENDBRANCH  25  26
ENDBRANCH  24  25
ENDBRANCH  23  24
ENDBRANCH  22  23
ENDBRANCH  21  22
ENDBRANCH  20  21
ENDBRANCH  19  20
ENDBRANCH  18  19
ENDBRANCH   1  18
TORSDOF 28
ENDMDL
MODEL 8
REMARK VINA RESULT:    -4.774      3.851      7.230
REMARK INTER + INTRA:         -16.935
REMARK INTER:                 -13.638
REMARK INTRA:                  -3.297
REMARK UNBOUND:                -4.347
REMARK SMILES CCCCCCCCCCCCCCCCCCCCCCCCCCCCCC(=O)[O-]
REMARK SMILES IDX 16 1 17 2 18 3 19 4 20 5 21 6 22 7 23 8 24 9 25 10 26 11
REMARK SMILES IDX 27 12 28 13 29 14 30 15 31 16 32 17 15 18 14 19 13 20 12 21
REMARK SMILES IDX 11 22 10 23 9 24 8 25 7 26 6 27 5 28 4 29 3 30 2 31 1 32
REMARK H PARENT
REMARK Flexibility Score: inf
ROOT
ATOM      1  C   UNL     1     138.457 137.842 140.729  1.00  0.00     0.000 C 
ENDROOT
BRANCH   1   2
ATOM      2  C   UNL     1     138.780 136.761 141.775  1.00  0.00     0.000 C 
BRANCH   2   3
ATOM      3  C   UNL     1     140.195 136.178 141.608  1.00  0.00     0.000 C 
BRANCH   3   4
ATOM      4  C   UNL     1     140.531 135.871 140.138  1.00  0.00     0.000 C 
BRANCH   4   5
ATOM      5  C   UNL     1     141.088 134.451 139.940  1.00  0.00     0.000 C 
BRANCH   5   6
ATOM      6  C   UNL     1     140.403 133.696 138.787  1.00  0.00     0.000 C 
BRANCH   6   7
ATOM      7  C   UNL     1     138.952 134.148 138.517  1.00  0.00     0.000 C 
BRANCH   7   8
ATOM      8  C   UNL     1     137.915 133.182 139.119  1.00  0.00     0.000 C 
BRANCH   8   9
ATOM      9  C   UNL     1     137.365 133.688 140.465  1.00  0.00     0.000 C 
BRANCH   9  10
ATOM     10  C   UNL     1     136.240 134.726 140.310  1.00  0.00     0.000 C 
BRANCH  10  11
ATOM     11  C   UNL     1     135.491 134.967 141.634  1.00  0.00     0.000 C 
BRANCH  11  12
ATOM     12  C   UNL     1     134.097 135.590 141.435  1.00  0.00     0.000 C 
BRANCH  12  13
ATOM     13  C   UNL     1     133.890 136.302 140.087  1.00  0.00     0.006 C 
BRANCH  13  14
ATOM     14  C   UNL     1     132.448 136.794 139.886  1.00  0.00     0.053 C 
BRANCH  14  15
ATOM     15  C   UNL     1     131.749 136.003 138.822  1.00  0.00     0.041 C 
ATOM     16  O   UNL     1     132.109 136.093 137.618  1.00  0.00    -0.550 OA
ATOM     17  O   UNL     1     130.720 135.136 139.169  1.00  0.00    -0.550 OA
ENDBRANCH  14  15
ENDBRANCH  13  14
ENDBRANCH  12  13
ENDBRANCH  11  12
ENDBRANCH  10  11
ENDBRANCH   9  10
ENDBRANCH   8   9
ENDBRANCH   7   8
ENDBRANCH   6   7
ENDBRANCH   5   6
ENDBRANCH   4   5
ENDBRANCH   3   4
ENDBRANCH   2   3
ENDBRANCH   1   2
BRANCH   1  18
ATOM     18  C   UNL     1     136.966 138.223 140.715  1.00  0.00     0.000 C 
BRANCH  18  19
ATOM     19  C   UNL     1     136.637 139.408 141.643  1.00  0.00     0.000 C 
BRANCH  19  20
ATOM     20  C   UNL     1     136.312 140.736 140.932  1.00  0.00     0.000 C 
BRANCH  20  21
ATOM     21  C   UNL     1     135.150 141.503 141.585  1.00  0.00     0.000 C 
BRANCH  21  22
ATOM     22  C   UNL     1     133.948 140.598 141.909  1.00  0.00     0.000 C 
BRANCH  22  23
ATOM     23  C   UNL     1     132.971 140.354 140.740  1.00  0.00     0.000 C 
BRANCH  23  24
ATOM     24  C   UNL     1     131.912 141.451 140.537  1.00  0.00    -0.000 C 
BRANCH  24  25
ATOM     25  C   UNL     1     131.145 141.300 139.215  1.00  0.00    -0.000 C 
BRANCH  25  26
ATOM     26  C   UNL     1     129.686 140.893 139.470  1.00  0.00    -0.000 C 
BRANCH  26  27
ATOM     27  C   UNL     1     129.195 141.285 140.873  1.00  0.00    -0.000 C 
BRANCH  27  28
ATOM     28  C   UNL     1     128.396 142.596 140.879  1.00  0.00    -0.000 C 
BRANCH  28  29
ATOM     29  C   UNL     1     127.968 142.982 139.454  1.00  0.00    -0.000 C 
BRANCH  29  30
ATOM     30  C   UNL     1     126.470 143.312 139.352  1.00  0.00    -0.000 C 
BRANCH  30  31
ATOM     31  C   UNL     1     126.136 144.712 139.888  1.00  0.00    -0.003 C 
ATOM     32  C   UNL     1     125.981 145.714 138.747  1.00  0.00     0.004 C 
ENDBRANCH  30  31
ENDBRANCH  29  30
ENDBRANCH  28  29
ENDBRANCH  27  28
ENDBRANCH  26  27
ENDBRANCH  25  26
ENDBRANCH  24  25
ENDBRANCH  23  24
ENDBRANCH  22  23
ENDBRANCH  21  22
ENDBRANCH  20  21
ENDBRANCH  19  20
ENDBRANCH  18  19
ENDBRANCH   1  18
TORSDOF 28
ENDMDL
MODEL 9
REMARK VINA RESULT:    -4.696      3.610      9.263
REMARK INTER + INTRA:         -16.730
REMARK INTER:                 -12.684
REMARK INTRA:                  -4.046
REMARK UNBOUND:                -4.347
REMARK SMILES CCCCCCCCCCCCCCCCCCCCCCCCCCCCCC(=O)[O-]
REMARK SMILES IDX 16 1 17 2 18 3 19 4 20 5 21 6 22 7 23 8 24 9 25 10 26 11
REMARK SMILES IDX 27 12 28 13 29 14 30 15 31 16 32 17 15 18 14 19 13 20 12 21
REMARK SMILES IDX 11 22 10 23 9 24 8 25 7 26 6 27 5 28 4 29 3 30 2 31 1 32
REMARK H PARENT
REMARK Flexibility Score: inf
ROOT
ATOM      1  C   UNL     1     129.555 136.744 139.857  1.00  0.00     0.000 C 
ENDROOT
BRANCH   1   2
ATOM      2  C   UNL     1     128.466 137.300 138.922  1.00  0.00     0.000 C 
BRANCH   2   3
ATOM      3  C   UNL     1     128.726 138.762 138.514  1.00  0.00     0.000 C 
BRANCH   3   4
ATOM      4  C   UNL     1     129.696 138.874 137.325  1.00  0.00     0.000 C 
BRANCH   4   5
ATOM      5  C   UNL     1     130.921 139.750 137.637  1.00  0.00     0.000 C 
BRANCH   5   6
ATOM      6  C   UNL     1     131.211 139.854 139.146  1.00  0.00     0.000 C 
BRANCH   6   7
ATOM      7  C   UNL     1     131.706 141.246 139.594  1.00  0.00     0.000 C 
BRANCH   7   8
ATOM      8  C   UNL     1     131.200 141.623 140.999  1.00  0.00     0.000 C 
BRANCH   8   9
ATOM      9  C   UNL     1     130.291 140.534 141.599  1.00  0.00     0.000 C 
BRANCH   9  10
ATOM     10  C   UNL     1     128.862 141.028 141.889  1.00  0.00     0.000 C 
BRANCH  10  11
ATOM     11  C   UNL     1     128.179 141.584 140.626  1.00  0.00     0.000 C 
BRANCH  11  12
ATOM     12  C   UNL     1     127.215 142.747 140.924  1.00  0.00     0.000 C 
BRANCH  12  13
ATOM     13  C   UNL     1     126.546 143.370 139.687  1.00  0.00     0.006 C 
BRANCH  13  14
ATOM     14  C   UNL     1     127.270 143.023 138.376  1.00  0.00     0.053 C 
BRANCH  14  15
ATOM     15  C   UNL     1     126.302 142.572 137.325  1.00  0.00     0.041 C 
ATOM     16  O   UNL     1     125.958 141.363 137.249  1.00  0.00    -0.550 OA
ATOM     17  O   UNL     1     125.749 143.500 136.450  1.00  0.00    -0.550 OA
ENDBRANCH  14  15
ENDBRANCH  13  14
ENDBRANCH  12  13
ENDBRANCH  11  12
ENDBRANCH  10  11
ENDBRANCH   9  10
ENDBRANCH   8   9
ENDBRANCH   7   8
ENDBRANCH   6   7
ENDBRANCH   5   6
ENDBRANCH   4   5
ENDBRANCH   3   4
ENDBRANCH   2   3
ENDBRANCH   1   2
BRANCH   1  18
ATOM     18  C   UNL     1     129.886 135.271 139.564  1.00  0.00     0.000 C 
BRANCH  18  19
ATOM     19  C   UNL     1     131.370 135.043 139.215  1.00  0.00     0.000 C 
BRANCH  19  20
ATOM     20  C   UNL     1     131.893 135.831 137.998  1.00  0.00     0.000 C 
BRANCH  20  21
ATOM     21  C   UNL     1     133.111 136.712 138.325  1.00  0.00     0.000 C 
BRANCH  21  22
ATOM     22  C   UNL     1     133.264 136.976 139.834  1.00  0.00     0.000 C 
BRANCH  22  23
ATOM     23  C   UNL     1     134.319 138.035 140.214  1.00  0.00     0.000 C 
BRANCH  23  24
ATOM     24  C   UNL     1     135.190 138.535 139.048  1.00  0.00    -0.000 C 
BRANCH  24  25
ATOM     25  C   UNL     1     136.656 138.094 139.169  1.00  0.00    -0.000 C 
BRANCH  25  26
ATOM     26  C   UNL     1     137.043 137.872 140.639  1.00  0.00    -0.000 C 
BRANCH  26  27
ATOM     27  C   UNL     1     138.490 137.384 140.807  1.00  0.00    -0.000 C 
BRANCH  27  28
ATOM     28  C   UNL     1     139.043 136.717 139.539  1.00  0.00    -0.000 C 
BRANCH  28  29
ATOM     29  C   UNL     1     140.369 135.999 139.833  1.00  0.00    -0.000 C 
BRANCH  29  30
ATOM     30  C   UNL     1     140.319 134.499 139.502  1.00  0.00    -0.000 C 
BRANCH  30  31
ATOM     31  C   UNL     1     139.035 134.100 138.760  1.00  0.00    -0.003 C 
ATOM     32  C   UNL     1     139.329 133.750 137.303  1.00  0.00     0.004 C 
ENDBRANCH  30  31
ENDBRANCH  29  30
ENDBRANCH  28  29
ENDBRANCH  27  28
ENDBRANCH  26  27
ENDBRANCH  25  26
ENDBRANCH  24  25
ENDBRANCH  23  24
ENDBRANCH  22  23
ENDBRANCH  21  22
ENDBRANCH  20  21
ENDBRANCH  19  20
ENDBRANCH  18  19
ENDBRANCH   1  18
TORSDOF 28
ENDMDL
