MODEL 1
REMARK VINA RESULT:    -1.825      0.000      0.000
REMARK INTER + INTRA:          -2.514
REMARK INTER:                  -2.252
REMARK INTRA:                  -0.262
REMARK UNBOUND:                -0.262
REMARK SMILES CCCCC(=O)CC
REMARK SMILES IDX 4 1 3 2 2 3 1 4 5 5 6 6 7 7 8 8
REMARK H PARENT
REMARK Flexibility Score: inf
ROOT
ATOM      1  C   UNL     1     125.716 109.015 135.241  1.00  0.00     0.075 C 
ENDROOT
BRANCH   1   2
ATOM      2  C   UNL     1     126.756 108.457 134.264  1.00  0.00     0.008 C 
BRANCH   2   3
ATOM      3  C   UNL     1     127.125 109.499 133.201  1.00  0.00    -0.003 C 
ATOM      4  C   UNL     1     127.125 110.908 133.785  1.00  0.00     0.004 C 
ENDBRANCH   2   3
ENDBRANCH   1   2
BRANCH   1   5
ATOM      5  C   UNL     1     125.893 108.410 136.609  1.00  0.00     0.132 C 
ATOM      6  O   UNL     1     125.980 107.196 136.722  1.00  0.00    -0.300 OA
BRANCH   5   7
ATOM      7  C   UNL     1     125.966 109.274 137.841  1.00  0.00     0.072 C 
ATOM      8  C   UNL     1     126.085 110.747 137.465  1.00  0.00     0.012 C 
ENDBRANCH   5   7
ENDBRANCH   1   5
TORSDOF 4
ENDMDL
MODEL 2
REMARK VINA RESULT:    -1.789      0.902      3.337
REMARK INTER + INTRA:          -2.469
REMARK INTER:                  -2.198
REMARK INTRA:                  -0.271
REMARK UNBOUND:                -0.262
REMARK SMILES CCCCC(=O)CC
REMARK SMILES IDX 4 1 3 2 2 3 1 4 5 5 6 6 7 7 8 8
REMARK H PARENT
REMARK Flexibility Score: inf
ROOT
ATOM      1  C   UNL     1     125.534 109.393 135.637  1.00  0.00     0.075 C 
ENDROOT
BRANCH   1   2
ATOM      2  C   UNL     1     125.811 109.039 137.102  1.00  0.00     0.008 C 
BRANCH   2   3
ATOM      3  C   UNL     1     125.944 110.305 137.957  1.00  0.00    -0.003 C 
ATOM      4  C   UNL     1     126.583 111.441 137.165  1.00  0.00     0.004 C 
ENDBRANCH   2   3
ENDBRANCH   1   2
BRANCH   1   5
ATOM      5  C   UNL     1     126.322 108.500 134.715  1.00  0.00     0.132 C 
ATOM      6  O   UNL     1     126.322 107.292 134.905  1.00  0.00    -0.300 OA
BRANCH   5   7
ATOM      7  C   UNL     1     127.108 109.067 133.562  1.00  0.00     0.072 C 
ATOM      8  C   UNL     1     127.125 110.591 133.614  1.00  0.00     0.012 C 
ENDBRANCH   5   7
ENDBRANCH   1   5
TORSDOF 4
ENDMDL
MODEL 3
REMARK VINA RESULT:    -1.764      2.145      4.264
REMARK INTER + INTRA:          -2.438
REMARK INTER:                  -2.198
REMARK INTRA:                  -0.240
REMARK UNBOUND:                -0.262
REMARK SMILES CCCCC(=O)CC
REMARK SMILES IDX 4 1 3 2 2 3 1 4 5 5 6 6 7 7 8 8
REMARK H PARENT
REMARK Flexibility Score: inf
ROOT
ATOM      1  C   UNL     1     125.989 110.527 136.105  1.00  0.00     0.075 C 
ENDROOT
BRANCH   1   2
ATOM      2  C   UNL     1     126.636 111.350 137.223  1.00  0.00     0.008 C 
BRANCH   2   3
ATOM      3  C   UNL     1     126.734 110.536 138.519  1.00  0.00    -0.003 C 
ATOM      4  C   UNL     1     126.216 109.115 138.317  1.00  0.00     0.004 C 
ENDBRANCH   2   3
ENDBRANCH   1   2
BRANCH   1   5
ATOM      5  C   UNL     1     126.654 110.807 134.783  1.00  0.00     0.132 C 
ATOM      6  O   UNL     1     126.913 111.962 134.474  1.00  0.00    -0.300 OA
BRANCH   5   7
ATOM      7  C   UNL     1     127.010 109.691 133.836  1.00  0.00     0.072 C 
ATOM      8  C   UNL     1     126.518 108.350 134.368  1.00  0.00     0.012 C 
ENDBRANCH   5   7
ENDBRANCH   1   5
TORSDOF 4
ENDMDL
MODEL 4
REMARK VINA RESULT:    -1.747      1.150      1.520
REMARK INTER + INTRA:          -2.417
REMARK INTER:                  -2.077
REMARK INTRA:                  -0.340
REMARK UNBOUND:                -0.262
REMARK SMILES CCCCC(=O)CC
REMARK SMILES IDX 4 1 3 2 2 3 1 4 5 5 6 6 7 7 8 8
REMARK H PARENT
REMARK Flexibility Score: inf
ROOT
ATOM      1  C   UNL     1     125.420 110.080 136.058  1.00  0.00     0.075 C 
ENDROOT
BRANCH   1   2
ATOM      2  C   UNL     1     125.610 108.873 135.133  1.00  0.00     0.008 C 
BRANCH   2   3
ATOM      3  C   UNL     1     126.836 109.059 134.232  1.00  0.00    -0.003 C 
ATOM      4  C   UNL     1     126.995 110.517 133.811  1.00  0.00     0.004 C 
ENDBRANCH   2   3
ENDBRANCH   1   2
BRANCH   1   5
ATOM      5  C   UNL     1     126.076 109.838 137.392  1.00  0.00     0.132 C 
ATOM      6  O   UNL     1     126.050 108.717 137.878  1.00  0.00    -0.300 OA
BRANCH   5   7
ATOM      7  C   UNL     1     126.766 110.951 138.136  1.00  0.00     0.072 C 
ATOM      8  C   UNL     1     127.124 112.094 137.192  1.00  0.00     0.012 C 
ENDBRANCH   5   7
ENDBRANCH   1   5
TORSDOF 4
ENDMDL
MODEL 5
REMARK VINA RESULT:    -1.651      2.400      4.056
REMARK INTER + INTRA:          -2.299
REMARK INTER:                  -1.988
REMARK INTRA:                  -0.311
REMARK UNBOUND:                -0.262
REMARK SMILES CCCCC(=O)CC
REMARK SMILES IDX 4 1 3 2 2 3 1 4 5 5 6 6 7 7 8 8
REMARK H PARENT
REMARK Flexibility Score: inf
ROOT
ATOM      1  C   UNL     1     126.028 111.132 134.326  1.00  0.00     0.075 C 
ENDROOT
BRANCH   1   2
ATOM      2  C   UNL     1     127.118 112.090 134.817  1.00  0.00     0.008 C 
BRANCH   2   3
ATOM      3  C   UNL     1     127.082 112.228 136.344  1.00  0.00    -0.003 C 
ATOM      4  C   UNL     1     126.338 111.061 136.985  1.00  0.00     0.004 C 
ENDBRANCH   2   3
ENDBRANCH   1   2
BRANCH   1   5
ATOM      5  C   UNL     1     126.552 110.249 133.224  1.00  0.00     0.132 C 
ATOM      6  O   UNL     1     126.512 110.645 132.068  1.00  0.00    -0.300 OA
BRANCH   5   7
ATOM      7  C   UNL     1     127.125 108.888 133.519  1.00  0.00     0.072 C 
ATOM      8  C   UNL     1     126.296 108.168 134.577  1.00  0.00     0.012 C 
ENDBRANCH   5   7
ENDBRANCH   1   5
TORSDOF 4
ENDMDL
MODEL 6
REMARK VINA RESULT:    -1.594      1.255      3.257
REMARK INTER + INTRA:          -2.228
REMARK INTER:                  -1.959
REMARK INTRA:                  -0.269
REMARK UNBOUND:                -0.262
REMARK SMILES CCCCC(=O)CC
REMARK SMILES IDX 4 1 3 2 2 3 1 4 5 5 6 6 7 7 8 8
REMARK H PARENT
REMARK Flexibility Score: inf
ROOT
ATOM      1  C   UNL     1     125.466 109.192 137.273  1.00  0.00     0.075 C 
ENDROOT
BRANCH   1   2
ATOM      2  C   UNL     1     126.390 109.757 138.356  1.00  0.00     0.008 C 
BRANCH   2   3
ATOM      3  C   UNL     1     126.521 111.279 138.228  1.00  0.00    -0.003 C 
ATOM      4  C   UNL     1     126.832 111.687 136.791  1.00  0.00     0.004 C 
ENDBRANCH   2   3
ENDBRANCH   1   2
BRANCH   1   5
ATOM      5  C   UNL     1     125.969 107.859 136.785  1.00  0.00     0.132 C 
ATOM      6  O   UNL     1     126.338 107.023 137.597  1.00  0.00    -0.300 OA
BRANCH   5   7
ATOM      7  C   UNL     1     126.025 107.535 135.315  1.00  0.00     0.072 C 
ATOM      8  C   UNL     1     126.445 108.758 134.506  1.00  0.00     0.012 C 
ENDBRANCH   5   7
ENDBRANCH   1   5
TORSDOF 4
ENDMDL
MODEL 7
REMARK VINA RESULT:    -1.533      2.810      4.324
REMARK INTER + INTRA:          -2.153
REMARK INTER:                  -1.800
REMARK INTRA:                  -0.353
REMARK UNBOUND:                -0.262
REMARK SMILES CCCCC(=O)CC
REMARK SMILES IDX 4 1 3 2 2 3 1 4 5 5 6 6 7 7 8 8
REMARK H PARENT
REMARK Flexibility Score: inf
ROOT
ATOM      1  C   UNL     1     127.120 110.342 133.608  1.00  0.00     0.075 C 
ENDROOT
BRANCH   1   2
ATOM      2  C   UNL     1     127.124 108.811 133.665  1.00  0.00     0.008 C 
BRANCH   2   3
ATOM      3  C   UNL     1     126.250 108.302 134.817  1.00  0.00    -0.003 C 
ATOM      4  C   UNL     1     125.899 109.429 135.783  1.00  0.00     0.004 C 
ENDBRANCH   2   3
ENDBRANCH   1   2
BRANCH   1   5
ATOM      5  C   UNL     1     126.557 110.825 132.298  1.00  0.00     0.132 C 
ATOM      6  O   UNL     1     127.125 110.532 131.255  1.00  0.00    -0.300 OA
BRANCH   5   7
ATOM      7  C   UNL     1     125.304 111.661 132.246  1.00  0.00     0.072 C 
ATOM      8  C   UNL     1     124.117 110.894 132.820  1.00  0.00     0.012 C 
ENDBRANCH   5   7
ENDBRANCH   1   5
TORSDOF 4
ENDMDL
MODEL 8
REMARK VINA RESULT:    -1.196      1.610      2.302
REMARK INTER + INTRA:          -1.737
REMARK INTER:                  -1.459
REMARK INTRA:                  -0.278
REMARK UNBOUND:                -0.262
REMARK SMILES CCCCC(=O)CC
REMARK SMILES IDX 4 1 3 2 2 3 1 4 5 5 6 6 7 7 8 8
REMARK H PARENT
REMARK Flexibility Score: inf
ROOT
ATOM      1  C   UNL     1     125.663 109.481 135.592  1.00  0.00     0.075 C 
ENDROOT
BRANCH   1   2
ATOM      2  C   UNL     1     126.611 110.198 134.626  1.00  0.00     0.008 C 
BRANCH   2   3
ATOM      3  C   UNL     1     127.125 109.239 133.546  1.00  0.00    -0.003 C 
ATOM      4  C   UNL     1     126.754 107.795 133.869  1.00  0.00     0.004 C 
ENDBRANCH   2   3
ENDBRANCH   1   2
BRANCH   1   5
ATOM      5  C   UNL     1     125.987 109.835 137.019  1.00  0.00     0.132 C 
ATOM      6  O   UNL     1     126.083 111.011 137.338  1.00  0.00    -0.300 OA
BRANCH   5   7
ATOM      7  C   UNL     1     126.193 108.767 138.062  1.00  0.00     0.072 C 
ATOM      8  C   UNL     1     125.987 107.379 137.465  1.00  0.00     0.012 C 
ENDBRANCH   5   7
ENDBRANCH   1   5
TORSDOF 4
ENDMDL
