MODEL 1
REMARK VINA RESULT:    -3.321      0.000      0.000
REMARK INTER + INTRA:          -4.375
REMARK INTER:                  -4.000
REMARK INTRA:                  -0.375
REMARK UNBOUND:                -0.375
REMARK SMILES NC(=O)C[C@H]([NH3+])C(=O)[O-]
REMARK SMILES IDX 4 1 5 2 6 3 7 7 8 8 9 9 2 10 3 11 1 12
REMARK H PARENT 6 4 6 5 6 6 1 13 1 14
REMARK Flexibility Score: inf
ROOT
ATOM      1  C   UNL     1     100.907 105.731  90.922  1.00  0.00     0.171 C 
ENDROOT
BRANCH   1   2
ATOM      2  C   UNL     1     101.712 106.838  91.637  1.00  0.00     0.237 C 
BRANCH   2   3
ATOM      3  N   UNL     1     102.691 106.277  92.578  1.00  0.00    -0.350 N 
ATOM      4  H   UNL     1     102.620 105.233  92.583  1.00  0.00     0.345 HD
ATOM      5  H   UNL     1     102.534 106.635  93.548  1.00  0.00     0.345 HD
ATOM      6  H   UNL     1     103.658 106.537  92.274  1.00  0.00     0.345 HD
ENDBRANCH   2   3
BRANCH   2   7
ATOM      7  C   UNL     1     100.802 107.824  92.324  1.00  0.00     0.100 C 
ATOM      8  O   UNL     1      99.810 107.411  92.982  1.00  0.00    -0.544 OA
ATOM      9  O   UNL     1     101.074 109.188  92.285  1.00  0.00    -0.544 OA
ENDBRANCH   2   7
ENDBRANCH   1   2
BRANCH   1  10
ATOM     10  C   UNL     1     101.058 104.378  91.558  1.00  0.00     0.223 C 
ATOM     11  O   UNL     1     100.561 104.162  92.696  1.00  0.00    -0.275 OA
ATOM     12  N   UNL     1     101.744 103.328  90.875  1.00  0.00    -0.369 N 
ATOM     13  H   UNL     1     101.836 102.386  91.316  1.00  0.00     0.159 HD
ATOM     14  H   UNL     1     102.159 103.488  89.932  1.00  0.00     0.159 HD
ENDBRANCH   1  10
TORSDOF 4
ENDMDL
MODEL 2
REMARK VINA RESULT:    -3.089     15.500     16.442
REMARK INTER + INTRA:          -4.096
REMARK INTER:                  -3.799
REMARK INTRA:                  -0.297
REMARK UNBOUND:                -0.375
REMARK SMILES NC(=O)C[C@H]([NH3+])C(=O)[O-]
REMARK SMILES IDX 4 1 5 2 6 3 7 7 8 8 9 9 2 10 3 11 1 12
REMARK H PARENT 6 4 6 5 6 6 1 13 1 14
REMARK Flexibility Score: inf
ROOT
ATOM      1  C   UNL     1     115.506 112.206  91.685  1.00  0.00     0.171 C 
ENDROOT
BRANCH   1   2
ATOM      2  C   UNL     1     117.031 112.167  91.926  1.00  0.00     0.237 C 
BRANCH   2   3
ATOM      3  N   UNL     1     117.407 111.101  92.864  1.00  0.00    -0.350 N 
ATOM      4  H   UNL     1     116.594 110.459  93.015  1.00  0.00     0.345 HD
ATOM      5  H   UNL     1     117.708 111.494  93.785  1.00  0.00     0.345 HD
ATOM      6  H   UNL     1     118.194 110.541  92.461  1.00  0.00     0.345 HD
ENDBRANCH   2   3
BRANCH   2   7
ATOM      7  C   UNL     1     117.550 113.505  92.387  1.00  0.00     0.100 C 
ATOM      8  O   UNL     1     116.742 114.430  92.668  1.00  0.00    -0.544 OA
ATOM      9  O   UNL     1     118.914 113.716  92.559  1.00  0.00    -0.544 OA
ENDBRANCH   2   7
ENDBRANCH   1   2
BRANCH   1  10
ATOM     10  C   UNL     1     114.806 110.939  92.089  1.00  0.00     0.223 C 
ATOM     11  O   UNL     1     115.044 109.868  91.469  1.00  0.00    -0.275 OA
ATOM     12  N   UNL     1     113.888 110.934  93.183  1.00  0.00    -0.369 N 
ATOM     13  H   UNL     1     113.414 110.048  93.467  1.00  0.00     0.159 HD
ATOM     14  H   UNL     1     113.681 111.810  93.709  1.00  0.00     0.159 HD
ENDBRANCH   1  10
TORSDOF 4
ENDMDL
MODEL 3
REMARK VINA RESULT:    -3.060      2.243      3.729
REMARK INTER + INTRA:          -4.061
REMARK INTER:                  -3.767
REMARK INTRA:                  -0.293
REMARK UNBOUND:                -0.375
REMARK SMILES NC(=O)C[C@H]([NH3+])C(=O)[O-]
REMARK SMILES IDX 4 1 5 2 6 3 7 7 8 8 9 9 2 10 3 11 1 12
REMARK H PARENT 6 4 6 5 6 6 1 13 1 14
REMARK Flexibility Score: inf
ROOT
ATOM      1  C   UNL     1     102.652 106.038  91.637  1.00  0.00     0.171 C 
ENDROOT
BRANCH   1   2
ATOM      2  C   UNL     1     101.136 106.064  91.927  1.00  0.00     0.237 C 
BRANCH   2   3
ATOM      3  N   UNL     1     100.780 107.131  92.871  1.00  0.00    -0.350 N 
ATOM      4  H   UNL     1     100.171 107.837  92.395  1.00  0.00     0.345 HD
ATOM      5  H   UNL     1     101.633 107.610  93.242  1.00  0.00     0.345 HD
ATOM      6  H   UNL     1     100.245 106.726  93.673  1.00  0.00     0.345 HD
ENDBRANCH   2   3
BRANCH   2   7
ATOM      7  C   UNL     1     100.645 104.723  92.412  1.00  0.00     0.100 C 
ATOM      8  O   UNL     1      99.408 104.506  92.514  1.00  0.00    -0.544 OA
ATOM      9  O   UNL     1     101.542 103.700  92.699  1.00  0.00    -0.544 OA
ENDBRANCH   2   7
ENDBRANCH   1   2
BRANCH   1  10
ATOM     10  C   UNL     1     103.360 107.295  92.056  1.00  0.00     0.223 C 
ATOM     11  O   UNL     1     103.104 108.383  91.473  1.00  0.00    -0.275 OA
ATOM     12  N   UNL     1     104.307 107.273  93.125  1.00  0.00    -0.369 N 
ATOM     13  H   UNL     1     104.788 108.151  93.421  1.00  0.00     0.159 HD
ATOM     14  H   UNL     1     104.529 106.382  93.621  1.00  0.00     0.159 HD
ENDBRANCH   1  10
TORSDOF 4
ENDMDL
MODEL 4
REMARK VINA RESULT:    -3.022     15.995     17.207
REMARK INTER + INTRA:          -4.015
REMARK INTER:                  -3.766
REMARK INTRA:                  -0.249
REMARK UNBOUND:                -0.375
REMARK SMILES NC(=O)C[C@H]([NH3+])C(=O)[O-]
REMARK SMILES IDX 4 1 5 2 6 3 7 7 8 8 9 9 2 10 3 11 1 12
REMARK H PARENT 6 4 6 5 6 6 1 13 1 14
REMARK Flexibility Score: inf
ROOT
ATOM      1  C   UNL     1     115.792 114.582  92.011  1.00  0.00     0.171 C 
ENDROOT
BRANCH   1   2
ATOM      2  C   UNL     1     116.325 113.168  91.695  1.00  0.00     0.237 C 
BRANCH   2   3
ATOM      3  N   UNL     1     115.734 112.154  92.578  1.00  0.00    -0.350 N 
ATOM      4  H   UNL     1     116.474 111.483  92.890  1.00  0.00     0.345 HD
ATOM      5  H   UNL     1     114.974 111.624  92.093  1.00  0.00     0.345 HD
ATOM      6  H   UNL     1     115.334 112.618  93.426  1.00  0.00     0.345 HD
ENDBRANCH   2   3
BRANCH   2   7
ATOM      7  C   UNL     1     117.831 113.123  91.746  1.00  0.00     0.100 C 
ATOM      8  O   UNL     1     118.470 112.474  90.875  1.00  0.00    -0.544 OA
ATOM      9  O   UNL     1     118.530 113.836  92.714  1.00  0.00    -0.544 OA
ENDBRANCH   2   7
ENDBRANCH   1   2
BRANCH   1  10
ATOM     10  C   UNL     1     114.489 114.894  91.330  1.00  0.00     0.223 C 
ATOM     11  O   UNL     1     113.630 113.985  91.175  1.00  0.00    -0.275 OA
ATOM     12  N   UNL     1     114.207 116.218  90.875  1.00  0.00    -0.369 N 
ATOM     13  H   UNL     1     113.295 116.433  90.414  1.00  0.00     0.159 HD
ATOM     14  H   UNL     1     114.905 116.984  90.998  1.00  0.00     0.159 HD
ENDBRANCH   1  10
TORSDOF 4
ENDMDL
MODEL 5
REMARK VINA RESULT:    -2.954     13.877     14.543
REMARK INTER + INTRA:          -3.933
REMARK INTER:                  -3.418
REMARK INTRA:                  -0.515
REMARK UNBOUND:                -0.375
REMARK SMILES NC(=O)C[C@H]([NH3+])C(=O)[O-]
REMARK SMILES IDX 4 1 5 2 6 3 7 7 8 8 9 9 2 10 3 11 1 12
REMARK H PARENT 6 4 6 5 6 6 1 13 1 14
REMARK Flexibility Score: inf
ROOT
ATOM      1  C   UNL     1     111.327 100.003 101.333  1.00  0.00     0.171 C 
ENDROOT
BRANCH   1   2
ATOM      2  C   UNL     1     110.577 100.169  99.993  1.00  0.00     0.237 C 
BRANCH   2   3
ATOM      3  N   UNL     1     111.357  99.646  98.864  1.00  0.00    -0.350 N 
ATOM      4  H   UNL     1     111.406 100.365  98.105  1.00  0.00     0.345 HD
ATOM      5  H   UNL     1     110.931  98.771  98.481  1.00  0.00     0.345 HD
ATOM      6  H   UNL     1     112.333  99.438  99.179  1.00  0.00     0.345 HD
ENDBRANCH   2   3
BRANCH   2   7
ATOM      7  C   UNL     1     110.177 101.604  99.760  1.00  0.00     0.100 C 
ATOM      8  O   UNL     1     108.962 101.902  99.611  1.00  0.00    -0.544 OA
ATOM      9  O   UNL     1     111.131 102.616  99.761  1.00  0.00    -0.544 OA
ENDBRANCH   2   7
ENDBRANCH   1   2
BRANCH   1  10
ATOM     10  C   UNL     1     112.822 100.035 101.186  1.00  0.00     0.223 C 
ATOM     11  O   UNL     1     113.464  98.956 101.082  1.00  0.00    -0.275 OA
ATOM     12  N   UNL     1     113.521 101.280 101.143  1.00  0.00    -0.369 N 
ATOM     13  H   UNL     1     114.558 101.297 101.028  1.00  0.00     0.159 HD
ATOM     14  H   UNL     1     113.005 102.183 101.224  1.00  0.00     0.159 HD
ENDBRANCH   1  10
TORSDOF 4
ENDMDL
MODEL 6
REMARK VINA RESULT:    -2.943     13.267     13.971
REMARK INTER + INTRA:          -3.920
REMARK INTER:                  -3.553
REMARK INTRA:                  -0.366
REMARK UNBOUND:                -0.375
REMARK SMILES NC(=O)C[C@H]([NH3+])C(=O)[O-]
REMARK SMILES IDX 4 1 5 2 6 3 7 7 8 8 9 9 2 10 3 11 1 12
REMARK H PARENT 6 4 6 5 6 6 1 13 1 14
REMARK Flexibility Score: inf
ROOT
ATOM      1  C   UNL     1     111.953 101.819 100.134  1.00  0.00     0.171 C 
ENDROOT
BRANCH   1   2
ATOM      2  C   UNL     1     110.651 101.003 100.279  1.00  0.00     0.237 C 
BRANCH   2   3
ATOM      3  N   UNL     1     110.908  99.557 100.247  1.00  0.00    -0.350 N 
ATOM      4  H   UNL     1     111.767  99.338 100.803  1.00  0.00     0.345 HD
ATOM      5  H   UNL     1     111.039  99.216  99.267  1.00  0.00     0.345 HD
ATOM      6  H   UNL     1     110.102  99.048 100.677  1.00  0.00     0.345 HD
ENDBRANCH   2   3
BRANCH   2   7
ATOM      7  C   UNL     1     109.635 101.398  99.237  1.00  0.00     0.100 C 
ATOM      8  O   UNL     1     108.658 102.126  99.556  1.00  0.00    -0.544 OA
ATOM      9  O   UNL     1     109.791 101.010  97.911  1.00  0.00    -0.544 OA
ENDBRANCH   2   7
ENDBRANCH   1   2
BRANCH   1  10
ATOM     10  C   UNL     1     113.123 100.998  99.669  1.00  0.00     0.223 C 
ATOM     11  O   UNL     1     113.085 100.435  98.542  1.00  0.00    -0.275 OA
ATOM     12  N   UNL     1     114.287 100.865 100.486  1.00  0.00    -0.369 N 
ATOM     13  H   UNL     1     115.102 100.304 100.154  1.00  0.00     0.159 HD
ATOM     14  H   UNL     1     114.337 101.327 101.420  1.00  0.00     0.159 HD
ENDBRANCH   1  10
TORSDOF 4
ENDMDL
MODEL 7
REMARK VINA RESULT:    -2.937     14.544     15.228
REMARK INTER + INTRA:          -3.912
REMARK INTER:                  -3.629
REMARK INTRA:                  -0.283
REMARK UNBOUND:                -0.375
REMARK SMILES NC(=O)C[C@H]([NH3+])C(=O)[O-]
REMARK SMILES IDX 4 1 5 2 6 3 7 7 8 8 9 9 2 10 3 11 1 12
REMARK H PARENT 6 4 6 5 6 6 1 13 1 14
REMARK Flexibility Score: inf
ROOT
ATOM      1  C   UNL     1     106.125 116.568 100.265  1.00  0.00     0.171 C 
ENDROOT
BRANCH   1   2
ATOM      2  C   UNL     1     107.449 117.361 100.286  1.00  0.00     0.237 C 
BRANCH   2   3
ATOM      3  N   UNL     1     107.222 118.804 100.134  1.00  0.00    -0.350 N 
ATOM      4  H   UNL     1     106.468 118.971  99.428  1.00  0.00     0.345 HD
ATOM      5  H   UNL     1     108.093 119.296  99.828  1.00  0.00     0.345 HD
ATOM      6  H   UNL     1     106.910 119.207 101.048  1.00  0.00     0.345 HD
ENDBRANCH   2   3
BRANCH   2   7
ATOM      7  C   UNL     1     108.414 116.850  99.246  1.00  0.00     0.100 C 
ATOM      8  O   UNL     1     109.392 116.136  99.593  1.00  0.00    -0.544 OA
ATOM      9  O   UNL     1     108.207 117.113  97.896  1.00  0.00    -0.544 OA
ENDBRANCH   2   7
ENDBRANCH   1   2
BRANCH   1  10
ATOM     10  C   UNL     1     105.007 117.255 100.997  1.00  0.00     0.223 C 
ATOM     11  O   UNL     1     105.209 117.729 102.147  1.00  0.00    -0.275 OA
ATOM     12  N   UNL     1     103.720 117.393 100.393  1.00  0.00    -0.369 N 
ATOM     13  H   UNL     1     102.951 117.883 100.900  1.00  0.00     0.159 HD
ATOM     14  H   UNL     1     103.535 117.010  99.440  1.00  0.00     0.159 HD
ENDBRANCH   1  10
TORSDOF 4
ENDMDL
MODEL 8
REMARK VINA RESULT:    -2.917     14.093     14.662
REMARK INTER + INTRA:          -3.889
REMARK INTER:                  -3.769
REMARK INTRA:                  -0.119
REMARK UNBOUND:                -0.375
REMARK SMILES NC(=O)C[C@H]([NH3+])C(=O)[O-]
REMARK SMILES IDX 4 1 5 2 6 3 7 7 8 8 9 9 2 10 3 11 1 12
REMARK H PARENT 6 4 6 5 6 6 1 13 1 14
REMARK Flexibility Score: inf
ROOT
ATOM      1  C   UNL     1     106.962 116.256  99.665  1.00  0.00     0.171 C 
ENDROOT
BRANCH   1   2
ATOM      2  C   UNL     1     105.801 117.153 100.146  1.00  0.00     0.237 C 
BRANCH   2   3
ATOM      3  N   UNL     1     104.974 116.477 101.156  1.00  0.00    -0.350 N 
ATOM      4  H   UNL     1     105.500 115.668 101.560  1.00  0.00     0.345 HD
ATOM      5  H   UNL     1     104.078 116.130 100.743  1.00  0.00     0.345 HD
ATOM      6  H   UNL     1     104.753 117.144 101.931  1.00  0.00     0.345 HD
ENDBRANCH   2   3
BRANCH   2   7
ATOM      7  C   UNL     1     104.961 117.634  98.990  1.00  0.00     0.100 C 
ATOM      8  O   UNL     1     103.793 118.058  99.196  1.00  0.00    -0.544 OA
ATOM      9  O   UNL     1     105.481 117.667  97.701  1.00  0.00    -0.544 OA
ENDBRANCH   2   7
ENDBRANCH   1   2
BRANCH   1  10
ATOM     10  C   UNL     1     108.294 116.953  99.671  1.00  0.00     0.223 C 
ATOM     11  O   UNL     1     108.345 118.206  99.792  1.00  0.00    -0.275 OA
ATOM     12  N   UNL     1     109.505 116.203  99.562  1.00  0.00    -0.369 N 
ATOM     13  H   UNL     1     110.428 116.690  99.579  1.00  0.00     0.159 HD
ATOM     14  H   UNL     1     109.482 115.165  99.464  1.00  0.00     0.159 HD
ENDBRANCH   1  10
TORSDOF 4
ENDMDL
MODEL 9
REMARK VINA RESULT:    -2.883      2.108      2.881
REMARK INTER + INTRA:          -3.847
REMARK INTER:                  -3.589
REMARK INTRA:                  -0.258
REMARK UNBOUND:                -0.375
REMARK SMILES NC(=O)C[C@H]([NH3+])C(=O)[O-]
REMARK SMILES IDX 4 1 5 2 6 3 7 7 8 8 9 9 2 10 3 11 1 12
REMARK H PARENT 6 4 6 5 6 6 1 13 1 14
REMARK Flexibility Score: inf
ROOT
ATOM      1  C   UNL     1     102.125 103.763  91.828  1.00  0.00     0.171 C 
ENDROOT
BRANCH   1   2
ATOM      2  C   UNL     1     101.651 105.230  91.752  1.00  0.00     0.237 C 
BRANCH   2   3
ATOM      3  N   UNL     1     102.331 106.074  92.744  1.00  0.00    -0.350 N 
ATOM      4  H   UNL     1     101.762 106.117  93.621  1.00  0.00     0.345 HD
ATOM      5  H   UNL     1     102.476 107.044  92.382  1.00  0.00     0.345 HD
ATOM      6  H   UNL     1     103.262 105.658  92.978  1.00  0.00     0.345 HD
ENDBRANCH   2   3
BRANCH   2   7
ATOM      7  C   UNL     1     100.153 105.333  91.886  1.00  0.00     0.100 C 
ATOM      8  O   UNL     1      99.513 106.149  91.170  1.00  0.00    -0.544 OA
ATOM      9  O   UNL     1      99.459 104.498  92.755  1.00  0.00    -0.544 OA
ENDBRANCH   2   7
ENDBRANCH   1   2
BRANCH   1  10
ATOM     10  C   UNL     1     103.464 103.535  91.185  1.00  0.00     0.223 C 
ATOM     11  O   UNL     1     104.214 104.516  90.934  1.00  0.00    -0.275 OA
ATOM     12  N   UNL     1     103.904 102.212  90.875  1.00  0.00    -0.369 N 
ATOM     13  H   UNL     1     104.841 102.058  90.440  1.00  0.00     0.159 HD
ATOM     14  H   UNL     1     103.299 101.387  91.079  1.00  0.00     0.159 HD
ENDBRANCH   1  10
TORSDOF 4
ENDMDL
