MODEL 1
REMARK VINA RESULT:    -4.002      0.000      0.000
REMARK INTER + INTRA:          -4.912
REMARK INTER:                  -4.703
REMARK INTRA:                  -0.209
REMARK UNBOUND:                -0.209
REMARK SMILES O=c1c(O)c(-c2ccc(O)cc2)oc2cc(O)cc(O)c12
REMARK SMILES IDX 5 1 3 2 2 3 1 4 21 5 19 6 18 7 16 8 15 9 14 10 13 11 6 12
REMARK SMILES IDX 7 13 8 14 9 15 12 16 11 17 10 18 4 20 20 22 17 24
REMARK H PARENT 10 19 4 21 20 23 17 25
REMARK Flexibility Score: inf
ROOT
ATOM      1  C   UNL     1       9.692  37.400  22.425  1.00  0.00     0.180 A 
ATOM      2  C   UNL     1       9.900  38.784  22.551  1.00  0.00     0.208 A 
ATOM      3  C   UNL     1      10.220  39.312  23.811  1.00  0.00     0.238 A 
ATOM      4  O   UNL     1      10.352  40.559  23.929  1.00  0.00    -0.285 OA
ATOM      5  C   UNL     1      10.341  38.449  24.927  1.00  0.00     0.111 A 
ATOM      6  C   UNL     1      10.700  38.871  26.243  1.00  0.00     0.134 A 
ATOM      7  C   UNL     1      10.663  37.950  27.297  1.00  0.00     0.093 A 
ATOM      8  C   UNL     1      10.344  36.608  27.071  1.00  0.00     0.123 A 
ATOM      9  C   UNL     1      10.051  36.175  25.780  1.00  0.00     0.094 A 
ATOM     10  C   UNL     1      10.044  37.078  24.715  1.00  0.00     0.146 A 
ATOM     11  O   UNL     1       9.749  36.625  23.502  1.00  0.00    -0.452 OA
ENDROOT
BRANCH   1  12
ATOM     12  C   UNL     1       9.378  36.765  21.124  1.00  0.00     0.021 A 
ATOM     13  C   UNL     1      10.340  36.675  20.101  1.00  0.00     0.016 A 
ATOM     14  C   UNL     1      10.026  36.050  18.890  1.00  0.00     0.047 A 
ATOM     15  C   UNL     1       8.758  35.497  18.690  1.00  0.00     0.115 A 
ATOM     16  C   UNL     1       8.112  36.189  20.923  1.00  0.00     0.016 A 
ATOM     17  C   UNL     1       7.801  35.566  19.711  1.00  0.00     0.047 A 
BRANCH  15  18
ATOM     18  O   UNL     1       8.460  34.879  17.478  1.00  0.00    -0.508 OA
ATOM     19  H   UNL     1       8.648  35.332  16.591  1.00  0.00     0.293 HD
ENDBRANCH  15  18
ENDBRANCH   1  12
BRANCH   2  20
ATOM     20  O   UNL     1       9.754  39.622  21.441  1.00  0.00    -0.502 OA
ATOM     21  H   UNL     1       9.993  39.328  20.502  1.00  0.00     0.293 HD
ENDBRANCH   2  20
BRANCH   6  22
ATOM     22  O   UNL     1      11.123  40.166  26.560  1.00  0.00    -0.507 OA
ATOM     23  H   UNL     1      12.006  40.566  26.282  1.00  0.00     0.293 HD
ENDBRANCH   6  22
BRANCH   8  24
ATOM     24  O   UNL     1      10.325  35.695  28.123  1.00  0.00    -0.508 OA
ATOM     25  H   UNL     1      10.421  35.996  29.087  1.00  0.00     0.293 HD
ENDBRANCH   8  24
TORSDOF 5
ENDMDL
MODEL 2
REMARK VINA RESULT:    -3.730      1.236      3.218
REMARK INTER + INTRA:          -4.593
REMARK INTER:                  -4.294
REMARK INTRA:                  -0.299
REMARK UNBOUND:                -0.209
REMARK SMILES O=c1c(O)c(-c2ccc(O)cc2)oc2cc(O)cc(O)c12
REMARK SMILES IDX 5 1 3 2 2 3 1 4 21 5 19 6 18 7 16 8 15 9 14 10 13 11 6 12
REMARK SMILES IDX 7 13 8 14 9 15 12 16 11 17 10 18 4 20 20 22 17 24
REMARK H PARENT 10 19 4 21 20 23 17 25
REMARK Flexibility Score: inf
ROOT
ATOM      1  C   UNL     1       9.736  37.094  22.572  1.00  0.00     0.180 A 
ATOM      2  C   UNL     1      10.004  36.313  23.709  1.00  0.00     0.208 A 
ATOM      3  C   UNL     1      10.413  36.949  24.891  1.00  0.00     0.238 A 
ATOM      4  O   UNL     1      10.704  36.241  25.891  1.00  0.00    -0.285 OA
ATOM      5  C   UNL     1      10.536  38.360  24.926  1.00  0.00     0.111 A 
ATOM      6  C   UNL     1      10.905  39.113  26.082  1.00  0.00     0.134 A 
ATOM      7  C   UNL     1      11.120  40.491  25.966  1.00  0.00     0.093 A 
ATOM      8  C   UNL     1      10.917  41.154  24.753  1.00  0.00     0.123 A 
ATOM      9  C   UNL     1      10.499  40.436  23.635  1.00  0.00     0.094 A 
ATOM     10  C   UNL     1      10.311  39.054  23.710  1.00  0.00     0.146 A 
ATOM     11  O   UNL     1       9.923  38.408  22.617  1.00  0.00    -0.452 OA
ENDROOT
BRANCH   1  12
ATOM     12  C   UNL     1       9.275  36.498  21.297  1.00  0.00     0.021 A 
ATOM     13  C   UNL     1       7.909  36.268  21.047  1.00  0.00     0.016 A 
ATOM     14  C   UNL     1       7.496  35.725  19.826  1.00  0.00     0.047 A 
ATOM     15  C   UNL     1       8.435  35.419  18.837  1.00  0.00     0.115 A 
ATOM     16  C   UNL     1      10.211  36.206  20.291  1.00  0.00     0.016 A 
ATOM     17  C   UNL     1       9.796  35.664  19.072  1.00  0.00     0.047 A 
BRANCH  15  18
ATOM     18  O   UNL     1       8.010  34.879  17.627  1.00  0.00    -0.508 OA
ATOM     19  H   UNL     1       7.505  35.435  16.946  1.00  0.00     0.293 HD
ENDBRANCH  15  18
ENDBRANCH   1  12
BRANCH   2  20
ATOM     20  O   UNL     1       9.898  34.920  23.647  1.00  0.00    -0.502 OA
ATOM     21  H   UNL     1       9.901  34.336  24.475  1.00  0.00     0.293 HD
ENDBRANCH   2  20
BRANCH   6  22
ATOM     22  O   UNL     1      11.043  38.563  27.360  1.00  0.00    -0.507 OA
ATOM     23  H   UNL     1      10.394  37.917  27.781  1.00  0.00     0.293 HD
ENDBRANCH   6  22
BRANCH   8  24
ATOM     24  O   UNL     1      11.120  42.529  24.651  1.00  0.00    -0.508 OA
ATOM     25  H   UNL     1      11.959  42.969  25.012  1.00  0.00     0.293 HD
ENDBRANCH   8  24
TORSDOF 5
ENDMDL
MODEL 3
REMARK VINA RESULT:    -2.218     17.403     21.345
REMARK INTER + INTRA:          -2.816
REMARK INTER:                  -2.588
REMARK INTRA:                  -0.228
REMARK UNBOUND:                -0.209
REMARK SMILES O=c1c(O)c(-c2ccc(O)cc2)oc2cc(O)cc(O)c12
REMARK SMILES IDX 5 1 3 2 2 3 1 4 21 5 19 6 18 7 16 8 15 9 14 10 13 11 6 12
REMARK SMILES IDX 7 13 8 14 9 15 12 16 11 17 10 18 4 20 20 22 17 24
REMARK H PARENT 10 19 4 21 20 23 17 25
REMARK Flexibility Score: inf
ROOT
ATOM      1  C   UNL     1      -7.419  36.985  13.235  1.00  0.00     0.180 A 
ATOM      2  C   UNL     1      -7.486  38.369  13.002  1.00  0.00     0.208 A 
ATOM      3  C   UNL     1      -7.926  38.828  11.751  1.00  0.00     0.238 A 
ATOM      4  O   UNL     1      -7.932  40.068  11.529  1.00  0.00    -0.285 OA
ATOM      5  C   UNL     1      -8.309  37.898  10.754  1.00  0.00     0.111 A 
ATOM      6  C   UNL     1      -8.808  38.253   9.464  1.00  0.00     0.134 A 
ATOM      7  C   UNL     1      -9.032  37.251   8.512  1.00  0.00     0.093 A 
ATOM      8  C   UNL     1      -8.837  35.903   8.824  1.00  0.00     0.123 A 
ATOM      9  C   UNL     1      -8.407  35.544  10.100  1.00  0.00     0.094 A 
ATOM     10  C   UNL     1      -8.140  36.523  11.059  1.00  0.00     0.146 A 
ATOM     11  O   UNL     1      -7.723  36.138  12.259  1.00  0.00    -0.452 OA
ENDROOT
BRANCH   1  12
ATOM     12  C   UNL     1      -6.990  36.425  14.537  1.00  0.00     0.021 A 
ATOM     13  C   UNL     1      -5.638  36.426  14.926  1.00  0.00     0.016 A 
ATOM     14  C   UNL     1      -5.260  35.912  16.170  1.00  0.00     0.047 A 
ATOM     15  C   UNL     1      -6.224  35.406  17.046  1.00  0.00     0.115 A 
ATOM     16  C   UNL     1      -7.956  35.934  15.431  1.00  0.00     0.016 A 
ATOM     17  C   UNL     1      -7.576  35.421  16.675  1.00  0.00     0.047 A 
BRANCH  15  18
ATOM     18  O   UNL     1      -5.833  34.897  18.282  1.00  0.00    -0.508 OA
ATOM     19  H   UNL     1      -6.077  33.957  18.570  1.00  0.00     0.293 HD
ENDBRANCH  15  18
ENDBRANCH   1  12
BRANCH   2  20
ATOM     20  O   UNL     1      -7.083  39.270  13.992  1.00  0.00    -0.502 OA
ATOM     21  H   UNL     1      -6.296  39.896  13.872  1.00  0.00     0.293 HD
ENDBRANCH   2  20
BRANCH   6  22
ATOM     22  O   UNL     1      -9.123  39.560   9.081  1.00  0.00    -0.507 OA
ATOM     23  H   UNL     1      -9.857  40.117   9.490  1.00  0.00     0.293 HD
ENDBRANCH   6  22
BRANCH   8  24
ATOM     24  O   UNL     1      -9.077  34.911   7.875  1.00  0.00    -0.508 OA
ATOM     25  H   UNL     1      -9.658  35.085   7.063  1.00  0.00     0.293 HD
ENDBRANCH   8  24
TORSDOF 5
ENDMDL
MODEL 4
REMARK VINA RESULT:    -1.715     16.020     19.903
REMARK INTER + INTRA:          -2.225
REMARK INTER:                  -2.389
REMARK INTRA:                   0.164
REMARK UNBOUND:                -0.209
REMARK SMILES O=c1c(O)c(-c2ccc(O)cc2)oc2cc(O)cc(O)c12
REMARK SMILES IDX 5 1 3 2 2 3 1 4 21 5 19 6 18 7 16 8 15 9 14 10 13 11 6 12
REMARK SMILES IDX 7 13 8 14 9 15 12 16 11 17 10 18 4 20 20 22 17 24
REMARK H PARENT 10 19 4 21 20 23 17 25
REMARK Flexibility Score: inf
ROOT
ATOM      1  C   UNL     1      -6.211  36.946  14.290  1.00  0.00     0.180 A 
ATOM      2  C   UNL     1      -6.067  38.299  13.939  1.00  0.00     0.208 A 
ATOM      3  C   UNL     1      -6.630  38.753  12.737  1.00  0.00     0.238 A 
ATOM      4  O   UNL     1      -6.452  39.954  12.401  1.00  0.00    -0.285 OA
ATOM      5  C   UNL     1      -7.341  37.853  11.907  1.00  0.00     0.111 A 
ATOM      6  C   UNL     1      -7.986  38.214  10.685  1.00  0.00     0.134 A 
ATOM      7  C   UNL     1      -8.550  37.215   9.881  1.00  0.00     0.093 A 
ATOM      8  C   UNL     1      -8.548  35.878  10.286  1.00  0.00     0.123 A 
ATOM      9  C   UNL     1      -7.974  35.525  11.505  1.00  0.00     0.094 A 
ATOM     10  C   UNL     1      -7.372  36.494  12.311  1.00  0.00     0.146 A 
ATOM     11  O   UNL     1      -6.827  36.112  13.460  1.00  0.00    -0.452 OA
ENDROOT
BRANCH   1  12
ATOM     12  C   UNL     1      -5.668  36.397  15.554  1.00  0.00     0.021 A 
ATOM     13  C   UNL     1      -4.399  36.773  16.031  1.00  0.00     0.016 A 
ATOM     14  C   UNL     1      -3.918  36.260  17.240  1.00  0.00     0.047 A 
ATOM     15  C   UNL     1      -4.700  35.379  17.993  1.00  0.00     0.115 A 
ATOM     16  C   UNL     1      -6.457  35.528  16.327  1.00  0.00     0.016 A 
ATOM     17  C   UNL     1      -5.973  35.016  17.534  1.00  0.00     0.047 A 
BRANCH  15  18
ATOM     18  O   UNL     1      -4.207  34.876  19.194  1.00  0.00    -0.508 OA
ATOM     19  H   UNL     1      -3.668  34.018  19.228  1.00  0.00     0.293 HD
ENDBRANCH  15  18
ENDBRANCH   1  12
BRANCH   2  20
ATOM     20  O   UNL     1      -5.343  39.166  14.762  1.00  0.00    -0.502 OA
ATOM     21  H   UNL     1      -5.312  40.166  14.606  1.00  0.00     0.293 HD
ENDBRANCH   2  20
BRANCH   6  22
ATOM     22  O   UNL     1      -8.124  39.530  10.234  1.00  0.00    -0.507 OA
ATOM     23  H   UNL     1      -7.422  40.248  10.334  1.00  0.00     0.293 HD
ENDBRANCH   6  22
BRANCH   8  24
ATOM     24  O   UNL     1      -9.125  34.893   9.487  1.00  0.00    -0.508 OA
ATOM     25  H   UNL     1     -10.126  34.733   9.483  1.00  0.00     0.293 HD
ENDBRANCH   8  24
TORSDOF 5
ENDMDL
MODEL 5
REMARK VINA RESULT:    -1.167      1.810      6.303
REMARK INTER + INTRA:          -1.581
REMARK INTER:                  -1.407
REMARK INTRA:                  -0.174
REMARK UNBOUND:                -0.209
REMARK SMILES O=c1c(O)c(-c2ccc(O)cc2)oc2cc(O)cc(O)c12
REMARK SMILES IDX 5 1 3 2 2 3 1 4 21 5 19 6 18 7 16 8 15 9 14 10 13 11 6 12
REMARK SMILES IDX 7 13 8 14 9 15 12 16 11 17 10 18 4 20 20 22 17 24
REMARK H PARENT 10 19 4 21 20 23 17 25
REMARK Flexibility Score: inf
ROOT
ATOM      1  C   UNL     1      10.022  37.185  22.989  1.00  0.00     0.180 A 
ATOM      2  C   UNL     1      10.383  38.522  22.751  1.00  0.00     0.208 A 
ATOM      3  C   UNL     1      10.707  38.917  21.444  1.00  0.00     0.238 A 
ATOM      4  O   UNL     1      11.082  40.103  21.246  1.00  0.00    -0.285 OA
ATOM      5  C   UNL     1      10.652  37.974  20.389  1.00  0.00     0.111 A 
ATOM      6  C   UNL     1      10.921  38.275  19.019  1.00  0.00     0.134 A 
ATOM      7  C   UNL     1      10.963  37.236  18.081  1.00  0.00     0.093 A 
ATOM      8  C   UNL     1      10.681  35.919  18.450  1.00  0.00     0.123 A 
ATOM      9  C   UNL     1      10.359  35.625  19.773  1.00  0.00     0.094 A 
ATOM     10  C   UNL     1      10.345  36.635  20.739  1.00  0.00     0.146 A 
ATOM     11  O   UNL     1      10.043  36.309  21.990  1.00  0.00    -0.452 OA
ENDROOT
BRANCH   1  12
ATOM     12  C   UNL     1       9.642  36.699  24.335  1.00  0.00     0.021 A 
ATOM     13  C   UNL     1       8.477  37.156  24.978  1.00  0.00     0.016 A 
ATOM     14  C   UNL     1       8.127  36.664  26.240  1.00  0.00     0.047 A 
ATOM     15  C   UNL     1       8.924  35.704  26.868  1.00  0.00     0.115 A 
ATOM     16  C   UNL     1      10.428  35.718  24.965  1.00  0.00     0.016 A 
ATOM     17  C   UNL     1      10.076  35.229  26.226  1.00  0.00     0.047 A 
BRANCH  15  18
ATOM     18  O   UNL     1       8.563  35.224  28.125  1.00  0.00    -0.508 OA
ATOM     19  H   UNL     1       7.734  35.560  28.602  1.00  0.00     0.293 HD
ENDBRANCH  15  18
ENDBRANCH   1  12
BRANCH   2  20
ATOM     20  O   UNL     1      10.453  39.431  23.811  1.00  0.00    -0.502 OA
ATOM     21  H   UNL     1      10.638  39.144  24.764  1.00  0.00     0.293 HD
ENDBRANCH   2  20
BRANCH   6  22
ATOM     22  O   UNL     1      11.125  39.568  18.529  1.00  0.00    -0.507 OA
ATOM     23  H   UNL     1      11.185  39.810  17.552  1.00  0.00     0.293 HD
ENDBRANCH   6  22
BRANCH   8  24
ATOM     24  O   UNL     1      10.710  34.894  17.507  1.00  0.00    -0.508 OA
ATOM     25  H   UNL     1      10.858  35.085  16.522  1.00  0.00     0.293 HD
ENDBRANCH   8  24
TORSDOF 5
ENDMDL
