MODEL 1
REMARK VINA RESULT:    -3.649      0.000      0.000
REMARK INTER + INTRA:         -11.667
REMARK INTER:                  -8.342
REMARK INTRA:                  -3.326
REMARK UNBOUND:                -3.326
REMARK SMILES CCCCCCCCCCCCCCCCCCCCCCCC(=O)[O-]
REMARK SMILES IDX 13 1 14 2 15 3 16 4 17 5 18 6 19 7 20 8 21 9 22 10 23 11
REMARK SMILES IDX 24 12 25 13 26 14 12 15 11 16 10 17 9 18 8 19 7 20 6 21 5 22
REMARK SMILES IDX 4 23 3 24 2 25 1 26
REMARK H PARENT
REMARK Flexibility Score: inf
ROOT
ATOM      1  C   UNL     1     -96.202 149.836 238.767  1.00  0.00     0.000 C 
ENDROOT
BRANCH   1   2
ATOM      2  C   UNL     1     -96.099 148.334 239.077  1.00  0.00     0.000 C 
BRANCH   2   3
ATOM      3  C   UNL     1     -94.834 147.692 238.488  1.00  0.00     0.000 C 
BRANCH   3   4
ATOM      4  C   UNL     1     -94.212 148.593 237.412  1.00  0.00     0.000 C 
BRANCH   4   5
ATOM      5  C   UNL     1     -93.807 147.777 236.176  1.00  0.00     0.000 C 
BRANCH   5   6
ATOM      6  C   UNL     1     -94.594 148.166 234.912  1.00  0.00     0.000 C 
BRANCH   6   7
ATOM      7  C   UNL     1     -95.590 149.328 235.090  1.00  0.00     0.000 C 
BRANCH   7   8
ATOM      8  C   UNL     1     -97.053 148.857 235.157  1.00  0.00     0.000 C 
BRANCH   8   9
ATOM      9  C   UNL     1     -98.055 149.956 234.758  1.00  0.00     0.000 C 
BRANCH   9  10
ATOM     10  C   UNL     1     -97.699 150.742 233.480  1.00  0.00     0.006 C 
BRANCH  10  11
ATOM     11  C   UNL     1     -98.204 152.193 233.459  1.00  0.00     0.053 C 
BRANCH  11  12
ATOM     12  C   UNL     1     -97.204 153.127 232.850  1.00  0.00     0.041 C 
ATOM     13  O   UNL     1     -96.568 152.789 231.817  1.00  0.00    -0.550 OA
ATOM     14  O   UNL     1     -96.955 154.360 233.440  1.00  0.00    -0.550 OA
ENDBRANCH  11  12
ENDBRANCH  10  11
ENDBRANCH   9  10
ENDBRANCH   8   9
ENDBRANCH   7   8
ENDBRANCH   6   7
ENDBRANCH   5   6
ENDBRANCH   4   5
ENDBRANCH   3   4
ENDBRANCH   2   3
ENDBRANCH   1   2
BRANCH   1  15
ATOM     15  C   UNL     1     -97.439 150.487 239.412  1.00  0.00     0.000 C 
BRANCH  15  16
ATOM     16  C   UNL     1     -98.553 150.784 238.393  1.00  0.00     0.000 C 
BRANCH  16  17
ATOM     17  C   UNL     1     -99.863 150.003 238.620  1.00  0.00     0.000 C 
BRANCH  17  18
ATOM     18  C   UNL     1     -99.696 148.470 238.525  1.00  0.00    -0.000 C 
BRANCH  18  19
ATOM     19  C   UNL     1    -100.268 147.706 239.736  1.00  0.00    -0.000 C 
BRANCH  19  20
ATOM     20  C   UNL     1     -99.204 147.097 240.675  1.00  0.00    -0.000 C 
BRANCH  20  21
ATOM     21  C   UNL     1     -98.660 148.050 241.757  1.00  0.00    -0.000 C 
BRANCH  21  22
ATOM     22  C   UNL     1     -99.718 148.611 242.727  1.00  0.00    -0.000 C 
BRANCH  22  23
ATOM     23  C   UNL     1    -100.045 150.102 242.496  1.00  0.00    -0.000 C 
BRANCH  23  24
ATOM     24  C   UNL     1     -98.808 151.005 242.649  1.00  0.00    -0.000 C 
BRANCH  24  25
ATOM     25  C   UNL     1     -98.783 151.745 243.995  1.00  0.00    -0.003 C 
ATOM     26  C   UNL     1     -99.691 152.975 244.008  1.00  0.00     0.004 C 
ENDBRANCH  24  25
ENDBRANCH  23  24
ENDBRANCH  22  23
ENDBRANCH  21  22
ENDBRANCH  20  21
ENDBRANCH  19  20
ENDBRANCH  18  19
ENDBRANCH  17  18
ENDBRANCH  16  17
ENDBRANCH  15  16
ENDBRANCH   1  15
TORSDOF 22
ENDMDL
MODEL 2
REMARK VINA RESULT:    -3.603      2.915      7.071
REMARK INTER + INTRA:         -11.562
REMARK INTER:                  -7.615
REMARK INTRA:                  -3.947
REMARK UNBOUND:                -3.326
REMARK SMILES CCCCCCCCCCCCCCCCCCCCCCCC(=O)[O-]
REMARK SMILES IDX 13 1 14 2 15 3 16 4 17 5 18 6 19 7 20 8 21 9 22 10 23 11
REMARK SMILES IDX 24 12 25 13 26 14 12 15 11 16 10 17 9 18 8 19 7 20 6 21 5 22
REMARK SMILES IDX 4 23 3 24 2 25 1 26
REMARK H PARENT
REMARK Flexibility Score: inf
ROOT
ATOM      1  C   UNL     1     -94.564 148.185 235.704  1.00  0.00     0.000 C 
ENDROOT
BRANCH   1   2
ATOM      2  C   UNL     1     -93.809 148.111 237.041  1.00  0.00     0.000 C 
BRANCH   2   3
ATOM      3  C   UNL     1     -94.521 148.875 238.167  1.00  0.00     0.000 C 
BRANCH   3   4
ATOM      4  C   UNL     1     -95.439 147.942 238.967  1.00  0.00     0.000 C 
BRANCH   4   5
ATOM      5  C   UNL     1     -96.761 148.640 239.321  1.00  0.00     0.000 C 
BRANCH   5   6
ATOM      6  C   UNL     1     -96.724 150.159 239.079  1.00  0.00     0.000 C 
BRANCH   6   7
ATOM      7  C   UNL     1     -98.099 150.852 239.032  1.00  0.00     0.000 C 
BRANCH   7   8
ATOM      8  C   UNL     1     -99.159 150.026 238.283  1.00  0.00     0.000 C 
BRANCH   8   9
ATOM      9  C   UNL     1    -100.182 150.901 237.535  1.00  0.00     0.000 C 
BRANCH   9  10
ATOM     10  C   UNL     1     -99.743 151.381 236.137  1.00  0.00     0.006 C 
BRANCH  10  11
ATOM     11  C   UNL     1    -100.231 152.789 235.762  1.00  0.00     0.053 C 
BRANCH  11  12
ATOM     12  C   UNL     1    -101.697 152.814 235.461  1.00  0.00     0.041 C 
ATOM     13  O   UNL     1    -102.518 153.189 236.340  1.00  0.00    -0.550 OA
ATOM     14  O   UNL     1    -102.161 152.398 234.219  1.00  0.00    -0.550 OA
ENDBRANCH  11  12
ENDBRANCH  10  11
ENDBRANCH   9  10
ENDBRANCH   8   9
ENDBRANCH   7   8
ENDBRANCH   6   7
ENDBRANCH   5   6
ENDBRANCH   4   5
ENDBRANCH   3   4
ENDBRANCH   2   3
ENDBRANCH   1   2
BRANCH   1  15
ATOM     15  C   UNL     1     -95.376 149.484 235.556  1.00  0.00     0.000 C 
BRANCH  15  16
ATOM     16  C   UNL     1     -96.890 149.231 235.459  1.00  0.00     0.000 C 
BRANCH  16  17
ATOM     17  C   UNL     1     -97.354 148.567 234.147  1.00  0.00     0.000 C 
BRANCH  17  18
ATOM     18  C   UNL     1     -98.219 149.488 233.258  1.00  0.00    -0.000 C 
BRANCH  18  19
ATOM     19  C   UNL     1     -97.629 149.728 231.854  1.00  0.00    -0.000 C 
BRANCH  19  20
ATOM     20  C   UNL     1     -96.102 149.523 231.752  1.00  0.00    -0.000 C 
BRANCH  20  21
ATOM     21  C   UNL     1     -95.248 150.758 232.104  1.00  0.00    -0.000 C 
BRANCH  21  22
ATOM     22  C   UNL     1     -95.908 152.117 231.804  1.00  0.00    -0.000 C 
BRANCH  22  23
ATOM     23  C   UNL     1     -96.253 152.934 233.068  1.00  0.00    -0.000 C 
BRANCH  23  24
ATOM     24  C   UNL     1     -97.732 153.359 233.106  1.00  0.00    -0.000 C 
BRANCH  24  25
ATOM     25  C   UNL     1     -98.363 153.417 231.706  1.00  0.00    -0.003 C 
ATOM     26  C   UNL     1     -99.745 152.765 231.655  1.00  0.00     0.004 C 
ENDBRANCH  24  25
ENDBRANCH  23  24
ENDBRANCH  22  23
ENDBRANCH  21  22
ENDBRANCH  20  21
ENDBRANCH  19  20
ENDBRANCH  18  19
ENDBRANCH  17  18
ENDBRANCH  16  17
ENDBRANCH  15  16
ENDBRANCH   1  15
TORSDOF 22
ENDMDL
MODEL 3
REMARK VINA RESULT:    -3.602      3.451      7.173
REMARK INTER + INTRA:         -11.561
REMARK INTER:                  -7.664
REMARK INTRA:                  -3.897
REMARK UNBOUND:                -3.326
REMARK SMILES CCCCCCCCCCCCCCCCCCCCCCCC(=O)[O-]
REMARK SMILES IDX 13 1 14 2 15 3 16 4 17 5 18 6 19 7 20 8 21 9 22 10 23 11
REMARK SMILES IDX 24 12 25 13 26 14 12 15 11 16 10 17 9 18 8 19 7 20 6 21 5 22
REMARK SMILES IDX 4 23 3 24 2 25 1 26
REMARK H PARENT
REMARK Flexibility Score: inf
ROOT
ATOM      1  C   UNL     1     -95.655 149.205 234.783  1.00  0.00     0.000 C 
ENDROOT
BRANCH   1   2
ATOM      2  C   UNL     1     -95.318 147.729 235.048  1.00  0.00     0.000 C 
BRANCH   2   3
ATOM      3  C   UNL     1     -93.909 147.538 235.629  1.00  0.00     0.000 C 
BRANCH   3   4
ATOM      4  C   UNL     1     -93.817 148.120 237.046  1.00  0.00     0.000 C 
BRANCH   4   5
ATOM      5  C   UNL     1     -94.605 147.262 238.047  1.00  0.00     0.000 C 
BRANCH   5   6
ATOM      6  C   UNL     1     -95.680 148.059 238.807  1.00  0.00     0.000 C 
BRANCH   6   7
ATOM      7  C   UNL     1     -95.606 149.589 238.641  1.00  0.00     0.000 C 
BRANCH   7   8
ATOM      8  C   UNL     1     -96.879 150.305 239.122  1.00  0.00     0.000 C 
BRANCH   8   9
ATOM      9  C   UNL     1     -97.733 149.440 240.066  1.00  0.00     0.000 C 
BRANCH   9  10
ATOM     10  C   UNL     1     -98.410 150.199 241.226  1.00  0.00     0.006 C 
BRANCH  10  11
ATOM     11  C   UNL     1     -99.931 149.998 241.321  1.00  0.00     0.053 C 
BRANCH  11  12
ATOM     12  C   UNL     1    -100.502 150.615 242.559  1.00  0.00     0.041 C 
ATOM     13  O   UNL     1     -99.952 151.623 243.078  1.00  0.00    -0.550 OA
ATOM     14  O   UNL     1    -101.628 150.062 243.158  1.00  0.00    -0.550 OA
ENDBRANCH  11  12
ENDBRANCH  10  11
ENDBRANCH   9  10
ENDBRANCH   8   9
ENDBRANCH   7   8
ENDBRANCH   6   7
ENDBRANCH   5   6
ENDBRANCH   4   5
ENDBRANCH   3   4
ENDBRANCH   2   3
ENDBRANCH   1   2
BRANCH   1  15
ATOM     15  C   UNL     1     -97.072 149.580 235.255  1.00  0.00     0.000 C 
BRANCH  15  16
ATOM     16  C   UNL     1     -98.011 148.364 235.341  1.00  0.00     0.000 C 
BRANCH  16  17
ATOM     17  C   UNL     1     -98.744 148.206 236.687  1.00  0.00     0.000 C 
BRANCH  17  18
ATOM     18  C   UNL     1    -100.162 148.821 236.697  1.00  0.00    -0.000 C 
BRANCH  18  19
ATOM     19  C   UNL     1    -100.288 150.078 237.580  1.00  0.00    -0.000 C 
BRANCH  19  20
ATOM     20  C   UNL     1    -100.796 151.337 236.844  1.00  0.00    -0.000 C 
BRANCH  20  21
ATOM     21  C   UNL     1     -99.720 152.122 236.067  1.00  0.00    -0.000 C 
BRANCH  21  22
ATOM     22  C   UNL     1     -99.752 151.939 234.538  1.00  0.00    -0.000 C 
BRANCH  22  23
ATOM     23  C   UNL     1     -98.837 152.921 233.774  1.00  0.00    -0.000 C 
BRANCH  23  24
ATOM     24  C   UNL     1     -97.940 152.207 232.747  1.00  0.00    -0.000 C 
BRANCH  24  25
ATOM     25  C   UNL     1     -96.468 152.636 232.855  1.00  0.00    -0.003 C 
ATOM     26  C   UNL     1     -95.540 151.775 231.997  1.00  0.00     0.004 C 
ENDBRANCH  24  25
ENDBRANCH  23  24
ENDBRANCH  22  23
ENDBRANCH  21  22
ENDBRANCH  20  21
ENDBRANCH  19  20
ENDBRANCH  18  19
ENDBRANCH  17  18
ENDBRANCH  16  17
ENDBRANCH  15  16
ENDBRANCH   1  15
TORSDOF 22
ENDMDL
MODEL 4
REMARK VINA RESULT:    -3.584      2.410      4.787
REMARK INTER + INTRA:         -11.519
REMARK INTER:                  -7.363
REMARK INTRA:                  -4.157
REMARK UNBOUND:                -3.326
REMARK SMILES CCCCCCCCCCCCCCCCCCCCCCCC(=O)[O-]
REMARK SMILES IDX 13 1 14 2 15 3 16 4 17 5 18 6 19 7 20 8 21 9 22 10 23 11
REMARK SMILES IDX 24 12 25 13 26 14 12 15 11 16 10 17 9 18 8 19 7 20 6 21 5 22
REMARK SMILES IDX 4 23 3 24 2 25 1 26
REMARK H PARENT
REMARK Flexibility Score: inf
ROOT
ATOM      1  C   UNL     1     -96.648 149.110 235.238  1.00  0.00     0.000 C 
ENDROOT
BRANCH   1   2
ATOM      2  C   UNL     1     -96.997 147.639 235.514  1.00  0.00     0.000 C 
BRANCH   2   3
ATOM      3  C   UNL     1     -97.776 146.988 234.362  1.00  0.00     0.000 C 
BRANCH   3   4
ATOM      4  C   UNL     1     -97.711 147.854 233.097  1.00  0.00     0.000 C 
BRANCH   4   5
ATOM      5  C   UNL     1     -96.950 147.134 231.974  1.00  0.00     0.000 C 
BRANCH   5   6
ATOM      6  C   UNL     1     -95.425 147.328 232.059  1.00  0.00     0.000 C 
BRANCH   6   7
ATOM      7  C   UNL     1     -94.942 148.788 231.971  1.00  0.00     0.000 C 
BRANCH   7   8
ATOM      8  C   UNL     1     -95.279 149.449 230.623  1.00  0.00     0.000 C 
BRANCH   8   9
ATOM      9  C   UNL     1     -95.914 150.843 230.782  1.00  0.00     0.000 C 
BRANCH   9  10
ATOM     10  C   UNL     1     -96.499 151.147 232.176  1.00  0.00     0.006 C 
BRANCH  10  11
ATOM     11  C   UNL     1     -96.051 152.488 232.779  1.00  0.00     0.053 C 
BRANCH  11  12
ATOM     12  C   UNL     1     -97.143 153.511 232.745  1.00  0.00     0.041 C 
ATOM     13  O   UNL     1     -97.067 154.543 233.463  1.00  0.00    -0.550 OA
ATOM     14  O   UNL     1     -98.259 153.313 231.941  1.00  0.00    -0.550 OA
ENDBRANCH  11  12
ENDBRANCH  10  11
ENDBRANCH   9  10
ENDBRANCH   8   9
ENDBRANCH   7   8
ENDBRANCH   6   7
ENDBRANCH   5   6
ENDBRANCH   4   5
ENDBRANCH   3   4
ENDBRANCH   2   3
ENDBRANCH   1   2
BRANCH   1  15
ATOM     15  C   UNL     1     -95.182 149.441 235.571  1.00  0.00     0.000 C 
BRANCH  15  16
ATOM     16  C   UNL     1     -94.296 148.187 235.663  1.00  0.00     0.000 C 
BRANCH  16  17
ATOM     17  C   UNL     1     -93.652 147.948 237.043  1.00  0.00     0.000 C 
BRANCH  17  18
ATOM     18  C   UNL     1     -94.356 148.701 238.195  1.00  0.00    -0.000 C 
BRANCH  18  19
ATOM     19  C   UNL     1     -95.382 147.842 238.962  1.00  0.00    -0.000 C 
BRANCH  19  20
ATOM     20  C   UNL     1     -96.733 148.539 239.232  1.00  0.00    -0.000 C 
BRANCH  20  21
ATOM     21  C   UNL     1     -96.787 150.034 238.859  1.00  0.00    -0.000 C 
BRANCH  21  22
ATOM     22  C   UNL     1     -98.059 150.776 239.314  1.00  0.00    -0.000 C 
BRANCH  22  23
ATOM     23  C   UNL     1     -99.321 150.400 238.508  1.00  0.00    -0.000 C 
BRANCH  23  24
ATOM     24  C   UNL     1     -99.519 151.300 237.276  1.00  0.00    -0.000 C 
BRANCH  24  25
ATOM     25  C   UNL     1     -99.538 150.504 235.962  1.00  0.00    -0.003 C 
ATOM     26  C   UNL     1     -99.596 151.404 234.727  1.00  0.00     0.004 C 
ENDBRANCH  24  25
ENDBRANCH  23  24
ENDBRANCH  22  23
ENDBRANCH  21  22
ENDBRANCH  20  21
ENDBRANCH  19  20
ENDBRANCH  18  19
ENDBRANCH  17  18
ENDBRANCH  16  17
ENDBRANCH  15  16
ENDBRANCH   1  15
TORSDOF 22
ENDMDL
MODEL 5
REMARK VINA RESULT:    -3.570      2.044      4.486
REMARK INTER + INTRA:         -11.487
REMARK INTER:                  -8.023
REMARK INTRA:                  -3.464
REMARK UNBOUND:                -3.326
REMARK SMILES CCCCCCCCCCCCCCCCCCCCCCCC(=O)[O-]
REMARK SMILES IDX 13 1 14 2 15 3 16 4 17 5 18 6 19 7 20 8 21 9 22 10 23 11
REMARK SMILES IDX 24 12 25 13 26 14 12 15 11 16 10 17 9 18 8 19 7 20 6 21 5 22
REMARK SMILES IDX 4 23 3 24 2 25 1 26
REMARK H PARENT
REMARK Flexibility Score: inf
ROOT
ATOM      1  C   UNL     1     -94.118 148.703 237.135  1.00  0.00     0.000 C 
ENDROOT
BRANCH   1   2
ATOM      2  C   UNL     1     -94.924 149.161 235.909  1.00  0.00     0.000 C 
BRANCH   2   3
ATOM      3  C   UNL     1     -94.814 148.185 234.729  1.00  0.00     0.000 C 
BRANCH   3   4
ATOM      4  C   UNL     1     -95.588 148.706 233.511  1.00  0.00     0.000 C 
BRANCH   4   5
ATOM      5  C   UNL     1     -96.211 150.080 233.801  1.00  0.00     0.000 C 
BRANCH   5   6
ATOM      6  C   UNL     1     -95.664 151.194 232.891  1.00  0.00     0.000 C 
BRANCH   6   7
ATOM      7  C   UNL     1     -96.514 151.502 231.644  1.00  0.00     0.000 C 
BRANCH   7   8
ATOM      8  C   UNL     1     -96.988 152.965 231.589  1.00  0.00     0.000 C 
BRANCH   8   9
ATOM      9  C   UNL     1     -97.136 153.599 232.985  1.00  0.00     0.000 C 
BRANCH   9  10
ATOM     10  C   UNL     1     -98.492 153.359 233.679  1.00  0.00     0.006 C 
BRANCH  10  11
ATOM     11  C   UNL     1     -99.686 154.056 233.008  1.00  0.00     0.053 C 
BRANCH  11  12
ATOM     12  C   UNL     1     -99.834 155.475 233.461  1.00  0.00     0.041 C 
ATOM     13  O   UNL     1    -100.621 155.762 234.401  1.00  0.00    -0.550 OA
ATOM     14  O   UNL     1     -99.124 156.487 232.825  1.00  0.00    -0.550 OA
ENDBRANCH  11  12
ENDBRANCH  10  11
ENDBRANCH   9  10
ENDBRANCH   8   9
ENDBRANCH   7   8
ENDBRANCH   6   7
ENDBRANCH   5   6
ENDBRANCH   4   5
ENDBRANCH   3   4
ENDBRANCH   2   3
ENDBRANCH   1   2
BRANCH   1  15
ATOM     15  C   UNL     1     -94.971 148.650 238.415  1.00  0.00     0.000 C 
BRANCH  15  16
ATOM     16  C   UNL     1     -95.569 147.256 238.674  1.00  0.00     0.000 C 
BRANCH  16  17
ATOM     17  C   UNL     1     -96.466 147.158 239.923  1.00  0.00     0.000 C 
BRANCH  17  18
ATOM     18  C   UNL     1     -97.962 146.949 239.598  1.00  0.00    -0.000 C 
BRANCH  18  19
ATOM     19  C   UNL     1     -98.914 147.746 240.512  1.00  0.00    -0.000 C 
BRANCH  19  20
ATOM     20  C   UNL     1     -98.249 148.909 241.279  1.00  0.00    -0.000 C 
BRANCH  20  21
ATOM     21  C   UNL     1     -98.557 150.317 240.733  1.00  0.00    -0.000 C 
BRANCH  21  22
ATOM     22  C   UNL     1     -97.877 150.663 239.394  1.00  0.00    -0.000 C 
BRANCH  22  23
ATOM     23  C   UNL     1     -98.820 150.572 238.175  1.00  0.00    -0.000 C 
BRANCH  23  24
ATOM     24  C   UNL     1     -98.194 149.787 237.008  1.00  0.00    -0.000 C 
BRANCH  24  25
ATOM     25  C   UNL     1     -99.101 148.651 236.511  1.00  0.00    -0.003 C 
ATOM     26  C   UNL     1     -98.310 147.450 235.991  1.00  0.00     0.004 C 
ENDBRANCH  24  25
ENDBRANCH  23  24
ENDBRANCH  22  23
ENDBRANCH  21  22
ENDBRANCH  20  21
ENDBRANCH  19  20
ENDBRANCH  18  19
ENDBRANCH  17  18
ENDBRANCH  16  17
ENDBRANCH  15  16
ENDBRANCH   1  15
TORSDOF 22
ENDMDL
MODEL 6
REMARK VINA RESULT:    -3.533      3.252      6.761
REMARK INTER + INTRA:         -11.402
REMARK INTER:                  -7.851
REMARK INTRA:                  -3.551
REMARK UNBOUND:                -3.326
REMARK SMILES CCCCCCCCCCCCCCCCCCCCCCCC(=O)[O-]
REMARK SMILES IDX 13 1 14 2 15 3 16 4 17 5 18 6 19 7 20 8 21 9 22 10 23 11
REMARK SMILES IDX 24 12 25 13 26 14 12 15 11 16 10 17 9 18 8 19 7 20 6 21 5 22
REMARK SMILES IDX 4 23 3 24 2 25 1 26
REMARK H PARENT
REMARK Flexibility Score: inf
ROOT
ATOM      1  C   UNL     1     -95.618 151.063 233.373  1.00  0.00     0.000 C 
ENDROOT
BRANCH   1   2
ATOM      2  C   UNL     1     -95.916 149.636 232.887  1.00  0.00     0.000 C 
BRANCH   2   3
ATOM      3  C   UNL     1     -95.450 148.562 233.881  1.00  0.00     0.000 C 
BRANCH   3   4
ATOM      4  C   UNL     1     -95.330 149.140 235.297  1.00  0.00     0.000 C 
BRANCH   4   5
ATOM      5  C   UNL     1     -94.345 148.323 236.145  1.00  0.00     0.000 C 
BRANCH   5   6
ATOM      6  C   UNL     1     -94.284 148.786 237.612  1.00  0.00     0.000 C 
BRANCH   6   7
ATOM      7  C   UNL     1     -95.075 147.919 238.609  1.00  0.00     0.000 C 
BRANCH   7   8
ATOM      8  C   UNL     1     -96.540 148.366 238.759  1.00  0.00     0.000 C 
BRANCH   8   9
ATOM      9  C   UNL     1     -96.709 149.895 238.700  1.00  0.00     0.000 C 
BRANCH   9  10
ATOM     10  C   UNL     1     -97.838 150.469 239.579  1.00  0.00     0.006 C 
BRANCH  10  11
ATOM     11  C   UNL     1     -98.139 149.654 240.846  1.00  0.00     0.053 C 
BRANCH  11  12
ATOM     12  C   UNL     1     -99.171 150.314 241.707  1.00  0.00     0.041 C 
ATOM     13  O   UNL     1     -98.827 151.158 242.575  1.00  0.00    -0.550 OA
ATOM     14  O   UNL     1    -100.513 149.977 241.569  1.00  0.00    -0.550 OA
ENDBRANCH  11  12
ENDBRANCH  10  11
ENDBRANCH   9  10
ENDBRANCH   8   9
ENDBRANCH   7   8
ENDBRANCH   6   7
ENDBRANCH   5   6
ENDBRANCH   4   5
ENDBRANCH   3   4
ENDBRANCH   2   3
ENDBRANCH   1   2
BRANCH   1  15
ATOM     15  C   UNL     1     -95.877 152.122 232.286  1.00  0.00     0.000 C 
BRANCH  15  16
ATOM     16  C   UNL     1     -97.341 152.594 232.253  1.00  0.00     0.000 C 
BRANCH  16  17
ATOM     17  C   UNL     1     -97.595 153.965 232.911  1.00  0.00     0.000 C 
BRANCH  17  18
ATOM     18  C   UNL     1     -98.907 154.028 233.725  1.00  0.00    -0.000 C 
BRANCH  18  19
ATOM     19  C   UNL     1     -99.489 152.644 234.075  1.00  0.00    -0.000 C 
BRANCH  19  20
ATOM     20  C   UNL     1     -99.902 152.473 235.553  1.00  0.00    -0.000 C 
BRANCH  20  21
ATOM     21  C   UNL     1     -99.317 151.234 236.259  1.00  0.00    -0.000 C 
BRANCH  21  22
ATOM     22  C   UNL     1     -98.774 150.140 235.319  1.00  0.00    -0.000 C 
BRANCH  22  23
ATOM     23  C   UNL     1     -98.891 148.712 235.894  1.00  0.00    -0.000 C 
BRANCH  23  24
ATOM     24  C   UNL     1    -100.145 148.532 236.768  1.00  0.00    -0.000 C 
BRANCH  24  25
ATOM     25  C   UNL     1    -100.103 147.239 237.596  1.00  0.00    -0.003 C 
ATOM     26  C   UNL     1    -100.395 147.479 239.078  1.00  0.00     0.004 C 
ENDBRANCH  24  25
ENDBRANCH  23  24
ENDBRANCH  22  23
ENDBRANCH  21  22
ENDBRANCH  20  21
ENDBRANCH  19  20
ENDBRANCH  18  19
ENDBRANCH  17  18
ENDBRANCH  16  17
ENDBRANCH  15  16
ENDBRANCH   1  15
TORSDOF 22
ENDMDL
MODEL 7
REMARK VINA RESULT:    -3.532      3.327      8.115
REMARK INTER + INTRA:         -11.401
REMARK INTER:                  -8.683
REMARK INTRA:                  -2.719
REMARK UNBOUND:                -3.326
REMARK SMILES CCCCCCCCCCCCCCCCCCCCCCCC(=O)[O-]
REMARK SMILES IDX 13 1 14 2 15 3 16 4 17 5 18 6 19 7 20 8 21 9 22 10 23 11
REMARK SMILES IDX 24 12 25 13 26 14 12 15 11 16 10 17 9 18 8 19 7 20 6 21 5 22
REMARK SMILES IDX 4 23 3 24 2 25 1 26
REMARK H PARENT
REMARK Flexibility Score: inf
ROOT
ATOM      1  C   UNL     1     -95.170 148.081 238.962  1.00  0.00     0.000 C 
ENDROOT
BRANCH   1   2
ATOM      2  C   UNL     1     -96.563 148.700 239.159  1.00  0.00     0.000 C 
BRANCH   2   3
ATOM      3  C   UNL     1     -96.557 150.229 239.024  1.00  0.00     0.000 C 
BRANCH   3   4
ATOM      4  C   UNL     1     -97.952 150.753 238.657  1.00  0.00     0.000 C 
BRANCH   4   5
ATOM      5  C   UNL     1     -98.579 149.912 237.535  1.00  0.00     0.000 C 
BRANCH   5   6
ATOM      6  C   UNL     1     -99.952 149.329 237.915  1.00  0.00     0.000 C 
BRANCH   6   7
ATOM      7  C   UNL     1    -100.750 150.146 238.949  1.00  0.00     0.000 C 
BRANCH   7   8
ATOM      8  C   UNL     1    -101.162 149.317 240.178  1.00  0.00     0.000 C 
BRANCH   8   9
ATOM      9  C   UNL     1    -100.007 148.470 240.743  1.00  0.00     0.000 C 
BRANCH   9  10
ATOM     10  C   UNL     1     -99.468 148.920 242.116  1.00  0.00     0.006 C 
BRANCH  10  11
ATOM     11  C   UNL     1     -98.707 150.255 242.098  1.00  0.00     0.053 C 
BRANCH  11  12
ATOM     12  C   UNL     1     -99.204 151.199 243.149  1.00  0.00     0.041 C 
ATOM     13  O   UNL     1    -100.426 151.495 243.209  1.00  0.00    -0.550 OA
ATOM     14  O   UNL     1     -98.311 151.773 244.047  1.00  0.00    -0.550 OA
ENDBRANCH  11  12
ENDBRANCH  10  11
ENDBRANCH   9  10
ENDBRANCH   8   9
ENDBRANCH   7   8
ENDBRANCH   6   7
ENDBRANCH   5   6
ENDBRANCH   4   5
ENDBRANCH   3   4
ENDBRANCH   2   3
ENDBRANCH   1   2
BRANCH   1  15
ATOM     15  C   UNL     1     -94.397 148.727 237.798  1.00  0.00     0.000 C 
BRANCH  15  16
ATOM     16  C   UNL     1     -93.977 147.708 236.725  1.00  0.00     0.000 C 
BRANCH  16  17
ATOM     17  C   UNL     1     -94.618 147.926 235.340  1.00  0.00     0.000 C 
BRANCH  17  18
ATOM     18  C   UNL     1     -95.277 149.314 235.172  1.00  0.00    -0.000 C 
BRANCH  18  19
ATOM     19  C   UNL     1     -96.640 149.271 234.453  1.00  0.00    -0.000 C 
BRANCH  19  20
ATOM     20  C   UNL     1     -96.992 150.548 233.660  1.00  0.00    -0.000 C 
BRANCH  20  21
ATOM     21  C   UNL     1     -95.804 151.233 232.957  1.00  0.00    -0.000 C 
BRANCH  21  22
ATOM     22  C   UNL     1     -96.152 152.522 232.188  1.00  0.00    -0.000 C 
BRANCH  22  23
ATOM     23  C   UNL     1     -97.515 153.132 232.580  1.00  0.00    -0.000 C 
BRANCH  23  24
ATOM     24  C   UNL     1     -97.364 154.424 233.401  1.00  0.00    -0.000 C 
BRANCH  24  25
ATOM     25  C   UNL     1     -98.106 155.612 232.770  1.00  0.00    -0.003 C 
ATOM     26  C   UNL     1     -99.493 155.831 233.376  1.00  0.00     0.004 C 
ENDBRANCH  24  25
ENDBRANCH  23  24
ENDBRANCH  22  23
ENDBRANCH  21  22
ENDBRANCH  20  21
ENDBRANCH  19  20
ENDBRANCH  18  19
ENDBRANCH  17  18
ENDBRANCH  16  17
ENDBRANCH  15  16
ENDBRANCH   1  15
TORSDOF 22
ENDMDL
MODEL 8
REMARK VINA RESULT:    -3.530      2.021      3.909
REMARK INTER + INTRA:         -11.396
REMARK INTER:                  -7.570
REMARK INTRA:                  -3.826
REMARK UNBOUND:                -3.326
REMARK SMILES CCCCCCCCCCCCCCCCCCCCCCCC(=O)[O-]
REMARK SMILES IDX 13 1 14 2 15 3 16 4 17 5 18 6 19 7 20 8 21 9 22 10 23 11
REMARK SMILES IDX 24 12 25 13 26 14 12 15 11 16 10 17 9 18 8 19 7 20 6 21 5 22
REMARK SMILES IDX 4 23 3 24 2 25 1 26
REMARK H PARENT
REMARK Flexibility Score: inf
ROOT
ATOM      1  C   UNL     1     -93.856 148.153 237.116  1.00  0.00     0.000 C 
ENDROOT
BRANCH   1   2
ATOM      2  C   UNL     1     -94.619 148.204 235.783  1.00  0.00     0.000 C 
BRANCH   2   3
ATOM      3  C   UNL     1     -95.339 149.543 235.562  1.00  0.00     0.000 C 
BRANCH   3   4
ATOM      4  C   UNL     1     -96.389 149.424 234.450  1.00  0.00     0.000 C 
BRANCH   4   5
ATOM      5  C   UNL     1     -95.727 149.420 233.064  1.00  0.00     0.000 C 
BRANCH   5   6
ATOM      6  C   UNL     1     -96.387 150.402 232.079  1.00  0.00     0.000 C 
BRANCH   6   7
ATOM      7  C   UNL     1     -95.671 151.756 231.920  1.00  0.00     0.000 C 
BRANCH   7   8
ATOM      8  C   UNL     1     -96.311 152.874 232.761  1.00  0.00     0.000 C 
BRANCH   8   9
ATOM      9  C   UNL     1     -97.833 152.981 232.554  1.00  0.00     0.000 C 
BRANCH   9  10
ATOM     10  C   UNL     1     -98.675 153.003 233.847  1.00  0.00     0.006 C 
BRANCH  10  11
ATOM     11  C   UNL     1     -99.374 151.675 234.177  1.00  0.00     0.053 C 
BRANCH  11  12
ATOM     12  C   UNL     1    -100.521 151.863 235.120  1.00  0.00     0.041 C 
ATOM     13  O   UNL     1    -100.473 152.756 236.007  1.00  0.00    -0.550 OA
ATOM     14  O   UNL     1    -101.634 151.034 235.038  1.00  0.00    -0.550 OA
ENDBRANCH  11  12
ENDBRANCH  10  11
ENDBRANCH   9  10
ENDBRANCH   8   9
ENDBRANCH   7   8
ENDBRANCH   6   7
ENDBRANCH   5   6
ENDBRANCH   4   5
ENDBRANCH   3   4
ENDBRANCH   2   3
ENDBRANCH   1   2
BRANCH   1  15
ATOM     15  C   UNL     1     -94.592 148.896 238.246  1.00  0.00     0.000 C 
BRANCH  15  16
ATOM     16  C   UNL     1     -95.556 147.986 239.027  1.00  0.00     0.000 C 
BRANCH  16  17
ATOM     17  C   UNL     1     -96.870 148.659 239.468  1.00  0.00     0.000 C 
BRANCH  17  18
ATOM     18  C   UNL     1     -96.898 150.185 239.222  1.00  0.00    -0.000 C 
BRANCH  18  19
ATOM     19  C   UNL     1     -98.135 150.665 238.436  1.00  0.00    -0.000 C 
BRANCH  19  20
ATOM     20  C   UNL     1     -98.645 149.674 237.367  1.00  0.00    -0.000 C 
BRANCH  20  21
ATOM     21  C   UNL     1    -100.072 149.139 237.596  1.00  0.00    -0.000 C 
BRANCH  21  22
ATOM     22  C   UNL     1    -100.940 149.977 238.554  1.00  0.00    -0.000 C 
BRANCH  22  23
ATOM     23  C   UNL     1    -101.510 149.174 239.742  1.00  0.00    -0.000 C 
BRANCH  23  24
ATOM     24  C   UNL     1    -100.480 148.984 240.870  1.00  0.00    -0.000 C 
BRANCH  24  25
ATOM     25  C   UNL     1    -100.102 150.309 241.550  1.00  0.00    -0.003 C 
ATOM     26  C   UNL     1     -98.829 150.199 242.389  1.00  0.00     0.004 C 
ENDBRANCH  24  25
ENDBRANCH  23  24
ENDBRANCH  22  23
ENDBRANCH  21  22
ENDBRANCH  20  21
ENDBRANCH  19  20
ENDBRANCH  18  19
ENDBRANCH  17  18
ENDBRANCH  16  17
ENDBRANCH  15  16
ENDBRANCH   1  15
TORSDOF 22
ENDMDL
MODEL 9
REMARK VINA RESULT:    -3.513      2.563      4.431
REMARK INTER + INTRA:         -11.357
REMARK INTER:                  -7.514
REMARK INTRA:                  -3.843
REMARK UNBOUND:                -3.326
REMARK SMILES CCCCCCCCCCCCCCCCCCCCCCCC(=O)[O-]
REMARK SMILES IDX 13 1 14 2 15 3 16 4 17 5 18 6 19 7 20 8 21 9 22 10 23 11
REMARK SMILES IDX 24 12 25 13 26 14 12 15 11 16 10 17 9 18 8 19 7 20 6 21 5 22
REMARK SMILES IDX 4 23 3 24 2 25 1 26
REMARK H PARENT
REMARK Flexibility Score: inf
ROOT
ATOM      1  C   UNL     1     -95.905 148.277 239.008  1.00  0.00     0.000 C 
ENDROOT
BRANCH   1   2
ATOM      2  C   UNL     1     -95.183 147.712 237.774  1.00  0.00     0.000 C 
BRANCH   2   3
ATOM      3  C   UNL     1     -94.243 148.734 237.117  1.00  0.00     0.000 C 
BRANCH   3   4
ATOM      4  C   UNL     1     -94.787 149.183 235.755  1.00  0.00     0.000 C 
BRANCH   4   5
ATOM      5  C   UNL     1     -95.134 147.974 234.874  1.00  0.00     0.000 C 
BRANCH   5   6
ATOM      6  C   UNL     1     -94.926 148.243 233.373  1.00  0.00     0.000 C 
BRANCH   6   7
ATOM      7  C   UNL     1     -95.936 149.214 232.732  1.00  0.00     0.000 C 
BRANCH   7   8
ATOM      8  C   UNL     1     -95.318 150.579 232.386  1.00  0.00     0.000 C 
BRANCH   8   9
ATOM      9  C   UNL     1     -96.181 151.764 232.857  1.00  0.00     0.000 C 
BRANCH   9  10
ATOM     10  C   UNL     1     -96.511 152.812 231.775  1.00  0.00     0.006 C 
BRANCH  10  11
ATOM     11  C   UNL     1     -98.006 153.141 231.637  1.00  0.00     0.053 C 
BRANCH  11  12
ATOM     12  C   UNL     1     -98.306 154.559 232.012  1.00  0.00     0.041 C 
ATOM     13  O   UNL     1     -98.520 154.864 233.215  1.00  0.00    -0.550 OA
ATOM     14  O   UNL     1     -98.377 155.539 231.030  1.00  0.00    -0.550 OA
ENDBRANCH  11  12
ENDBRANCH  10  11
ENDBRANCH   9  10
ENDBRANCH   8   9
ENDBRANCH   7   8
ENDBRANCH   6   7
ENDBRANCH   5   6
ENDBRANCH   4   5
ENDBRANCH   3   4
ENDBRANCH   2   3
ENDBRANCH   1   2
BRANCH   1  15
ATOM     15  C   UNL     1     -96.054 149.808 238.954  1.00  0.00     0.000 C 
BRANCH  15  16
ATOM     16  C   UNL     1     -97.440 150.287 239.420  1.00  0.00     0.000 C 
BRANCH  16  17
ATOM     17  C   UNL     1     -98.464 150.507 238.289  1.00  0.00     0.000 C 
BRANCH  17  18
ATOM     18  C   UNL     1     -99.137 149.205 237.800  1.00  0.00    -0.000 C 
BRANCH  18  19
ATOM     19  C   UNL     1     -98.610 148.708 236.438  1.00  0.00    -0.000 C 
BRANCH  19  20
ATOM     20  C   UNL     1     -98.373 149.820 235.393  1.00  0.00    -0.000 C 
BRANCH  20  21
ATOM     21  C   UNL     1     -99.608 150.207 234.555  1.00  0.00    -0.000 C 
BRANCH  21  22
ATOM     22  C   UNL     1     -99.781 151.717 234.303  1.00  0.00    -0.000 C 
BRANCH  22  23
ATOM     23  C   UNL     1     -99.897 152.554 235.595  1.00  0.00    -0.000 C 
BRANCH  23  24
ATOM     24  C   UNL     1    -101.357 152.740 236.044  1.00  0.00    -0.000 C 
BRANCH  24  25
ATOM     25  C   UNL     1    -101.744 151.794 237.191  1.00  0.00    -0.003 C 
ATOM     26  C   UNL     1    -102.644 150.647 236.731  1.00  0.00     0.004 C 
ENDBRANCH  24  25
ENDBRANCH  23  24
ENDBRANCH  22  23
ENDBRANCH  21  22
ENDBRANCH  20  21
ENDBRANCH  19  20
ENDBRANCH  18  19
ENDBRANCH  17  18
ENDBRANCH  16  17
ENDBRANCH  15  16
ENDBRANCH   1  15
TORSDOF 22
ENDMDL
