MODEL 1
REMARK VINA RESULT:    -1.003      0.000      0.000
REMARK INTER + INTRA:          -1.097
REMARK INTER:                  -1.061
REMARK INTRA:                  -0.036
REMARK UNBOUND:                -0.036
REMARK SMILES COc1ccc2ccc(=O)oc2c1
REMARK SMILES IDX 3 1 13 2 12 3 6 4 5 5 4 6 7 7 8 8 9 9 10 10 11 11 2 12 1 13
REMARK H PARENT
REMARK Flexibility Score: inf
ROOT
ATOM      1  C   UNL     1      23.767  14.361   2.520  1.00  0.00     0.122 A 
ATOM      2  C   UNL     1      22.410  14.121   2.776  1.00  0.00     0.094 A 
ATOM      3  C   UNL     1      21.428  14.583   1.895  1.00  0.00     0.142 A 
ATOM      4  C   UNL     1      21.804  15.299   0.738  1.00  0.00     0.018 A 
ATOM      5  C   UNL     1      23.159  15.543   0.478  1.00  0.00     0.016 A 
ATOM      6  C   UNL     1      24.136  15.077   1.363  1.00  0.00     0.047 A 
ATOM      7  C   UNL     1      20.799  15.749  -0.124  1.00  0.00     0.019 A 
ATOM      8  C   UNL     1      19.465  15.480   0.181  1.00  0.00     0.094 A 
ATOM      9  C   UNL     1      19.167  14.765   1.345  1.00  0.00     0.336 A 
ATOM     10  O   UNL     1      17.969  14.512   1.638  1.00  0.00    -0.246 OA
ATOM     11  O   UNL     1      20.143  14.348   2.149  1.00  0.00    -0.423 OA
ENDROOT
BRANCH   1  12
ATOM     12  O   UNL     1      24.712  13.876   3.436  1.00  0.00    -0.497 OA
ATOM     13  C   UNL     1      26.120  13.897   3.225  1.00  0.00     0.278 C 
ENDBRANCH   1  12
TORSDOF 1
ENDMDL
MODEL 2
REMARK VINA RESULT:    -0.776      1.731      5.137
REMARK INTER + INTRA:          -0.857
REMARK INTER:                  -0.821
REMARK INTRA:                  -0.035
REMARK UNBOUND:                -0.036
REMARK SMILES COc1ccc2ccc(=O)oc2c1
REMARK SMILES IDX 3 1 13 2 12 3 6 4 5 5 4 6 7 7 8 8 9 9 10 10 11 11 2 12 1 13
REMARK H PARENT
REMARK Flexibility Score: inf
ROOT
ATOM      1  C   UNL     1      19.463  14.599   1.570  1.00  0.00     0.122 A 
ATOM      2  C   UNL     1      20.562  14.888   0.750  1.00  0.00     0.094 A 
ATOM      3  C   UNL     1      21.866  14.676   1.208  1.00  0.00     0.142 A 
ATOM      4  C   UNL     1      22.080  14.166   2.507  1.00  0.00     0.018 A 
ATOM      5  C   UNL     1      20.985  13.875   3.330  1.00  0.00     0.016 A 
ATOM      6  C   UNL     1      19.683  14.090   2.866  1.00  0.00     0.047 A 
ATOM      7  C   UNL     1      23.395  13.964   2.936  1.00  0.00     0.019 A 
ATOM      8  C   UNL     1      24.450  14.270   2.077  1.00  0.00     0.094 A 
ATOM      9  C   UNL     1      24.163  14.772   0.803  1.00  0.00     0.336 A 
ATOM     10  O   UNL     1      25.101  15.054   0.013  1.00  0.00    -0.246 OA
ATOM     11  O   UNL     1      22.902  14.955   0.419  1.00  0.00    -0.423 OA
ENDROOT
BRANCH   1  12
ATOM     12  O   UNL     1      18.176  14.831   1.062  1.00  0.00    -0.497 OA
ATOM     13  C   UNL     1      17.609  14.131  -0.040  1.00  0.00     0.278 C 
ENDBRANCH   1  12
TORSDOF 1
ENDMDL
MODEL 3
REMARK VINA RESULT:    -0.697      0.995      4.805
REMARK INTER + INTRA:          -0.773
REMARK INTER:                  -0.741
REMARK INTRA:                  -0.032
REMARK UNBOUND:                -0.036
REMARK SMILES COc1ccc2ccc(=O)oc2c1
REMARK SMILES IDX 3 1 13 2 12 3 6 4 5 5 4 6 7 7 8 8 9 9 10 10 11 11 2 12 1 13
REMARK H PARENT
REMARK Flexibility Score: inf
ROOT
ATOM      1  C   UNL     1      19.964  14.714   1.155  1.00  0.00     0.122 A 
ATOM      2  C   UNL     1      20.965  14.214   1.999  1.00  0.00     0.094 A 
ATOM      3  C   UNL     1      22.305  14.553   1.791  1.00  0.00     0.142 A 
ATOM      4  C   UNL     1      22.656  15.406   0.722  1.00  0.00     0.018 A 
ATOM      5  C   UNL     1      21.659  15.908  -0.125  1.00  0.00     0.016 A 
ATOM      6  C   UNL     1      20.321  15.565   0.089  1.00  0.00     0.047 A 
ATOM      7  C   UNL     1      24.004  15.727   0.539  1.00  0.00     0.019 A 
ATOM      8  C   UNL     1      24.957  15.200   1.411  1.00  0.00     0.094 A 
ATOM      9  C   UNL     1      24.536  14.361   2.448  1.00  0.00     0.336 A 
ATOM     10  O   UNL     1      25.381  13.875   3.245  1.00  0.00    -0.246 OA
ATOM     11  O   UNL     1      23.246  14.071   2.600  1.00  0.00    -0.423 OA
ENDROOT
BRANCH   1  12
ATOM     12  O   UNL     1      18.634  14.342   1.407  1.00  0.00    -0.497 OA
ATOM     13  C   UNL     1      17.716  13.916   0.406  1.00  0.00     0.278 C 
ENDBRANCH   1  12
TORSDOF 1
ENDMDL
