MODEL 1
REMARK VINA RESULT:    -6.422      0.000      0.000
REMARK INTER + INTRA:          -7.591
REMARK INTER:                  -7.361
REMARK INTRA:                  -0.230
REMARK UNBOUND:                -0.230
REMARK SMILES C=C(C)[C@H]1CC[C@@]2(C(=O)[O-])CC[C@@]3(C)[C@@H](CC[C@H]4[C@@]5(C)CC[C@H](O)C(C)(C)[C@H]5CC[C@@]43C)[C@H]12
REMARK SMILES IDX 7 1 6 2 33 3 11 4 5 5 15 6 4 7 12 8 16 9 13 10 17 11 31 12
REMARK SMILES IDX 14 13 18 14 30 15 32 16 19 17 29 18 21 19 20 20 28 21 22 22
REMARK SMILES IDX 25 23 23 24 26 25 27 26 8 27 9 28 10 29 2 30 3 31 1 32 24 33
REMARK H PARENT 24 34
REMARK Flexibility Score: inf
ROOT
ATOM      1  C   UNL     1      24.226   0.637 -12.959  1.00  0.00     0.014 C 
ATOM      2  C   UNL     1      23.370  -0.521 -12.421  1.00  0.00     0.014 C 
ATOM      3  C   UNL     1      24.266   0.302 -14.458  1.00  0.00     0.012 C 
ATOM      4  C   UNL     1      25.683   0.644 -12.422  1.00  0.00     0.014 C 
ATOM      5  C   UNL     1      22.310  -0.779 -13.514  1.00  0.00     0.009 C 
ATOM      6  C   UNL     1      25.020   1.410 -15.237  1.00  0.00     0.000 C 
ATOM      7  C   UNL     1      22.809  -0.062 -14.793  1.00  0.00     0.018 C 
ATOM      8  C   UNL     1      26.618   1.610 -13.214  1.00  0.00     0.008 C 
ATOM      9  C   UNL     1      24.880   1.304 -16.763  1.00  0.00     0.005 C 
ATOM     10  C   UNL     1      26.543   1.489 -14.788  1.00  0.00    -0.024 C 
ATOM     11  C   UNL     1      25.552   2.494 -17.458  1.00  0.00     0.005 C 
ATOM     12  C   UNL     1      27.245   2.751 -15.529  1.00  0.00    -0.024 C 
ATOM     13  C   UNL     1      27.296   0.149 -15.132  1.00  0.00     0.012 C 
ATOM     14  C   UNL     1      27.053   2.642 -17.086  1.00  0.00     0.002 C 
ATOM     15  C   UNL     1      28.781   2.752 -15.302  1.00  0.00     0.008 C 
ATOM     16  C   UNL     1      26.655   4.102 -15.000  1.00  0.00     0.012 C 
ATOM     17  C   UNL     1      27.876   3.661 -18.029  1.00  0.00    -0.026 C 
ATOM     18  C   UNL     1      29.451   4.003 -15.848  1.00  0.00     0.005 C 
ATOM     19  C   UNL     1      26.976   4.820 -18.562  1.00  0.00     0.010 C 
ATOM     20  C   UNL     1      28.262   2.806 -19.288  1.00  0.00     0.012 C 
ATOM     21  C   UNL     1      29.224   4.258 -17.371  1.00  0.00     0.003 C 
ATOM     22  C   UNL     1      27.678   5.806 -19.522  1.00  0.00     0.033 C 
ATOM     23  C   UNL     1      29.591   5.770 -17.750  1.00  0.00    -0.006 C 
ATOM     24  C   UNL     1      29.165   6.108 -19.219  1.00  0.00     0.120 C 
ATOM     25  C   UNL     1      28.936   6.840 -16.816  1.00  0.00     0.014 C 
ATOM     26  C   UNL     1      31.125   5.989 -17.616  1.00  0.00     0.014 C 
ENDROOT
BRANCH   1  27
ATOM     27  C   UNL     1      23.502   1.961 -12.635  1.00  0.00     0.048 C 
ATOM     28  O   UNL     1      23.653   2.985 -13.351  1.00  0.00    -0.550 OA
ATOM     29  O   UNL     1      22.633   2.052 -11.551  1.00  0.00    -0.550 OA
ENDBRANCH   1  27
BRANCH   7  30
ATOM     30  C   UNL     1      22.650  -0.934 -16.036  1.00  0.00    -0.077 C 
ATOM     31  C   UNL     1      23.646  -2.020 -16.371  1.00  0.00     0.039 C 
ATOM     32  C   UNL     1      21.589  -0.767 -16.842  1.00  0.00     0.008 C 
ENDBRANCH   7  30
BRANCH  24  33
ATOM     33  O   UNL     1      30.001   5.544 -20.207  1.00  0.00    -0.393 OA
ATOM     34  H   UNL     1      29.581   4.728 -20.575  1.00  0.00     0.210 HD
ENDBRANCH  24  33
TORSDOF 3
ENDMDL
MODEL 2
REMARK VINA RESULT:    -6.229      2.230      7.708
REMARK INTER + INTRA:          -7.369
REMARK INTER:                  -7.131
REMARK INTRA:                  -0.238
REMARK UNBOUND:                -0.230
REMARK SMILES C=C(C)[C@H]1CC[C@@]2(C(=O)[O-])CC[C@@]3(C)[C@@H](CC[C@H]4[C@@]5(C)CC[C@H](O)C(C)(C)[C@H]5CC[C@@]43C)[C@H]12
REMARK SMILES IDX 7 1 6 2 33 3 11 4 5 5 15 6 4 7 12 8 16 9 13 10 17 11 31 12
REMARK SMILES IDX 14 13 18 14 30 15 32 16 19 17 29 18 21 19 20 20 28 21 22 22
REMARK SMILES IDX 25 23 23 24 26 25 27 26 8 27 9 28 10 29 2 30 3 31 1 32 24 33
REMARK H PARENT 24 34
REMARK Flexibility Score: inf
ROOT
ATOM      1  C   UNL     1      28.345   5.287 -14.570  1.00  0.00     0.014 C 
ATOM      2  C   UNL     1      29.156   6.436 -15.192  1.00  0.00     0.014 C 
ATOM      3  C   UNL     1      27.560   4.785 -15.792  1.00  0.00     0.012 C 
ATOM      4  C   UNL     1      27.327   5.749 -13.493  1.00  0.00     0.014 C 
ATOM      5  C   UNL     1      29.530   5.943 -16.607  1.00  0.00     0.009 C 
ATOM      6  C   UNL     1      26.718   3.539 -15.416  1.00  0.00     0.000 C 
ATOM      7  C   UNL     1      28.615   4.730 -16.910  1.00  0.00     0.018 C 
ATOM      8  C   UNL     1      26.298   4.638 -13.113  1.00  0.00     0.008 C 
ATOM      9  C   UNL     1      26.114   2.807 -16.624  1.00  0.00     0.005 C 
ATOM     10  C   UNL     1      25.613   3.902 -14.332  1.00  0.00    -0.024 C 
ATOM     11  C   UNL     1      25.395   1.526 -16.184  1.00  0.00     0.005 C 
ATOM     12  C   UNL     1      24.859   2.539 -13.874  1.00  0.00    -0.024 C 
ATOM     13  C   UNL     1      24.584   4.943 -14.913  1.00  0.00     0.012 C 
ATOM     14  C   UNL     1      24.284   1.788 -15.130  1.00  0.00     0.002 C 
ATOM     15  C   UNL     1      23.626   2.853 -12.983  1.00  0.00     0.008 C 
ATOM     16  C   UNL     1      25.834   1.607 -13.079  1.00  0.00     0.012 C 
ATOM     17  C   UNL     1      23.292   0.539 -14.885  1.00  0.00    -0.026 C 
ATOM     18  C   UNL     1      22.989   1.599 -12.407  1.00  0.00     0.005 C 
ATOM     19  C   UNL     1      24.013  -0.830 -15.091  1.00  0.00     0.010 C 
ATOM     20  C   UNL     1      22.235   0.645 -16.040  1.00  0.00     0.012 C 
ATOM     21  C   UNL     1      22.519   0.554 -13.466  1.00  0.00     0.003 C 
ATOM     22  C   UNL     1      23.113  -2.076 -14.932  1.00  0.00     0.033 C 
ATOM     23  C   UNL     1      22.265  -0.871 -12.781  1.00  0.00    -0.006 C 
ATOM     24  C   UNL     1      22.007  -1.982 -13.854  1.00  0.00     0.120 C 
ATOM     25  C   UNL     1      23.440  -1.362 -11.873  1.00  0.00     0.014 C 
ATOM     26  C   UNL     1      21.026  -0.790 -11.843  1.00  0.00     0.014 C 
ENDROOT
BRANCH   1  27
ATOM     27  C   UNL     1      29.337   4.253 -13.999  1.00  0.00     0.048 C 
ATOM     28  O   UNL     1      30.341   4.605 -13.328  1.00  0.00    -0.550 OA
ATOM     29  O   UNL     1      29.132   2.889 -14.188  1.00  0.00    -0.550 OA
ENDBRANCH   1  27
BRANCH   7  30
ATOM     30  C   UNL     1      28.037   4.789 -18.323  1.00  0.00    -0.077 C 
ATOM     31  C   UNL     1      28.243   3.662 -19.308  1.00  0.00     0.039 C 
ATOM     32  C   UNL     1      27.298   5.845 -18.701  1.00  0.00     0.008 C 
ENDBRANCH   7  30
BRANCH  24  33
ATOM     33  O   UNL     1      20.730  -1.921 -14.453  1.00  0.00    -0.393 OA
ATOM     34  H   UNL     1      20.227  -1.151 -14.091  1.00  0.00     0.210 HD
ENDBRANCH  24  33
TORSDOF 3
ENDMDL
MODEL 3
REMARK VINA RESULT:    -6.199      1.863      8.149
REMARK INTER + INTRA:          -7.335
REMARK INTER:                  -7.064
REMARK INTRA:                  -0.271
REMARK UNBOUND:                -0.230
REMARK SMILES C=C(C)[C@H]1CC[C@@]2(C(=O)[O-])CC[C@@]3(C)[C@@H](CC[C@H]4[C@@]5(C)CC[C@H](O)C(C)(C)[C@H]5CC[C@@]43C)[C@H]12
REMARK SMILES IDX 7 1 6 2 33 3 11 4 5 5 15 6 4 7 12 8 16 9 13 10 17 11 31 12
REMARK SMILES IDX 14 13 18 14 30 15 32 16 19 17 29 18 21 19 20 20 28 21 22 22
REMARK SMILES IDX 25 23 23 24 26 25 27 26 8 27 9 28 10 29 2 30 3 31 1 32 24 33
REMARK H PARENT 24 34
REMARK Flexibility Score: inf
ROOT
ATOM      1  C   UNL     1      28.696   5.254 -17.106  1.00  0.00     0.014 C 
ATOM      2  C   UNL     1      29.872   6.188 -17.435  1.00  0.00     0.014 C 
ATOM      3  C   UNL     1      28.705   5.300 -15.571  1.00  0.00     0.012 C 
ATOM      4  C   UNL     1      28.919   3.783 -17.551  1.00  0.00     0.014 C 
ATOM      5  C   UNL     1      29.806   7.306 -16.373  1.00  0.00     0.009 C 
ATOM      6  C   UNL     1      27.518   4.481 -15.000  1.00  0.00     0.000 C 
ATOM      7  C   UNL     1      28.874   6.795 -15.248  1.00  0.00     0.018 C 
ATOM      8  C   UNL     1      27.881   2.797 -16.929  1.00  0.00     0.008 C 
ATOM      9  C   UNL     1      27.284   4.687 -13.496  1.00  0.00     0.005 C 
ATOM     10  C   UNL     1      27.656   2.941 -15.372  1.00  0.00    -0.024 C 
ATOM     11  C   UNL     1      26.029   3.939 -13.031  1.00  0.00     0.005 C 
ATOM     12  C   UNL     1      26.324   2.159 -14.874  1.00  0.00    -0.024 C 
ATOM     13  C   UNL     1      28.946   2.323 -14.713  1.00  0.00     0.012 C 
ATOM     14  C   UNL     1      26.082   2.418 -13.342  1.00  0.00     0.002 C 
ATOM     15  C   UNL     1      26.491   0.621 -15.010  1.00  0.00     0.008 C 
ATOM     16  C   UNL     1      25.076   2.608 -15.707  1.00  0.00     0.012 C 
ATOM     17  C   UNL     1      24.952   1.545 -12.590  1.00  0.00    -0.026 C 
ATOM     18  C   UNL     1      25.209  -0.135 -14.704  1.00  0.00     0.005 C 
ATOM     19  C   UNL     1      23.640   2.358 -12.363  1.00  0.00     0.010 C 
ATOM     20  C   UNL     1      25.546   1.283 -11.160  1.00  0.00     0.012 C 
ATOM     21  C   UNL     1      24.617   0.125 -13.284  1.00  0.00     0.003 C 
ATOM     22  C   UNL     1      22.528   1.608 -11.594  1.00  0.00     0.033 C 
ATOM     23  C   UNL     1      23.092  -0.359 -13.210  1.00  0.00    -0.006 C 
ATOM     24  C   UNL     1      22.415   0.090 -11.871  1.00  0.00     0.120 C 
ATOM     25  C   UNL     1      22.199   0.164 -14.384  1.00  0.00     0.014 C 
ATOM     26  C   UNL     1      23.027  -1.910 -13.303  1.00  0.00     0.014 C 
ENDROOT
BRANCH   1  27
ATOM     27  C   UNL     1      27.420   5.846 -17.740  1.00  0.00     0.048 C 
ATOM     28  O   UNL     1      27.380   6.173 -18.954  1.00  0.00    -0.550 OA
ATOM     29  O   UNL     1      26.260   6.010 -16.988  1.00  0.00    -0.550 OA
ENDBRANCH   1  27
BRANCH   7  30
ATOM     30  C   UNL     1      29.445   7.077 -13.859  1.00  0.00    -0.077 C 
ATOM     31  C   UNL     1      30.614   6.291 -13.313  1.00  0.00     0.039 C 
ATOM     32  C   UNL     1      28.928   8.063 -13.109  1.00  0.00     0.008 C 
ENDBRANCH   7  30
BRANCH  24  33
ATOM     33  O   UNL     1      22.818  -0.655 -10.742  1.00  0.00    -0.393 OA
ATOM     34  H   UNL     1      22.084  -0.685 -10.081  1.00  0.00     0.210 HD
ENDBRANCH  24  33
TORSDOF 3
ENDMDL
MODEL 4
REMARK VINA RESULT:    -6.147      3.655      8.619
REMARK INTER + INTRA:          -7.275
REMARK INTER:                  -6.979
REMARK INTRA:                  -0.296
REMARK UNBOUND:                -0.230
REMARK SMILES C=C(C)[C@H]1CC[C@@]2(C(=O)[O-])CC[C@@]3(C)[C@@H](CC[C@H]4[C@@]5(C)CC[C@H](O)C(C)(C)[C@H]5CC[C@@]43C)[C@H]12
REMARK SMILES IDX 7 1 6 2 33 3 11 4 5 5 15 6 4 7 12 8 16 9 13 10 17 11 31 12
REMARK SMILES IDX 14 13 18 14 30 15 32 16 19 17 29 18 21 19 20 20 28 21 22 22
REMARK SMILES IDX 25 23 23 24 26 25 27 26 8 27 9 28 10 29 2 30 3 31 1 32 24 33
REMARK H PARENT 24 34
REMARK Flexibility Score: inf
ROOT
ATOM      1  C   UNL     1      25.848   0.912 -14.435  1.00  0.00     0.014 C 
ATOM      2  C   UNL     1      27.222   0.832 -13.751  1.00  0.00     0.014 C 
ATOM      3  C   UNL     1      24.961   0.206 -13.398  1.00  0.00     0.012 C 
ATOM      4  C   UNL     1      25.762   0.122 -15.769  1.00  0.00     0.014 C 
ATOM      5  C   UNL     1      26.933   1.021 -12.246  1.00  0.00     0.009 C 
ATOM      6  C   UNL     1      23.476   0.246 -13.843  1.00  0.00     0.000 C 
ATOM      7  C   UNL     1      25.411   0.808 -12.057  1.00  0.00     0.018 C 
ATOM      8  C   UNL     1      24.298  -0.059 -16.276  1.00  0.00     0.008 C 
ATOM      9  C   UNL     1      22.487  -0.192 -12.753  1.00  0.00     0.005 C 
ATOM     10  C   UNL     1      23.262  -0.564 -15.195  1.00  0.00    -0.024 C 
ATOM     11  C   UNL     1      21.038  -0.017 -13.225  1.00  0.00     0.005 C 
ATOM     12  C   UNL     1      21.727  -0.371 -15.685  1.00  0.00    -0.024 C 
ATOM     13  C   UNL     1      23.596  -2.089 -14.989  1.00  0.00     0.012 C 
ATOM     14  C   UNL     1      20.734  -0.787 -14.539  1.00  0.00     0.002 C 
ATOM     15  C   UNL     1      21.396  -1.311 -16.877  1.00  0.00     0.008 C 
ATOM     16  C   UNL     1      21.467   1.110 -16.121  1.00  0.00     0.012 C 
ATOM     17  C   UNL     1      19.164  -0.903 -14.895  1.00  0.00    -0.026 C 
ATOM     18  C   UNL     1      20.020  -1.046 -17.464  1.00  0.00     0.005 C 
ATOM     19  C   UNL     1      18.357   0.331 -14.383  1.00  0.00     0.010 C 
ATOM     20  C   UNL     1      18.659  -2.125 -14.049  1.00  0.00     0.012 C 
ATOM     21  C   UNL     1      18.838  -1.176 -16.453  1.00  0.00     0.003 C 
ATOM     22  C   UNL     1      16.833   0.268 -14.633  1.00  0.00     0.033 C 
ATOM     23  C   UNL     1      17.518  -0.482 -17.035  1.00  0.00    -0.006 C 
ATOM     24  C   UNL     1      16.389  -0.408 -15.952  1.00  0.00     0.120 C 
ATOM     25  C   UNL     1      17.744   0.969 -17.575  1.00  0.00     0.014 C 
ATOM     26  C   UNL     1      16.987  -1.296 -18.250  1.00  0.00     0.014 C 
ENDROOT
BRANCH   1  27
ATOM     27  C   UNL     1      25.499   2.401 -14.641  1.00  0.00     0.048 C 
ATOM     28  O   UNL     1      26.368   3.236 -15.005  1.00  0.00    -0.550 OA
ATOM     29  O   UNL     1      24.199   2.862 -14.455  1.00  0.00    -0.550 OA
ENDBRANCH   1  27
BRANCH   7  30
ATOM     30  C   UNL     1      25.102  -0.064 -10.841  1.00  0.00    -0.077 C 
ATOM     31  C   UNL     1      25.448  -1.535 -10.818  1.00  0.00     0.039 C 
ATOM     32  C   UNL     1      24.542   0.481  -9.749  1.00  0.00     0.008 C 
ENDBRANCH   7  30
BRANCH  24  33
ATOM     33  O   UNL     1      15.755  -1.642 -15.693  1.00  0.00    -0.393 OA
ATOM     34  H   UNL     1      16.023  -1.975 -14.801  1.00  0.00     0.210 HD
ENDBRANCH  24  33
TORSDOF 3
ENDMDL
MODEL 5
REMARK VINA RESULT:    -6.036      1.719      2.346
REMARK INTER + INTRA:          -7.148
REMARK INTER:                  -6.873
REMARK INTRA:                  -0.275
REMARK UNBOUND:                -0.230
REMARK SMILES C=C(C)[C@H]1CC[C@@]2(C(=O)[O-])CC[C@@]3(C)[C@@H](CC[C@H]4[C@@]5(C)CC[C@H](O)C(C)(C)[C@H]5CC[C@@]43C)[C@H]12
REMARK SMILES IDX 7 1 6 2 33 3 11 4 5 5 15 6 4 7 12 8 16 9 13 10 17 11 31 12
REMARK SMILES IDX 14 13 18 14 30 15 32 16 19 17 29 18 21 19 20 20 28 21 22 22
REMARK SMILES IDX 25 23 23 24 26 25 27 26 8 27 9 28 10 29 2 30 3 31 1 32 24 33
REMARK H PARENT 24 34
REMARK Flexibility Score: inf
ROOT
ATOM      1  C   UNL     1      26.062  -0.220 -11.412  1.00  0.00     0.014 C 
ATOM      2  C   UNL     1      25.280  -1.315 -10.669  1.00  0.00     0.014 C 
ATOM      3  C   UNL     1      25.144   0.029 -12.619  1.00  0.00     0.012 C 
ATOM      4  C   UNL     1      27.446  -0.686 -11.941  1.00  0.00     0.014 C 
ATOM      5  C   UNL     1      23.793  -0.942 -10.855  1.00  0.00     0.009 C 
ATOM      6  C   UNL     1      25.699   1.187 -13.488  1.00  0.00     0.000 C 
ATOM      7  C   UNL     1      23.736   0.095 -12.004  1.00  0.00     0.018 C 
ATOM      8  C   UNL     1      28.075   0.314 -12.960  1.00  0.00     0.008 C 
ATOM      9  C   UNL     1      24.719   1.688 -14.559  1.00  0.00     0.005 C 
ATOM     10  C   UNL     1      27.112   0.808 -14.111  1.00  0.00    -0.024 C 
ATOM     11  C   UNL     1      25.290   2.904 -15.298  1.00  0.00     0.005 C 
ATOM     12  C   UNL     1      27.707   2.101 -14.890  1.00  0.00    -0.024 C 
ATOM     13  C   UNL     1      26.978  -0.421 -15.087  1.00  0.00     0.012 C 
ATOM     14  C   UNL     1      26.670   2.620 -15.953  1.00  0.00     0.002 C 
ATOM     15  C   UNL     1      28.978   1.731 -15.703  1.00  0.00     0.008 C 
ATOM     16  C   UNL     1      28.067   3.240 -13.878  1.00  0.00     0.012 C 
ATOM     17  C   UNL     1      27.153   3.746 -17.003  1.00  0.00    -0.026 C 
ATOM     18  C   UNL     1      29.652   2.947 -16.316  1.00  0.00     0.005 C 
ATOM     19  C   UNL     1      26.629   5.165 -16.621  1.00  0.00     0.010 C 
ATOM     20  C   UNL     1      26.428   3.368 -18.343  1.00  0.00     0.012 C 
ATOM     21  C   UNL     1      28.746   3.792 -17.266  1.00  0.00     0.003 C 
ATOM     22  C   UNL     1      26.999   6.291 -17.613  1.00  0.00     0.033 C 
ATOM     23  C   UNL     1      29.384   5.239 -17.516  1.00  0.00    -0.006 C 
ATOM     24  C   UNL     1      28.389   6.175 -18.283  1.00  0.00     0.120 C 
ATOM     25  C   UNL     1      29.811   5.983 -16.208  1.00  0.00     0.014 C 
ATOM     26  C   UNL     1      30.685   5.103 -18.357  1.00  0.00     0.014 C 
ENDROOT
BRANCH   1  27
ATOM     27  C   UNL     1      26.200   0.996 -10.473  1.00  0.00     0.048 C 
ATOM     28  O   UNL     1      26.262   0.858  -9.224  1.00  0.00    -0.550 OA
ATOM     29  O   UNL     1      26.287   2.287 -10.986  1.00  0.00    -0.550 OA
ENDBRANCH   1  27
BRANCH   7  30
ATOM     30  C   UNL     1      22.606  -0.203 -12.987  1.00  0.00    -0.077 C 
ATOM     31  C   UNL     1      22.704  -1.336 -13.982  1.00  0.00     0.039 C 
ATOM     32  C   UNL     1      21.480   0.529 -12.957  1.00  0.00     0.008 C 
ENDBRANCH   7  30
BRANCH  24  33
ATOM     33  O   UNL     1      28.258   5.877 -19.657  1.00  0.00    -0.393 OA
ATOM     34  H   UNL     1      28.124   4.905 -19.777  1.00  0.00     0.210 HD
ENDBRANCH  24  33
TORSDOF 3
ENDMDL
MODEL 6
REMARK VINA RESULT:    -5.950      2.216      4.007
REMARK INTER + INTRA:          -7.049
REMARK INTER:                  -6.754
REMARK INTRA:                  -0.295
REMARK UNBOUND:                -0.230
REMARK SMILES C=C(C)[C@H]1CC[C@@]2(C(=O)[O-])CC[C@@]3(C)[C@@H](CC[C@H]4[C@@]5(C)CC[C@H](O)C(C)(C)[C@H]5CC[C@@]43C)[C@H]12
REMARK SMILES IDX 7 1 6 2 33 3 11 4 5 5 15 6 4 7 12 8 16 9 13 10 17 11 31 12
REMARK SMILES IDX 14 13 18 14 30 15 32 16 19 17 29 18 21 19 20 20 28 21 22 22
REMARK SMILES IDX 25 23 23 24 26 25 27 26 8 27 9 28 10 29 2 30 3 31 1 32 24 33
REMARK H PARENT 24 34
REMARK Flexibility Score: inf
ROOT
ATOM      1  C   UNL     1      23.358   0.540 -15.415  1.00  0.00     0.014 C 
ATOM      2  C   UNL     1      22.268  -0.337 -14.778  1.00  0.00     0.014 C 
ATOM      3  C   UNL     1      24.141   0.986 -14.170  1.00  0.00     0.012 C 
ATOM      4  C   UNL     1      22.810   1.807 -16.125  1.00  0.00     0.014 C 
ATOM      5  C   UNL     1      22.968  -1.061 -13.607  1.00  0.00     0.009 C 
ATOM      6  C   UNL     1      25.374   1.830 -14.583  1.00  0.00     0.000 C 
ATOM      7  C   UNL     1      24.295  -0.306 -13.349  1.00  0.00     0.018 C 
ATOM      8  C   UNL     1      23.927   2.840 -16.474  1.00  0.00     0.008 C 
ATOM      9  C   UNL     1      26.362   2.093 -13.437  1.00  0.00     0.005 C 
ATOM     10  C   UNL     1      24.929   3.178 -15.300  1.00  0.00    -0.024 C 
ATOM     11  C   UNL     1      27.606   2.832 -13.946  1.00  0.00     0.005 C 
ATOM     12  C   UNL     1      26.253   3.951 -15.834  1.00  0.00    -0.024 C 
ATOM     13  C   UNL     1      24.109   4.090 -14.312  1.00  0.00     0.012 C 
ATOM     14  C   UNL     1      27.266   4.173 -14.652  1.00  0.00     0.002 C 
ATOM     15  C   UNL     1      25.902   5.375 -16.347  1.00  0.00     0.008 C 
ATOM     16  C   UNL     1      26.933   3.148 -16.993  1.00  0.00     0.012 C 
ATOM     17  C   UNL     1      28.539   5.132 -14.908  1.00  0.00    -0.026 C 
ATOM     18  C   UNL     1      27.087   6.067 -16.999  1.00  0.00     0.005 C 
ATOM     19  C   UNL     1      29.849   4.316 -15.139  1.00  0.00     0.010 C 
ATOM     20  C   UNL     1      28.740   5.888 -13.547  1.00  0.00     0.012 C 
ATOM     21  C   UNL     1      28.344   6.219 -16.086  1.00  0.00     0.003 C 
ATOM     22  C   UNL     1      31.125   5.165 -15.333  1.00  0.00     0.033 C 
ATOM     23  C   UNL     1      29.641   6.559 -16.962  1.00  0.00    -0.006 C 
ATOM     24  C   UNL     1      30.945   6.499 -16.095  1.00  0.00     0.120 C 
ATOM     25  C   UNL     1      29.850   5.610 -18.188  1.00  0.00     0.014 C 
ATOM     26  C   UNL     1      29.511   7.987 -17.563  1.00  0.00     0.014 C 
ENDROOT
BRANCH   1  27
ATOM     27  C   UNL     1      24.177  -0.338 -16.384  1.00  0.00     0.048 C 
ATOM     28  O   UNL     1      23.626  -1.202 -17.114  1.00  0.00    -0.550 OA
ATOM     29  O   UNL     1      25.555  -0.178 -16.500  1.00  0.00    -0.550 OA
ENDBRANCH   1  27
BRANCH   7  30
ATOM     30  C   UNL     1      24.543  -0.078 -11.859  1.00  0.00    -0.077 C 
ATOM     31  C   UNL     1      23.690   0.875 -11.055  1.00  0.00     0.039 C 
ATOM     32  C   UNL     1      25.516  -0.757 -11.230  1.00  0.00     0.008 C 
ENDBRANCH   7  30
BRANCH  24  33
ATOM     33  O   UNL     1      31.112   7.598 -15.226  1.00  0.00    -0.393 OA
ATOM     34  H   UNL     1      30.268   7.773 -14.741  1.00  0.00     0.210 HD
ENDBRANCH  24  33
TORSDOF 3
ENDMDL
MODEL 7
REMARK VINA RESULT:    -5.779      1.799      8.092
REMARK INTER + INTRA:          -6.853
REMARK INTER:                  -6.629
REMARK INTRA:                  -0.224
REMARK UNBOUND:                -0.230
REMARK SMILES C=C(C)[C@H]1CC[C@@]2(C(=O)[O-])CC[C@@]3(C)[C@@H](CC[C@H]4[C@@]5(C)CC[C@H](O)C(C)(C)[C@H]5CC[C@@]43C)[C@H]12
REMARK SMILES IDX 7 1 6 2 33 3 11 4 5 5 15 6 4 7 12 8 16 9 13 10 17 11 31 12
REMARK SMILES IDX 14 13 18 14 30 15 32 16 19 17 29 18 21 19 20 20 28 21 22 22
REMARK SMILES IDX 25 23 23 24 26 25 27 26 8 27 9 28 10 29 2 30 3 31 1 32 24 33
REMARK H PARENT 24 34
REMARK Flexibility Score: inf
ROOT
ATOM      1  C   UNL     1      27.649   4.452 -17.557  1.00  0.00     0.014 C 
ATOM      2  C   UNL     1      28.871   5.109 -18.219  1.00  0.00     0.014 C 
ATOM      3  C   UNL     1      28.298   3.796 -16.328  1.00  0.00     0.012 C 
ATOM      4  C   UNL     1      26.993   3.337 -18.415  1.00  0.00     0.014 C 
ATOM      5  C   UNL     1      29.745   5.605 -17.046  1.00  0.00     0.009 C 
ATOM      6  C   UNL     1      27.216   3.131 -15.439  1.00  0.00     0.000 C 
ATOM      7  C   UNL     1      29.227   4.889 -15.774  1.00  0.00     0.018 C 
ATOM      8  C   UNL     1      25.977   2.469 -17.610  1.00  0.00     0.008 C 
ATOM      9  C   UNL     1      27.728   2.686 -14.061  1.00  0.00     0.005 C 
ATOM     10  C   UNL     1      26.491   1.945 -16.211  1.00  0.00    -0.024 C 
ATOM     11  C   UNL     1      26.580   2.146 -13.199  1.00  0.00     0.005 C 
ATOM     12  C   UNL     1      25.280   1.381 -15.290  1.00  0.00    -0.024 C 
ATOM     13  C   UNL     1      27.514   0.797 -16.554  1.00  0.00     0.012 C 
ATOM     14  C   UNL     1      25.821   0.970 -13.872  1.00  0.00     0.002 C 
ATOM     15  C   UNL     1      24.675   0.082 -15.891  1.00  0.00     0.008 C 
ATOM     16  C   UNL     1      24.145   2.451 -15.152  1.00  0.00     0.012 C 
ATOM     17  C   UNL     1      24.834   0.162 -12.883  1.00  0.00    -0.026 C 
ATOM     18  C   UNL     1      23.438  -0.386 -15.143  1.00  0.00     0.005 C 
ATOM     19  C   UNL     1      24.238   1.083 -11.772  1.00  0.00     0.010 C 
ATOM     20  C   UNL     1      25.770  -0.855 -12.139  1.00  0.00     0.012 C 
ATOM     21  C   UNL     1      23.654  -0.657 -13.621  1.00  0.00     0.003 C 
ATOM     22  C   UNL     1      23.327   0.369 -10.748  1.00  0.00     0.033 C 
ATOM     23  C   UNL     1      22.250  -0.727 -12.854  1.00  0.00    -0.006 C 
ATOM     24  C   UNL     1      22.450  -0.779 -11.302  1.00  0.00     0.120 C 
ATOM     25  C   UNL     1      21.294   0.473 -13.162  1.00  0.00     0.014 C 
ATOM     26  C   UNL     1      21.471  -1.999 -13.297  1.00  0.00     0.014 C 
ENDROOT
BRANCH   1  27
ATOM     27  C   UNL     1      26.636   5.562 -17.208  1.00  0.00     0.048 C 
ATOM     28  O   UNL     1      25.797   5.420 -16.281  1.00  0.00    -0.550 OA
ATOM     29  O   UNL     1      26.640   6.773 -17.896  1.00  0.00    -0.550 OA
ENDBRANCH   1  27
BRANCH   7  30
ATOM     30  C   UNL     1      30.371   4.362 -14.909  1.00  0.00    -0.077 C 
ATOM     31  C   UNL     1      30.737   5.020 -13.599  1.00  0.00     0.039 C 
ATOM     32  C   UNL     1      31.053   3.270 -15.292  1.00  0.00     0.008 C 
ENDBRANCH   7  30
BRANCH  24  33
ATOM     33  O   UNL     1      22.898  -2.028 -10.819  1.00  0.00    -0.393 OA
ATOM     34  H   UNL     1      23.764  -2.257 -11.236  1.00  0.00     0.210 HD
ENDBRANCH  24  33
TORSDOF 3
ENDMDL
MODEL 8
REMARK VINA RESULT:    -5.725      1.648      2.493
REMARK INTER + INTRA:          -6.791
REMARK INTER:                  -6.643
REMARK INTRA:                  -0.148
REMARK UNBOUND:                -0.230
REMARK SMILES C=C(C)[C@H]1CC[C@@]2(C(=O)[O-])CC[C@@]3(C)[C@@H](CC[C@H]4[C@@]5(C)CC[C@H](O)C(C)(C)[C@H]5CC[C@@]43C)[C@H]12
REMARK SMILES IDX 7 1 6 2 33 3 11 4 5 5 15 6 4 7 12 8 16 9 13 10 17 11 31 12
REMARK SMILES IDX 14 13 18 14 30 15 32 16 19 17 29 18 21 19 20 20 28 21 22 22
REMARK SMILES IDX 25 23 23 24 26 25 27 26 8 27 9 28 10 29 2 30 3 31 1 32 24 33
REMARK H PARENT 24 34
REMARK Flexibility Score: inf
ROOT
ATOM      1  C   UNL     1      23.786  -0.985 -11.517  1.00  0.00     0.014 C 
ATOM      2  C   UNL     1      22.837  -2.099 -11.047  1.00  0.00     0.014 C 
ATOM      3  C   UNL     1      23.197  -0.659 -12.897  1.00  0.00     0.012 C 
ATOM      4  C   UNL     1      25.254  -1.452 -11.712  1.00  0.00     0.014 C 
ATOM      5  C   UNL     1      21.444  -1.688 -11.574  1.00  0.00     0.009 C 
ATOM      6  C   UNL     1      23.957   0.529 -13.541  1.00  0.00     0.000 C 
ATOM      7  C   UNL     1      21.681  -0.595 -12.645  1.00  0.00     0.018 C 
ATOM      8  C   UNL     1      26.123  -0.416 -12.491  1.00  0.00     0.008 C 
ATOM      9  C   UNL     1      23.276   1.102 -14.793  1.00  0.00     0.005 C 
ATOM     10  C   UNL     1      25.477   0.153 -13.816  1.00  0.00    -0.024 C 
ATOM     11  C   UNL     1      24.021   2.341 -15.303  1.00  0.00     0.005 C 
ATOM     12  C   UNL     1      26.256   1.471 -14.356  1.00  0.00    -0.024 C 
ATOM     13  C   UNL     1      25.580  -1.023 -14.858  1.00  0.00     0.012 C 
ATOM     14  C   UNL     1      25.517   2.062 -15.612  1.00  0.00     0.002 C 
ATOM     15  C   UNL     1      27.686   1.116 -14.849  1.00  0.00     0.008 C 
ATOM     16  C   UNL     1      26.363   2.551 -13.227  1.00  0.00     0.012 C 
ATOM     17  C   UNL     1      26.253   3.228 -16.451  1.00  0.00    -0.026 C 
ATOM     18  C   UNL     1      28.499   2.347 -15.213  1.00  0.00     0.005 C 
ATOM     19  C   UNL     1      25.661   4.637 -16.135  1.00  0.00     0.010 C 
ATOM     20  C   UNL     1      25.879   2.932 -17.946  1.00  0.00     0.012 C 
ATOM     21  C   UNL     1      27.862   3.255 -16.310  1.00  0.00     0.003 C 
ATOM     22  C   UNL     1      26.273   5.802 -16.945  1.00  0.00     0.033 C 
ATOM     23  C   UNL     1      28.552   4.700 -16.319  1.00  0.00    -0.006 C 
ATOM     24  C   UNL     1      27.784   5.692 -17.257  1.00  0.00     0.120 C 
ATOM     25  C   UNL     1      28.649   5.370 -14.909  1.00  0.00     0.014 C 
ATOM     26  C   UNL     1      30.020   4.579 -16.820  1.00  0.00     0.014 C 
ENDROOT
BRANCH   1  27
ATOM     27  C   UNL     1      23.697   0.180 -10.510  1.00  0.00     0.048 C 
ATOM     28  O   UNL     1      24.258   0.122  -9.385  1.00  0.00    -0.550 OA
ATOM     29  O   UNL     1      23.011   1.349 -10.830  1.00  0.00    -0.550 OA
ENDBRANCH   1  27
BRANCH   7  30
ATOM     30  C   UNL     1      20.826  -0.821 -13.891  1.00  0.00    -0.077 C 
ATOM     31  C   UNL     1      21.234  -1.811 -14.958  1.00  0.00     0.039 C 
ATOM     32  C   UNL     1      19.668  -0.158 -14.039  1.00  0.00     0.008 C 
ENDBRANCH   7  30
BRANCH  24  33
ATOM     33  O   UNL     1      27.995   5.464 -18.635  1.00  0.00    -0.393 OA
ATOM     34  H   UNL     1      28.743   4.831 -18.759  1.00  0.00     0.210 HD
ENDBRANCH  24  33
TORSDOF 3
ENDMDL
MODEL 9
REMARK VINA RESULT:    -5.714      1.941      3.940
REMARK INTER + INTRA:          -6.778
REMARK INTER:                  -6.484
REMARK INTRA:                  -0.294
REMARK UNBOUND:                -0.230
REMARK SMILES C=C(C)[C@H]1CC[C@@]2(C(=O)[O-])CC[C@@]3(C)[C@@H](CC[C@H]4[C@@]5(C)CC[C@H](O)C(C)(C)[C@H]5CC[C@@]43C)[C@H]12
REMARK SMILES IDX 7 1 6 2 33 3 11 4 5 5 15 6 4 7 12 8 16 9 13 10 17 11 31 12
REMARK SMILES IDX 14 13 18 14 30 15 32 16 19 17 29 18 21 19 20 20 28 21 22 22
REMARK SMILES IDX 25 23 23 24 26 25 27 26 8 27 9 28 10 29 2 30 3 31 1 32 24 33
REMARK H PARENT 24 34
REMARK Flexibility Score: inf
ROOT
ATOM      1  C   UNL     1      23.192  -0.037 -12.811  1.00  0.00     0.014 C 
ATOM      2  C   UNL     1      22.518  -0.583 -11.542  1.00  0.00     0.014 C 
ATOM      3  C   UNL     1      24.597   0.287 -12.282  1.00  0.00     0.012 C 
ATOM      4  C   UNL     1      22.557   1.275 -13.345  1.00  0.00     0.014 C 
ATOM      5  C   UNL     1      23.623  -1.376 -10.811  1.00  0.00     0.009 C 
ATOM      6  C   UNL     1      25.507   0.782 -13.436  1.00  0.00     0.000 C 
ATOM      7  C   UNL     1      24.970  -0.947 -11.444  1.00  0.00     0.018 C 
ATOM      8  C   UNL     1      23.439   1.984 -14.420  1.00  0.00     0.008 C 
ATOM      9  C   UNL     1      26.994   0.873 -13.063  1.00  0.00     0.005 C 
ATOM     10  C   UNL     1      24.966   2.147 -14.045  1.00  0.00    -0.024 C 
ATOM     11  C   UNL     1      27.842   1.256 -14.283  1.00  0.00     0.005 C 
ATOM     12  C   UNL     1      25.870   2.543 -15.334  1.00  0.00    -0.024 C 
ATOM     13  C   UNL     1      25.002   3.292 -12.964  1.00  0.00     0.012 C 
ATOM     14  C   UNL     1      27.391   2.590 -14.937  1.00  0.00     0.002 C 
ATOM     15  C   UNL     1      25.532   3.972 -15.840  1.00  0.00     0.008 C 
ATOM     16  C   UNL     1      25.642   1.526 -16.503  1.00  0.00     0.012 C 
ATOM     17  C   UNL     1      28.439   3.196 -16.004  1.00  0.00    -0.026 C 
ATOM     18  C   UNL     1      26.244   4.315 -17.137  1.00  0.00     0.005 C 
ATOM     19  C   UNL     1      29.240   2.075 -16.738  1.00  0.00     0.010 C 
ATOM     20  C   UNL     1      29.488   3.969 -15.128  1.00  0.00     0.012 C 
ATOM     21  C   UNL     1      27.800   4.220 -17.078  1.00  0.00     0.003 C 
ATOM     22  C   UNL     1      30.308   2.578 -17.734  1.00  0.00     0.033 C 
ATOM     23  C   UNL     1      28.420   4.180 -18.554  1.00  0.00    -0.006 C 
ATOM     24  C   UNL     1      29.954   3.864 -18.519  1.00  0.00     0.120 C 
ATOM     25  C   UNL     1      27.749   3.130 -19.500  1.00  0.00     0.014 C 
ATOM     26  C   UNL     1      28.213   5.555 -19.250  1.00  0.00     0.014 C 
ENDROOT
BRANCH   1  27
ATOM     27  C   UNL     1      23.171  -1.147 -13.883  1.00  0.00     0.048 C 
ATOM     28  O   UNL     1      22.174  -1.901 -14.030  1.00  0.00    -0.550 OA
ATOM     29  O   UNL     1      24.251  -1.329 -14.742  1.00  0.00    -0.550 OA
ENDBRANCH   1  27
BRANCH   7  30
ATOM     30  C   UNL     1      26.042  -0.689 -10.387  1.00  0.00    -0.077 C 
ATOM     31  C   UNL     1      26.023   0.557  -9.533  1.00  0.00     0.039 C 
ATOM     32  C   UNL     1      27.009  -1.596 -10.177  1.00  0.00     0.008 C 
ENDBRANCH   7  30
BRANCH  24  33
ATOM     33  O   UNL     1      30.757   4.945 -18.095  1.00  0.00    -0.393 OA
ATOM     34  H   UNL     1      31.035   5.482 -18.878  1.00  0.00     0.210 HD
ENDBRANCH  24  33
TORSDOF 3
ENDMDL
