MODEL 1
REMARK VINA RESULT:    -3.599      0.000      0.000
REMARK INTER + INTRA:          -5.564
REMARK INTER:                  -5.072
REMARK INTRA:                  -0.492
REMARK UNBOUND:                -0.492
REMARK SMILES CCCCCCCCC(=O)[O-]
REMARK SMILES IDX 6 1 7 2 8 3 9 4 10 5 11 6 5 7 4 8 3 9 2 10 1 11
REMARK H PARENT
REMARK Flexibility Score: inf
ROOT
ATOM      1  C   UNL     1      36.670  24.871 223.629  1.00  0.00     0.000 C 
ENDROOT
BRANCH   1   2
ATOM      2  C   UNL     1      37.831  25.447 222.802  1.00  0.00     0.006 C 
BRANCH   2   3
ATOM      3  C   UNL     1      39.189  24.848 223.189  1.00  0.00     0.053 C 
BRANCH   3   4
ATOM      4  C   UNL     1      39.693  23.951 222.103  1.00  0.00     0.041 C 
ATOM      5  O   UNL     1      38.923  23.581 221.178  1.00  0.00    -0.550 OA
ATOM      6  O   UNL     1      41.000  23.482 222.140  1.00  0.00    -0.550 OA
ENDBRANCH   3   4
ENDBRANCH   2   3
ENDBRANCH   1   2
BRANCH   1   7
ATOM      7  C   UNL     1      35.400  24.648 222.789  1.00  0.00     0.000 C 
BRANCH   7   8
ATOM      8  C   UNL     1      35.564  23.516 221.760  1.00  0.00    -0.000 C 
BRANCH   8   9
ATOM      9  C   UNL     1      34.868  23.827 220.424  1.00  0.00    -0.000 C 
BRANCH   9  10
ATOM     10  C   UNL     1      35.820  24.471 219.402  1.00  0.00    -0.003 C 
ATOM     11  C   UNL     1      36.594  23.441 218.581  1.00  0.00     0.004 C 
ENDBRANCH   9  10
ENDBRANCH   8   9
ENDBRANCH   7   8
ENDBRANCH   1   7
TORSDOF 7
ENDMDL
MODEL 2
REMARK VINA RESULT:    -3.578      2.659      4.419
REMARK INTER + INTRA:          -5.535
REMARK INTER:                  -4.787
REMARK INTRA:                  -0.747
REMARK UNBOUND:                -0.492
REMARK SMILES CCCCCCCCC(=O)[O-]
REMARK SMILES IDX 6 1 7 2 8 3 9 4 10 5 11 6 5 7 4 8 3 9 2 10 1 11
REMARK H PARENT
REMARK Flexibility Score: inf
ROOT
ATOM      1  C   UNL     1      36.896  23.694 223.528  1.00  0.00     0.000 C 
ENDROOT
BRANCH   1   2
ATOM      2  C   UNL     1      36.293  22.936 222.334  1.00  0.00     0.006 C 
BRANCH   2   3
ATOM      3  C   UNL     1      36.501  23.667 221.002  1.00  0.00     0.053 C 
BRANCH   3   4
ATOM      4  C   UNL     1      35.186  23.923 220.335  1.00  0.00     0.041 C 
ATOM      5  O   UNL     1      34.116  23.833 220.990  1.00  0.00    -0.550 OA
ATOM      6  O   UNL     1      35.141  24.213 218.977  1.00  0.00    -0.550 OA
ENDBRANCH   3   4
ENDBRANCH   2   3
ENDBRANCH   1   2
BRANCH   1   7
ATOM      7  C   UNL     1      37.103  25.190 223.234  1.00  0.00     0.000 C 
BRANCH   7   8
ATOM      8  C   UNL     1      38.575  25.619 223.365  1.00  0.00    -0.000 C 
BRANCH   8   9
ATOM      9  C   UNL     1      39.534  24.418 223.440  1.00  0.00    -0.000 C 
BRANCH   9  10
ATOM     10  C   UNL     1      40.123  24.050 222.068  1.00  0.00    -0.003 C 
ATOM     11  C   UNL     1      40.062  22.550 221.780  1.00  0.00     0.004 C 
ENDBRANCH   9  10
ENDBRANCH   8   9
ENDBRANCH   7   8
ENDBRANCH   1   7
TORSDOF 7
ENDMDL
MODEL 3
REMARK VINA RESULT:    -3.512      1.500      2.122
REMARK INTER + INTRA:          -5.442
REMARK INTER:                  -4.715
REMARK INTRA:                  -0.727
REMARK UNBOUND:                -0.492
REMARK SMILES CCCCCCCCC(=O)[O-]
REMARK SMILES IDX 6 1 7 2 8 3 9 4 10 5 11 6 5 7 4 8 3 9 2 10 1 11
REMARK H PARENT
REMARK Flexibility Score: inf
ROOT
ATOM      1  C   UNL     1      38.564  24.756 222.872  1.00  0.00     0.000 C 
ENDROOT
BRANCH   1   2
ATOM      2  C   UNL     1      39.810  24.323 222.083  1.00  0.00     0.006 C 
BRANCH   2   3
ATOM      3  C   UNL     1      39.839  22.816 221.800  1.00  0.00     0.053 C 
BRANCH   3   4
ATOM      4  C   UNL     1      41.196  22.256 222.089  1.00  0.00     0.041 C 
ATOM      5  O   UNL     1      41.646  21.301 221.404  1.00  0.00    -0.550 OA
ATOM      6  O   UNL     1      41.943  22.757 223.148  1.00  0.00    -0.550 OA
ENDBRANCH   3   4
ENDBRANCH   2   3
ENDBRANCH   1   2
BRANCH   1   7
ATOM      7  C   UNL     1      37.683  23.564 223.284  1.00  0.00     0.000 C 
BRANCH   7   8
ATOM      8  C   UNL     1      36.239  23.691 222.768  1.00  0.00    -0.000 C 
BRANCH   8   9
ATOM      9  C   UNL     1      36.019  22.943 221.441  1.00  0.00    -0.000 C 
BRANCH   9  10
ATOM     10  C   UNL     1      36.160  23.865 220.218  1.00  0.00    -0.003 C 
ATOM     11  C   UNL     1      37.055  23.273 219.129  1.00  0.00     0.004 C 
ENDBRANCH   9  10
ENDBRANCH   8   9
ENDBRANCH   7   8
ENDBRANCH   1   7
TORSDOF 7
ENDMDL
MODEL 4
REMARK VINA RESULT:    -3.427      1.884      4.571
REMARK INTER + INTRA:          -5.322
REMARK INTER:                  -4.754
REMARK INTRA:                  -0.568
REMARK UNBOUND:                -0.492
REMARK SMILES CCCCCCCCC(=O)[O-]
REMARK SMILES IDX 6 1 7 2 8 3 9 4 10 5 11 6 5 7 4 8 3 9 2 10 1 11
REMARK H PARENT
REMARK Flexibility Score: inf
ROOT
ATOM      1  C   UNL     1      37.019  23.356 223.311  1.00  0.00     0.000 C 
ENDROOT
BRANCH   1   2
ATOM      2  C   UNL     1      36.277  22.789 222.089  1.00  0.00     0.006 C 
BRANCH   2   3
ATOM      3  C   UNL     1      35.581  23.877 221.261  1.00  0.00     0.053 C 
BRANCH   3   4
ATOM      4  C   UNL     1      36.035  23.818 219.837  1.00  0.00     0.041 C 
ATOM      5  O   UNL     1      37.136  23.284 219.543  1.00  0.00    -0.550 OA
ATOM      6  O   UNL     1      35.263  24.400 218.838  1.00  0.00    -0.550 OA
ENDBRANCH   3   4
ENDBRANCH   2   3
ENDBRANCH   1   2
BRANCH   1   7
ATOM      7  C   UNL     1      37.645  24.735 223.034  1.00  0.00     0.000 C 
BRANCH   7   8
ATOM      8  C   UNL     1      39.182  24.705 223.082  1.00  0.00    -0.000 C 
BRANCH   8   9
ATOM      9  C   UNL     1      39.799  24.066 221.825  1.00  0.00    -0.000 C 
BRANCH   9  10
ATOM     10  C   UNL     1      40.764  22.918 222.164  1.00  0.00    -0.003 C 
ATOM     11  C   UNL     1      41.550  23.165 223.451  1.00  0.00     0.004 C 
ENDBRANCH   9  10
ENDBRANCH   8   9
ENDBRANCH   7   8
ENDBRANCH   1   7
TORSDOF 7
ENDMDL
MODEL 5
REMARK VINA RESULT:    -3.410      2.121      4.820
REMARK INTER + INTRA:          -5.297
REMARK INTER:                  -4.852
REMARK INTRA:                  -0.445
REMARK UNBOUND:                -0.492
REMARK SMILES CCCCCCCCC(=O)[O-]
REMARK SMILES IDX 6 1 7 2 8 3 9 4 10 5 11 6 5 7 4 8 3 9 2 10 1 11
REMARK H PARENT
REMARK Flexibility Score: inf
ROOT
ATOM      1  C   UNL     1      37.205  23.062 222.841  1.00  0.00     0.000 C 
ENDROOT
BRANCH   1   2
ATOM      2  C   UNL     1      36.095  22.867 221.795  1.00  0.00     0.006 C 
BRANCH   2   3
ATOM      3  C   UNL     1      35.771  24.155 221.028  1.00  0.00     0.053 C 
BRANCH   3   4
ATOM      4  C   UNL     1      35.934  23.941 219.556  1.00  0.00     0.041 C 
ATOM      5  O   UNL     1      35.038  24.318 218.757  1.00  0.00    -0.550 OA
ATOM      6  O   UNL     1      37.055  23.278 219.071  1.00  0.00    -0.550 OA
ENDBRANCH   3   4
ENDBRANCH   2   3
ENDBRANCH   1   2
BRANCH   1   7
ATOM      7  C   UNL     1      38.614  23.013 222.222  1.00  0.00     0.000 C 
BRANCH   7   8
ATOM      8  C   UNL     1      39.353  24.357 222.331  1.00  0.00    -0.000 C 
BRANCH   8   9
ATOM      9  C   UNL     1      39.431  24.873 223.779  1.00  0.00    -0.000 C 
BRANCH   9  10
ATOM     10  C   UNL     1      38.792  26.262 223.942  1.00  0.00    -0.003 C 
ATOM     11  C   UNL     1      39.622  27.197 224.820  1.00  0.00     0.004 C 
ENDBRANCH   9  10
ENDBRANCH   8   9
ENDBRANCH   7   8
ENDBRANCH   1   7
TORSDOF 7
ENDMDL
MODEL 6
REMARK VINA RESULT:    -3.360      2.008      2.484
REMARK INTER + INTRA:          -5.227
REMARK INTER:                  -4.713
REMARK INTRA:                  -0.514
REMARK UNBOUND:                -0.492
REMARK SMILES CCCCCCCCC(=O)[O-]
REMARK SMILES IDX 6 1 7 2 8 3 9 4 10 5 11 6 5 7 4 8 3 9 2 10 1 11
REMARK H PARENT
REMARK Flexibility Score: inf
ROOT
ATOM      1  C   UNL     1      38.600  23.306 221.723  1.00  0.00     0.000 C 
ENDROOT
BRANCH   1   2
ATOM      2  C   UNL     1      39.534  24.265 222.478  1.00  0.00     0.006 C 
BRANCH   2   3
ATOM      3  C   UNL     1      38.778  25.402 223.176  1.00  0.00     0.053 C 
BRANCH   3   4
ATOM      4  C   UNL     1      39.578  25.935 224.323  1.00  0.00     0.041 C 
ATOM      5  O   UNL     1      39.233  27.001 224.896  1.00  0.00    -0.550 OA
ATOM      6  O   UNL     1      40.735  25.279 224.726  1.00  0.00    -0.550 OA
ENDBRANCH   3   4
ENDBRANCH   2   3
ENDBRANCH   1   2
BRANCH   1   7
ATOM      7  C   UNL     1      37.302  23.014 222.496  1.00  0.00     0.000 C 
BRANCH   7   8
ATOM      8  C   UNL     1      36.062  23.008 221.587  1.00  0.00    -0.000 C 
BRANCH   8   9
ATOM      9  C   UNL     1      35.924  24.303 220.767  1.00  0.00    -0.000 C 
BRANCH   9  10
ATOM     10  C   UNL     1      35.660  24.030 219.277  1.00  0.00    -0.003 C 
ATOM     11  C   UNL     1      36.883  23.471 218.551  1.00  0.00     0.004 C 
ENDBRANCH   9  10
ENDBRANCH   8   9
ENDBRANCH   7   8
ENDBRANCH   1   7
TORSDOF 7
ENDMDL
MODEL 7
REMARK VINA RESULT:    -3.336      2.320      4.486
REMARK INTER + INTRA:          -5.193
REMARK INTER:                  -4.707
REMARK INTRA:                  -0.486
REMARK UNBOUND:                -0.492
REMARK SMILES CCCCCCCCC(=O)[O-]
REMARK SMILES IDX 6 1 7 2 8 3 9 4 10 5 11 6 5 7 4 8 3 9 2 10 1 11
REMARK H PARENT
REMARK Flexibility Score: inf
ROOT
ATOM      1  C   UNL     1      38.200  25.873 223.138  1.00  0.00     0.000 C 
ENDROOT
BRANCH   1   2
ATOM      2  C   UNL     1      36.757  25.342 223.107  1.00  0.00     0.006 C 
BRANCH   2   3
ATOM      3  C   UNL     1      36.267  25.041 221.685  1.00  0.00     0.053 C 
BRANCH   3   4
ATOM      4  C   UNL     1      35.459  23.782 221.667  1.00  0.00     0.041 C 
ATOM      5  O   UNL     1      35.961  22.701 222.069  1.00  0.00    -0.550 OA
ATOM      6  O   UNL     1      34.165  23.795 221.159  1.00  0.00    -0.550 OA
ENDBRANCH   3   4
ENDBRANCH   2   3
ENDBRANCH   1   2
BRANCH   1   7
ATOM      7  C   UNL     1      39.073  25.148 224.179  1.00  0.00     0.000 C 
BRANCH   7   8
ATOM      8  C   UNL     1      40.253  24.397 223.538  1.00  0.00    -0.000 C 
BRANCH   8   9
ATOM      9  C   UNL     1      40.051  24.156 222.032  1.00  0.00    -0.000 C 
BRANCH   9  10
ATOM     10  C   UNL     1      39.832  22.671 221.699  1.00  0.00    -0.003 C 
ATOM     11  C   UNL     1      41.098  21.832 221.869  1.00  0.00     0.004 C 
ENDBRANCH   9  10
ENDBRANCH   8   9
ENDBRANCH   7   8
ENDBRANCH   1   7
TORSDOF 7
ENDMDL
MODEL 8
REMARK VINA RESULT:    -3.311      2.027      3.166
REMARK INTER + INTRA:          -5.159
REMARK INTER:                  -4.547
REMARK INTRA:                  -0.612
REMARK UNBOUND:                -0.492
REMARK SMILES CCCCCCCCC(=O)[O-]
REMARK SMILES IDX 6 1 7 2 8 3 9 4 10 5 11 6 5 7 4 8 3 9 2 10 1 11
REMARK H PARENT
REMARK Flexibility Score: inf
ROOT
ATOM      1  C   UNL     1      39.662  24.329 223.422  1.00  0.00     0.000 C 
ENDROOT
BRANCH   1   2
ATOM      2  C   UNL     1      40.205  23.782 222.092  1.00  0.00     0.006 C 
BRANCH   2   3
ATOM      3  C   UNL     1      40.248  22.249 222.055  1.00  0.00     0.053 C 
BRANCH   3   4
ATOM      4  C   UNL     1      41.662  21.764 222.141  1.00  0.00     0.041 C 
ATOM      5  O   UNL     1      42.399  22.128 223.094  1.00  0.00    -0.550 OA
ATOM      6  O   UNL     1      42.179  20.951 221.141  1.00  0.00    -0.550 OA
ENDBRANCH   3   4
ENDBRANCH   2   3
ENDBRANCH   1   2
BRANCH   1   7
ATOM      7  C   UNL     1      38.709  25.522 223.224  1.00  0.00     0.000 C 
BRANCH   7   8
ATOM      8  C   UNL     1      37.231  25.129 223.390  1.00  0.00    -0.000 C 
BRANCH   8   9
ATOM      9  C   UNL     1      36.446  25.212 222.069  1.00  0.00    -0.000 C 
BRANCH   9  10
ATOM     10  C   UNL     1      35.756  23.885 221.712  1.00  0.00    -0.003 C 
ATOM     11  C   UNL     1      36.430  22.674 222.356  1.00  0.00     0.004 C 
ENDBRANCH   9  10
ENDBRANCH   8   9
ENDBRANCH   7   8
ENDBRANCH   1   7
TORSDOF 7
ENDMDL
MODEL 9
REMARK VINA RESULT:    -3.130      2.737      5.191
REMARK INTER + INTRA:          -4.904
REMARK INTER:                  -4.196
REMARK INTRA:                  -0.708
REMARK UNBOUND:                -0.492
REMARK SMILES CCCCCCCCC(=O)[O-]
REMARK SMILES IDX 6 1 7 2 8 3 9 4 10 5 11 6 5 7 4 8 3 9 2 10 1 11
REMARK H PARENT
REMARK Flexibility Score: inf
ROOT
ATOM      1  C   UNL     1      40.201  24.060 222.049  1.00  0.00     0.000 C 
ENDROOT
BRANCH   1   2
ATOM      2  C   UNL     1      39.042  23.346 221.335  1.00  0.00     0.006 C 
BRANCH   2   3
ATOM      3  C   UNL     1      37.864  23.046 222.271  1.00  0.00     0.053 C 
BRANCH   3   4
ATOM      4  C   UNL     1      36.569  23.397 221.610  1.00  0.00     0.041 C 
ATOM      5  O   UNL     1      35.529  23.562 222.300  1.00  0.00    -0.550 OA
ATOM      6  O   UNL     1      36.499  23.492 220.225  1.00  0.00    -0.550 OA
ENDBRANCH   3   4
ENDBRANCH   2   3
ENDBRANCH   1   2
BRANCH   1   7
ATOM      7  C   UNL     1      40.503  23.457 223.433  1.00  0.00     0.000 C 
BRANCH   7   8
ATOM      8  C   UNL     1      41.565  22.347 223.374  1.00  0.00    -0.000 C 
BRANCH   8   9
ATOM      9  C   UNL     1      40.959  20.941 223.537  1.00  0.00    -0.000 C 
BRANCH   9  10
ATOM     10  C   UNL     1      41.000  20.129 222.232  1.00  0.00    -0.003 C 
ATOM     11  C   UNL     1      41.971  20.707 221.204  1.00  0.00     0.004 C 
ENDBRANCH   9  10
ENDBRANCH   8   9
ENDBRANCH   7   8
ENDBRANCH   1   7
TORSDOF 7
ENDMDL
