MODEL 1
REMARK VINA RESULT:    -4.092      0.000      0.000
REMARK INTER + INTRA:          -6.315
REMARK INTER:                  -5.766
REMARK INTRA:                  -0.549
REMARK UNBOUND:                -0.549
REMARK SMILES CCCCCCCCC(=O)[O-]
REMARK SMILES IDX 6 1 7 2 8 3 9 4 10 5 11 6 5 7 4 8 3 9 2 10 1 11
REMARK H PARENT
REMARK Flexibility Score: inf
ROOT
ATOM      1  C   UNL     1       3.889  25.146  13.033  1.00  0.00     0.000 C 
ENDROOT
BRANCH   1   2
ATOM      2  C   UNL     1       3.053  26.403  12.771  1.00  0.00     0.006 C 
BRANCH   2   3
ATOM      3  C   UNL     1       3.891  27.489  12.088  1.00  0.00     0.053 C 
BRANCH   3   4
ATOM      4  C   UNL     1       4.388  28.477  13.096  1.00  0.00     0.041 C 
ATOM      5  O   UNL     1       3.785  28.623  14.191  1.00  0.00    -0.550 OA
ATOM      6  O   UNL     1       5.489  29.272  12.805  1.00  0.00    -0.550 OA
ENDBRANCH   3   4
ENDBRANCH   2   3
ENDBRANCH   1   2
BRANCH   1   7
ATOM      7  C   UNL     1       3.827  24.743  14.514  1.00  0.00     0.000 C 
BRANCH   7   8
ATOM      8  C   UNL     1       4.813  25.537  15.386  1.00  0.00    -0.000 C 
BRANCH   8   9
ATOM      9  C   UNL     1       6.149  25.805  14.677  1.00  0.00    -0.000 C 
BRANCH   9  10
ATOM     10  C   UNL     1       7.243  26.172  15.686  1.00  0.00    -0.003 C 
ATOM     11  C   UNL     1       6.712  26.128  17.116  1.00  0.00     0.004 C 
ENDBRANCH   9  10
ENDBRANCH   8   9
ENDBRANCH   7   8
ENDBRANCH   1   7
TORSDOF 7
ENDMDL
MODEL 2
REMARK VINA RESULT:    -4.016      2.124      4.158
REMARK INTER + INTRA:          -6.208
REMARK INTER:                  -5.578
REMARK INTRA:                  -0.629
REMARK UNBOUND:                -0.549
REMARK SMILES CCCCCCCCC(=O)[O-]
REMARK SMILES IDX 6 1 7 2 8 3 9 4 10 5 11 6 5 7 4 8 3 9 2 10 1 11
REMARK H PARENT
REMARK Flexibility Score: inf
ROOT
ATOM      1  C   UNL     1       3.727  24.903  14.558  1.00  0.00     0.000 C 
ENDROOT
BRANCH   1   2
ATOM      2  C   UNL     1       4.732  25.485  15.559  1.00  0.00     0.006 C 
BRANCH   2   3
ATOM      3  C   UNL     1       6.066  25.805  14.876  1.00  0.00     0.053 C 
BRANCH   3   4
ATOM      4  C   UNL     1       7.085  26.222  15.889  1.00  0.00     0.041 C 
ATOM      5  O   UNL     1       7.927  27.115  15.609  1.00  0.00    -0.550 OA
ATOM      6  O   UNL     1       7.137  25.590  17.124  1.00  0.00    -0.550 OA
ENDBRANCH   3   4
ENDBRANCH   2   3
ENDBRANCH   1   2
BRANCH   1   7
ATOM      7  C   UNL     1       4.067  25.337  13.124  1.00  0.00     0.000 C 
BRANCH   7   8
ATOM      8  C   UNL     1       3.016  26.287  12.527  1.00  0.00    -0.000 C 
BRANCH   8   9
ATOM      9  C   UNL     1       3.644  27.469  11.775  1.00  0.00    -0.000 C 
BRANCH   9  10
ATOM     10  C   UNL     1       3.914  28.643  12.724  1.00  0.00    -0.003 C 
ATOM     11  C   UNL     1       5.411  28.857  12.926  1.00  0.00     0.004 C 
ENDBRANCH   9  10
ENDBRANCH   8   9
ENDBRANCH   7   8
ENDBRANCH   1   7
TORSDOF 7
ENDMDL
MODEL 3
REMARK VINA RESULT:    -3.877      0.828      1.415
REMARK INTER + INTRA:          -6.012
REMARK INTER:                  -5.355
REMARK INTRA:                  -0.657
REMARK UNBOUND:                -0.549
REMARK SMILES CCCCCCCCC(=O)[O-]
REMARK SMILES IDX 6 1 7 2 8 3 9 4 10 5 11 6 5 7 4 8 3 9 2 10 1 11
REMARK H PARENT
REMARK Flexibility Score: inf
ROOT
ATOM      1  C   UNL     1       4.630  25.360  13.514  1.00  0.00     0.000 C 
ENDROOT
BRANCH   1   2
ATOM      2  C   UNL     1       3.409  25.847  12.725  1.00  0.00     0.006 C 
BRANCH   2   3
ATOM      3  C   UNL     1       3.722  27.143  11.972  1.00  0.00     0.053 C 
BRANCH   3   4
ATOM      4  C   UNL     1       4.065  28.237  12.933  1.00  0.00     0.041 C 
ATOM      5  O   UNL     1       5.188  28.805  12.873  1.00  0.00    -0.550 OA
ATOM      6  O   UNL     1       3.165  28.598  13.927  1.00  0.00    -0.550 OA
ENDBRANCH   3   4
ENDBRANCH   2   3
ENDBRANCH   1   2
BRANCH   1   7
ATOM      7  C   UNL     1       4.204  24.711  14.839  1.00  0.00     0.000 C 
BRANCH   7   8
ATOM      8  C   UNL     1       3.990  25.739  15.962  1.00  0.00    -0.000 C 
BRANCH   8   9
ATOM      9  C   UNL     1       5.162  26.722  16.097  1.00  0.00    -0.000 C 
BRANCH   9  10
ATOM     10  C   UNL     1       6.426  26.007  16.589  1.00  0.00    -0.003 C 
ATOM     11  C   UNL     1       7.611  26.283  15.668  1.00  0.00     0.004 C 
ENDBRANCH   9  10
ENDBRANCH   8   9
ENDBRANCH   7   8
ENDBRANCH   1   7
TORSDOF 7
ENDMDL
MODEL 4
REMARK VINA RESULT:    -3.764      1.938      4.427
REMARK INTER + INTRA:          -5.854
REMARK INTER:                  -5.264
REMARK INTRA:                  -0.590
REMARK UNBOUND:                -0.549
REMARK SMILES CCCCCCCCC(=O)[O-]
REMARK SMILES IDX 6 1 7 2 8 3 9 4 10 5 11 6 5 7 4 8 3 9 2 10 1 11
REMARK H PARENT
REMARK Flexibility Score: inf
ROOT
ATOM      1  C   UNL     1       6.660  26.401  14.700  1.00  0.00     0.000 C 
ENDROOT
BRANCH   1   2
ATOM      2  C   UNL     1       6.702  25.868  16.137  1.00  0.00     0.006 C 
BRANCH   2   3
ATOM      3  C   UNL     1       6.166  26.908  17.125  1.00  0.00     0.053 C 
BRANCH   3   4
ATOM      4  C   UNL     1       4.706  27.145  16.895  1.00  0.00     0.041 C 
ATOM      5  O   UNL     1       4.269  28.317  16.755  1.00  0.00    -0.550 OA
ATOM      6  O   UNL     1       3.822  26.074  16.884  1.00  0.00    -0.550 OA
ENDBRANCH   3   4
ENDBRANCH   2   3
ENDBRANCH   1   2
BRANCH   1   7
ATOM      7  C   UNL     1       5.709  25.564  13.831  1.00  0.00     0.000 C 
BRANCH   7   8
ATOM      8  C   UNL     1       4.564  26.397  13.234  1.00  0.00    -0.000 C 
BRANCH   8   9
ATOM      9  C   UNL     1       4.907  27.890  13.132  1.00  0.00    -0.000 C 
BRANCH   9  10
ATOM     10  C   UNL     1       3.823  28.652  12.361  1.00  0.00    -0.003 C 
ATOM     11  C   UNL     1       2.944  27.698  11.557  1.00  0.00     0.004 C 
ENDBRANCH   9  10
ENDBRANCH   8   9
ENDBRANCH   7   8
ENDBRANCH   1   7
TORSDOF 7
ENDMDL
MODEL 5
REMARK VINA RESULT:    -3.742      1.796      2.488
REMARK INTER + INTRA:          -5.823
REMARK INTER:                  -5.280
REMARK INTRA:                  -0.543
REMARK UNBOUND:                -0.549
REMARK SMILES CCCCCCCCC(=O)[O-]
REMARK SMILES IDX 6 1 7 2 8 3 9 4 10 5 11 6 5 7 4 8 3 9 2 10 1 11
REMARK H PARENT
REMARK Flexibility Score: inf
ROOT
ATOM      1  C   UNL     1       4.097  28.102  14.809  1.00  0.00     0.000 C 
ENDROOT
BRANCH   1   2
ATOM      2  C   UNL     1       4.537  28.439  13.380  1.00  0.00     0.006 C 
BRANCH   2   3
ATOM      3  C   UNL     1       4.197  27.296  12.417  1.00  0.00     0.053 C 
BRANCH   3   4
ATOM      4  C   UNL     1       2.968  27.623  11.630  1.00  0.00     0.041 C 
ATOM      5  O   UNL     1       2.526  28.802  11.605  1.00  0.00    -0.550 OA
ATOM      6  O   UNL     1       2.281  26.618  10.962  1.00  0.00    -0.550 OA
ENDBRANCH   3   4
ENDBRANCH   2   3
ENDBRANCH   1   2
BRANCH   1   7
ATOM      7  C   UNL     1       3.595  26.653  14.902  1.00  0.00     0.000 C 
BRANCH   7   8
ATOM      8  C   UNL     1       4.491  25.770  15.784  1.00  0.00    -0.000 C 
BRANCH   8   9
ATOM      9  C   UNL     1       5.214  26.566  16.881  1.00  0.00    -0.000 C 
BRANCH   9  10
ATOM     10  C   UNL     1       6.716  26.262  16.881  1.00  0.00    -0.003 C 
ATOM     11  C   UNL     1       7.262  26.174  15.458  1.00  0.00     0.004 C 
ENDBRANCH   9  10
ENDBRANCH   8   9
ENDBRANCH   7   8
ENDBRANCH   1   7
TORSDOF 7
ENDMDL
MODEL 6
REMARK VINA RESULT:    -3.657      2.181      3.117
REMARK INTER + INTRA:          -5.702
REMARK INTER:                  -5.048
REMARK INTRA:                  -0.654
REMARK UNBOUND:                -0.549
REMARK SMILES CCCCCCCCC(=O)[O-]
REMARK SMILES IDX 6 1 7 2 8 3 9 4 10 5 11 6 5 7 4 8 3 9 2 10 1 11
REMARK H PARENT
REMARK Flexibility Score: inf
ROOT
ATOM      1  C   UNL     1       4.906  28.174  13.697  1.00  0.00     0.000 C 
ENDROOT
BRANCH   1   2
ATOM      2  C   UNL     1       4.394  27.338  12.518  1.00  0.00     0.006 C 
BRANCH   2   3
ATOM      3  C   UNL     1       3.057  26.671  12.856  1.00  0.00     0.053 C 
BRANCH   3   4
ATOM      4  C   UNL     1       3.231  25.192  12.998  1.00  0.00     0.041 C 
ATOM      5  O   UNL     1       4.375  24.705  13.198  1.00  0.00    -0.550 OA
ATOM      6  O   UNL     1       2.138  24.347  12.861  1.00  0.00    -0.550 OA
ENDBRANCH   3   4
ENDBRANCH   2   3
ENDBRANCH   1   2
BRANCH   1   7
ATOM      7  C   UNL     1       3.869  28.218  14.829  1.00  0.00     0.000 C 
BRANCH   7   8
ATOM      8  C   UNL     1       4.463  27.830  16.192  1.00  0.00    -0.000 C 
BRANCH   8   9
ATOM      9  C   UNL     1       4.932  26.368  16.241  1.00  0.00    -0.000 C 
BRANCH   9  10
ATOM     10  C   UNL     1       6.391  26.274  16.702  1.00  0.00    -0.003 C 
ATOM     11  C   UNL     1       7.343  26.211  15.511  1.00  0.00     0.004 C 
ENDBRANCH   9  10
ENDBRANCH   8   9
ENDBRANCH   7   8
ENDBRANCH   1   7
TORSDOF 7
ENDMDL
MODEL 7
REMARK VINA RESULT:    -3.635      2.194      2.956
REMARK INTER + INTRA:          -5.671
REMARK INTER:                  -5.217
REMARK INTRA:                  -0.454
REMARK UNBOUND:                -0.549
REMARK SMILES CCCCCCCCC(=O)[O-]
REMARK SMILES IDX 6 1 7 2 8 3 9 4 10 5 11 6 5 7 4 8 3 9 2 10 1 11
REMARK H PARENT
REMARK Flexibility Score: inf
ROOT
ATOM      1  C   UNL     1       4.756  28.348  12.385  1.00  0.00     0.000 C 
ENDROOT
BRANCH   1   2
ATOM      2  C   UNL     1       3.270  28.714  12.310  1.00  0.00     0.006 C 
BRANCH   2   3
ATOM      3  C   UNL     1       2.406  27.646  12.989  1.00  0.00     0.053 C 
BRANCH   3   4
ATOM      4  C   UNL     1       2.199  26.481  12.074  1.00  0.00     0.041 C 
ATOM      5  O   UNL     1       2.027  26.666  10.841  1.00  0.00    -0.550 OA
ATOM      6  O   UNL     1       2.147  25.192  12.590  1.00  0.00    -0.550 OA
ENDBRANCH   3   4
ENDBRANCH   2   3
ENDBRANCH   1   2
BRANCH   1   7
ATOM      7  C   UNL     1       5.105  27.749  13.756  1.00  0.00     0.000 C 
BRANCH   7   8
ATOM      8  C   UNL     1       5.605  26.299  13.659  1.00  0.00    -0.000 C 
BRANCH   8   9
ATOM      9  C   UNL     1       5.167  25.440  14.854  1.00  0.00    -0.000 C 
BRANCH   9  10
ATOM     10  C   UNL     1       5.605  26.076  16.178  1.00  0.00    -0.003 C 
ATOM     11  C   UNL     1       7.117  25.979  16.364  1.00  0.00     0.004 C 
ENDBRANCH   9  10
ENDBRANCH   8   9
ENDBRANCH   7   8
ENDBRANCH   1   7
TORSDOF 7
ENDMDL
MODEL 8
REMARK VINA RESULT:    -3.574      1.461      1.764
REMARK INTER + INTRA:          -5.586
REMARK INTER:                  -4.925
REMARK INTRA:                  -0.661
REMARK UNBOUND:                -0.549
REMARK SMILES CCCCCCCCC(=O)[O-]
REMARK SMILES IDX 6 1 7 2 8 3 9 4 10 5 11 6 5 7 4 8 3 9 2 10 1 11
REMARK H PARENT
REMARK Flexibility Score: inf
ROOT
ATOM      1  C   UNL     1       2.878  26.393  14.788  1.00  0.00     0.000 C 
ENDROOT
BRANCH   1   2
ATOM      2  C   UNL     1       3.365  25.805  13.458  1.00  0.00     0.006 C 
BRANCH   2   3
ATOM      3  C   UNL     1       4.747  26.353  13.088  1.00  0.00     0.053 C 
BRANCH   3   4
ATOM      4  C   UNL     1       4.642  27.778  12.644  1.00  0.00     0.041 C 
ATOM      5  O   UNL     1       3.720  28.132  11.863  1.00  0.00    -0.550 OA
ATOM      6  O   UNL     1       5.592  28.705  13.053  1.00  0.00    -0.550 OA
ENDBRANCH   3   4
ENDBRANCH   2   3
ENDBRANCH   1   2
BRANCH   1   7
ATOM      7  C   UNL     1       3.318  25.516  15.970  1.00  0.00     0.000 C 
BRANCH   7   8
ATOM      8  C   UNL     1       4.013  26.322  17.079  1.00  0.00    -0.000 C 
BRANCH   8   9
ATOM      9  C   UNL     1       5.249  27.081  16.575  1.00  0.00    -0.000 C 
BRANCH   9  10
ATOM     10  C   UNL     1       6.528  26.274  16.823  1.00  0.00    -0.003 C 
ATOM     11  C   UNL     1       7.438  26.290  15.598  1.00  0.00     0.004 C 
ENDBRANCH   9  10
ENDBRANCH   8   9
ENDBRANCH   7   8
ENDBRANCH   1   7
TORSDOF 7
ENDMDL
MODEL 9
REMARK VINA RESULT:    -3.426      2.463      4.331
REMARK INTER + INTRA:          -5.378
REMARK INTER:                  -4.642
REMARK INTRA:                  -0.736
REMARK UNBOUND:                -0.549
REMARK SMILES CCCCCCCCC(=O)[O-]
REMARK SMILES IDX 6 1 7 2 8 3 9 4 10 5 11 6 5 7 4 8 3 9 2 10 1 11
REMARK H PARENT
REMARK Flexibility Score: inf
ROOT
ATOM      1  C   UNL     1       3.886  28.213  16.379  1.00  0.00     0.000 C 
ENDROOT
BRANCH   1   2
ATOM      2  C   UNL     1       4.285  26.800  16.818  1.00  0.00     0.006 C 
BRANCH   2   3
ATOM      3  C   UNL     1       5.804  26.683  16.980  1.00  0.00     0.053 C 
BRANCH   3   4
ATOM      4  C   UNL     1       6.423  26.137  15.731  1.00  0.00     0.041 C 
ATOM      5  O   UNL     1       5.713  25.531  14.886  1.00  0.00    -0.550 OA
ATOM      6  O   UNL     1       7.791  26.254  15.524  1.00  0.00    -0.550 OA
ENDBRANCH   3   4
ENDBRANCH   2   3
ENDBRANCH   1   2
BRANCH   1   7
ATOM      7  C   UNL     1       2.595  28.186  15.548  1.00  0.00     0.000 C 
BRANCH   7   8
ATOM      8  C   UNL     1       2.732  27.349  14.267  1.00  0.00    -0.000 C 
BRANCH   8   9
ATOM      9  C   UNL     1       3.070  28.201  13.035  1.00  0.00    -0.000 C 
BRANCH   9  10
ATOM     10  C   UNL     1       4.468  27.865  12.502  1.00  0.00    -0.003 C 
ATOM     11  C   UNL     1       5.513  28.838  13.039  1.00  0.00     0.004 C 
ENDBRANCH   9  10
ENDBRANCH   8   9
ENDBRANCH   7   8
ENDBRANCH   1   7
TORSDOF 7
ENDMDL
