MODEL 1
REMARK VINA RESULT:    -2.993      0.000      0.000
REMARK INTER + INTRA:          -3.544
REMARK INTER:                  -3.518
REMARK INTRA:                  -0.026
REMARK UNBOUND:                -0.026
REMARK SMILES CCCCC(=O)[O-]
REMARK SMILES IDX 4 1 5 2 6 3 7 4 3 5 2 6 1 7
REMARK H PARENT
REMARK Flexibility Score: inf
ROOT
ATOM      1  C   UNL     1       0.818  10.125   6.549  1.00  0.00     0.053 C 
ENDROOT
BRANCH   1   2
ATOM      2  C   UNL     1       1.961   9.199   6.828  1.00  0.00     0.041 C 
ATOM      3  O   UNL     1       1.875   7.978   6.533  1.00  0.00    -0.550 OA
ATOM      4  O   UNL     1       3.133   9.690   7.388  1.00  0.00    -0.550 OA
ENDBRANCH   1   2
BRANCH   1   5
ATOM      5  C   UNL     1      -0.027   9.640   5.364  1.00  0.00     0.006 C 
BRANCH   5   6
ATOM      6  C   UNL     1      -1.491  10.093   5.469  1.00  0.00    -0.003 C 
ATOM      7  C   UNL     1      -2.394   9.252   4.572  1.00  0.00     0.004 C 
ENDBRANCH   5   6
ENDBRANCH   1   5
TORSDOF 3
ENDMDL
MODEL 2
REMARK VINA RESULT:    -2.861     16.529     16.753
REMARK INTER + INTRA:          -3.389
REMARK INTER:                  -3.338
REMARK INTRA:                  -0.051
REMARK UNBOUND:                -0.026
REMARK SMILES CCCCC(=O)[O-]
REMARK SMILES IDX 4 1 5 2 6 3 7 4 3 5 2 6 1 7
REMARK H PARENT
REMARK Flexibility Score: inf
ROOT
ATOM      1  C   UNL     1       4.491  -0.813  -6.689  1.00  0.00     0.053 C 
ENDROOT
BRANCH   1   2
ATOM      2  C   UNL     1       4.494   0.555  -7.298  1.00  0.00     0.041 C 
ATOM      3  O   UNL     1       5.582   1.154  -7.507  1.00  0.00    -0.550 OA
ATOM      4  O   UNL     1       3.297   1.157  -7.663  1.00  0.00    -0.550 OA
ENDBRANCH   1   2
BRANCH   1   5
ATOM      5  C   UNL     1       3.182  -1.559  -6.979  1.00  0.00     0.006 C 
BRANCH   5   6
ATOM      6  C   UNL     1       2.446  -1.963  -5.693  1.00  0.00    -0.003 C 
ATOM      7  C   UNL     1       0.933  -1.919  -5.887  1.00  0.00     0.004 C 
ENDBRANCH   5   6
ENDBRANCH   1   5
TORSDOF 3
ENDMDL
MODEL 3
REMARK VINA RESULT:    -2.830      1.181      1.400
REMARK INTER + INTRA:          -3.352
REMARK INTER:                  -3.334
REMARK INTRA:                  -0.017
REMARK UNBOUND:                -0.026
REMARK SMILES CCCCC(=O)[O-]
REMARK SMILES IDX 4 1 5 2 6 3 7 4 3 5 2 6 1 7
REMARK H PARENT
REMARK Flexibility Score: inf
ROOT
ATOM      1  C   UNL     1      -0.058   9.999   5.761  1.00  0.00     0.053 C 
ENDROOT
BRANCH   1   2
ATOM      2  C   UNL     1       1.060   9.010   5.888  1.00  0.00     0.041 C 
ATOM      3  O   UNL     1       1.488   8.403   4.871  1.00  0.00    -0.550 OA
ATOM      4  O   UNL     1       1.650   8.782   7.124  1.00  0.00    -0.550 OA
ENDBRANCH   1   2
BRANCH   1   5
ATOM      5  C   UNL     1      -1.166   9.485   4.834  1.00  0.00     0.006 C 
BRANCH   5   6
ATOM      6  C   UNL     1      -2.531  10.112   5.155  1.00  0.00    -0.003 C 
ATOM      7  C   UNL     1      -3.666   9.319   4.514  1.00  0.00     0.004 C 
ENDBRANCH   5   6
ENDBRANCH   1   5
TORSDOF 3
ENDMDL
MODEL 4
REMARK VINA RESULT:    -2.815     16.055     16.749
REMARK INTER + INTRA:          -3.334
REMARK INTER:                  -3.276
REMARK INTRA:                  -0.059
REMARK UNBOUND:                -0.026
REMARK SMILES CCCCC(=O)[O-]
REMARK SMILES IDX 4 1 5 2 6 3 7 4 3 5 2 6 1 7
REMARK H PARENT
REMARK Flexibility Score: inf
ROOT
ATOM      1  C   UNL     1       5.865   0.290  -7.396  1.00  0.00     0.053 C 
ENDROOT
BRANCH   1   2
ATOM      2  C   UNL     1       4.418   0.301  -7.012  1.00  0.00     0.041 C 
ATOM      3  O   UNL     1       3.615   1.082  -7.587  1.00  0.00    -0.550 OA
ATOM      4  O   UNL     1       3.950  -0.573  -6.040  1.00  0.00    -0.550 OA
ENDBRANCH   1   2
BRANCH   1   5
ATOM      5  C   UNL     1       6.625   1.470  -6.776  1.00  0.00     0.006 C 
BRANCH   5   6
ATOM      6  C   UNL     1       7.223   1.122  -5.405  1.00  0.00    -0.003 C 
ATOM      7  C   UNL     1       8.559   0.400  -5.554  1.00  0.00     0.004 C 
ENDBRANCH   5   6
ENDBRANCH   1   5
TORSDOF 3
ENDMDL
MODEL 5
REMARK VINA RESULT:    -2.804      3.071      4.423
REMARK INTER + INTRA:          -3.322
REMARK INTER:                  -3.300
REMARK INTRA:                  -0.021
REMARK UNBOUND:                -0.026
REMARK SMILES CCCCC(=O)[O-]
REMARK SMILES IDX 4 1 5 2 6 3 7 4 3 5 2 6 1 7
REMARK H PARENT
REMARK Flexibility Score: inf
ROOT
ATOM      1  C   UNL     1      -1.366  10.125   5.763  1.00  0.00     0.053 C 
ENDROOT
BRANCH   1   2
ATOM      2  C   UNL     1      -2.430   9.666   4.815  1.00  0.00     0.041 C 
ATOM      3  O   UNL     1      -2.137   8.914   3.848  1.00  0.00    -0.550 OA
ATOM      4  O   UNL     1      -3.751  10.044   5.017  1.00  0.00    -0.550 OA
ENDBRANCH   1   2
BRANCH   1   5
ATOM      5  C   UNL     1       0.031   9.689   5.302  1.00  0.00     0.006 C 
BRANCH   5   6
ATOM      6  C   UNL     1       1.088   9.865   6.402  1.00  0.00    -0.003 C 
ATOM      7  C   UNL     1       1.928   8.602   6.565  1.00  0.00     0.004 C 
ENDBRANCH   5   6
ENDBRANCH   1   5
TORSDOF 3
ENDMDL
MODEL 6
REMARK VINA RESULT:    -2.725     16.614     17.264
REMARK INTER + INTRA:          -3.229
REMARK INTER:                  -3.129
REMARK INTRA:                  -0.100
REMARK UNBOUND:                -0.026
REMARK SMILES CCCCC(=O)[O-]
REMARK SMILES IDX 4 1 5 2 6 3 7 4 3 5 2 6 1 7
REMARK H PARENT
REMARK Flexibility Score: inf
ROOT
ATOM      1  C   UNL     1       4.985  -0.927  -6.809  1.00  0.00     0.053 C 
ENDROOT
BRANCH   1   2
ATOM      2  C   UNL     1       3.677  -0.252  -7.085  1.00  0.00     0.041 C 
ATOM      3  O   UNL     1       2.593  -0.850  -6.858  1.00  0.00    -0.550 OA
ATOM      4  O   UNL     1       3.655   1.051  -7.566  1.00  0.00    -0.550 OA
ENDBRANCH   1   2
BRANCH   1   5
ATOM      5  C   UNL     1       6.049  -0.547  -7.846  1.00  0.00     0.006 C 
BRANCH   5   6
ATOM      6  C   UNL     1       7.317   0.025  -7.196  1.00  0.00    -0.003 C 
ATOM      7  C   UNL     1       6.999   1.266  -6.366  1.00  0.00     0.004 C 
ENDBRANCH   5   6
ENDBRANCH   1   5
TORSDOF 3
ENDMDL
MODEL 7
REMARK VINA RESULT:    -2.712     11.966     12.944
REMARK INTER + INTRA:          -3.214
REMARK INTER:                  -3.185
REMARK INTRA:                  -0.029
REMARK UNBOUND:                -0.026
REMARK SMILES CCCCC(=O)[O-]
REMARK SMILES IDX 4 1 5 2 6 3 7 4 3 5 2 6 1 7
REMARK H PARENT
REMARK Flexibility Score: inf
ROOT
ATOM      1  C   UNL     1      -8.207   0.429   9.512  1.00  0.00     0.053 C 
ENDROOT
BRANCH   1   2
ATOM      2  C   UNL     1      -7.457   0.732   8.252  1.00  0.00     0.041 C 
ATOM      3  O   UNL     1      -8.041   1.280   7.281  1.00  0.00    -0.550 OA
ATOM      4  O   UNL     1      -6.103   0.436   8.162  1.00  0.00    -0.550 OA
ENDBRANCH   1   2
BRANCH   1   5
ATOM      5  C   UNL     1      -7.502   1.008  10.745  1.00  0.00     0.006 C 
BRANCH   5   6
ATOM      6  C   UNL     1      -8.484   1.320  11.884  1.00  0.00    -0.003 C 
ATOM      7  C   UNL     1      -9.700   0.400  11.830  1.00  0.00     0.004 C 
ENDBRANCH   5   6
ENDBRANCH   1   5
TORSDOF 3
ENDMDL
MODEL 8
REMARK VINA RESULT:    -2.691      3.667      5.058
REMARK INTER + INTRA:          -3.189
REMARK INTER:                  -3.168
REMARK INTRA:                  -0.021
REMARK UNBOUND:                -0.026
REMARK SMILES CCCCC(=O)[O-]
REMARK SMILES IDX 4 1 5 2 6 3 7 4 3 5 2 6 1 7
REMARK H PARENT
REMARK Flexibility Score: inf
ROOT
ATOM      1  C   UNL     1      -1.967   8.641   4.346  1.00  0.00     0.053 C 
ENDROOT
BRANCH   1   2
ATOM      2  C   UNL     1      -3.404   9.034   4.491  1.00  0.00     0.041 C 
ATOM      3  O   UNL     1      -3.711  10.125   5.039  1.00  0.00    -0.550 OA
ATOM      4  O   UNL     1      -4.404   8.210   3.992  1.00  0.00    -0.550 OA
ENDBRANCH   1   2
BRANCH   1   5
ATOM      5  C   UNL     1      -1.029   9.671   4.988  1.00  0.00     0.006 C 
BRANCH   5   6
ATOM      6  C   UNL     1       0.445   9.251   4.901  1.00  0.00    -0.003 C 
ATOM      7  C   UNL     1       1.173   9.515   6.216  1.00  0.00     0.004 C 
ENDBRANCH   5   6
ENDBRANCH   1   5
TORSDOF 3
ENDMDL
MODEL 9
REMARK VINA RESULT:    -2.683     12.614     13.479
REMARK INTER + INTRA:          -3.179
REMARK INTER:                  -3.064
REMARK INTRA:                  -0.115
REMARK UNBOUND:                -0.026
REMARK SMILES CCCCC(=O)[O-]
REMARK SMILES IDX 4 1 5 2 6 3 7 4 3 5 2 6 1 7
REMARK H PARENT
REMARK Flexibility Score: inf
ROOT
ATOM      1  C   UNL     1       0.753   7.542  -7.610  1.00  0.00     0.053 C 
ENDROOT
BRANCH   1   2
ATOM      2  C   UNL     1       0.362   6.363  -6.774  1.00  0.00     0.041 C 
ATOM      3  O   UNL     1       0.096   5.259  -7.318  1.00  0.00    -0.550 OA
ATOM      4  O   UNL     1       0.321   6.474  -5.390  1.00  0.00    -0.550 OA
ENDBRANCH   1   2
BRANCH   1   5
ATOM      5  C   UNL     1       1.675   8.499  -6.843  1.00  0.00     0.006 C 
BRANCH   5   6
ATOM      6  C   UNL     1       3.160   8.186  -7.074  1.00  0.00    -0.003 C 
ATOM      7  C   UNL     1       3.795   7.575  -5.829  1.00  0.00     0.004 C 
ENDBRANCH   5   6
ENDBRANCH   1   5
TORSDOF 3
ENDMDL
