MODEL 1
REMARK VINA RESULT:    -4.626      0.000      0.000
REMARK INTER + INTRA:          -6.736
REMARK INTER:                  -6.519
REMARK INTRA:                  -0.217
REMARK UNBOUND:                -0.217
REMARK SMILES CCCCCCCCC(=O)[O-]
REMARK SMILES IDX 6 1 7 2 8 3 9 4 10 5 11 6 5 7 4 8 3 9 2 10 1 11
REMARK H PARENT
REMARK Flexibility Score: inf
ROOT
ATOM      1  C   UNL     1      12.364 -60.732 -20.082  1.00  0.00     0.000 C 
ENDROOT
BRANCH   1   2
ATOM      2  C   UNL     1      12.927 -60.672 -18.654  1.00  0.00     0.006 C 
BRANCH   2   3
ATOM      3  C   UNL     1      11.878 -60.210 -17.635  1.00  0.00     0.053 C 
BRANCH   3   4
ATOM      4  C   UNL     1      12.437 -60.164 -16.245  1.00  0.00     0.041 C 
ATOM      5  O   UNL     1      11.678 -60.316 -15.251  1.00  0.00    -0.550 OA
ATOM      6  O   UNL     1      13.801 -59.988 -16.049  1.00  0.00    -0.550 OA
ENDBRANCH   3   4
ENDBRANCH   2   3
ENDBRANCH   1   2
BRANCH   1   7
ATOM      7  C   UNL     1      11.029 -59.976 -20.178  1.00  0.00     0.000 C 
BRANCH   7   8
ATOM      8  C   UNL     1      10.869 -59.219 -21.506  1.00  0.00    -0.000 C 
BRANCH   8   9
ATOM      9  C   UNL     1       9.912 -58.021 -21.391  1.00  0.00    -0.000 C 
BRANCH   9  10
ATOM     10  C   UNL     1       9.754 -57.264 -22.720  1.00  0.00    -0.003 C 
ATOM     11  C   UNL     1      10.351 -55.858 -22.677  1.00  0.00     0.004 C 
ENDBRANCH   9  10
ENDBRANCH   8   9
ENDBRANCH   7   8
ENDBRANCH   1   7
TORSDOF 7
ENDMDL
MODEL 2
REMARK VINA RESULT:    -4.488     17.301     18.330
REMARK INTER + INTRA:          -6.541
REMARK INTER:                  -6.234
REMARK INTRA:                  -0.307
REMARK UNBOUND:                -0.217
REMARK SMILES CCCCCCCCC(=O)[O-]
REMARK SMILES IDX 6 1 7 2 8 3 9 4 10 5 11 6 5 7 4 8 3 9 2 10 1 11
REMARK H PARENT
REMARK Flexibility Score: inf
ROOT
ATOM      1  C   UNL     1      19.796 -50.745 -32.523  1.00  0.00     0.000 C 
ENDROOT
BRANCH   1   2
ATOM      2  C   UNL     1      20.888 -51.808 -32.331  1.00  0.00     0.006 C 
BRANCH   2   3
ATOM      3  C   UNL     1      21.264 -52.500 -33.647  1.00  0.00     0.053 C 
BRANCH   3   4
ATOM      4  C   UNL     1      20.706 -53.888 -33.724  1.00  0.00     0.041 C 
ATOM      5  O   UNL     1      19.568 -54.142 -33.249  1.00  0.00    -0.550 OA
ATOM      6  O   UNL     1      21.429 -54.895 -34.352  1.00  0.00    -0.550 OA
ENDBRANCH   3   4
ENDBRANCH   2   3
ENDBRANCH   1   2
BRANCH   1   7
ATOM      7  C   UNL     1      20.233 -49.396 -31.933  1.00  0.00     0.000 C 
BRANCH   7   8
ATOM      8  C   UNL     1      19.856 -48.205 -32.828  1.00  0.00    -0.000 C 
BRANCH   8   9
ATOM      9  C   UNL     1      18.907 -47.217 -32.129  1.00  0.00    -0.000 C 
BRANCH   9  10
ATOM     10  C   UNL     1      18.935 -47.357 -30.599  1.00  0.00    -0.003 C 
ATOM     11  C   UNL     1      17.547 -47.580 -29.997  1.00  0.00     0.004 C 
ENDBRANCH   9  10
ENDBRANCH   8   9
ENDBRANCH   7   8
ENDBRANCH   1   7
TORSDOF 7
ENDMDL
MODEL 3
REMARK VINA RESULT:    -4.431     17.389     18.208
REMARK INTER + INTRA:          -6.462
REMARK INTER:                  -6.190
REMARK INTRA:                  -0.272
REMARK UNBOUND:                -0.217
REMARK SMILES CCCCCCCCC(=O)[O-]
REMARK SMILES IDX 6 1 7 2 8 3 9 4 10 5 11 6 5 7 4 8 3 9 2 10 1 11
REMARK H PARENT
REMARK Flexibility Score: inf
ROOT
ATOM      1  C   UNL     1      19.531 -47.850 -32.654  1.00  0.00     0.000 C 
ENDROOT
BRANCH   1   2
ATOM      2  C   UNL     1      19.884 -49.213 -32.040  1.00  0.00     0.006 C 
BRANCH   2   3
ATOM      3  C   UNL     1      20.314 -50.235 -33.099  1.00  0.00     0.053 C 
BRANCH   3   4
ATOM      4  C   UNL     1      20.451 -51.610 -32.522  1.00  0.00     0.041 C 
ATOM      5  O   UNL     1      19.655 -52.524 -32.864  1.00  0.00    -0.550 OA
ATOM      6  O   UNL     1      21.479 -51.891 -31.632  1.00  0.00    -0.550 OA
ENDBRANCH   3   4
ENDBRANCH   2   3
ENDBRANCH   1   2
BRANCH   1   7
ATOM      7  C   UNL     1      18.820 -46.954 -31.628  1.00  0.00     0.000 C 
BRANCH   7   8
ATOM      8  C   UNL     1      18.304 -47.737 -30.410  1.00  0.00    -0.000 C 
BRANCH   8   9
ATOM      9  C   UNL     1      17.121 -47.040 -29.718  1.00  0.00    -0.000 C 
BRANCH   9  10
ATOM     10  C   UNL     1      17.429 -45.579 -29.353  1.00  0.00    -0.003 C 
ATOM     11  C   UNL     1      17.607 -45.368 -27.850  1.00  0.00     0.004 C 
ENDBRANCH   9  10
ENDBRANCH   8   9
ENDBRANCH   7   8
ENDBRANCH   1   7
TORSDOF 7
ENDMDL
MODEL 4
REMARK VINA RESULT:    -4.394     14.083     16.660
REMARK INTER + INTRA:          -6.409
REMARK INTER:                  -6.155
REMARK INTRA:                  -0.254
REMARK UNBOUND:                -0.217
REMARK SMILES CCCCCCCCC(=O)[O-]
REMARK SMILES IDX 6 1 7 2 8 3 9 4 10 5 11 6 5 7 4 8 3 9 2 10 1 11
REMARK H PARENT
REMARK Flexibility Score: inf
ROOT
ATOM      1  C   UNL     1      17.789 -43.980 -22.909  1.00  0.00     0.000 C 
ENDROOT
BRANCH   1   2
ATOM      2  C   UNL     1      17.483 -43.019 -24.068  1.00  0.00     0.006 C 
BRANCH   2   3
ATOM      3  C   UNL     1      16.953 -41.667 -23.577  1.00  0.00     0.053 C 
BRANCH   3   4
ATOM      4  C   UNL     1      15.698 -41.820 -22.774  1.00  0.00     0.041 C 
ATOM      5  O   UNL     1      14.639 -42.226 -23.322  1.00  0.00    -0.550 OA
ATOM      6  O   UNL     1      15.706 -41.548 -21.412  1.00  0.00    -0.550 OA
ENDBRANCH   3   4
ENDBRANCH   2   3
ENDBRANCH   1   2
BRANCH   1   7
ATOM      7  C   UNL     1      17.217 -45.378 -23.190  1.00  0.00     0.000 C 
BRANCH   7   8
ATOM      8  C   UNL     1      16.655 -46.055 -21.929  1.00  0.00    -0.000 C 
BRANCH   8   9
ATOM      9  C   UNL     1      16.433 -47.565 -22.118  1.00  0.00    -0.000 C 
BRANCH   9  10
ATOM     10  C   UNL     1      15.167 -48.068 -21.406  1.00  0.00    -0.003 C 
ATOM     11  C   UNL     1      15.348 -49.452 -20.782  1.00  0.00     0.004 C 
ENDBRANCH   9  10
ENDBRANCH   8   9
ENDBRANCH   7   8
ENDBRANCH   1   7
TORSDOF 7
ENDMDL
MODEL 5
REMARK VINA RESULT:    -4.385     17.692     18.429
REMARK INTER + INTRA:          -6.397
REMARK INTER:                  -6.265
REMARK INTRA:                  -0.132
REMARK UNBOUND:                -0.217
REMARK SMILES CCCCCCCCC(=O)[O-]
REMARK SMILES IDX 6 1 7 2 8 3 9 4 10 5 11 6 5 7 4 8 3 9 2 10 1 11
REMARK H PARENT
REMARK Flexibility Score: inf
ROOT
ATOM      1  C   UNL     1      20.014 -49.309 -32.101  1.00  0.00     0.000 C 
ENDROOT
BRANCH   1   2
ATOM      2  C   UNL     1      18.810 -48.719 -31.352  1.00  0.00     0.006 C 
BRANCH   2   3
ATOM      3  C   UNL     1      19.063 -47.281 -30.884  1.00  0.00     0.053 C 
BRANCH   3   4
ATOM      4  C   UNL     1      17.804 -46.621 -30.413  1.00  0.00     0.041 C 
ATOM      5  O   UNL     1      16.905 -47.298 -29.848  1.00  0.00    -0.550 OA
ATOM      6  O   UNL     1      17.638 -45.250 -30.566  1.00  0.00    -0.550 OA
ENDBRANCH   3   4
ENDBRANCH   2   3
ENDBRANCH   1   2
BRANCH   1   7
ATOM      7  C   UNL     1      19.750 -50.768 -32.503  1.00  0.00     0.000 C 
BRANCH   7   8
ATOM      8  C   UNL     1      20.971 -51.676 -32.284  1.00  0.00    -0.000 C 
BRANCH   8   9
ATOM      9  C   UNL     1      21.342 -52.480 -33.542  1.00  0.00    -0.000 C 
BRANCH   9  10
ATOM     10  C   UNL     1      20.519 -53.771 -33.680  1.00  0.00    -0.003 C 
ATOM     11  C   UNL     1      21.241 -54.852 -34.483  1.00  0.00     0.004 C 
ENDBRANCH   9  10
ENDBRANCH   8   9
ENDBRANCH   7   8
ENDBRANCH   1   7
TORSDOF 7
ENDMDL
MODEL 6
REMARK VINA RESULT:    -4.313     15.450     17.464
REMARK INTER + INTRA:          -6.295
REMARK INTER:                  -5.457
REMARK INTRA:                  -0.838
REMARK UNBOUND:                -0.217
REMARK SMILES CCCCCCCCC(=O)[O-]
REMARK SMILES IDX 6 1 7 2 8 3 9 4 10 5 11 6 5 7 4 8 3 9 2 10 1 11
REMARK H PARENT
REMARK Flexibility Score: inf
ROOT
ATOM      1  C   UNL     1      18.251 -44.065 -25.308  1.00  0.00     0.000 C 
ENDROOT
BRANCH   1   2
ATOM      2  C   UNL     1      18.001 -45.365 -24.529  1.00  0.00     0.006 C 
BRANCH   2   3
ATOM      3  C   UNL     1      16.890 -45.213 -23.483  1.00  0.00     0.053 C 
BRANCH   3   4
ATOM      4  C   UNL     1      17.409 -45.399 -22.090  1.00  0.00     0.041 C 
ATOM      5  O   UNL     1      17.520 -46.555 -21.604  1.00  0.00    -0.550 OA
ATOM      6  O   UNL     1      17.803 -44.297 -21.342  1.00  0.00    -0.550 OA
ENDBRANCH   3   4
ENDBRANCH   2   3
ENDBRANCH   1   2
BRANCH   1   7
ATOM      7  C   UNL     1      19.493 -43.335 -24.775  1.00  0.00     0.000 C 
BRANCH   7   8
ATOM      8  C   UNL     1      19.140 -42.156 -23.853  1.00  0.00    -0.000 C 
BRANCH   8   9
ATOM      9  C   UNL     1      17.822 -41.470 -24.250  1.00  0.00    -0.000 C 
BRANCH   9  10
ATOM     10  C   UNL     1      16.851 -41.332 -23.067  1.00  0.00    -0.003 C 
ATOM     11  C   UNL     1      15.462 -41.894 -23.371  1.00  0.00     0.004 C 
ENDBRANCH   9  10
ENDBRANCH   8   9
ENDBRANCH   7   8
ENDBRANCH   1   7
TORSDOF 7
ENDMDL
MODEL 7
REMARK VINA RESULT:    -4.295     14.319     16.843
REMARK INTER + INTRA:          -6.270
REMARK INTER:                  -5.626
REMARK INTRA:                  -0.645
REMARK UNBOUND:                -0.217
REMARK SMILES CCCCCCCCC(=O)[O-]
REMARK SMILES IDX 6 1 7 2 8 3 9 4 10 5 11 6 5 7 4 8 3 9 2 10 1 11
REMARK H PARENT
REMARK Flexibility Score: inf
ROOT
ATOM      1  C   UNL     1      17.550 -44.136 -24.218  1.00  0.00     0.000 C 
ENDROOT
BRANCH   1   2
ATOM      2  C   UNL     1      16.605 -44.677 -23.134  1.00  0.00     0.006 C 
BRANCH   2   3
ATOM      3  C   UNL     1      17.366 -45.285 -21.950  1.00  0.00     0.053 C 
BRANCH   3   4
ATOM      4  C   UNL     1      17.231 -46.777 -21.909  1.00  0.00     0.041 C 
ATOM      5  O   UNL     1      18.256 -47.506 -21.859  1.00  0.00    -0.550 OA
ATOM      6  O   UNL     1      15.970 -47.360 -21.892  1.00  0.00    -0.550 OA
ENDBRANCH   3   4
ENDBRANCH   2   3
ENDBRANCH   1   2
BRANCH   1   7
ATOM      7  C   UNL     1      17.791 -42.629 -24.034  1.00  0.00     0.000 C 
BRANCH   7   8
ATOM      8  C   UNL     1      16.514 -41.867 -23.643  1.00  0.00    -0.000 C 
BRANCH   8   9
ATOM      9  C   UNL     1      16.685 -41.054 -22.349  1.00  0.00    -0.000 C 
BRANCH   9  10
ATOM     10  C   UNL     1      15.897 -41.649 -21.171  1.00  0.00    -0.003 C 
ATOM     11  C   UNL     1      16.796 -42.068 -20.007  1.00  0.00     0.004 C 
ENDBRANCH   9  10
ENDBRANCH   8   9
ENDBRANCH   7   8
ENDBRANCH   1   7
TORSDOF 7
ENDMDL
MODEL 8
REMARK VINA RESULT:    -4.265     16.362     18.306
REMARK INTER + INTRA:          -6.228
REMARK INTER:                  -5.332
REMARK INTRA:                  -0.896
REMARK UNBOUND:                -0.217
REMARK SMILES CCCCCCCCC(=O)[O-]
REMARK SMILES IDX 6 1 7 2 8 3 9 4 10 5 11 6 5 7 4 8 3 9 2 10 1 11
REMARK H PARENT
REMARK Flexibility Score: inf
ROOT
ATOM      1  C   UNL     1      19.344 -42.290 -24.167  1.00  0.00     0.000 C 
ENDROOT
BRANCH   1   2
ATOM      2  C   UNL     1      17.987 -41.572 -24.213  1.00  0.00     0.006 C 
BRANCH   2   3
ATOM      3  C   UNL     1      17.453 -41.249 -22.812  1.00  0.00     0.053 C 
BRANCH   3   4
ATOM      4  C   UNL     1      16.005 -41.610 -22.672  1.00  0.00     0.041 C 
ATOM      5  O   UNL     1      15.322 -41.897 -23.691  1.00  0.00    -0.550 OA
ATOM      6  O   UNL     1      15.420 -41.664 -21.414  1.00  0.00    -0.550 OA
ENDBRANCH   3   4
ENDBRANCH   2   3
ENDBRANCH   1   2
BRANCH   1   7
ATOM      7  C   UNL     1      19.345 -43.520 -25.087  1.00  0.00     0.000 C 
BRANCH   7   8
ATOM      8  C   UNL     1      17.958 -44.170 -25.213  1.00  0.00    -0.000 C 
BRANCH   8   9
ATOM      9  C   UNL     1      17.812 -45.426 -24.337  1.00  0.00    -0.000 C 
BRANCH   9  10
ATOM     10  C   UNL     1      16.846 -45.214 -23.160  1.00  0.00    -0.003 C 
ATOM     11  C   UNL     1      17.568 -44.897 -21.850  1.00  0.00     0.004 C 
ENDBRANCH   9  10
ENDBRANCH   8   9
ENDBRANCH   7   8
ENDBRANCH   1   7
TORSDOF 7
ENDMDL
MODEL 9
REMARK VINA RESULT:    -4.207     16.303     18.254
REMARK INTER + INTRA:          -6.146
REMARK INTER:                  -5.292
REMARK INTRA:                  -0.853
REMARK UNBOUND:                -0.217
REMARK SMILES CCCCCCCCC(=O)[O-]
REMARK SMILES IDX 6 1 7 2 8 3 9 4 10 5 11 6 5 7 4 8 3 9 2 10 1 11
REMARK H PARENT
REMARK Flexibility Score: inf
ROOT
ATOM      1  C   UNL     1      18.981 -42.017 -23.842  1.00  0.00     0.000 C 
ENDROOT
BRANCH   1   2
ATOM      2  C   UNL     1      17.532 -41.521 -23.952  1.00  0.00     0.006 C 
BRANCH   2   3
ATOM      3  C   UNL     1      16.982 -41.028 -22.609  1.00  0.00     0.053 C 
BRANCH   3   4
ATOM      4  C   UNL     1      15.654 -41.645 -22.292  1.00  0.00     0.041 C 
ATOM      5  O   UNL     1      15.220 -41.643 -21.110  1.00  0.00    -0.550 OA
ATOM      6  O   UNL     1      14.881 -42.191 -23.308  1.00  0.00    -0.550 OA
ENDBRANCH   3   4
ENDBRANCH   2   3
ENDBRANCH   1   2
BRANCH   1   7
ATOM      7  C   UNL     1      19.239 -42.656 -22.468  1.00  0.00     0.000 C 
BRANCH   7   8
ATOM      8  C   UNL     1      19.101 -44.187 -22.489  1.00  0.00    -0.000 C 
BRANCH   8   9
ATOM      9  C   UNL     1      17.754 -44.667 -21.922  1.00  0.00    -0.000 C 
BRANCH   9  10
ATOM     10  C   UNL     1      16.824 -45.227 -23.009  1.00  0.00    -0.003 C 
ATOM     11  C   UNL     1      17.520 -45.387 -24.361  1.00  0.00     0.004 C 
ENDBRANCH   9  10
ENDBRANCH   8   9
ENDBRANCH   7   8
ENDBRANCH   1   7
TORSDOF 7
ENDMDL
