MODEL 1
REMARK VINA RESULT:    -5.078      0.000      0.000
REMARK INTER + INTRA:          -5.737
REMARK INTER:                  -5.524
REMARK INTRA:                  -0.214
REMARK UNBOUND:                -0.214
REMARK SMILES O=C([O-])c1ccccc1O
REMARK SMILES IDX 4 1 9 2 5 3 8 4 6 5 7 6 2 7 1 8 3 9 10 10
REMARK H PARENT 10 11
REMARK Flexibility Score: inf
ROOT
ATOM      1  C   UNL     1       6.220  41.329  46.404  1.00  0.00     0.039 A 
ATOM      2  C   UNL     1       5.104  42.110  46.798  1.00  0.00     0.124 A 
ATOM      3  C   UNL     1       7.038  40.761  47.398  1.00  0.00     0.014 A 
ATOM      4  C   UNL     1       4.873  42.352  48.158  1.00  0.00     0.047 A 
ATOM      5  C   UNL     1       6.782  40.994  48.751  1.00  0.00     0.001 A 
ATOM      6  C   UNL     1       5.708  41.797  49.130  1.00  0.00     0.004 A 
ENDROOT
BRANCH   1   7
ATOM      7  C   UNL     1       6.580  41.120  44.984  1.00  0.00     0.075 C 
ATOM      8  O   UNL     1       7.535  40.357  44.680  1.00  0.00    -0.545 OA
ATOM      9  O   UNL     1       5.921  41.810  43.974  1.00  0.00    -0.545 OA
ENDBRANCH   1   7
BRANCH   2  10
ATOM     10  O   UNL     1       4.187  42.629  45.881  1.00  0.00    -0.507 OA
ATOM     11  H   UNL     1       4.204  42.412  44.895  1.00  0.00     0.293 HD
ENDBRANCH   2  10
TORSDOF 2
ENDMDL
MODEL 2
REMARK VINA RESULT:    -5.005      1.299      1.946
REMARK INTER + INTRA:          -5.658
REMARK INTER:                  -5.427
REMARK INTRA:                  -0.231
REMARK UNBOUND:                -0.214
REMARK SMILES O=C([O-])c1ccccc1O
REMARK SMILES IDX 4 1 9 2 5 3 8 4 6 5 7 6 2 7 1 8 3 9 10 10
REMARK H PARENT 10 11
REMARK Flexibility Score: inf
ROOT
ATOM      1  C   UNL     1       7.003  40.700  47.311  1.00  0.00     0.039 A 
ATOM      2  C   UNL     1       5.878  41.266  46.659  1.00  0.00     0.124 A 
ATOM      3  C   UNL     1       7.182  40.936  48.688  1.00  0.00     0.014 A 
ATOM      4  C   UNL     1       5.005  42.094  47.376  1.00  0.00     0.047 A 
ATOM      5  C   UNL     1       6.290  41.747  49.394  1.00  0.00     0.001 A 
ATOM      6  C   UNL     1       5.209  42.334  48.736  1.00  0.00     0.004 A 
ENDROOT
BRANCH   1   7
ATOM      7  C   UNL     1       8.019  39.902  46.591  1.00  0.00     0.075 C 
ATOM      8  O   UNL     1       8.833  39.186  47.234  1.00  0.00    -0.545 OA
ATOM      9  O   UNL     1       8.138  39.981  45.208  1.00  0.00    -0.545 OA
ENDBRANCH   1   7
BRANCH   2  10
ATOM     10  O   UNL     1       5.573  41.004  45.321  1.00  0.00    -0.507 OA
ATOM     11  H   UNL     1       5.602  40.079  44.916  1.00  0.00     0.293 HD
ENDBRANCH   2  10
TORSDOF 2
ENDMDL
MODEL 3
REMARK VINA RESULT:    -4.992      0.841      2.180
REMARK INTER + INTRA:          -5.643
REMARK INTER:                  -5.468
REMARK INTRA:                  -0.175
REMARK UNBOUND:                -0.214
REMARK SMILES O=C([O-])c1ccccc1O
REMARK SMILES IDX 4 1 9 2 5 3 8 4 6 5 7 6 2 7 1 8 3 9 10 10
REMARK H PARENT 10 11
REMARK Flexibility Score: inf
ROOT
ATOM      1  C   UNL     1       6.084  41.636  46.358  1.00  0.00     0.039 A 
ATOM      2  C   UNL     1       7.017  40.878  47.111  1.00  0.00     0.124 A 
ATOM      3  C   UNL     1       5.100  42.376  47.041  1.00  0.00     0.014 A 
ATOM      4  C   UNL     1       6.906  40.831  48.506  1.00  0.00     0.047 A 
ATOM      5  C   UNL     1       5.016  42.335  48.434  1.00  0.00     0.001 A 
ATOM      6  C   UNL     1       5.911  41.555  49.165  1.00  0.00     0.004 A 
ENDROOT
BRANCH   1   7
ATOM      7  C   UNL     1       6.081  41.647  44.879  1.00  0.00     0.075 C 
ATOM      8  O   UNL     1       6.920  40.958  44.240  1.00  0.00    -0.545 OA
ATOM      9  O   UNL     1       5.205  42.465  44.175  1.00  0.00    -0.545 OA
ENDBRANCH   1   7
BRANCH   2  10
ATOM     10  O   UNL     1       8.082  40.194  46.520  1.00  0.00    -0.507 OA
ATOM     11  H   UNL     1       7.983  39.614  45.700  1.00  0.00     0.293 HD
ENDBRANCH   2  10
TORSDOF 2
ENDMDL
MODEL 4
REMARK VINA RESULT:    -4.892      8.560      9.347
REMARK INTER + INTRA:          -5.535
REMARK INTER:                  -5.284
REMARK INTRA:                  -0.250
REMARK UNBOUND:                -0.214
REMARK SMILES O=C([O-])c1ccccc1O
REMARK SMILES IDX 4 1 9 2 5 3 8 4 6 5 7 6 2 7 1 8 3 9 10 10
REMARK H PARENT 10 11
REMARK Flexibility Score: inf
ROOT
ATOM      1  C   UNL     1       4.173  35.536  53.118  1.00  0.00     0.039 A 
ATOM      2  C   UNL     1       2.972  35.198  53.794  1.00  0.00     0.124 A 
ATOM      3  C   UNL     1       5.285  35.950  53.874  1.00  0.00     0.014 A 
ATOM      4  C   UNL     1       2.896  35.340  55.185  1.00  0.00     0.047 A 
ATOM      5  C   UNL     1       5.200  36.066  55.263  1.00  0.00     0.001 A 
ATOM      6  C   UNL     1       4.004  35.772  55.917  1.00  0.00     0.004 A 
ENDROOT
BRANCH   1   7
ATOM      7  C   UNL     1       4.288  35.507  51.644  1.00  0.00     0.075 C 
ATOM      8  O   UNL     1       5.403  35.284  51.101  1.00  0.00    -0.545 OA
ATOM      9  O   UNL     1       3.191  35.792  50.838  1.00  0.00    -0.545 OA
ENDBRANCH   1   7
BRANCH   2  10
ATOM     10  O   UNL     1       1.854  34.687  53.131  1.00  0.00    -0.507 OA
ATOM     11  H   UNL     1       1.485  35.082  52.278  1.00  0.00     0.293 HD
ENDBRANCH   2  10
TORSDOF 2
ENDMDL
MODEL 5
REMARK VINA RESULT:    -4.874      9.673     10.463
REMARK INTER + INTRA:          -5.515
REMARK INTER:                  -5.263
REMARK INTRA:                  -0.252
REMARK UNBOUND:                -0.214
REMARK SMILES O=C([O-])c1ccccc1O
REMARK SMILES IDX 4 1 9 2 5 3 8 4 6 5 7 6 2 7 1 8 3 9 10 10
REMARK H PARENT 10 11
REMARK Flexibility Score: inf
ROOT
ATOM      1  C   UNL     1       4.008  35.011  54.098  1.00  0.00     0.039 A 
ATOM      2  C   UNL     1       4.542  35.801  55.148  1.00  0.00     0.124 A 
ATOM      3  C   UNL     1       2.615  34.823  54.029  1.00  0.00     0.014 A 
ATOM      4  C   UNL     1       3.687  36.325  56.125  1.00  0.00     0.047 A 
ATOM      5  C   UNL     1       1.773  35.370  55.000  1.00  0.00     0.001 A 
ATOM      6  C   UNL     1       2.310  36.111  56.052  1.00  0.00     0.004 A 
ENDROOT
BRANCH   1   7
ATOM      7  C   UNL     1       4.864  34.343  53.093  1.00  0.00     0.075 C 
ATOM      8  O   UNL     1       4.627  33.154  52.750  1.00  0.00    -0.545 OA
ATOM      9  O   UNL     1       5.977  34.987  52.565  1.00  0.00    -0.545 OA
ENDBRANCH   1   7
BRANCH   2  10
ATOM     10  O   UNL     1       5.900  36.117  55.235  1.00  0.00    -0.507 OA
ATOM     11  H   UNL     1       6.637  35.435  55.129  1.00  0.00     0.293 HD
ENDBRANCH   2  10
TORSDOF 2
ENDMDL
MODEL 6
REMARK VINA RESULT:    -4.843      9.108      9.764
REMARK INTER + INTRA:          -5.482
REMARK INTER:                  -5.231
REMARK INTRA:                  -0.250
REMARK UNBOUND:                -0.214
REMARK SMILES O=C([O-])c1ccccc1O
REMARK SMILES IDX 4 1 9 2 5 3 8 4 6 5 7 6 2 7 1 8 3 9 10 10
REMARK H PARENT 10 11
REMARK Flexibility Score: inf
ROOT
ATOM      1  C   UNL     1       9.450  33.472  42.518  1.00  0.00     0.039 A 
ATOM      2  C   UNL     1       8.829  32.754  43.571  1.00  0.00     0.124 A 
ATOM      3  C   UNL     1      10.364  34.494  42.837  1.00  0.00     0.014 A 
ATOM      4  C   UNL     1       9.086  33.113  44.900  1.00  0.00     0.047 A 
ATOM      5  C   UNL     1      10.626  34.826  44.169  1.00  0.00     0.001 A 
ATOM      6  C   UNL     1       9.979  34.143  45.198  1.00  0.00     0.004 A 
ENDROOT
BRANCH   1   7
ATOM      7  C   UNL     1       9.145  33.214  41.094  1.00  0.00     0.075 C 
ATOM      8  O   UNL     1       7.956  33.018  40.727  1.00  0.00    -0.545 OA
ATOM      9  O   UNL     1      10.165  33.114  40.154  1.00  0.00    -0.545 OA
ENDBRANCH   1   7
BRANCH   2  10
ATOM     10  O   UNL     1       7.986  31.664  43.343  1.00  0.00    -0.507 OA
ATOM     11  H   UNL     1       7.814  30.942  44.028  1.00  0.00     0.293 HD
ENDBRANCH   2  10
TORSDOF 2
ENDMDL
MODEL 7
REMARK VINA RESULT:    -4.818      8.676     10.139
REMARK INTER + INTRA:          -5.454
REMARK INTER:                  -5.204
REMARK INTRA:                  -0.250
REMARK UNBOUND:                -0.214
REMARK SMILES O=C([O-])c1ccccc1O
REMARK SMILES IDX 4 1 9 2 5 3 8 4 6 5 7 6 2 7 1 8 3 9 10 10
REMARK H PARENT 10 11
REMARK Flexibility Score: inf
ROOT
ATOM      1  C   UNL     1       9.483  33.469  43.454  1.00  0.00     0.039 A 
ATOM      2  C   UNL     1       8.363  32.766  42.943  1.00  0.00     0.124 A 
ATOM      3  C   UNL     1      10.527  33.817  42.576  1.00  0.00     0.014 A 
ATOM      4  C   UNL     1       8.343  32.378  41.598  1.00  0.00     0.047 A 
ATOM      5  C   UNL     1      10.482  33.442  41.231  1.00  0.00     0.001 A 
ATOM      6  C   UNL     1       9.396  32.714  40.746  1.00  0.00     0.004 A 
ENDROOT
BRANCH   1   7
ATOM      7  C   UNL     1       9.615  33.818  44.885  1.00  0.00     0.075 C 
ATOM      8  O   UNL     1       9.315  32.975  45.772  1.00  0.00    -0.545 OA
ATOM      9  O   UNL     1      10.004  35.095  45.274  1.00  0.00    -0.545 OA
ENDBRANCH   1   7
BRANCH   2  10
ATOM     10  O   UNL     1       7.243  32.467  43.722  1.00  0.00    -0.507 OA
ATOM     11  H   UNL     1       6.434  31.976  43.368  1.00  0.00     0.293 HD
ENDBRANCH   2  10
TORSDOF 2
ENDMDL
MODEL 8
REMARK VINA RESULT:    -4.713      2.525      3.306
REMARK INTER + INTRA:          -5.340
REMARK INTER:                  -5.216
REMARK INTRA:                  -0.124
REMARK UNBOUND:                -0.214
REMARK SMILES O=C([O-])c1ccccc1O
REMARK SMILES IDX 4 1 9 2 5 3 8 4 6 5 7 6 2 7 1 8 3 9 10 10
REMARK H PARENT 10 11
REMARK Flexibility Score: inf
ROOT
ATOM      1  C   UNL     1       6.545  40.964  47.458  1.00  0.00     0.039 A 
ATOM      2  C   UNL     1       5.435  41.703  47.941  1.00  0.00     0.124 A 
ATOM      3  C   UNL     1       6.822  40.975  46.078  1.00  0.00     0.014 A 
ATOM      4  C   UNL     1       4.604  42.376  47.036  1.00  0.00     0.047 A 
ATOM      5  C   UNL     1       5.996  41.669  45.191  1.00  0.00     0.001 A 
ATOM      6  C   UNL     1       4.882  42.359  45.668  1.00  0.00     0.004 A 
ENDROOT
BRANCH   1   7
ATOM      7  C   UNL     1       7.402  40.148  48.346  1.00  0.00     0.075 C 
ATOM      8  O   UNL     1       8.270  40.703  49.071  1.00  0.00    -0.545 OA
ATOM      9  O   UNL     1       7.312  38.761  48.345  1.00  0.00    -0.545 OA
ENDBRANCH   1   7
BRANCH   2  10
ATOM     10  O   UNL     1       5.147  41.824  49.302  1.00  0.00    -0.507 OA
ATOM     11  H   UNL     1       4.623  41.136  49.823  1.00  0.00     0.293 HD
ENDBRANCH   2  10
TORSDOF 2
ENDMDL
