MODEL 1
REMARK VINA RESULT:    -5.581      0.000      0.000
REMARK INTER + INTRA:          -6.569
REMARK INTER:                  -6.396
REMARK INTRA:                  -0.173
REMARK UNBOUND:                -0.173
REMARK SMILES CC=Cc1ccc(O)c(OC)c1
REMARK SMILES IDX 4 1 12 2 9 3 7 4 6 5 5 6 3 7 1 8 2 9 10 10 11 11 8 12
REMARK H PARENT 8 13
REMARK Flexibility Score: inf
ROOT
ATOM      1  C   UNL     1      95.118 -60.442 104.114  1.00  0.00    -0.022 A 
ATOM      2  C   UNL     1      94.202 -59.500 103.617  1.00  0.00     0.058 A 
ATOM      3  C   UNL     1      93.065 -59.906 102.891  1.00  0.00     0.161 A 
ATOM      4  C   UNL     1      92.856 -61.277 102.654  1.00  0.00     0.157 A 
ATOM      5  C   UNL     1      93.773 -62.216 103.132  1.00  0.00     0.051 A 
ATOM      6  C   UNL     1      94.897 -61.808 103.852  1.00  0.00     0.012 A 
ENDROOT
BRANCH   1   7
ATOM      7  C   UNL     1      96.303 -59.955 104.864  1.00  0.00     0.003 C 
ATOM      8  C   UNL     1      98.526 -60.146 105.908  1.00  0.00     0.035 C 
ATOM      9  C   UNL     1      97.376 -60.706 105.133  1.00  0.00    -0.030 C 
ENDBRANCH   1   7
BRANCH   3  10
ATOM     10  O   UNL     1      92.130 -58.984 102.394  1.00  0.00    -0.493 OA
ATOM     11  C   UNL     1      92.220 -58.346 101.125  1.00  0.00     0.278 C 
ENDBRANCH   3  10
BRANCH   4  12
ATOM     12  O   UNL     1      91.745 -61.724 101.940  1.00  0.00    -0.504 OA
ATOM     13  H   UNL     1      91.730 -61.758 100.929  1.00  0.00     0.293 HD
ENDBRANCH   4  12
TORSDOF 3
ENDMDL
MODEL 2
REMARK VINA RESULT:    -5.559      1.171      2.405
REMARK INTER + INTRA:          -6.545
REMARK INTER:                  -6.367
REMARK INTRA:                  -0.178
REMARK UNBOUND:                -0.173
REMARK SMILES CC=Cc1ccc(O)c(OC)c1
REMARK SMILES IDX 4 1 12 2 9 3 7 4 6 5 5 6 3 7 1 8 2 9 10 10 11 11 8 12
REMARK H PARENT 8 13
REMARK Flexibility Score: inf
ROOT
ATOM      1  C   UNL     1      95.673 -60.300 104.470  1.00  0.00    -0.022 A 
ATOM      2  C   UNL     1      94.962 -61.106 103.565  1.00  0.00     0.058 A 
ATOM      3  C   UNL     1      93.788 -60.636 102.943  1.00  0.00     0.161 A 
ATOM      4  C   UNL     1      93.321 -59.344 103.246  1.00  0.00     0.157 A 
ATOM      5  C   UNL     1      94.016 -58.546 104.158  1.00  0.00     0.051 A 
ATOM      6  C   UNL     1      95.179 -59.016 104.770  1.00  0.00     0.012 A 
ENDROOT
BRANCH   1   7
ATOM      7  C   UNL     1      96.897 -60.851 105.102  1.00  0.00     0.003 C 
ATOM      8  C   UNL     1      99.130 -60.734 106.138  1.00  0.00     0.035 C 
ATOM      9  C   UNL     1      97.922 -60.101 105.523  1.00  0.00    -0.030 C 
ENDBRANCH   1   7
BRANCH   3  10
ATOM     10  O   UNL     1      93.066 -61.418 102.027  1.00  0.00    -0.493 OA
ATOM     11  C   UNL     1      92.144 -62.441 102.388  1.00  0.00     0.278 C 
ENDBRANCH   3  10
BRANCH   4  12
ATOM     12  O   UNL     1      92.164 -58.839 102.654  1.00  0.00    -0.504 OA
ATOM     13  H   UNL     1      91.369 -59.425 102.435  1.00  0.00     0.293 HD
ENDBRANCH   4  12
TORSDOF 3
ENDMDL
MODEL 3
REMARK VINA RESULT:    -5.319      1.658      3.350
REMARK INTER + INTRA:          -6.269
REMARK INTER:                  -6.108
REMARK INTRA:                  -0.161
REMARK UNBOUND:                -0.173
REMARK SMILES CC=Cc1ccc(O)c(OC)c1
REMARK SMILES IDX 4 1 12 2 9 3 7 4 6 5 5 6 3 7 1 8 2 9 10 10 11 11 8 12
REMARK H PARENT 8 13
REMARK Flexibility Score: inf
ROOT
ATOM      1  C   UNL     1      93.455 -59.760 102.501  1.00  0.00    -0.022 A 
ATOM      2  C   UNL     1      93.166 -61.113 102.253  1.00  0.00     0.058 A 
ATOM      3  C   UNL     1      92.354 -61.493 101.166  1.00  0.00     0.161 A 
ATOM      4  C   UNL     1      91.820 -60.499 100.327  1.00  0.00     0.157 A 
ATOM      5  C   UNL     1      92.092 -59.152 100.580  1.00  0.00     0.051 A 
ATOM      6  C   UNL     1      92.898 -58.780 101.658  1.00  0.00     0.012 A 
ENDROOT
BRANCH   1   7
ATOM      7  C   UNL     1      94.308 -59.418 103.666  1.00  0.00     0.003 C 
ATOM      8  C   UNL     1      96.124 -59.771 105.293  1.00  0.00     0.035 C 
ATOM      9  C   UNL     1      95.319 -60.179 104.101  1.00  0.00    -0.030 C 
ENDBRANCH   1   7
BRANCH   3  10
ATOM     10  O   UNL     1      92.060 -62.839 100.892  1.00  0.00    -0.493 OA
ATOM     11  C   UNL     1      91.495 -63.750 101.829  1.00  0.00     0.278 C 
ENDBRANCH   3  10
BRANCH   4  12
ATOM     12  O   UNL     1      91.011 -60.830  99.240  1.00  0.00    -0.504 OA
ATOM     13  H   UNL     1      90.985 -60.272  98.397  1.00  0.00     0.293 HD
ENDBRANCH   4  12
TORSDOF 3
ENDMDL
MODEL 4
REMARK VINA RESULT:    -5.300      2.506      4.937
REMARK INTER + INTRA:          -6.248
REMARK INTER:                  -6.095
REMARK INTRA:                  -0.152
REMARK UNBOUND:                -0.173
REMARK SMILES CC=Cc1ccc(O)c(OC)c1
REMARK SMILES IDX 4 1 12 2 9 3 7 4 6 5 5 6 3 7 1 8 2 9 10 10 11 11 8 12
REMARK H PARENT 8 13
REMARK Flexibility Score: inf
ROOT
ATOM      1  C   UNL     1      94.160 -59.689 103.584  1.00  0.00    -0.022 A 
ATOM      2  C   UNL     1      94.374 -61.028 103.218  1.00  0.00     0.058 A 
ATOM      3  C   UNL     1      95.441 -61.768 103.767  1.00  0.00     0.161 A 
ATOM      4  C   UNL     1      96.305 -61.147 104.687  1.00  0.00     0.157 A 
ATOM      5  C   UNL     1      96.104 -59.811 105.042  1.00  0.00     0.051 A 
ATOM      6  C   UNL     1      95.046 -59.082 104.495  1.00  0.00     0.012 A 
ENDROOT
BRANCH   1   7
ATOM      7  C   UNL     1      93.027 -58.955 102.966  1.00  0.00     0.003 C 
ATOM      8  C   UNL     1      91.623 -58.161 101.104  1.00  0.00     0.035 C 
ATOM      9  C   UNL     1      92.779 -58.936 101.651  1.00  0.00    -0.030 C 
ENDBRANCH   1   7
BRANCH   3  10
ATOM     10  O   UNL     1      95.669 -63.111 103.425  1.00  0.00    -0.493 OA
ATOM     11  C   UNL     1      95.501 -63.652 102.119  1.00  0.00     0.278 C 
ENDBRANCH   3  10
BRANCH   4  12
ATOM     12  O   UNL     1      97.372 -61.842 105.256  1.00  0.00    -0.504 OA
ATOM     13  H   UNL     1      97.467 -62.846 105.175  1.00  0.00     0.293 HD
ENDBRANCH   4  12
TORSDOF 3
ENDMDL
MODEL 5
REMARK VINA RESULT:    -5.257      3.420      5.678
REMARK INTER + INTRA:          -6.197
REMARK INTER:                  -6.027
REMARK INTRA:                  -0.170
REMARK UNBOUND:                -0.173
REMARK SMILES CC=Cc1ccc(O)c(OC)c1
REMARK SMILES IDX 4 1 12 2 9 3 7 4 6 5 5 6 3 7 1 8 2 9 10 10 11 11 8 12
REMARK H PARENT 8 13
REMARK Flexibility Score: inf
ROOT
ATOM      1  C   UNL     1      95.825 -60.039 104.778  1.00  0.00    -0.022 A 
ATOM      2  C   UNL     1      95.858 -61.443 104.812  1.00  0.00     0.058 A 
ATOM      3  C   UNL     1      96.999 -62.131 105.272  1.00  0.00     0.161 A 
ATOM      4  C   UNL     1      98.121 -61.395 105.692  1.00  0.00     0.157 A 
ATOM      5  C   UNL     1      98.098 -59.998 105.646  1.00  0.00     0.051 A 
ATOM      6  C   UNL     1      96.965 -59.322 105.190  1.00  0.00     0.012 A 
ENDROOT
BRANCH   1   7
ATOM      7  C   UNL     1      94.601 -59.369 104.274  1.00  0.00     0.003 C 
ATOM      8  C   UNL     1      92.667 -59.067 102.778  1.00  0.00     0.035 C 
ATOM      9  C   UNL     1      93.883 -59.808 103.233  1.00  0.00    -0.030 C 
ENDBRANCH   1   7
BRANCH   3  10
ATOM     10  O   UNL     1      97.052 -63.533 105.325  1.00  0.00    -0.493 OA
ATOM     11  C   UNL     1      96.328 -64.335 106.251  1.00  0.00     0.278 C 
ENDBRANCH   3  10
BRANCH   4  12
ATOM     12  O   UNL     1      99.271 -62.034 106.156  1.00  0.00    -0.504 OA
ATOM     13  H   UNL     1      99.388 -62.299 107.125  1.00  0.00     0.293 HD
ENDBRANCH   4  12
TORSDOF 3
ENDMDL
MODEL 6
REMARK VINA RESULT:    -5.224      1.905      3.799
REMARK INTER + INTRA:          -6.160
REMARK INTER:                  -6.002
REMARK INTRA:                  -0.158
REMARK UNBOUND:                -0.173
REMARK SMILES CC=Cc1ccc(O)c(OC)c1
REMARK SMILES IDX 4 1 12 2 9 3 7 4 6 5 5 6 3 7 1 8 2 9 10 10 11 11 8 12
REMARK H PARENT 8 13
REMARK Flexibility Score: inf
ROOT
ATOM      1  C   UNL     1      95.092 -62.000 102.957  1.00  0.00    -0.022 A 
ATOM      2  C   UNL     1      94.166 -61.099 102.406  1.00  0.00     0.058 A 
ATOM      3  C   UNL     1      93.934 -59.843 103.002  1.00  0.00     0.161 A 
ATOM      4  C   UNL     1      94.637 -59.497 104.170  1.00  0.00     0.157 A 
ATOM      5  C   UNL     1      95.547 -60.398 104.730  1.00  0.00     0.051 A 
ATOM      6  C   UNL     1      95.774 -61.640 104.135  1.00  0.00     0.012 A 
ENDROOT
BRANCH   1   7
ATOM      7  C   UNL     1      95.288 -63.312 102.292  1.00  0.00     0.003 C 
ATOM      8  C   UNL     1      94.710 -65.159 100.767  1.00  0.00     0.035 C 
ATOM      9  C   UNL     1      94.449 -63.821 101.382  1.00  0.00    -0.030 C 
ENDBRANCH   1   7
BRANCH   3  10
ATOM     10  O   UNL     1      93.021 -58.921 102.465  1.00  0.00    -0.493 OA
ATOM     11  C   UNL     1      92.891 -58.626 101.078  1.00  0.00     0.278 C 
ENDBRANCH   3  10
BRANCH   4  12
ATOM     12  O   UNL     1      94.439 -58.265 104.793  1.00  0.00    -0.504 OA
ATOM     13  H   UNL     1      95.209 -57.673 105.076  1.00  0.00     0.293 HD
ENDBRANCH   4  12
TORSDOF 3
ENDMDL
MODEL 7
REMARK VINA RESULT:    -5.100      2.645      5.350
REMARK INTER + INTRA:          -6.018
REMARK INTER:                  -5.851
REMARK INTRA:                  -0.167
REMARK UNBOUND:                -0.173
REMARK SMILES CC=Cc1ccc(O)c(OC)c1
REMARK SMILES IDX 4 1 12 2 9 3 7 4 6 5 5 6 3 7 1 8 2 9 10 10 11 11 8 12
REMARK H PARENT 8 13
REMARK Flexibility Score: inf
ROOT
ATOM      1  C   UNL     1      93.719 -60.523 102.586  1.00  0.00    -0.022 A 
ATOM      2  C   UNL     1      94.649 -61.421 103.137  1.00  0.00     0.058 A 
ATOM      3  C   UNL     1      95.487 -61.034 104.202  1.00  0.00     0.161 A 
ATOM      4  C   UNL     1      95.393 -59.726 104.708  1.00  0.00     0.157 A 
ATOM      5  C   UNL     1      94.481 -58.825 104.153  1.00  0.00     0.051 A 
ATOM      6  C   UNL     1      93.652 -59.213 103.099  1.00  0.00     0.012 A 
ENDROOT
BRANCH   1   7
ATOM      7  C   UNL     1      92.869 -60.982 101.459  1.00  0.00     0.003 C 
ATOM      8  C   UNL     1      91.491 -60.706  99.436  1.00  0.00     0.035 C 
ATOM      9  C   UNL     1      92.350 -60.166 100.534  1.00  0.00    -0.030 C 
ENDBRANCH   1   7
BRANCH   3  10
ATOM     10  O   UNL     1      96.416 -61.917 104.776  1.00  0.00    -0.493 OA
ATOM     11  C   UNL     1      96.156 -63.285 105.071  1.00  0.00     0.278 C 
ENDBRANCH   3  10
BRANCH   4  12
ATOM     12  O   UNL     1      96.202 -59.301 105.761  1.00  0.00    -0.504 OA
ATOM     13  H   UNL     1      96.036 -59.584 106.719  1.00  0.00     0.293 HD
ENDBRANCH   4  12
TORSDOF 3
ENDMDL
MODEL 8
REMARK VINA RESULT:    -4.984      1.642      2.595
REMARK INTER + INTRA:          -5.885
REMARK INTER:                  -5.720
REMARK INTRA:                  -0.165
REMARK UNBOUND:                -0.173
REMARK SMILES CC=Cc1ccc(O)c(OC)c1
REMARK SMILES IDX 4 1 12 2 9 3 7 4 6 5 5 6 3 7 1 8 2 9 10 10 11 11 8 12
REMARK H PARENT 8 13
REMARK Flexibility Score: inf
ROOT
ATOM      1  C   UNL     1      95.011 -61.687 103.028  1.00  0.00    -0.022 A 
ATOM      2  C   UNL     1      93.937 -61.757 102.125  1.00  0.00     0.058 A 
ATOM      3  C   UNL     1      92.951 -60.750 102.091  1.00  0.00     0.161 A 
ATOM      4  C   UNL     1      93.044 -59.668 102.985  1.00  0.00     0.157 A 
ATOM      5  C   UNL     1      94.102 -59.603 103.895  1.00  0.00     0.051 A 
ATOM      6  C   UNL     1      95.077 -60.602 103.924  1.00  0.00     0.012 A 
ENDROOT
BRANCH   1   7
ATOM      7  C   UNL     1      96.014 -62.780 103.026  1.00  0.00     0.003 C 
ATOM      8  C   UNL     1      98.167 -63.846 103.574  1.00  0.00     0.035 C 
ATOM      9  C   UNL     1      97.203 -62.704 103.635  1.00  0.00    -0.030 C 
ENDBRANCH   1   7
BRANCH   3  10
ATOM     10  O   UNL     1      91.874 -60.793 101.191  1.00  0.00    -0.493 OA
ATOM     11  C   UNL     1      91.885 -60.215  99.890  1.00  0.00     0.278 C 
ENDBRANCH   3  10
BRANCH   4  12
ATOM     12  O   UNL     1      92.091 -58.650 102.986  1.00  0.00    -0.504 OA
ATOM     13  H   UNL     1      91.915 -58.076 103.800  1.00  0.00     0.293 HD
ENDBRANCH   4  12
TORSDOF 3
ENDMDL
MODEL 9
REMARK VINA RESULT:    -4.949      2.379      4.756
REMARK INTER + INTRA:          -5.845
REMARK INTER:                  -5.681
REMARK INTRA:                  -0.164
REMARK UNBOUND:                -0.173
REMARK SMILES CC=Cc1ccc(O)c(OC)c1
REMARK SMILES IDX 4 1 12 2 9 3 7 4 6 5 5 6 3 7 1 8 2 9 10 10 11 11 8 12
REMARK H PARENT 8 13
REMARK Flexibility Score: inf
ROOT
ATOM      1  C   UNL     1      93.812 -60.605 102.349  1.00  0.00    -0.022 A 
ATOM      2  C   UNL     1      94.408 -60.003 103.469  1.00  0.00     0.058 A 
ATOM      3  C   UNL     1      95.305 -60.720 104.287  1.00  0.00     0.161 A 
ATOM      4  C   UNL     1      95.595 -62.060 103.976  1.00  0.00     0.157 A 
ATOM      5  C   UNL     1      94.993 -62.668 102.871  1.00  0.00     0.051 A 
ATOM      6  C   UNL     1      94.106 -61.953 102.064  1.00  0.00     0.012 A 
ENDROOT
BRANCH   1   7
ATOM      7  C   UNL     1      92.868 -59.805 101.530  1.00  0.00     0.003 C 
ATOM      8  C   UNL     1      91.322 -57.942 101.074  1.00  0.00     0.035 C 
ATOM      9  C   UNL     1      92.273 -58.685 101.956  1.00  0.00    -0.030 C 
ENDBRANCH   1   7
BRANCH   3  10
ATOM     10  O   UNL     1      95.921 -60.137 105.406  1.00  0.00    -0.493 OA
ATOM     11  C   UNL     1      97.156 -59.429 105.372  1.00  0.00     0.278 C 
ENDBRANCH   3  10
BRANCH   4  12
ATOM     12  O   UNL     1      96.477 -62.807 104.757  1.00  0.00    -0.504 OA
ATOM     13  H   UNL     1      97.356 -62.431 105.088  1.00  0.00     0.293 HD
ENDBRANCH   4  12
TORSDOF 3
ENDMDL
