MODEL 1
REMARK VINA RESULT:    -5.580      0.000      0.000
REMARK INTER + INTRA:         -18.781
REMARK INTER:                 -14.061
REMARK INTRA:                  -4.721
REMARK UNBOUND:                -4.721
REMARK SMILES CCCCCCCCCCCCCCCCCCCCCCCCCCCC(=O)[O-]
REMARK SMILES IDX 15 1 16 2 17 3 18 4 19 5 20 6 21 7 22 8 23 9 24 10 25 11
REMARK SMILES IDX 26 12 27 13 28 14 29 15 30 16 14 17 13 18 12 19 11 20 10 21
REMARK SMILES IDX 9 22 8 23 7 24 6 25 5 26 4 27 3 28 2 29 1 30
REMARK H PARENT
REMARK Flexibility Score: inf
ROOT
ATOM      1  C   UNL     1     128.973 132.361 129.425  1.00  0.00     0.000 C 
ENDROOT
BRANCH   1   2
ATOM      2  C   UNL     1     128.009 131.664 128.450  1.00  0.00     0.000 C 
BRANCH   2   3
ATOM      3  C   UNL     1     128.210 132.111 126.991  1.00  0.00     0.000 C 
BRANCH   3   4
ATOM      4  C   UNL     1     128.844 131.054 126.065  1.00  0.00     0.000 C 
BRANCH   4   5
ATOM      5  C   UNL     1     130.254 131.399 125.540  1.00  0.00     0.000 C 
BRANCH   5   6
ATOM      6  C   UNL     1     130.936 132.587 126.242  1.00  0.00     0.000 C 
BRANCH   6   7
ATOM      7  C   UNL     1     132.032 132.148 127.224  1.00  0.00     0.000 C 
BRANCH   7   8
ATOM      8  C   UNL     1     132.439 130.686 126.976  1.00  0.00     0.000 C 
BRANCH   8   9
ATOM      9  C   UNL     1     132.620 129.889 128.282  1.00  0.00     0.000 C 
BRANCH   9  10
ATOM     10  C   UNL     1     132.143 128.428 128.209  1.00  0.00     0.000 C 
BRANCH  10  11
ATOM     11  C   UNL     1     130.876 128.263 127.352  1.00  0.00     0.000 C 
BRANCH  11  12
ATOM     12  C   UNL     1     129.598 128.175 128.201  1.00  0.00     0.006 C 
BRANCH  12  13
ATOM     13  C   UNL     1     129.016 126.756 128.237  1.00  0.00     0.053 C 
BRANCH  13  14
ATOM     14  C   UNL     1     127.977 126.590 127.173  1.00  0.00     0.041 C 
ATOM     15  O   UNL     1     127.410 125.476 127.007  1.00  0.00    -0.550 OA
ATOM     16  O   UNL     1     127.616 127.670 126.378  1.00  0.00    -0.550 OA
ENDBRANCH  13  14
ENDBRANCH  12  13
ENDBRANCH  11  12
ENDBRANCH  10  11
ENDBRANCH   9  10
ENDBRANCH   8   9
ENDBRANCH   7   8
ENDBRANCH   6   7
ENDBRANCH   5   6
ENDBRANCH   4   5
ENDBRANCH   3   4
ENDBRANCH   2   3
ENDBRANCH   1   2
BRANCH   1  17
ATOM     17  C   UNL     1     129.877 131.369 130.174  1.00  0.00     0.000 C 
BRANCH  17  18
ATOM     18  C   UNL     1     130.764 132.049 131.229  1.00  0.00     0.000 C 
BRANCH  18  19
ATOM     19  C   UNL     1     130.295 131.696 132.645  1.00  0.00     0.000 C 
BRANCH  19  20
ATOM     20  C   UNL     1     130.566 132.852 133.620  1.00  0.00     0.000 C 
BRANCH  20  21
ATOM     21  C   UNL     1     131.708 133.775 133.156  1.00  0.00     0.000 C 
BRANCH  21  22
ATOM     22  C   UNL     1     131.427 135.287 133.292  1.00  0.00    -0.000 C 
BRANCH  22  23
ATOM     23  C   UNL     1     132.623 136.201 132.973  1.00  0.00    -0.000 C 
BRANCH  23  24
ATOM     24  C   UNL     1     133.740 135.477 132.201  1.00  0.00    -0.000 C 
BRANCH  24  25
ATOM     25  C   UNL     1     135.097 135.549 132.921  1.00  0.00    -0.000 C 
BRANCH  25  26
ATOM     26  C   UNL     1     135.331 134.346 133.852  1.00  0.00    -0.000 C 
BRANCH  26  27
ATOM     27  C   UNL     1     135.760 133.081 133.090  1.00  0.00    -0.000 C 
BRANCH  27  28
ATOM     28  C   UNL     1     134.871 131.867 133.412  1.00  0.00    -0.000 C 
BRANCH  28  29
ATOM     29  C   UNL     1     134.253 131.241 132.152  1.00  0.00    -0.003 C 
ATOM     30  C   UNL     1     134.523 132.059 130.890  1.00  0.00     0.004 C 
ENDBRANCH  28  29
ENDBRANCH  27  28
ENDBRANCH  26  27
ENDBRANCH  25  26
ENDBRANCH  24  25
ENDBRANCH  23  24
ENDBRANCH  22  23
ENDBRANCH  21  22
ENDBRANCH  20  21
ENDBRANCH  19  20
ENDBRANCH  18  19
ENDBRANCH  17  18
ENDBRANCH   1  17
TORSDOF 26
ENDMDL
MODEL 2
REMARK VINA RESULT:    -5.562      4.862      7.434
REMARK INTER + INTRA:         -18.738
REMARK INTER:                 -14.578
REMARK INTRA:                  -4.160
REMARK UNBOUND:                -4.721
REMARK SMILES CCCCCCCCCCCCCCCCCCCCCCCCCCCC(=O)[O-]
REMARK SMILES IDX 15 1 16 2 17 3 18 4 19 5 20 6 21 7 22 8 23 9 24 10 25 11
REMARK SMILES IDX 26 12 27 13 28 14 29 15 30 16 14 17 13 18 12 19 11 20 10 21
REMARK SMILES IDX 9 22 8 23 7 24 6 25 5 26 4 27 3 28 2 29 1 30
REMARK H PARENT
REMARK Flexibility Score: inf
ROOT
ATOM      1  C   UNL     1     132.013 136.278 130.450  1.00  0.00     0.000 C 
ENDROOT
BRANCH   1   2
ATOM      2  C   UNL     1     133.410 136.493 129.844  1.00  0.00     0.000 C 
BRANCH   2   3
ATOM      3  C   UNL     1     133.457 136.196 128.334  1.00  0.00     0.000 C 
BRANCH   3   4
ATOM      4  C   UNL     1     134.575 136.925 127.560  1.00  0.00     0.000 C 
BRANCH   4   5
ATOM      5  C   UNL     1     135.001 138.287 128.147  1.00  0.00     0.000 C 
BRANCH   5   6
ATOM      6  C   UNL     1     134.113 139.476 127.739  1.00  0.00     0.000 C 
BRANCH   6   7
ATOM      7  C   UNL     1     133.225 139.978 128.889  1.00  0.00     0.000 C 
BRANCH   7   8
ATOM      8  C   UNL     1     131.746 140.005 128.468  1.00  0.00     0.000 C 
BRANCH   8   9
ATOM      9  C   UNL     1     131.546 139.680 126.976  1.00  0.00     0.000 C 
BRANCH   9  10
ATOM     10  C   UNL     1     130.375 138.725 126.684  1.00  0.00     0.000 C 
BRANCH  10  11
ATOM     11  C   UNL     1     130.321 137.538 127.661  1.00  0.00     0.000 C 
BRANCH  11  12
ATOM     12  C   UNL     1     128.885 137.182 128.075  1.00  0.00     0.006 C 
BRANCH  12  13
ATOM     13  C   UNL     1     128.131 138.382 128.665  1.00  0.00     0.053 C 
BRANCH  13  14
ATOM     14  C   UNL     1     126.654 138.205 128.498  1.00  0.00     0.041 C 
ATOM     15  O   UNL     1     125.864 138.571 129.408  1.00  0.00    -0.550 OA
ATOM     16  O   UNL     1     126.147 137.657 127.326  1.00  0.00    -0.550 OA
ENDBRANCH  13  14
ENDBRANCH  12  13
ENDBRANCH  11  12
ENDBRANCH  10  11
ENDBRANCH   9  10
ENDBRANCH   8   9
ENDBRANCH   7   8
ENDBRANCH   6   7
ENDBRANCH   5   6
ENDBRANCH   4   5
ENDBRANCH   3   4
ENDBRANCH   2   3
ENDBRANCH   1   2
BRANCH   1  17
ATOM     17  C   UNL     1     131.588 137.425 131.380  1.00  0.00     0.000 C 
BRANCH  17  18
ATOM     18  C   UNL     1     131.737 137.074 132.869  1.00  0.00     0.000 C 
BRANCH  18  19
ATOM     19  C   UNL     1     131.861 135.558 133.063  1.00  0.00     0.000 C 
BRANCH  19  20
ATOM     20  C   UNL     1     133.113 135.208 133.880  1.00  0.00     0.000 C 
BRANCH  20  21
ATOM     21  C   UNL     1     134.295 136.156 133.606  1.00  0.00     0.000 C 
BRANCH  21  22
ATOM     22  C   UNL     1     135.403 135.580 132.699  1.00  0.00    -0.000 C 
BRANCH  22  23
ATOM     23  C   UNL     1     136.075 134.300 133.227  1.00  0.00    -0.000 C 
BRANCH  23  24
ATOM     24  C   UNL     1     135.574 133.028 132.521  1.00  0.00    -0.000 C 
BRANCH  24  25
ATOM     25  C   UNL     1     135.567 131.802 133.449  1.00  0.00    -0.000 C 
BRANCH  25  26
ATOM     26  C   UNL     1     134.340 130.901 133.223  1.00  0.00    -0.000 C 
BRANCH  26  27
ATOM     27  C   UNL     1     133.014 131.677 133.296  1.00  0.00    -0.000 C 
BRANCH  27  28
ATOM     28  C   UNL     1     132.400 131.930 131.909  1.00  0.00    -0.000 C 
BRANCH  28  29
ATOM     29  C   UNL     1     130.899 132.252 131.981  1.00  0.00    -0.003 C 
ATOM     30  C   UNL     1     130.297 131.970 133.356  1.00  0.00     0.004 C 
ENDBRANCH  28  29
ENDBRANCH  27  28
ENDBRANCH  26  27
ENDBRANCH  25  26
ENDBRANCH  24  25
ENDBRANCH  23  24
ENDBRANCH  22  23
ENDBRANCH  21  22
ENDBRANCH  20  21
ENDBRANCH  19  20
ENDBRANCH  18  19
ENDBRANCH  17  18
ENDBRANCH   1  17
TORSDOF 26
ENDMDL
MODEL 3
REMARK VINA RESULT:    -5.561      2.810      5.619
REMARK INTER + INTRA:         -18.735
REMARK INTER:                 -14.329
REMARK INTRA:                  -4.406
REMARK UNBOUND:                -4.721
REMARK SMILES CCCCCCCCCCCCCCCCCCCCCCCCCCCC(=O)[O-]
REMARK SMILES IDX 15 1 16 2 17 3 18 4 19 5 20 6 21 7 22 8 23 9 24 10 25 11
REMARK SMILES IDX 26 12 27 13 28 14 29 15 30 16 14 17 13 18 12 19 11 20 10 21
REMARK SMILES IDX 9 22 8 23 7 24 6 25 5 26 4 27 3 28 2 29 1 30
REMARK H PARENT
REMARK Flexibility Score: inf
ROOT
ATOM      1  C   UNL     1     131.721 137.335 133.013  1.00  0.00     0.000 C 
ENDROOT
BRANCH   1   2
ATOM      2  C   UNL     1     131.394 137.743 131.566  1.00  0.00     0.000 C 
BRANCH   2   3
ATOM      3  C   UNL     1     131.959 136.759 130.527  1.00  0.00     0.000 C 
BRANCH   3   4
ATOM      4  C   UNL     1     132.469 137.407 129.223  1.00  0.00     0.000 C 
BRANCH   4   5
ATOM      5  C   UNL     1     131.950 138.834 128.951  1.00  0.00     0.000 C 
BRANCH   5   6
ATOM      6  C   UNL     1     130.815 138.925 127.915  1.00  0.00     0.000 C 
BRANCH   6   7
ATOM      7  C   UNL     1     129.462 138.455 128.471  1.00  0.00     0.000 C 
BRANCH   7   8
ATOM      8  C   UNL     1     128.821 137.409 127.544  1.00  0.00     0.000 C 
BRANCH   8   9
ATOM      9  C   UNL     1     129.864 136.535 126.823  1.00  0.00     0.000 C 
BRANCH   9  10
ATOM     10  C   UNL     1     130.087 135.152 127.460  1.00  0.00     0.000 C 
BRANCH  10  11
ATOM     11  C   UNL     1     128.939 134.742 128.398  1.00  0.00     0.000 C 
BRANCH  11  12
ATOM     12  C   UNL     1     127.875 133.889 127.688  1.00  0.00     0.006 C 
BRANCH  12  13
ATOM     13  C   UNL     1     127.685 132.519 128.351  1.00  0.00     0.053 C 
BRANCH  13  14
ATOM     14  C   UNL     1     128.351 131.449 127.543  1.00  0.00     0.041 C 
ATOM     15  O   UNL     1     128.788 130.409 128.104  1.00  0.00    -0.550 OA
ATOM     16  O   UNL     1     128.468 131.589 126.166  1.00  0.00    -0.550 OA
ENDBRANCH  13  14
ENDBRANCH  12  13
ENDBRANCH  11  12
ENDBRANCH  10  11
ENDBRANCH   9  10
ENDBRANCH   8   9
ENDBRANCH   7   8
ENDBRANCH   6   7
ENDBRANCH   5   6
ENDBRANCH   4   5
ENDBRANCH   3   4
ENDBRANCH   2   3
ENDBRANCH   1   2
BRANCH   1  17
ATOM     17  C   UNL     1     131.623 135.818 133.236  1.00  0.00     0.000 C 
BRANCH  17  18
ATOM     18  C   UNL     1     132.940 135.201 133.733  1.00  0.00     0.000 C 
BRANCH  18  19
ATOM     19  C   UNL     1     132.776 133.700 133.995  1.00  0.00     0.000 C 
BRANCH  19  20
ATOM     20  C   UNL     1     131.325 133.255 133.757  1.00  0.00     0.000 C 
BRANCH  20  21
ATOM     21  C   UNL     1     131.212 131.790 133.298  1.00  0.00     0.000 C 
BRANCH  21  22
ATOM     22  C   UNL     1     129.865 131.406 132.650  1.00  0.00    -0.000 C 
BRANCH  22  23
ATOM     23  C   UNL     1     129.863 131.392 131.111  1.00  0.00    -0.000 C 
BRANCH  23  24
ATOM     24  C   UNL     1     130.775 132.471 130.503  1.00  0.00    -0.000 C 
BRANCH  24  25
ATOM     25  C   UNL     1     131.922 131.874 129.671  1.00  0.00    -0.000 C 
BRANCH  25  26
ATOM     26  C   UNL     1     133.288 132.485 130.030  1.00  0.00    -0.000 C 
BRANCH  26  27
ATOM     27  C   UNL     1     134.095 131.603 130.997  1.00  0.00    -0.000 C 
BRANCH  27  28
ATOM     28  C   UNL     1     135.237 132.370 131.685  1.00  0.00    -0.000 C 
BRANCH  28  29
ATOM     29  C   UNL     1     135.650 131.735 133.022  1.00  0.00    -0.003 C 
ATOM     30  C   UNL     1     134.750 130.570 133.428  1.00  0.00     0.004 C 
ENDBRANCH  28  29
ENDBRANCH  27  28
ENDBRANCH  26  27
ENDBRANCH  25  26
ENDBRANCH  24  25
ENDBRANCH  23  24
ENDBRANCH  22  23
ENDBRANCH  21  22
ENDBRANCH  20  21
ENDBRANCH  19  20
ENDBRANCH  18  19
ENDBRANCH  17  18
ENDBRANCH   1  17
TORSDOF 26
ENDMDL
MODEL 4
REMARK VINA RESULT:    -5.551      4.036      7.907
REMARK INTER + INTRA:         -18.708
REMARK INTER:                 -14.605
REMARK INTRA:                  -4.103
REMARK UNBOUND:                -4.721
REMARK SMILES CCCCCCCCCCCCCCCCCCCCCCCCCCCC(=O)[O-]
REMARK SMILES IDX 15 1 16 2 17 3 18 4 19 5 20 6 21 7 22 8 23 9 24 10 25 11
REMARK SMILES IDX 26 12 27 13 28 14 29 15 30 16 14 17 13 18 12 19 11 20 10 21
REMARK SMILES IDX 9 22 8 23 7 24 6 25 5 26 4 27 3 28 2 29 1 30
REMARK H PARENT
REMARK Flexibility Score: inf
ROOT
ATOM      1  C   UNL     1     131.829 136.388 130.222  1.00  0.00     0.000 C 
ENDROOT
BRANCH   1   2
ATOM      2  C   UNL     1     131.358 137.584 131.066  1.00  0.00     0.000 C 
BRANCH   2   3
ATOM      3  C   UNL     1     131.677 137.419 132.563  1.00  0.00     0.000 C 
BRANCH   3   4
ATOM      4  C   UNL     1     131.590 135.974 133.094  1.00  0.00     0.000 C 
BRANCH   4   5
ATOM      5  C   UNL     1     132.910 135.394 133.644  1.00  0.00     0.000 C 
BRANCH   5   6
ATOM      6  C   UNL     1     134.173 136.196 133.281  1.00  0.00     0.000 C 
BRANCH   6   7
ATOM      7  C   UNL     1     135.416 135.309 133.123  1.00  0.00     0.000 C 
BRANCH   7   8
ATOM      8  C   UNL     1     135.288 134.028 133.965  1.00  0.00     0.000 C 
BRANCH   8   9
ATOM      9  C   UNL     1     135.790 132.775 133.222  1.00  0.00     0.000 C 
BRANCH   9  10
ATOM     10  C   UNL     1     134.755 132.137 132.278  1.00  0.00     0.000 C 
BRANCH  10  11
ATOM     11  C   UNL     1     133.819 131.155 133.003  1.00  0.00     0.000 C 
BRANCH  11  12
ATOM     12  C   UNL     1     132.456 131.781 133.339  1.00  0.00     0.006 C 
BRANCH  12  13
ATOM     13  C   UNL     1     131.689 132.222 132.086  1.00  0.00     0.053 C 
BRANCH  13  14
ATOM     14  C   UNL     1     130.280 131.719 132.131  1.00  0.00     0.041 C 
ATOM     15  O   UNL     1     129.747 131.421 133.233  1.00  0.00    -0.550 OA
ATOM     16  O   UNL     1     129.546 131.600 130.958  1.00  0.00    -0.550 OA
ENDBRANCH  13  14
ENDBRANCH  12  13
ENDBRANCH  11  12
ENDBRANCH  10  11
ENDBRANCH   9  10
ENDBRANCH   8   9
ENDBRANCH   7   8
ENDBRANCH   6   7
ENDBRANCH   5   6
ENDBRANCH   4   5
ENDBRANCH   3   4
ENDBRANCH   2   3
ENDBRANCH   1   2
BRANCH   1  17
ATOM     17  C   UNL     1     133.312 136.486 129.831  1.00  0.00     0.000 C 
BRANCH  17  18
ATOM     18  C   UNL     1     133.520 137.029 128.408  1.00  0.00     0.000 C 
BRANCH  18  19
ATOM     19  C   UNL     1     134.661 138.052 128.375  1.00  0.00     0.000 C 
BRANCH  19  20
ATOM     20  C   UNL     1     134.168 139.411 127.856  1.00  0.00     0.000 C 
BRANCH  20  21
ATOM     21  C   UNL     1     133.042 140.012 128.717  1.00  0.00     0.000 C 
BRANCH  21  22
ATOM     22  C   UNL     1     131.768 140.415 127.944  1.00  0.00    -0.000 C 
BRANCH  22  23
ATOM     23  C   UNL     1     130.634 139.374 127.971  1.00  0.00    -0.000 C 
BRANCH  23  24
ATOM     24  C   UNL     1     130.589 138.507 126.701  1.00  0.00    -0.000 C 
BRANCH  24  25
ATOM     25  C   UNL     1     130.079 137.083 126.977  1.00  0.00    -0.000 C 
BRANCH  25  26
ATOM     26  C   UNL     1     130.859 136.017 126.188  1.00  0.00    -0.000 C 
BRANCH  26  27
ATOM     27  C   UNL     1     131.795 136.629 125.132  1.00  0.00    -0.000 C 
BRANCH  27  28
ATOM     28  C   UNL     1     132.958 135.693 124.758  1.00  0.00    -0.000 C 
BRANCH  28  29
ATOM     29  C   UNL     1     133.069 135.470 123.242  1.00  0.00    -0.003 C 
ATOM     30  C   UNL     1     132.132 134.376 122.733  1.00  0.00     0.004 C 
ENDBRANCH  28  29
ENDBRANCH  27  28
ENDBRANCH  26  27
ENDBRANCH  25  26
ENDBRANCH  24  25
ENDBRANCH  23  24
ENDBRANCH  22  23
ENDBRANCH  21  22
ENDBRANCH  20  21
ENDBRANCH  19  20
ENDBRANCH  18  19
ENDBRANCH  17  18
ENDBRANCH   1  17
TORSDOF 26
ENDMDL
MODEL 5
REMARK VINA RESULT:    -5.513      4.455      8.108
REMARK INTER + INTRA:         -18.613
REMARK INTER:                 -12.627
REMARK INTRA:                  -5.986
REMARK UNBOUND:                -4.721
REMARK SMILES CCCCCCCCCCCCCCCCCCCCCCCCCCCC(=O)[O-]
REMARK SMILES IDX 15 1 16 2 17 3 18 4 19 5 20 6 21 7 22 8 23 9 24 10 25 11
REMARK SMILES IDX 26 12 27 13 28 14 29 15 30 16 14 17 13 18 12 19 11 20 10 21
REMARK SMILES IDX 9 22 8 23 7 24 6 25 5 26 4 27 3 28 2 29 1 30
REMARK H PARENT
REMARK Flexibility Score: inf
ROOT
ATOM      1  C   UNL     1     133.536 134.996 128.881  1.00  0.00     0.000 C 
ENDROOT
BRANCH   1   2
ATOM      2  C   UNL     1     133.131 136.416 129.312  1.00  0.00     0.000 C 
BRANCH   2   3
ATOM      3  C   UNL     1     131.849 136.436 130.164  1.00  0.00     0.000 C 
BRANCH   3   4
ATOM      4  C   UNL     1     131.629 137.725 130.982  1.00  0.00     0.000 C 
BRANCH   4   5
ATOM      5  C   UNL     1     131.382 137.513 132.491  1.00  0.00     0.000 C 
BRANCH   5   6
ATOM      6  C   UNL     1     131.869 136.163 133.045  1.00  0.00     0.000 C 
BRANCH   6   7
ATOM      7  C   UNL     1     133.253 136.254 133.705  1.00  0.00     0.000 C 
BRANCH   7   8
ATOM      8  C   UNL     1     134.353 135.772 132.744  1.00  0.00     0.000 C 
BRANCH   8   9
ATOM      9  C   UNL     1     135.755 135.807 133.380  1.00  0.00     0.000 C 
BRANCH   9  10
ATOM     10  C   UNL     1     136.900 135.447 132.417  1.00  0.00     0.000 C 
BRANCH  10  11
ATOM     11  C   UNL     1     136.588 135.824 130.959  1.00  0.00     0.000 C 
BRANCH  11  12
ATOM     12  C   UNL     1     137.733 135.464 130.000  1.00  0.00     0.006 C 
BRANCH  12  13
ATOM     13  C   UNL     1     137.232 135.135 128.587  1.00  0.00     0.053 C 
BRANCH  13  14
ATOM     14  C   UNL     1     137.273 136.355 127.721  1.00  0.00     0.041 C 
ATOM     15  O   UNL     1     136.312 137.171 127.728  1.00  0.00    -0.550 OA
ATOM     16  O   UNL     1     138.381 136.605 126.923  1.00  0.00    -0.550 OA
ENDBRANCH  13  14
ENDBRANCH  12  13
ENDBRANCH  11  12
ENDBRANCH  10  11
ENDBRANCH   9  10
ENDBRANCH   8   9
ENDBRANCH   7   8
ENDBRANCH   6   7
ENDBRANCH   5   6
ENDBRANCH   4   5
ENDBRANCH   3   4
ENDBRANCH   2   3
ENDBRANCH   1   2
BRANCH   1  17
ATOM     17  C   UNL     1     133.529 133.998 130.049  1.00  0.00     0.000 C 
BRANCH  17  18
ATOM     18  C   UNL     1     134.204 132.663 129.699  1.00  0.00     0.000 C 
BRANCH  18  19
ATOM     19  C   UNL     1     135.465 132.450 130.544  1.00  0.00     0.000 C 
BRANCH  19  20
ATOM     20  C   UNL     1     135.266 131.311 131.555  1.00  0.00     0.000 C 
BRANCH  20  21
ATOM     21  C   UNL     1     135.468 131.759 133.014  1.00  0.00     0.000 C 
BRANCH  21  22
ATOM     22  C   UNL     1     134.207 132.308 133.714  1.00  0.00    -0.000 C 
BRANCH  22  23
ATOM     23  C   UNL     1     132.884 131.653 133.277  1.00  0.00    -0.000 C 
BRANCH  23  24
ATOM     24  C   UNL     1     131.672 132.587 133.443  1.00  0.00    -0.000 C 
BRANCH  24  25
ATOM     25  C   UNL     1     130.894 132.782 132.132  1.00  0.00    -0.000 C 
BRANCH  25  26
ATOM     26  C   UNL     1     130.930 131.531 131.236  1.00  0.00    -0.000 C 
BRANCH  26  27
ATOM     27  C   UNL     1     129.976 131.636 130.034  1.00  0.00    -0.000 C 
BRANCH  27  28
ATOM     28  C   UNL     1     130.520 132.554 128.925  1.00  0.00    -0.000 C 
BRANCH  28  29
ATOM     29  C   UNL     1     129.643 133.796 128.708  1.00  0.00    -0.003 C 
ATOM     30  C   UNL     1     130.040 134.594 127.468  1.00  0.00     0.004 C 
ENDBRANCH  28  29
ENDBRANCH  27  28
ENDBRANCH  26  27
ENDBRANCH  25  26
ENDBRANCH  24  25
ENDBRANCH  23  24
ENDBRANCH  22  23
ENDBRANCH  21  22
ENDBRANCH  20  21
ENDBRANCH  19  20
ENDBRANCH  18  19
ENDBRANCH  17  18
ENDBRANCH   1  17
TORSDOF 26
ENDMDL
MODEL 6
REMARK VINA RESULT:    -5.470      5.017      7.884
REMARK INTER + INTRA:         -18.505
REMARK INTER:                 -14.025
REMARK INTRA:                  -4.480
REMARK UNBOUND:                -4.721
REMARK SMILES CCCCCCCCCCCCCCCCCCCCCCCCCCCC(=O)[O-]
REMARK SMILES IDX 15 1 16 2 17 3 18 4 19 5 20 6 21 7 22 8 23 9 24 10 25 11
REMARK SMILES IDX 26 12 27 13 28 14 29 15 30 16 14 17 13 18 12 19 11 20 10 21
REMARK SMILES IDX 9 22 8 23 7 24 6 25 5 26 4 27 3 28 2 29 1 30
REMARK H PARENT
REMARK Flexibility Score: inf
ROOT
ATOM      1  C   UNL     1     135.777 134.788 129.632  1.00  0.00     0.000 C 
ENDROOT
BRANCH   1   2
ATOM      2  C   UNL     1     136.301 134.043 128.393  1.00  0.00     0.000 C 
BRANCH   2   3
ATOM      3  C   UNL     1     137.394 133.014 128.734  1.00  0.00     0.000 C 
BRANCH   3   4
ATOM      4  C   UNL     1     138.776 133.299 128.111  1.00  0.00     0.000 C 
BRANCH   4   5
ATOM      5  C   UNL     1     139.462 134.594 128.594  1.00  0.00     0.000 C 
BRANCH   5   6
ATOM      6  C   UNL     1     140.147 135.418 127.489  1.00  0.00     0.000 C 
BRANCH   6   7
ATOM      7  C   UNL     1     139.648 136.869 127.433  1.00  0.00     0.000 C 
BRANCH   7   8
ATOM      8  C   UNL     1     138.284 137.008 128.131  1.00  0.00     0.000 C 
BRANCH   8   9
ATOM      9  C   UNL     1     137.160 137.421 127.162  1.00  0.00     0.000 C 
BRANCH   9  10
ATOM     10  C   UNL     1     137.425 137.063 125.689  1.00  0.00     0.000 C 
BRANCH  10  11
ATOM     11  C   UNL     1     137.010 135.621 125.347  1.00  0.00     0.000 C 
BRANCH  11  12
ATOM     12  C   UNL     1     135.542 135.521 124.904  1.00  0.00     0.006 C 
BRANCH  12  13
ATOM     13  C   UNL     1     135.347 134.542 123.740  1.00  0.00     0.053 C 
BRANCH  13  14
ATOM     14  C   UNL     1     134.411 135.117 122.723  1.00  0.00     0.041 C 
ATOM     15  O   UNL     1     134.759 135.200 121.515  1.00  0.00    -0.550 OA
ATOM     16  O   UNL     1     133.145 135.542 123.104  1.00  0.00    -0.550 OA
ENDBRANCH  13  14
ENDBRANCH  12  13
ENDBRANCH  11  12
ENDBRANCH  10  11
ENDBRANCH   9  10
ENDBRANCH   8   9
ENDBRANCH   7   8
ENDBRANCH   6   7
ENDBRANCH   5   6
ENDBRANCH   4   5
ENDBRANCH   3   4
ENDBRANCH   2   3
ENDBRANCH   1   2
BRANCH   1  17
ATOM     17  C   UNL     1     136.607 134.498 130.892  1.00  0.00     0.000 C 
BRANCH  17  18
ATOM     18  C   UNL     1     137.199 135.769 131.523  1.00  0.00     0.000 C 
BRANCH  18  19
ATOM     19  C   UNL     1     136.900 135.822 133.026  1.00  0.00     0.000 C 
BRANCH  19  20
ATOM     20  C   UNL     1     135.591 135.087 133.353  1.00  0.00     0.000 C 
BRANCH  20  21
ATOM     21  C   UNL     1     134.367 136.020 133.374  1.00  0.00     0.000 C 
BRANCH  21  22
ATOM     22  C   UNL     1     133.243 135.651 132.383  1.00  0.00    -0.000 C 
BRANCH  22  23
ATOM     23  C   UNL     1     131.884 135.331 133.031  1.00  0.00    -0.000 C 
BRANCH  23  24
ATOM     24  C   UNL     1     131.504 133.844 132.921  1.00  0.00    -0.000 C 
BRANCH  24  25
ATOM     25  C   UNL     1     132.288 132.961 133.906  1.00  0.00    -0.000 C 
BRANCH  25  26
ATOM     26  C   UNL     1     132.895 131.720 133.227  1.00  0.00    -0.000 C 
BRANCH  26  27
ATOM     27  C   UNL     1     134.365 131.493 133.616  1.00  0.00    -0.000 C 
BRANCH  27  28
ATOM     28  C   UNL     1     135.281 131.319 132.392  1.00  0.00    -0.000 C 
BRANCH  28  29
ATOM     29  C   UNL     1     134.572 131.663 131.074  1.00  0.00    -0.003 C 
ATOM     30  C   UNL     1     134.719 130.569 130.018  1.00  0.00     0.004 C 
ENDBRANCH  28  29
ENDBRANCH  27  28
ENDBRANCH  26  27
ENDBRANCH  25  26
ENDBRANCH  24  25
ENDBRANCH  23  24
ENDBRANCH  22  23
ENDBRANCH  21  22
ENDBRANCH  20  21
ENDBRANCH  19  20
ENDBRANCH  18  19
ENDBRANCH  17  18
ENDBRANCH   1  17
TORSDOF 26
ENDMDL
MODEL 7
REMARK VINA RESULT:    -5.443      3.664      5.815
REMARK INTER + INTRA:         -18.437
REMARK INTER:                 -14.072
REMARK INTRA:                  -4.366
REMARK UNBOUND:                -4.721
REMARK SMILES CCCCCCCCCCCCCCCCCCCCCCCCCCCC(=O)[O-]
REMARK SMILES IDX 15 1 16 2 17 3 18 4 19 5 20 6 21 7 22 8 23 9 24 10 25 11
REMARK SMILES IDX 26 12 27 13 28 14 29 15 30 16 14 17 13 18 12 19 11 20 10 21
REMARK SMILES IDX 9 22 8 23 7 24 6 25 5 26 4 27 3 28 2 29 1 30
REMARK H PARENT
REMARK Flexibility Score: inf
ROOT
ATOM      1  C   UNL     1     131.507 131.414 130.257  1.00  0.00     0.000 C 
ENDROOT
BRANCH   1   2
ATOM      2  C   UNL     1     132.774 131.229 129.406  1.00  0.00     0.000 C 
BRANCH   2   3
ATOM      3  C   UNL     1     133.934 132.135 129.860  1.00  0.00     0.000 C 
BRANCH   3   4
ATOM      4  C   UNL     1     135.259 131.931 129.097  1.00  0.00     0.000 C 
BRANCH   4   5
ATOM      5  C   UNL     1     136.171 130.815 129.648  1.00  0.00     0.000 C 
BRANCH   5   6
ATOM      6  C   UNL     1     136.626 129.776 128.607  1.00  0.00     0.000 C 
BRANCH   6   7
ATOM      7  C   UNL     1     135.484 128.859 128.142  1.00  0.00     0.000 C 
BRANCH   7   8
ATOM      8  C   UNL     1     135.528 128.658 126.618  1.00  0.00     0.000 C 
BRANCH   8   9
ATOM      9  C   UNL     1     136.170 129.848 125.880  1.00  0.00     0.000 C 
BRANCH   9  10
ATOM     10  C   UNL     1     135.171 130.918 125.404  1.00  0.00     0.000 C 
BRANCH  10  11
ATOM     11  C   UNL     1     135.758 132.339 125.455  1.00  0.00     0.000 C 
BRANCH  11  12
ATOM     12  C   UNL     1     135.239 133.230 124.316  1.00  0.00     0.006 C 
BRANCH  12  13
ATOM     13  C   UNL     1     135.165 132.485 122.977  1.00  0.00     0.053 C 
BRANCH  13  14
ATOM     14  C   UNL     1     133.788 132.585 122.399  1.00  0.00     0.041 C 
ATOM     15  O   UNL     1     133.579 133.287 121.374  1.00  0.00    -0.550 OA
ATOM     16  O   UNL     1     132.738 131.883 122.977  1.00  0.00    -0.550 OA
ENDBRANCH  13  14
ENDBRANCH  12  13
ENDBRANCH  11  12
ENDBRANCH  10  11
ENDBRANCH   9  10
ENDBRANCH   8   9
ENDBRANCH   7   8
ENDBRANCH   6   7
ENDBRANCH   5   6
ENDBRANCH   4   5
ENDBRANCH   3   4
ENDBRANCH   2   3
ENDBRANCH   1   2
BRANCH   1  17
ATOM     17  C   UNL     1     131.361 132.844 130.798  1.00  0.00     0.000 C 
BRANCH  17  18
ATOM     18  C   UNL     1     131.158 132.889 132.322  1.00  0.00     0.000 C 
BRANCH  18  19
ATOM     19  C   UNL     1     131.859 131.706 133.000  1.00  0.00     0.000 C 
BRANCH  19  20
ATOM     20  C   UNL     1     133.211 132.132 133.591  1.00  0.00     0.000 C 
BRANCH  20  21
ATOM     21  C   UNL     1     134.329 131.104 133.337  1.00  0.00     0.000 C 
BRANCH  21  22
ATOM     22  C   UNL     1     135.760 131.682 133.311  1.00  0.00    -0.000 C 
BRANCH  22  23
ATOM     23  C   UNL     1     135.897 133.048 132.615  1.00  0.00    -0.000 C 
BRANCH  23  24
ATOM     24  C   UNL     1     136.274 134.179 133.588  1.00  0.00    -0.000 C 
BRANCH  24  25
ATOM     25  C   UNL     1     135.738 135.547 133.137  1.00  0.00    -0.000 C 
BRANCH  25  26
ATOM     26  C   UNL     1     135.123 135.502 131.727  1.00  0.00    -0.000 C 
BRANCH  26  27
ATOM     27  C   UNL     1     133.589 135.607 131.746  1.00  0.00    -0.000 C 
BRANCH  27  28
ATOM     28  C   UNL     1     133.045 136.082 133.105  1.00  0.00    -0.000 C 
BRANCH  28  29
ATOM     29  C   UNL     1     131.560 136.470 133.040  1.00  0.00    -0.003 C 
ATOM     30  C   UNL     1     131.331 137.970 133.219  1.00  0.00     0.004 C 
ENDBRANCH  28  29
ENDBRANCH  27  28
ENDBRANCH  26  27
ENDBRANCH  25  26
ENDBRANCH  24  25
ENDBRANCH  23  24
ENDBRANCH  22  23
ENDBRANCH  21  22
ENDBRANCH  20  21
ENDBRANCH  19  20
ENDBRANCH  18  19
ENDBRANCH  17  18
ENDBRANCH   1  17
TORSDOF 26
ENDMDL
MODEL 8
REMARK VINA RESULT:    -5.431      4.889      8.047
REMARK INTER + INTRA:         -18.406
REMARK INTER:                 -12.872
REMARK INTRA:                  -5.534
REMARK UNBOUND:                -4.721
REMARK SMILES CCCCCCCCCCCCCCCCCCCCCCCCCCCC(=O)[O-]
REMARK SMILES IDX 15 1 16 2 17 3 18 4 19 5 20 6 21 7 22 8 23 9 24 10 25 11
REMARK SMILES IDX 26 12 27 13 28 14 29 15 30 16 14 17 13 18 12 19 11 20 10 21
REMARK SMILES IDX 9 22 8 23 7 24 6 25 5 26 4 27 3 28 2 29 1 30
REMARK H PARENT
REMARK Flexibility Score: inf
ROOT
ATOM      1  C   UNL     1     134.605 136.195 133.381  1.00  0.00     0.000 C 
ENDROOT
BRANCH   1   2
ATOM      2  C   UNL     1     135.409 134.886 133.330  1.00  0.00     0.000 C 
BRANCH   2   3
ATOM      3  C   UNL     1     136.930 135.116 133.390  1.00  0.00     0.000 C 
BRANCH   3   4
ATOM      4  C   UNL     1     137.508 135.966 132.240  1.00  0.00     0.000 C 
BRANCH   4   5
ATOM      5  C   UNL     1     137.037 135.567 130.826  1.00  0.00     0.000 C 
BRANCH   5   6
ATOM      6  C   UNL     1     137.728 136.320 129.675  1.00  0.00     0.000 C 
BRANCH   6   7
ATOM      7  C   UNL     1     138.429 135.378 128.684  1.00  0.00     0.000 C 
BRANCH   7   8
ATOM      8  C   UNL     1     137.798 133.976 128.719  1.00  0.00     0.000 C 
BRANCH   8   9
ATOM      9  C   UNL     1     137.278 133.523 127.342  1.00  0.00     0.000 C 
BRANCH   9  10
ATOM     10  C   UNL     1     136.505 134.604 126.566  1.00  0.00     0.000 C 
BRANCH  10  11
ATOM     11  C   UNL     1     135.227 135.055 127.295  1.00  0.00     0.000 C 
BRANCH  11  12
ATOM     12  C   UNL     1     134.864 136.518 126.994  1.00  0.00     0.006 C 
BRANCH  12  13
ATOM     13  C   UNL     1     134.365 137.265 128.238  1.00  0.00     0.053 C 
BRANCH  13  14
ATOM     14  C   UNL     1     134.095 138.701 127.913  1.00  0.00     0.041 C 
ATOM     15  O   UNL     1     133.013 139.034 127.362  1.00  0.00    -0.550 OA
ATOM     16  O   UNL     1     135.030 139.675 128.240  1.00  0.00    -0.550 OA
ENDBRANCH  13  14
ENDBRANCH  12  13
ENDBRANCH  11  12
ENDBRANCH  10  11
ENDBRANCH   9  10
ENDBRANCH   8   9
ENDBRANCH   7   8
ENDBRANCH   6   7
ENDBRANCH   5   6
ENDBRANCH   4   5
ENDBRANCH   3   4
ENDBRANCH   2   3
ENDBRANCH   1   2
BRANCH   1  17
ATOM     17  C   UNL     1     133.217 136.064 132.735  1.00  0.00     0.000 C 
BRANCH  17  18
ATOM     18  C   UNL     1     133.286 135.732 131.235  1.00  0.00     0.000 C 
BRANCH  18  19
ATOM     19  C   UNL     1     131.966 135.122 130.751  1.00  0.00     0.000 C 
BRANCH  19  20
ATOM     20  C   UNL     1     132.197 134.184 129.556  1.00  0.00     0.000 C 
BRANCH  20  21
ATOM     21  C   UNL     1     131.997 132.699 129.910  1.00  0.00     0.000 C 
BRANCH  21  22
ATOM     22  C   UNL     1     133.269 131.828 129.837  1.00  0.00    -0.000 C 
BRANCH  22  23
ATOM     23  C   UNL     1     134.594 132.607 129.893  1.00  0.00    -0.000 C 
BRANCH  23  24
ATOM     24  C   UNL     1     135.489 132.181 131.070  1.00  0.00    -0.000 C 
BRANCH  24  25
ATOM     25  C   UNL     1     134.914 130.983 131.843  1.00  0.00    -0.000 C 
BRANCH  25  26
ATOM     26  C   UNL     1     134.481 131.360 133.272  1.00  0.00    -0.000 C 
BRANCH  26  27
ATOM     27  C   UNL     1     132.953 131.398 133.436  1.00  0.00    -0.000 C 
BRANCH  27  28
ATOM     28  C   UNL     1     132.428 132.804 133.773  1.00  0.00    -0.000 C 
BRANCH  28  29
ATOM     29  C   UNL     1     130.937 132.970 133.440  1.00  0.00    -0.003 C 
ATOM     30  C   UNL     1     130.258 131.650 133.082  1.00  0.00     0.004 C 
ENDBRANCH  28  29
ENDBRANCH  27  28
ENDBRANCH  26  27
ENDBRANCH  25  26
ENDBRANCH  24  25
ENDBRANCH  23  24
ENDBRANCH  22  23
ENDBRANCH  21  22
ENDBRANCH  20  21
ENDBRANCH  19  20
ENDBRANCH  18  19
ENDBRANCH  17  18
ENDBRANCH   1  17
TORSDOF 26
ENDMDL
MODEL 9
REMARK VINA RESULT:    -5.413      3.968      7.318
REMARK INTER + INTRA:         -18.361
REMARK INTER:                 -12.922
REMARK INTRA:                  -5.439
REMARK UNBOUND:                -4.721
REMARK SMILES CCCCCCCCCCCCCCCCCCCCCCCCCCCC(=O)[O-]
REMARK SMILES IDX 15 1 16 2 17 3 18 4 19 5 20 6 21 7 22 8 23 9 24 10 25 11
REMARK SMILES IDX 26 12 27 13 28 14 29 15 30 16 14 17 13 18 12 19 11 20 10 21
REMARK SMILES IDX 9 22 8 23 7 24 6 25 5 26 4 27 3 28 2 29 1 30
REMARK H PARENT
REMARK Flexibility Score: inf
ROOT
ATOM      1  C   UNL     1     135.412 135.802 132.976  1.00  0.00     0.000 C 
ENDROOT
BRANCH   1   2
ATOM      2  C   UNL     1     136.915 135.535 132.797  1.00  0.00     0.000 C 
BRANCH   2   3
ATOM      3  C   UNL     1     137.373 135.658 131.332  1.00  0.00     0.000 C 
BRANCH   3   4
ATOM      4  C   UNL     1     136.237 135.852 130.307  1.00  0.00     0.000 C 
BRANCH   4   5
ATOM      5  C   UNL     1     136.614 136.665 129.052  1.00  0.00     0.000 C 
BRANCH   5   6
ATOM      6  C   UNL     1     138.098 137.064 128.958  1.00  0.00     0.000 C 
BRANCH   6   7
ATOM      7  C   UNL     1     138.812 136.424 127.757  1.00  0.00     0.000 C 
BRANCH   7   8
ATOM      8  C   UNL     1     140.119 135.742 128.195  1.00  0.00     0.000 C 
BRANCH   8   9
ATOM      9  C   UNL     1     139.883 134.358 128.828  1.00  0.00     0.000 C 
BRANCH   9  10
ATOM     10  C   UNL     1     139.149 133.357 127.918  1.00  0.00     0.000 C 
BRANCH  10  11
ATOM     11  C   UNL     1     137.762 132.972 128.461  1.00  0.00     0.000 C 
BRANCH  11  12
ATOM     12  C   UNL     1     136.763 132.643 127.340  1.00  0.00     0.006 C 
BRANCH  12  13
ATOM     13  C   UNL     1     136.176 133.903 126.692  1.00  0.00     0.053 C 
BRANCH  13  14
ATOM     14  C   UNL     1     134.820 133.617 126.125  1.00  0.00     0.041 C 
ATOM     15  O   UNL     1     134.231 134.480 125.421  1.00  0.00    -0.550 OA
ATOM     16  O   UNL     1     134.216 132.387 126.354  1.00  0.00    -0.550 OA
ENDBRANCH  13  14
ENDBRANCH  12  13
ENDBRANCH  11  12
ENDBRANCH  10  11
ENDBRANCH   9  10
ENDBRANCH   8   9
ENDBRANCH   7   8
ENDBRANCH   6   7
ENDBRANCH   5   6
ENDBRANCH   4   5
ENDBRANCH   3   4
ENDBRANCH   2   3
ENDBRANCH   1   2
BRANCH   1  17
ATOM     17  C   UNL     1     134.702 134.688 133.762  1.00  0.00     0.000 C 
BRANCH  17  18
ATOM     18  C   UNL     1     133.198 134.607 133.458  1.00  0.00     0.000 C 
BRANCH  18  19
ATOM     19  C   UNL     1     132.620 133.262 133.913  1.00  0.00     0.000 C 
BRANCH  19  20
ATOM     20  C   UNL     1     131.126 133.161 133.572  1.00  0.00     0.000 C 
BRANCH  20  21
ATOM     21  C   UNL     1     130.735 131.794 132.980  1.00  0.00     0.000 C 
BRANCH  21  22
ATOM     22  C   UNL     1     130.119 131.843 131.566  1.00  0.00    -0.000 C 
BRANCH  22  23
ATOM     23  C   UNL     1     131.046 131.359 130.436  1.00  0.00    -0.000 C 
BRANCH  23  24
ATOM     24  C   UNL     1     131.346 132.455 129.399  1.00  0.00    -0.000 C 
BRANCH  24  25
ATOM     25  C   UNL     1     131.862 133.752 130.043  1.00  0.00    -0.000 C 
BRANCH  25  26
ATOM     26  C   UNL     1     133.387 133.908 129.907  1.00  0.00    -0.000 C 
BRANCH  26  27
ATOM     27  C   UNL     1     134.121 132.557 129.884  1.00  0.00    -0.000 C 
BRANCH  27  28
ATOM     28  C   UNL     1     135.128 132.410 131.038  1.00  0.00    -0.000 C 
BRANCH  28  29
ATOM     29  C   UNL     1     134.749 131.281 132.009  1.00  0.00    -0.003 C 
ATOM     30  C   UNL     1     135.806 131.043 133.085  1.00  0.00     0.004 C 
ENDBRANCH  28  29
ENDBRANCH  27  28
ENDBRANCH  26  27
ENDBRANCH  25  26
ENDBRANCH  24  25
ENDBRANCH  23  24
ENDBRANCH  22  23
ENDBRANCH  21  22
ENDBRANCH  20  21
ENDBRANCH  19  20
ENDBRANCH  18  19
ENDBRANCH  17  18
ENDBRANCH   1  17
TORSDOF 26
ENDMDL
