MODEL 1
REMARK VINA RESULT:    -4.498      0.000      0.000
REMARK INTER + INTRA:          -7.234
REMARK INTER:                  -6.864
REMARK INTRA:                  -0.370
REMARK UNBOUND:                -0.370
REMARK SMILES CC1=CCC[C@H](C)C(=O)C[C@@H](C(C)C)C(=O)C1
REMARK SMILES IDX 8 1 9 2 6 3 7 4 5 5 4 6 3 7 2 8 1 9 10 11 11 12 15 13 16 14
REMARK SMILES IDX 17 15 12 17 13 18 14 19
REMARK H PARENT
REMARK Flexibility Score: 70.00
ROOT
ATOM      1  C   UNL     1     120.795 174.912 125.495  1.00  0.00     0.136 C 
ATOM      2  O   UNL     1     121.622 174.114 125.914  1.00  0.00    -0.299 OA
ENDROOT
BRANCH   1   3
ATOM      3  C   UNL     1     119.385 174.890 126.040  1.00  0.00     0.053 C 
ATOM      4  C   UNL     1     118.850 173.456 126.136  1.00  0.00     0.016 C 
BRANCH   3   5
ATOM      5  C   UNL     1     119.365 175.598 127.418  1.00  0.00     0.015 C 
BRANCH   5   6
ATOM      6  C   UNL     1     118.511 176.878 127.501  1.00  0.00     0.028 C 
BRANCH   6   7
ATOM      7  C   UNL     1     117.752 177.281 126.253  1.00  0.00    -0.028 C 
ATOM      8  C   UNL     1     118.087 178.258 125.376  1.00  0.00    -0.070 CG0
ATOM      9  C   UNL     1     117.121 178.552 124.255  1.00  0.00     0.039 C 
ATOM     10  G   UNL     1     119.400 179.020 125.410  1.00  0.00     0.000 G0
ENDBRANCH   6   7
ENDBRANCH   5   6
ENDBRANCH   3   5
ENDBRANCH   1   3
BRANCH   1  11
ATOM     11  C   UNL     1     121.221 175.963 124.497  1.00  0.00     0.087 C 
BRANCH  11  12
ATOM     12  C   UNL     1     121.442 177.356 125.167  1.00  0.00     0.066 C 
BRANCH  12  13
ATOM     13  C   UNL     1     120.463 178.361 124.571  1.00  0.00     0.140 C 
ATOM     14  O   UNL     1     120.582 178.672 123.394  1.00  0.00    -0.299 OA
BRANCH  13  15
ATOM     15  C   UNL     1     119.398 179.043 125.405  1.00  0.00     0.106 CG0
ATOM     16  G   UNL     1     118.099 178.259 125.374  1.00  0.00     0.000 G0
ENDBRANCH  13  15
ENDBRANCH  12  13
BRANCH  12  17
ATOM     17  C   UNL     1     122.918 177.853 125.018  1.00  0.00    -0.006 C 
ATOM     18  C   UNL     1     123.796 176.822 124.281  1.00  0.00     0.008 C 
ATOM     19  C   UNL     1     123.570 178.149 126.385  1.00  0.00     0.008 C 
ENDBRANCH  12  17
ENDBRANCH  11  12
ENDBRANCH   1  11
TORSDOF 1
ENDMDL
MODEL 2
REMARK VINA RESULT:    -4.363      6.907      9.117
REMARK INTER + INTRA:          -7.028
REMARK INTER:                  -6.877
REMARK INTRA:                  -0.151
REMARK UNBOUND:                -0.370
REMARK SMILES CC1=CCC[C@H](C)C(=O)C[C@@H](C(C)C)C(=O)C1
REMARK SMILES IDX 8 1 9 2 6 3 7 4 5 5 4 6 3 7 2 8 1 9 10 11 11 12 15 13 16 14
REMARK SMILES IDX 17 15 12 17 13 18 14 19
REMARK H PARENT
REMARK Flexibility Score: 70.00
ROOT
ATOM      1  C   UNL     1     126.926 177.833 123.165  1.00  0.00     0.136 C 
ATOM      2  O   UNL     1     126.004 177.896 123.965  1.00  0.00    -0.299 OA
ENDROOT
BRANCH   1   3
ATOM      3  C   UNL     1     128.302 177.424 123.635  1.00  0.00     0.053 C 
ATOM      4  C   UNL     1     129.049 178.605 124.265  1.00  0.00     0.016 C 
BRANCH   3   5
ATOM      5  C   UNL     1     128.167 176.242 124.626  1.00  0.00     0.015 C 
BRANCH   5   6
ATOM      6  C   UNL     1     127.830 174.875 123.999  1.00  0.00     0.028 C 
BRANCH   6   7
ATOM      7  C   UNL     1     128.658 174.443 122.806  1.00  0.00    -0.028 C 
ATOM      8  C   UNL     1     128.213 174.215 121.546  1.00  0.00    -0.070 CG0
ATOM      9  C   UNL     1     129.206 173.690 120.539  1.00  0.00     0.039 C 
ATOM     10  G   UNL     1     126.804 174.521 121.071  1.00  0.00     0.000 G0
ENDBRANCH   6   7
ENDBRANCH   5   6
ENDBRANCH   3   5
ENDBRANCH   1   3
BRANCH   1  11
ATOM     11  C   UNL     1     126.653 178.087 121.700  1.00  0.00     0.087 C 
BRANCH  11  12
ATOM     12  C   UNL     1     125.771 176.967 121.064  1.00  0.00     0.066 C 
BRANCH  12  13
ATOM     13  C   UNL     1     126.674 175.900 120.455  1.00  0.00     0.140 C 
ATOM     14  O   UNL     1     127.278 176.159 119.422  1.00  0.00    -0.299 OA
BRANCH  13  15
ATOM     15  C   UNL     1     126.790 174.509 121.042  1.00  0.00     0.106 CG0
ATOM     16  G   UNL     1     128.203 174.241 121.529  1.00  0.00     0.000 G0
ENDBRANCH  13  15
ENDBRANCH  12  13
BRANCH  12  17
ATOM     17  C   UNL     1     124.776 177.535 119.998  1.00  0.00    -0.006 C 
ATOM     18  C   UNL     1     125.268 178.875 119.416  1.00  0.00     0.008 C 
ATOM     19  C   UNL     1     123.365 177.756 120.583  1.00  0.00     0.008 C 
ENDBRANCH  12  17
ENDBRANCH  11  12
ENDBRANCH   1  11
TORSDOF 1
ENDMDL
MODEL 3
REMARK VINA RESULT:    -4.229      5.607      8.182
REMARK INTER + INTRA:          -6.824
REMARK INTER:                  -6.743
REMARK INTRA:                  -0.081
REMARK UNBOUND:                -0.370
REMARK SMILES CC1=CCC[C@H](C)C(=O)C[C@@H](C(C)C)C(=O)C1
REMARK SMILES IDX 8 1 9 2 6 3 7 4 5 5 4 6 3 7 2 8 1 9 10 11 11 12 15 13 16 14
REMARK SMILES IDX 17 15 12 17 13 18 14 19
REMARK H PARENT
REMARK Flexibility Score: 70.00
ROOT
ATOM      1  C   UNL     1     124.791 176.980 122.839  1.00  0.00     0.136 C 
ATOM      2  O   UNL     1     125.196 177.696 123.744  1.00  0.00    -0.299 OA
ENDROOT
BRANCH   1   3
ATOM      3  C   UNL     1     123.419 177.216 122.251  1.00  0.00     0.053 C 
ATOM      4  C   UNL     1     122.453 177.777 123.302  1.00  0.00     0.016 C 
BRANCH   3   5
ATOM      5  C   UNL     1     123.547 178.162 121.032  1.00  0.00     0.015 C 
BRANCH   5   6
ATOM      6  C   UNL     1     124.205 177.556 119.778  1.00  0.00     0.028 C 
BRANCH   6   7
ATOM      7  C   UNL     1     125.481 178.207 119.287  1.00  0.00    -0.028 C 
ATOM      8  C   UNL     1     126.724 177.668 119.290  1.00  0.00    -0.070 CG0
ATOM      9  C   UNL     1     127.868 178.546 118.845  1.00  0.00     0.039 C 
ATOM     10  G   UNL     1     127.025 176.222 119.642  1.00  0.00     0.000 G0
ENDBRANCH   6   7
ENDBRANCH   5   6
ENDBRANCH   3   5
ENDBRANCH   1   3
BRANCH   1  11
ATOM     11  C   UNL     1     125.706 175.923 122.267  1.00  0.00     0.087 C 
BRANCH  11  12
ATOM     12  C   UNL     1     127.203 176.366 122.289  1.00  0.00     0.066 C 
BRANCH  12  13
ATOM     13  C   UNL     1     127.829 176.090 120.927  1.00  0.00     0.140 C 
ATOM     14  O   UNL     1     129.023 175.826 120.870  1.00  0.00    -0.299 OA
BRANCH  13  15
ATOM     15  C   UNL     1     127.042 176.206 119.638  1.00  0.00     0.106 CG0
ATOM     16  G   UNL     1     126.722 177.656 119.326  1.00  0.00     0.000 G0
ENDBRANCH  13  15
ENDBRANCH  12  13
BRANCH  12  17
ATOM     17  C   UNL     1     128.009 175.661 123.431  1.00  0.00    -0.006 C 
ATOM     18  C   UNL     1     127.213 174.499 124.057  1.00  0.00     0.008 C 
ATOM     19  C   UNL     1     128.393 176.642 124.558  1.00  0.00     0.008 C 
ENDBRANCH  12  17
ENDBRANCH  11  12
ENDBRANCH   1  11
TORSDOF 1
ENDMDL
MODEL 4
REMARK VINA RESULT:    -4.208      6.466      9.350
REMARK INTER + INTRA:          -6.792
REMARK INTER:                  -6.690
REMARK INTRA:                  -0.102
REMARK UNBOUND:                -0.370
REMARK SMILES CC1=CCC[C@H](C)C(=O)C[C@@H](C(C)C)C(=O)C1
REMARK SMILES IDX 8 1 9 2 6 3 7 4 5 5 4 6 3 7 2 8 1 9 10 11 11 12 15 13 16 14
REMARK SMILES IDX 17 15 12 17 13 18 14 19
REMARK H PARENT
REMARK Flexibility Score: 70.00
ROOT
ATOM      1  C   UNL     1     126.265 177.652 122.367  1.00  0.00     0.136 C 
ATOM      2  O   UNL     1     125.142 177.560 121.892  1.00  0.00    -0.299 OA
ENDROOT
BRANCH   1   3
ATOM      3  C   UNL     1     126.444 177.724 123.866  1.00  0.00     0.053 C 
ATOM      4  C   UNL     1     125.140 177.384 124.598  1.00  0.00     0.016 C 
BRANCH   3   5
ATOM      5  C   UNL     1     127.595 176.777 124.283  1.00  0.00     0.015 C 
BRANCH   5   6
ATOM      6  C   UNL     1     127.268 175.271 124.255  1.00  0.00     0.028 C 
BRANCH   6   7
ATOM      7  C   UNL     1     128.355 174.340 123.757  1.00  0.00    -0.028 C 
ATOM      8  C   UNL     1     128.460 173.799 122.520  1.00  0.00    -0.070 CG0
ATOM      9  C   UNL     1     129.577 172.813 122.280  1.00  0.00     0.039 C 
ATOM     10  G   UNL     1     127.573 174.176 121.347  1.00  0.00     0.000 G0
ENDBRANCH   6   7
ENDBRANCH   5   6
ENDBRANCH   3   5
ENDBRANCH   1   3
BRANCH   1  11
ATOM     11  C   UNL     1     127.462 177.608 121.447  1.00  0.00     0.087 C 
BRANCH  11  12
ATOM     12  C   UNL     1     127.272 176.585 120.283  1.00  0.00     0.066 C 
BRANCH  12  13
ATOM     13  C   UNL     1     128.116 175.346 120.559  1.00  0.00     0.140 C 
ATOM     14  O   UNL     1     129.245 175.286 120.091  1.00  0.00    -0.299 OA
BRANCH  13  15
ATOM     15  C   UNL     1     127.577 174.158 121.328  1.00  0.00     0.106 CG0
ATOM     16  G   UNL     1     128.476 173.819 122.504  1.00  0.00     0.000 G0
ENDBRANCH  13  15
ENDBRANCH  12  13
BRANCH  12  17
ATOM     17  C   UNL     1     127.626 177.206 118.890  1.00  0.00    -0.006 C 
ATOM     18  C   UNL     1     128.487 178.477 119.034  1.00  0.00     0.008 C 
ATOM     19  C   UNL     1     126.364 177.571 118.082  1.00  0.00     0.008 C 
ENDBRANCH  12  17
ENDBRANCH  11  12
ENDBRANCH   1  11
TORSDOF 1
ENDMDL
MODEL 5
REMARK VINA RESULT:    -4.203      1.903      4.441
REMARK INTER + INTRA:          -6.784
REMARK INTER:                  -6.418
REMARK INTRA:                  -0.366
REMARK UNBOUND:                -0.370
REMARK SMILES CC1=CCC[C@H](C)C(=O)C[C@@H](C(C)C)C(=O)C1
REMARK SMILES IDX 8 1 9 2 6 3 7 4 5 5 4 6 3 7 2 8 1 9 10 11 11 12 15 13 16 14
REMARK SMILES IDX 17 15 12 17 13 18 14 19
REMARK H PARENT
REMARK Flexibility Score: 70.00
ROOT
ATOM      1  C   UNL     1     117.857 177.295 126.016  1.00  0.00     0.136 C 
ATOM      2  O   UNL     1     117.057 177.669 126.862  1.00  0.00    -0.299 OA
ENDROOT
BRANCH   1   3
ATOM      3  C   UNL     1     118.220 178.209 124.868  1.00  0.00     0.053 C 
ATOM      4  C   UNL     1     117.006 178.484 123.973  1.00  0.00     0.016 C 
BRANCH   3   5
ATOM      5  C   UNL     1     118.817 179.520 125.436  1.00  0.00     0.015 C 
BRANCH   5   6
ATOM      6  C   UNL     1     120.356 179.592 125.479  1.00  0.00     0.028 C 
BRANCH   6   7
ATOM      7  C   UNL     1     121.109 178.895 124.366  1.00  0.00    -0.028 C 
ATOM      8  C   UNL     1     121.927 177.821 124.485  1.00  0.00    -0.070 CG0
ATOM      9  C   UNL     1     122.655 177.356 123.247  1.00  0.00     0.039 C 
ATOM     10  G   UNL     1     122.099 177.017 125.761  1.00  0.00     0.000 G0
ENDBRANCH   6   7
ENDBRANCH   5   6
ENDBRANCH   3   5
ENDBRANCH   1   3
BRANCH   1  11
ATOM     11  C   UNL     1     118.533 175.953 126.179  1.00  0.00     0.087 C 
BRANCH  11  12
ATOM     12  C   UNL     1     119.899 176.070 126.926  1.00  0.00     0.066 C 
BRANCH  12  13
ATOM     13  C   UNL     1     121.035 175.944 125.918  1.00  0.00     0.140 C 
ATOM     14  O   UNL     1     121.114 174.926 125.244  1.00  0.00    -0.299 OA
BRANCH  13  15
ATOM     15  C   UNL     1     122.112 177.000 125.779  1.00  0.00     0.106 CG0
ATOM     16  G   UNL     1     121.924 177.801 124.503  1.00  0.00     0.000 G0
ENDBRANCH  13  15
ENDBRANCH  12  13
BRANCH  12  17
ATOM     17  C   UNL     1     120.038 175.007 128.066  1.00  0.00    -0.006 C 
ATOM     18  C   UNL     1     118.787 174.966 128.965  1.00  0.00     0.008 C 
ATOM     19  C   UNL     1     121.264 175.278 128.963  1.00  0.00     0.008 C 
ENDBRANCH  12  17
ENDBRANCH  11  12
ENDBRANCH   1  11
TORSDOF 1
ENDMDL
MODEL 6
REMARK VINA RESULT:    -4.158      5.944      9.329
REMARK INTER + INTRA:          -6.716
REMARK INTER:                  -6.537
REMARK INTRA:                  -0.179
REMARK UNBOUND:                -0.370
REMARK SMILES CC1=CCC[C@H](C)C(=O)C[C@@H](C(C)C)C(=O)C1
REMARK SMILES IDX 8 1 9 2 6 3 7 4 5 5 4 6 3 7 2 8 1 9 10 11 11 12 15 13 16 14
REMARK SMILES IDX 17 15 12 17 13 18 14 19
REMARK H PARENT
REMARK Flexibility Score: 70.00
ROOT
ATOM      1  C   UNL     1     125.350 177.753 119.878  1.00  0.00     0.136 C 
ATOM      2  O   UNL     1     125.028 178.912 120.100  1.00  0.00    -0.299 OA
ENDROOT
BRANCH   1   3
ATOM      3  C   UNL     1     126.159 177.422 118.645  1.00  0.00     0.053 C 
ATOM      4  C   UNL     1     125.307 177.533 117.375  1.00  0.00     0.016 C 
BRANCH   3   5
ATOM      5  C   UNL     1     127.395 178.354 118.585  1.00  0.00     0.015 C 
BRANCH   5   6
ATOM      6  C   UNL     1     128.656 177.842 119.308  1.00  0.00     0.028 C 
BRANCH   6   7
ATOM      7  C   UNL     1     128.723 176.359 119.608  1.00  0.00    -0.028 C 
ATOM      8  C   UNL     1     128.603 175.768 120.821  1.00  0.00    -0.070 CG0
ATOM      9  C   UNL     1     128.807 174.275 120.895  1.00  0.00     0.039 C 
ATOM     10  G   UNL     1     128.206 176.500 122.090  1.00  0.00     0.000 G0
ENDBRANCH   6   7
ENDBRANCH   5   6
ENDBRANCH   3   5
ENDBRANCH   1   3
BRANCH   1  11
ATOM     11  C   UNL     1     125.004 176.683 120.887  1.00  0.00     0.087 C 
BRANCH  11  12
ATOM     12  C   UNL     1     125.589 176.996 122.300  1.00  0.00     0.066 C 
BRANCH  12  13
ATOM     13  C   UNL     1     126.804 176.109 122.549  1.00  0.00     0.140 C 
ATOM     14  O   UNL     1     126.657 175.073 123.184  1.00  0.00    -0.299 OA
BRANCH  13  15
ATOM     15  C   UNL     1     128.197 176.505 122.104  1.00  0.00     0.106 CG0
ATOM     16  G   UNL     1     128.588 175.775 120.832  1.00  0.00     0.000 G0
ENDBRANCH  13  15
ENDBRANCH  12  13
BRANCH  12  17
ATOM     17  C   UNL     1     124.522 176.816 123.431  1.00  0.00    -0.006 C 
ATOM     18  C   UNL     1     123.130 177.306 122.985  1.00  0.00     0.008 C 
ATOM     19  C   UNL     1     124.908 177.576 124.717  1.00  0.00     0.008 C 
ENDBRANCH  12  17
ENDBRANCH  11  12
ENDBRANCH   1  11
TORSDOF 1
ENDMDL
MODEL 7
REMARK VINA RESULT:    -4.125      1.867      4.075
REMARK INTER + INTRA:          -6.666
REMARK INTER:                  -6.656
REMARK INTRA:                  -0.010
REMARK UNBOUND:                -0.370
REMARK SMILES CC1=CCC[C@H](C)C(=O)C[C@@H](C(C)C)C(=O)C1
REMARK SMILES IDX 8 1 9 2 6 3 7 4 5 5 4 6 3 7 2 8 1 9 10 11 11 12 15 13 16 14
REMARK SMILES IDX 17 15 12 17 13 18 14 19
REMARK H PARENT
REMARK Flexibility Score: 70.00
ROOT
ATOM      1  C   UNL     1     120.989 178.874 124.484  1.00  0.00     0.136 C 
ATOM      2  O   UNL     1     120.831 178.950 123.274  1.00  0.00    -0.299 OA
ENDROOT
BRANCH   1   3
ATOM      3  C   UNL     1     119.973 179.493 125.415  1.00  0.00     0.053 C 
ATOM      4  C   UNL     1     118.557 178.994 125.103  1.00  0.00     0.016 C 
BRANCH   3   5
ATOM      5  C   UNL     1     120.375 179.187 126.879  1.00  0.00     0.015 C 
BRANCH   5   6
ATOM      6  C   UNL     1     119.695 177.960 127.519  1.00  0.00     0.028 C 
BRANCH   6   7
ATOM      7  C   UNL     1     120.602 176.875 128.061  1.00  0.00    -0.028 C 
ATOM      8  C   UNL     1     121.028 175.768 127.406  1.00  0.00    -0.070 CG0
ATOM      9  C   UNL     1     121.848 174.768 128.183  1.00  0.00     0.039 C 
ATOM     10  G   UNL     1     120.795 175.509 125.928  1.00  0.00     0.000 G0
ENDBRANCH   6   7
ENDBRANCH   5   6
ENDBRANCH   3   5
ENDBRANCH   1   3
BRANCH   1  11
ATOM     11  C   UNL     1     122.158 178.086 125.029  1.00  0.00     0.087 C 
BRANCH  11  12
ATOM     12  C   UNL     1     122.404 176.769 124.228  1.00  0.00     0.066 C 
BRANCH  12  13
ATOM     13  C   UNL     1     122.070 175.573 125.113  1.00  0.00     0.140 C 
ATOM     14  O   UNL     1     122.837 174.619 125.128  1.00  0.00    -0.299 OA
BRANCH  13  15
ATOM     15  C   UNL     1     120.786 175.494 125.913  1.00  0.00     0.106 CG0
ATOM     16  G   UNL     1     121.045 175.770 127.383  1.00  0.00     0.000 G0
ENDBRANCH  13  15
ENDBRANCH  12  13
BRANCH  12  17
ATOM     17  C   UNL     1     123.869 176.675 123.686  1.00  0.00    -0.006 C 
ATOM     18  C   UNL     1     124.868 177.392 124.616  1.00  0.00     0.008 C 
ATOM     19  C   UNL     1     124.004 177.284 122.275  1.00  0.00     0.008 C 
ENDBRANCH  12  17
ENDBRANCH  11  12
ENDBRANCH   1  11
TORSDOF 1
ENDMDL
MODEL 8
REMARK VINA RESULT:    -4.088      6.356      9.082
REMARK INTER + INTRA:          -6.609
REMARK INTER:                  -6.462
REMARK INTRA:                  -0.147
REMARK UNBOUND:                -0.370
REMARK SMILES CC1=CCC[C@H](C)C(=O)C[C@@H](C(C)C)C(=O)C1
REMARK SMILES IDX 8 1 9 2 6 3 7 4 5 5 4 6 3 7 2 8 1 9 10 11 11 12 15 13 16 14
REMARK SMILES IDX 17 15 12 17 13 18 14 19
REMARK H PARENT
REMARK Flexibility Score: 70.00
ROOT
ATOM      1  C   UNL     1     126.508 175.301 123.212  1.00  0.00     0.136 C 
ATOM      2  O   UNL     1     126.896 174.727 124.220  1.00  0.00    -0.299 OA
ENDROOT
BRANCH   1   3
ATOM      3  C   UNL     1     125.775 176.616 123.331  1.00  0.00     0.053 C 
ATOM      4  C   UNL     1     124.558 176.492 124.256  1.00  0.00     0.016 C 
BRANCH   3   5
ATOM      5  C   UNL     1     126.761 177.702 123.830  1.00  0.00     0.015 C 
BRANCH   5   6
ATOM      6  C   UNL     1     127.418 178.565 122.735  1.00  0.00     0.028 C 
BRANCH   6   7
ATOM      7  C   UNL     1     127.012 178.286 121.303  1.00  0.00    -0.028 C 
ATOM      8  C   UNL     1     127.736 177.627 120.365  1.00  0.00    -0.070 CG0
ATOM      9  C   UNL     1     127.170 177.557 118.968  1.00  0.00     0.039 C 
ATOM     10  G   UNL     1     129.036 176.897 120.650  1.00  0.00     0.000 G0
ENDBRANCH   6   7
ENDBRANCH   5   6
ENDBRANCH   3   5
ENDBRANCH   1   3
BRANCH   1  11
ATOM     11  C   UNL     1     126.845 174.722 121.857  1.00  0.00     0.087 C 
BRANCH  11  12
ATOM     12  C   UNL     1     128.381 174.519 121.669  1.00  0.00     0.066 C 
BRANCH  12  13
ATOM     13  C   UNL     1     128.866 175.391 120.517  1.00  0.00     0.140 C 
ATOM     14  O   UNL     1     129.191 174.852 119.467  1.00  0.00    -0.299 OA
BRANCH  13  15
ATOM     15  C   UNL     1     129.032 176.890 120.653  1.00  0.00     0.106 CG0
ATOM     16  G   UNL     1     127.728 177.610 120.359  1.00  0.00     0.000 G0
ENDBRANCH  13  15
ENDBRANCH  12  13
BRANCH  12  17
ATOM     17  C   UNL     1     128.751 173.017 121.432  1.00  0.00    -0.006 C 
ATOM     18  C   UNL     1     127.496 172.147 121.221  1.00  0.00     0.008 C 
ATOM     19  C   UNL     1     129.553 172.425 122.609  1.00  0.00     0.008 C 
ENDBRANCH  12  17
ENDBRANCH  11  12
ENDBRANCH   1  11
TORSDOF 1
ENDMDL
MODEL 9
REMARK VINA RESULT:    -3.921      4.272      7.258
REMARK INTER + INTRA:          -6.353
REMARK INTER:                  -5.993
REMARK INTRA:                  -0.360
REMARK UNBOUND:                -0.370
REMARK SMILES CC1=CCC[C@H](C)C(=O)C[C@@H](C(C)C)C(=O)C1
REMARK SMILES IDX 8 1 9 2 6 3 7 4 5 5 4 6 3 7 2 8 1 9 10 11 11 12 15 13 16 14
REMARK SMILES IDX 17 15 12 17 13 18 14 19
REMARK H PARENT
REMARK Flexibility Score: 70.00
ROOT
ATOM      1  C   UNL     1     125.992 176.040 123.852  1.00  0.00     0.136 C 
ATOM      2  O   UNL     1     125.661 174.990 124.384  1.00  0.00    -0.299 OA
ENDROOT
BRANCH   1   3
ATOM      3  C   UNL     1     127.382 176.186 123.277  1.00  0.00     0.053 C 
ATOM      4  C   UNL     1     128.447 176.119 124.377  1.00  0.00     0.016 C 
BRANCH   3   5
ATOM      5  C   UNL     1     127.602 175.091 122.203  1.00  0.00     0.015 C 
BRANCH   5   6
ATOM      6  C   UNL     1     126.736 175.213 120.934  1.00  0.00     0.028 C 
BRANCH   6   7
ATOM      7  C   UNL     1     126.640 176.583 120.295  1.00  0.00    -0.028 C 
ATOM      8  C   UNL     1     125.508 177.242 119.950  1.00  0.00    -0.070 CG0
ATOM      9  C   UNL     1     125.659 178.560 119.229  1.00  0.00     0.039 C 
ATOM     10  G   UNL     1     124.108 176.776 120.306  1.00  0.00     0.000 G0
ENDBRANCH   6   7
ENDBRANCH   5   6
ENDBRANCH   3   5
ENDBRANCH   1   3
BRANCH   1  11
ATOM     11  C   UNL     1     124.974 177.147 123.704  1.00  0.00     0.087 C 
BRANCH  11  12
ATOM     12  C   UNL     1     123.703 176.678 122.929  1.00  0.00     0.066 C 
BRANCH  12  13
ATOM     13  C   UNL     1     123.624 177.419 121.599  1.00  0.00     0.140 C 
ATOM     14  O   UNL     1     123.108 178.528 121.572  1.00  0.00    -0.299 OA
BRANCH  13  15
ATOM     15  C   UNL     1     124.091 176.797 120.299  1.00  0.00     0.106 CG0
ATOM     16  G   UNL     1     125.504 177.238 119.964  1.00  0.00     0.000 G0
ENDBRANCH  13  15
ENDBRANCH  12  13
BRANCH  12  17
ATOM     17  C   UNL     1     122.395 176.883 123.765  1.00  0.00    -0.006 C 
ATOM     18  C   UNL     1     122.630 177.810 124.974  1.00  0.00     0.008 C 
ATOM     19  C   UNL     1     121.828 175.547 124.288  1.00  0.00     0.008 C 
ENDBRANCH  12  17
ENDBRANCH  11  12
ENDBRANCH   1  11
TORSDOF 1
ENDMDL
