MODEL 1
REMARK VINA RESULT:    -3.598      0.000      0.000
REMARK INTER + INTRA:          -5.280
REMARK INTER:                  -4.860
REMARK INTRA:                  -0.420
REMARK UNBOUND:                -0.420
REMARK SMILES [NH3+]CCCC[C@H]([NH3+])C(=O)[O-]
REMARK SMILES IDX 4 1 3 2 2 3 1 4 5 8 6 9 7 10 8 14 9 15 10 16
REMARK H PARENT 1 5 1 6 1 7 7 11 7 12 7 13
REMARK Flexibility Score: inf
ROOT
ATOM      1  C   UNL     1      23.265  28.550  29.650  1.00  0.00     0.012 C 
ENDROOT
BRANCH   1   2
ATOM      2  C   UNL     1      22.398  29.590  30.386  1.00  0.00     0.061 C 
BRANCH   2   3
ATOM      3  C   UNL     1      21.056  29.913  29.702  1.00  0.00     0.258 C 
BRANCH   3   4
ATOM      4  N   UNL     1      21.113  31.153  28.927  1.00  0.00    -0.358 N 
ATOM      5  H   UNL     1      22.105  31.463  28.812  1.00  0.00     0.344 HD
ATOM      6  H   UNL     1      20.669  31.018  27.990  1.00  0.00     0.344 HD
ATOM      7  H   UNL     1      20.592  31.899  29.442  1.00  0.00     0.344 HD
ENDBRANCH   3   4
ENDBRANCH   2   3
ENDBRANCH   1   2
BRANCH   1   8
ATOM      8  C   UNL     1      24.359  29.136  28.734  1.00  0.00     0.072 C 
BRANCH   8   9
ATOM      9  C   UNL     1      24.475  28.451  27.353  1.00  0.00     0.227 C 
BRANCH   9  10
ATOM     10  N   UNL     1      25.885  28.241  27.005  1.00  0.00    -0.350 N 
ATOM     11  H   UNL     1      26.387  29.158  26.992  1.00  0.00     0.345 HD
ATOM     12  H   UNL     1      26.341  27.630  27.722  1.00  0.00     0.345 HD
ATOM     13  H   UNL     1      25.972  27.790  26.064  1.00  0.00     0.345 HD
ENDBRANCH   9  10
BRANCH   9  14
ATOM     14  C   UNL     1      23.800  29.268  26.282  1.00  0.00     0.099 C 
ATOM     15  O   UNL     1      24.035  29.037  25.067  1.00  0.00    -0.544 OA
ATOM     16  O   UNL     1      22.910  30.279  26.628  1.00  0.00    -0.544 OA
ENDBRANCH   9  14
ENDBRANCH   8   9
ENDBRANCH   1   8
TORSDOF 7
ENDMDL
MODEL 2
REMARK VINA RESULT:    -3.593      1.133      1.530
REMARK INTER + INTRA:          -5.273
REMARK INTER:                  -5.150
REMARK INTRA:                  -0.124
REMARK UNBOUND:                -0.420
REMARK SMILES [NH3+]CCCC[C@H]([NH3+])C(=O)[O-]
REMARK SMILES IDX 4 1 3 2 2 3 1 4 5 8 6 9 7 10 8 14 9 15 10 16
REMARK H PARENT 1 5 1 6 1 7 7 11 7 12 7 13
REMARK Flexibility Score: inf
ROOT
ATOM      1  C   UNL     1      24.044  29.149  29.520  1.00  0.00     0.012 C 
ENDROOT
BRANCH   1   2
ATOM      2  C   UNL     1      22.681  28.469  29.752  1.00  0.00     0.061 C 
BRANCH   2   3
ATOM      3  C   UNL     1      21.729  29.232  30.691  1.00  0.00     0.258 C 
BRANCH   3   4
ATOM      4  N   UNL     1      22.012  30.668  30.719  1.00  0.00    -0.358 N 
ATOM      5  H   UNL     1      21.430  31.139  31.449  1.00  0.00     0.344 HD
ATOM      6  H   UNL     1      23.027  30.836  30.907  1.00  0.00     0.344 HD
ATOM      7  H   UNL     1      21.771  31.080  29.789  1.00  0.00     0.344 HD
ENDBRANCH   3   4
ENDBRANCH   2   3
ENDBRANCH   1   2
BRANCH   1   8
ATOM      8  C   UNL     1      24.400  29.421  28.044  1.00  0.00     0.072 C 
BRANCH   8   9
ATOM      9  C   UNL     1      24.609  28.149  27.190  1.00  0.00     0.227 C 
BRANCH   9  10
ATOM     10  N   UNL     1      26.041  27.852  27.061  1.00  0.00    -0.350 N 
ATOM     11  H   UNL     1      26.180  26.819  26.965  1.00  0.00     0.345 HD
ATOM     12  H   UNL     1      26.424  28.313  26.204  1.00  0.00     0.345 HD
ATOM     13  H   UNL     1      26.567  28.192  27.899  1.00  0.00     0.345 HD
ENDBRANCH   9  10
BRANCH   9  14
ATOM     14  C   UNL     1      23.993  28.304  25.824  1.00  0.00     0.099 C 
ATOM     15  O   UNL     1      23.877  29.446  25.307  1.00  0.00    -0.544 OA
ATOM     16  O   UNL     1      23.553  27.187  25.123  1.00  0.00    -0.544 OA
ENDBRANCH   9  14
ENDBRANCH   8   9
ENDBRANCH   1   8
TORSDOF 7
ENDMDL
MODEL 3
REMARK VINA RESULT:    -3.444      2.139      2.851
REMARK INTER + INTRA:          -5.072
REMARK INTER:                  -4.623
REMARK INTRA:                  -0.449
REMARK UNBOUND:                -0.420
REMARK SMILES [NH3+]CCCC[C@H]([NH3+])C(=O)[O-]
REMARK SMILES IDX 4 1 3 2 2 3 1 4 5 8 6 9 7 10 8 14 9 15 10 16
REMARK H PARENT 1 5 1 6 1 7 7 11 7 12 7 13
REMARK Flexibility Score: inf
ROOT
ATOM      1  C   UNL     1      21.190  31.053  27.011  1.00  0.00     0.012 C 
ENDROOT
BRANCH   1   2
ATOM      2  C   UNL     1      20.500  31.353  28.356  1.00  0.00     0.061 C 
BRANCH   2   3
ATOM      3  C   UNL     1      20.788  30.331  29.472  1.00  0.00     0.258 C 
BRANCH   3   4
ATOM      4  N   UNL     1      21.785  30.819  30.426  1.00  0.00    -0.358 N 
ATOM      5  H   UNL     1      21.405  31.628  30.968  1.00  0.00     0.344 HD
ATOM      6  H   UNL     1      22.073  30.054  31.078  1.00  0.00     0.344 HD
ATOM      7  H   UNL     1      22.628  31.144  29.898  1.00  0.00     0.344 HD
ENDBRANCH   3   4
ENDBRANCH   2   3
ENDBRANCH   1   2
BRANCH   1   8
ATOM      8  C   UNL     1      22.010  29.748  26.970  1.00  0.00     0.072 C 
BRANCH   8   9
ATOM      9  C   UNL     1      23.543  29.954  26.959  1.00  0.00     0.227 C 
BRANCH   9  10
ATOM     10  N   UNL     1      24.072  29.766  25.603  1.00  0.00    -0.350 N 
ATOM     11  H   UNL     1      24.157  28.745  25.394  1.00  0.00     0.345 HD
ATOM     12  H   UNL     1      23.418  30.188  24.904  1.00  0.00     0.345 HD
ATOM     13  H   UNL     1      25.013  30.215  25.507  1.00  0.00     0.345 HD
ENDBRANCH   9  10
BRANCH   9  14
ATOM     14  C   UNL     1      24.225  29.006  27.910  1.00  0.00     0.099 C 
ATOM     15  O   UNL     1      24.178  29.211  29.151  1.00  0.00    -0.544 OA
ATOM     16  O   UNL     1      24.910  27.898  27.426  1.00  0.00    -0.544 OA
ENDBRANCH   9  14
ENDBRANCH   8   9
ENDBRANCH   1   8
TORSDOF 7
ENDMDL
MODEL 4
REMARK VINA RESULT:    -3.272      1.679      2.084
REMARK INTER + INTRA:          -4.840
REMARK INTER:                  -4.625
REMARK INTRA:                  -0.216
REMARK UNBOUND:                -0.420
REMARK SMILES [NH3+]CCCC[C@H]([NH3+])C(=O)[O-]
REMARK SMILES IDX 4 1 3 2 2 3 1 4 5 8 6 9 7 10 8 14 9 15 10 16
REMARK H PARENT 1 5 1 6 1 7 7 11 7 12 7 13
REMARK Flexibility Score: inf
ROOT
ATOM      1  C   UNL     1      24.010  29.175  29.238  1.00  0.00     0.012 C 
ENDROOT
BRANCH   1   2
ATOM      2  C   UNL     1      22.899  28.331  29.891  1.00  0.00     0.061 C 
BRANCH   2   3
ATOM      3  C   UNL     1      21.836  29.143  30.655  1.00  0.00     0.258 C 
BRANCH   3   4
ATOM      4  N   UNL     1      22.134  30.576  30.663  1.00  0.00    -0.358 N 
ATOM      5  H   UNL     1      22.897  30.792  29.983  1.00  0.00     0.344 HD
ATOM      6  H   UNL     1      21.277  31.128  30.427  1.00  0.00     0.344 HD
ATOM      7  H   UNL     1      22.457  30.850  31.618  1.00  0.00     0.344 HD
ENDBRANCH   3   4
ENDBRANCH   2   3
ENDBRANCH   1   2
BRANCH   1   8
ATOM      8  C   UNL     1      24.510  28.659  27.873  1.00  0.00     0.072 C 
BRANCH   8   9
ATOM      9  C   UNL     1      23.912  29.395  26.651  1.00  0.00     0.227 C 
BRANCH   9  10
ATOM     10  N   UNL     1      23.144  30.567  27.087  1.00  0.00    -0.350 N 
ATOM     11  H   UNL     1      22.407  30.272  27.770  1.00  0.00     0.345 HD
ATOM     12  H   UNL     1      23.776  31.249  27.565  1.00  0.00     0.345 HD
ATOM     13  H   UNL     1      22.686  31.035  26.271  1.00  0.00     0.345 HD
ENDBRANCH   9  10
BRANCH   9  14
ATOM     14  C   UNL     1      23.033  28.479  25.841  1.00  0.00     0.099 C 
ATOM     15  O   UNL     1      21.816  28.345  26.135  1.00  0.00    -0.544 OA
ATOM     16  O   UNL     1      23.558  27.777  24.761  1.00  0.00    -0.544 OA
ENDBRANCH   9  14
ENDBRANCH   8   9
ENDBRANCH   1   8
TORSDOF 7
ENDMDL
MODEL 5
REMARK VINA RESULT:    -3.175      2.473      4.514
REMARK INTER + INTRA:          -4.709
REMARK INTER:                  -4.553
REMARK INTRA:                  -0.156
REMARK UNBOUND:                -0.420
REMARK SMILES [NH3+]CCCC[C@H]([NH3+])C(=O)[O-]
REMARK SMILES IDX 4 1 3 2 2 3 1 4 5 8 6 9 7 10 8 14 9 15 10 16
REMARK H PARENT 1 5 1 6 1 7 7 11 7 12 7 13
REMARK Flexibility Score: inf
ROOT
ATOM      1  C   UNL     1      24.146  28.849  29.080  1.00  0.00     0.012 C 
ENDROOT
BRANCH   1   2
ATOM      2  C   UNL     1      23.923  29.474  27.689  1.00  0.00     0.061 C 
BRANCH   2   3
ATOM      3  C   UNL     1      24.660  28.766  26.536  1.00  0.00     0.258 C 
BRANCH   3   4
ATOM      4  N   UNL     1      25.936  28.193  26.964  1.00  0.00    -0.358 N 
ATOM      5  H   UNL     1      25.997  27.189  26.681  1.00  0.00     0.344 HD
ATOM      6  H   UNL     1      26.734  28.730  26.554  1.00  0.00     0.344 HD
ATOM      7  H   UNL     1      25.999  28.245  28.007  1.00  0.00     0.344 HD
ENDBRANCH   3   4
ENDBRANCH   2   3
ENDBRANCH   1   2
BRANCH   1   8
ATOM      8  C   UNL     1      22.886  28.741  29.962  1.00  0.00     0.072 C 
BRANCH   8   9
ATOM      9  C   UNL     1      21.786  29.778  29.638  1.00  0.00     0.227 C 
BRANCH   9  10
ATOM     10  N   UNL     1      21.747  30.820  30.672  1.00  0.00    -0.350 N 
ATOM     11  H   UNL     1      22.717  31.160  30.866  1.00  0.00     0.345 HD
ATOM     12  H   UNL     1      21.178  31.631  30.338  1.00  0.00     0.345 HD
ATOM     13  H   UNL     1      21.331  30.448  31.557  1.00  0.00     0.345 HD
ENDBRANCH   9  10
BRANCH   9  14
ATOM     14  C   UNL     1      20.435  29.121  29.524  1.00  0.00     0.099 C 
ATOM     15  O   UNL     1      20.348  27.872  29.393  1.00  0.00    -0.544 OA
ATOM     16  O   UNL     1      19.276  29.887  29.566  1.00  0.00    -0.544 OA
ENDBRANCH   9  14
ENDBRANCH   8   9
ENDBRANCH   1   8
TORSDOF 7
ENDMDL
MODEL 6
REMARK VINA RESULT:    -3.132      2.167      3.809
REMARK INTER + INTRA:          -4.651
REMARK INTER:                  -4.162
REMARK INTRA:                  -0.490
REMARK UNBOUND:                -0.420
REMARK SMILES [NH3+]CCCC[C@H]([NH3+])C(=O)[O-]
REMARK SMILES IDX 4 1 3 2 2 3 1 4 5 8 6 9 7 10 8 14 9 15 10 16
REMARK H PARENT 1 5 1 6 1 7 7 11 7 12 7 13
REMARK Flexibility Score: inf
ROOT
ATOM      1  C   UNL     1      24.295  28.060  28.228  1.00  0.00     0.012 C 
ENDROOT
BRANCH   1   2
ATOM      2  C   UNL     1      25.067  28.427  26.946  1.00  0.00     0.061 C 
BRANCH   2   3
ATOM      3  C   UNL     1      24.181  28.782  25.737  1.00  0.00     0.258 C 
BRANCH   3   4
ATOM      4  N   UNL     1      23.805  30.196  25.721  1.00  0.00    -0.358 N 
ATOM      5  H   UNL     1      23.857  30.575  24.748  1.00  0.00     0.344 HD
ATOM      6  H   UNL     1      22.840  30.323  26.104  1.00  0.00     0.344 HD
ATOM      7  H   UNL     1      24.476  30.732  26.318  1.00  0.00     0.344 HD
ENDBRANCH   3   4
ENDBRANCH   2   3
ENDBRANCH   1   2
BRANCH   1   8
ATOM      8  C   UNL     1      24.139  29.204  29.251  1.00  0.00     0.072 C 
BRANCH   8   9
ATOM      9  C   UNL     1      22.719  29.343  29.846  1.00  0.00     0.227 C 
BRANCH   9  10
ATOM     10  N   UNL     1      22.487  28.306  30.859  1.00  0.00    -0.350 N 
ATOM     11  H   UNL     1      22.968  28.568  31.750  1.00  0.00     0.345 HD
ATOM     12  H   UNL     1      21.462  28.223  31.055  1.00  0.00     0.345 HD
ATOM     13  H   UNL     1      22.850  27.381  30.533  1.00  0.00     0.345 HD
ENDBRANCH   9  10
BRANCH   9  14
ATOM     14  C   UNL     1      21.667  29.252  28.772  1.00  0.00     0.099 C 
ATOM     15  O   UNL     1      21.569  30.159  27.904  1.00  0.00    -0.544 OA
ATOM     16  O   UNL     1      20.800  28.166  28.728  1.00  0.00    -0.544 OA
ENDBRANCH   9  14
ENDBRANCH   8   9
ENDBRANCH   1   8
TORSDOF 7
ENDMDL
MODEL 7
REMARK VINA RESULT:    -3.127      2.722      3.896
REMARK INTER + INTRA:          -4.643
REMARK INTER:                  -4.118
REMARK INTRA:                  -0.525
REMARK UNBOUND:                -0.420
REMARK SMILES [NH3+]CCCC[C@H]([NH3+])C(=O)[O-]
REMARK SMILES IDX 4 1 3 2 2 3 1 4 5 8 6 9 7 10 8 14 9 15 10 16
REMARK H PARENT 1 5 1 6 1 7 7 11 7 12 7 13
REMARK Flexibility Score: inf
ROOT
ATOM      1  C   UNL     1      23.735  29.778  26.583  1.00  0.00     0.012 C 
ENDROOT
BRANCH   1   2
ATOM      2  C   UNL     1      24.630  29.372  27.770  1.00  0.00     0.061 C 
BRANCH   2   3
ATOM      3  C   UNL     1      23.882  28.726  28.951  1.00  0.00     0.258 C 
BRANCH   3   4
ATOM      4  N   UNL     1      23.623  29.680  30.030  1.00  0.00    -0.358 N 
ATOM      5  H   UNL     1      23.227  30.567  29.644  1.00  0.00     0.344 HD
ATOM      6  H   UNL     1      22.964  29.269  30.731  1.00  0.00     0.344 HD
ATOM      7  H   UNL     1      24.525  29.904  30.509  1.00  0.00     0.344 HD
ENDBRANCH   3   4
ENDBRANCH   2   3
ENDBRANCH   1   2
BRANCH   1   8
ATOM      8  C   UNL     1      22.269  29.309  26.675  1.00  0.00     0.072 C 
BRANCH   8   9
ATOM      9  C   UNL     1      21.249  30.442  26.934  1.00  0.00     0.227 C 
BRANCH   9  10
ATOM     10  N   UNL     1      21.927  31.743  26.958  1.00  0.00    -0.350 N 
ATOM     11  H   UNL     1      22.902  31.627  27.317  1.00  0.00     0.345 HD
ATOM     12  H   UNL     1      21.980  32.134  25.990  1.00  0.00     0.345 HD
ATOM     13  H   UNL     1      21.414  32.417  27.573  1.00  0.00     0.345 HD
ENDBRANCH   9  10
BRANCH   9  14
ATOM     14  C   UNL     1      20.512  30.224  28.230  1.00  0.00     0.099 C 
ATOM     15  O   UNL     1      19.581  29.380  28.295  1.00  0.00    -0.544 OA
ATOM     16  O   UNL     1      20.857  30.952  29.363  1.00  0.00    -0.544 OA
ENDBRANCH   9  14
ENDBRANCH   8   9
ENDBRANCH   1   8
TORSDOF 7
ENDMDL
MODEL 8
REMARK VINA RESULT:    -3.115      2.757      4.153
REMARK INTER + INTRA:          -4.627
REMARK INTER:                  -4.089
REMARK INTRA:                  -0.539
REMARK UNBOUND:                -0.420
REMARK SMILES [NH3+]CCCC[C@H]([NH3+])C(=O)[O-]
REMARK SMILES IDX 4 1 3 2 2 3 1 4 5 8 6 9 7 10 8 14 9 15 10 16
REMARK H PARENT 1 5 1 6 1 7 7 11 7 12 7 13
REMARK Flexibility Score: inf
ROOT
ATOM      1  C   UNL     1      23.981  28.983  24.877  1.00  0.00     0.012 C 
ENDROOT
BRANCH   1   2
ATOM      2  C   UNL     1      22.984  27.917  24.381  1.00  0.00     0.061 C 
BRANCH   2   3
ATOM      3  C   UNL     1      23.136  26.533  25.039  1.00  0.00     0.258 C 
BRANCH   3   4
ATOM      4  N   UNL     1      22.098  26.278  26.038  1.00  0.00    -0.358 N 
ATOM      5  H   UNL     1      22.494  26.357  27.002  1.00  0.00     0.344 HD
ATOM      6  H   UNL     1      21.305  26.949  25.921  1.00  0.00     0.344 HD
ATOM      7  H   UNL     1      21.736  25.306  25.910  1.00  0.00     0.344 HD
ENDBRANCH   3   4
ENDBRANCH   2   3
ENDBRANCH   1   2
BRANCH   1   8
ATOM      8  C   UNL     1      23.621  29.641  26.225  1.00  0.00     0.072 C 
BRANCH   8   9
ATOM      9  C   UNL     1      24.595  29.310  27.380  1.00  0.00     0.227 C 
BRANCH   9  10
ATOM     10  N   UNL     1      25.636  28.383  26.920  1.00  0.00    -0.350 N 
ATOM     11  H   UNL     1      25.488  27.442  27.353  1.00  0.00     0.345 HD
ATOM     12  H   UNL     1      25.582  28.276  25.881  1.00  0.00     0.345 HD
ATOM     13  H   UNL     1      26.586  28.734  27.181  1.00  0.00     0.345 HD
ENDBRANCH   9  10
BRANCH   9  14
ATOM     14  C   UNL     1      23.863  28.715  28.555  1.00  0.00     0.099 C 
ATOM     15  O   UNL     1      23.190  27.661  28.414  1.00  0.00    -0.544 OA
ATOM     16  O   UNL     1      23.928  29.324  29.803  1.00  0.00    -0.544 OA
ENDBRANCH   9  14
ENDBRANCH   8   9
ENDBRANCH   1   8
TORSDOF 7
ENDMDL
MODEL 9
REMARK VINA RESULT:    -3.029      2.479      3.736
REMARK INTER + INTRA:          -4.512
REMARK INTER:                  -4.108
REMARK INTRA:                  -0.403
REMARK UNBOUND:                -0.420
REMARK SMILES [NH3+]CCCC[C@H]([NH3+])C(=O)[O-]
REMARK SMILES IDX 4 1 3 2 2 3 1 4 5 8 6 9 7 10 8 14 9 15 10 16
REMARK H PARENT 1 5 1 6 1 7 7 11 7 12 7 13
REMARK Flexibility Score: inf
ROOT
ATOM      1  C   UNL     1      20.579  31.127  29.256  1.00  0.00     0.012 C 
ENDROOT
BRANCH   1   2
ATOM      2  C   UNL     1      19.816  31.420  27.949  1.00  0.00     0.061 C 
BRANCH   2   3
ATOM      3  C   UNL     1      20.674  31.359  26.672  1.00  0.00     0.258 C 
BRANCH   3   4
ATOM      4  N   UNL     1      22.104  31.481  26.959  1.00  0.00    -0.358 N 
ATOM      5  H   UNL     1      22.629  31.729  26.090  1.00  0.00     0.344 HD
ATOM      6  H   UNL     1      22.268  32.204  27.696  1.00  0.00     0.344 HD
ATOM      7  H   UNL     1      22.459  30.561  27.306  1.00  0.00     0.344 HD
ENDBRANCH   3   4
ENDBRANCH   2   3
ENDBRANCH   1   2
BRANCH   1   8
ATOM      8  C   UNL     1      20.712  29.634  29.619  1.00  0.00     0.072 C 
BRANCH   8   9
ATOM      9  C   UNL     1      22.080  29.240  30.223  1.00  0.00     0.227 C 
BRANCH   9  10
ATOM     10  N   UNL     1      22.561  30.293  31.125  1.00  0.00    -0.350 N 
ATOM     11  H   UNL     1      21.835  30.499  31.849  1.00  0.00     0.345 HD
ATOM     12  H   UNL     1      23.428  29.973  31.615  1.00  0.00     0.345 HD
ATOM     13  H   UNL     1      22.771  31.170  30.593  1.00  0.00     0.345 HD
ENDBRANCH   9  10
BRANCH   9  14
ATOM     14  C   UNL     1      23.098  28.986  29.143  1.00  0.00     0.099 C 
ATOM     15  O   UNL     1      24.320  29.192  29.364  1.00  0.00    -0.544 OA
ATOM     16  O   UNL     1      22.697  28.518  27.897  1.00  0.00    -0.544 OA
ENDBRANCH   9  14
ENDBRANCH   8   9
ENDBRANCH   1   8
TORSDOF 7
ENDMDL
