MODEL 1
REMARK VINA RESULT:    -5.117      0.000      0.000
REMARK INTER + INTRA:         -15.476
REMARK INTER:                 -12.895
REMARK INTRA:                  -2.581
REMARK UNBOUND:                -2.581
REMARK SMILES CCCCCCCCCCCCCCCCCCCCCCCCCCCC(=O)[O-]
REMARK SMILES IDX 15 1 16 2 17 3 18 4 19 5 20 6 21 7 22 8 23 9 24 10 25 11
REMARK SMILES IDX 26 12 27 13 28 14 29 15 30 16 14 17 13 18 12 19 11 20 10 21
REMARK SMILES IDX 9 22 8 23 7 24 6 25 5 26 4 27 3 28 2 29 1 30
REMARK H PARENT
REMARK Flexibility Score: inf
ROOT
ATOM      1  C   UNL     1      -5.497  -4.404  29.696  1.00  0.00     0.000 C 
ENDROOT
BRANCH   1   2
ATOM      2  C   UNL     1      -5.259  -5.064  28.321  1.00  0.00     0.000 C 
BRANCH   2   3
ATOM      3  C   UNL     1      -5.889  -6.461  28.186  1.00  0.00     0.000 C 
BRANCH   3   4
ATOM      4  C   UNL     1      -5.785  -7.289  29.475  1.00  0.00     0.000 C 
BRANCH   4   5
ATOM      5  C   UNL     1      -6.245  -8.749  29.280  1.00  0.00     0.000 C 
BRANCH   5   6
ATOM      6  C   UNL     1      -5.309  -9.782  29.936  1.00  0.00     0.000 C 
BRANCH   6   7
ATOM      7  C   UNL     1      -4.653 -10.777  28.960  1.00  0.00     0.000 C 
BRANCH   7   8
ATOM      8  C   UNL     1      -4.974 -10.539  27.473  1.00  0.00     0.000 C 
BRANCH   8   9
ATOM      9  C   UNL     1      -5.008 -11.841  26.654  1.00  0.00     0.000 C 
BRANCH   9  10
ATOM     10  C   UNL     1      -4.066 -11.811  25.438  1.00  0.00     0.000 C 
BRANCH  10  11
ATOM     11  C   UNL     1      -3.430 -13.166  25.066  1.00  0.00     0.000 C 
BRANCH  11  12
ATOM     12  C   UNL     1      -2.057 -13.443  25.700  1.00  0.00     0.006 C 
BRANCH  12  13
ATOM     13  C   UNL     1      -1.095 -12.253  25.581  1.00  0.00     0.053 C 
BRANCH  13  14
ATOM     14  C   UNL     1      -0.717 -11.745  26.937  1.00  0.00     0.041 C 
ATOM     15  O   UNL     1       0.260 -10.962  27.072  1.00  0.00    -0.550 OA
ATOM     16  O   UNL     1      -1.425 -12.162  28.059  1.00  0.00    -0.550 OA
ENDBRANCH  13  14
ENDBRANCH  12  13
ENDBRANCH  11  12
ENDBRANCH  10  11
ENDBRANCH   9  10
ENDBRANCH   8   9
ENDBRANCH   7   8
ENDBRANCH   6   7
ENDBRANCH   5   6
ENDBRANCH   4   5
ENDBRANCH   3   4
ENDBRANCH   2   3
ENDBRANCH   1   2
BRANCH   1  17
ATOM     17  C   UNL     1      -5.020  -2.939  29.736  1.00  0.00     0.000 C 
BRANCH  17  18
ATOM     18  C   UNL     1      -5.334  -2.186  28.427  1.00  0.00     0.000 C 
BRANCH  18  19
ATOM     19  C   UNL     1      -4.802  -0.743  28.402  1.00  0.00     0.000 C 
BRANCH  19  20
ATOM     20  C   UNL     1      -5.777   0.267  29.026  1.00  0.00     0.000 C 
BRANCH  20  21
ATOM     21  C   UNL     1      -5.029   1.321  29.850  1.00  0.00     0.000 C 
BRANCH  21  22
ATOM     22  C   UNL     1      -3.501   1.144  29.813  1.00  0.00    -0.000 C 
BRANCH  22  23
ATOM     23  C   UNL     1      -2.712   2.460  29.642  1.00  0.00    -0.000 C 
BRANCH  23  24
ATOM     24  C   UNL     1      -1.279   2.242  29.119  1.00  0.00    -0.000 C 
BRANCH  24  25
ATOM     25  C   UNL     1      -1.240   1.940  27.610  1.00  0.00    -0.000 C 
BRANCH  25  26
ATOM     26  C   UNL     1      -0.327   0.765  27.209  1.00  0.00    -0.000 C 
BRANCH  26  27
ATOM     27  C   UNL     1      -1.090  -0.555  26.972  1.00  0.00    -0.000 C 
BRANCH  27  28
ATOM     28  C   UNL     1      -1.314  -1.339  28.276  1.00  0.00    -0.000 C 
BRANCH  28  29
ATOM     29  C   UNL     1      -0.680  -2.738  28.243  1.00  0.00    -0.003 C 
ATOM     30  C   UNL     1      -1.545  -3.793  28.933  1.00  0.00     0.004 C 
ENDBRANCH  28  29
ENDBRANCH  27  28
ENDBRANCH  26  27
ENDBRANCH  25  26
ENDBRANCH  24  25
ENDBRANCH  23  24
ENDBRANCH  22  23
ENDBRANCH  21  22
ENDBRANCH  20  21
ENDBRANCH  19  20
ENDBRANCH  18  19
ENDBRANCH  17  18
ENDBRANCH   1  17
TORSDOF 26
ENDMDL
MODEL 2
REMARK VINA RESULT:    -4.948      1.504      2.231
REMARK INTER + INTRA:         -15.048
REMARK INTER:                 -12.443
REMARK INTRA:                  -2.606
REMARK UNBOUND:                -2.581
REMARK SMILES CCCCCCCCCCCCCCCCCCCCCCCCCCCC(=O)[O-]
REMARK SMILES IDX 15 1 16 2 17 3 18 4 19 5 20 6 21 7 22 8 23 9 24 10 25 11
REMARK SMILES IDX 26 12 27 13 28 14 29 15 30 16 14 17 13 18 12 19 11 20 10 21
REMARK SMILES IDX 9 22 8 23 7 24 6 25 5 26 4 27 3 28 2 29 1 30
REMARK H PARENT
REMARK Flexibility Score: inf
ROOT
ATOM      1  C   UNL     1      -5.414  -5.758  29.028  1.00  0.00     0.000 C 
ENDROOT
BRANCH   1   2
ATOM      2  C   UNL     1      -6.095  -7.050  28.529  1.00  0.00     0.000 C 
BRANCH   2   3
ATOM      3  C   UNL     1      -6.069  -8.199  29.553  1.00  0.00     0.000 C 
BRANCH   3   4
ATOM      4  C   UNL     1      -5.709  -9.552  28.920  1.00  0.00     0.000 C 
BRANCH   4   5
ATOM      5  C   UNL     1      -4.768 -10.390  29.812  1.00  0.00     0.000 C 
BRANCH   5   6
ATOM      6  C   UNL     1      -4.193 -11.631  29.103  1.00  0.00     0.000 C 
BRANCH   6   7
ATOM      7  C   UNL     1      -3.633 -11.372  27.692  1.00  0.00     0.000 C 
BRANCH   7   8
ATOM      8  C   UNL     1      -4.630 -11.608  26.541  1.00  0.00     0.000 C 
BRANCH   8   9
ATOM      9  C   UNL     1      -4.700 -13.082  26.106  1.00  0.00     0.000 C 
BRANCH   9  10
ATOM     10  C   UNL     1      -3.525 -13.499  25.205  1.00  0.00     0.000 C 
BRANCH  10  11
ATOM     11  C   UNL     1      -3.127 -12.473  24.125  1.00  0.00     0.000 C 
BRANCH  11  12
ATOM     12  C   UNL     1      -1.625 -12.153  24.047  1.00  0.00     0.006 C 
BRANCH  12  13
ATOM     13  C   UNL     1      -0.889 -12.424  25.366  1.00  0.00     0.053 C 
BRANCH  13  14
ATOM     14  C   UNL     1       0.531 -11.960  25.279  1.00  0.00     0.041 C 
ATOM     15  O   UNL     1       1.460 -12.662  25.760  1.00  0.00    -0.550 OA
ATOM     16  O   UNL     1       0.829 -10.734  24.695  1.00  0.00    -0.550 OA
ENDBRANCH  13  14
ENDBRANCH  12  13
ENDBRANCH  11  12
ENDBRANCH  10  11
ENDBRANCH   9  10
ENDBRANCH   8   9
ENDBRANCH   7   8
ENDBRANCH   6   7
ENDBRANCH   5   6
ENDBRANCH   4   5
ENDBRANCH   3   4
ENDBRANCH   2   3
ENDBRANCH   1   2
BRANCH   1  17
ATOM     17  C   UNL     1      -5.762  -4.536  28.157  1.00  0.00     0.000 C 
BRANCH  17  18
ATOM     18  C   UNL     1      -5.767  -3.222  28.968  1.00  0.00     0.000 C 
BRANCH  18  19
ATOM     19  C   UNL     1      -5.188  -2.022  28.200  1.00  0.00     0.000 C 
BRANCH  19  20
ATOM     20  C   UNL     1      -4.868  -0.826  29.109  1.00  0.00     0.000 C 
BRANCH  20  21
ATOM     21  C   UNL     1      -3.427  -0.344  28.900  1.00  0.00     0.000 C 
BRANCH  21  22
ATOM     22  C   UNL     1      -2.865  -0.701  27.513  1.00  0.00    -0.000 C 
BRANCH  22  23
ATOM     23  C   UNL     1      -1.473  -0.105  27.219  1.00  0.00    -0.000 C 
BRANCH  23  24
ATOM     24  C   UNL     1      -0.859   0.626  28.429  1.00  0.00    -0.000 C 
BRANCH  24  25
ATOM     25  C   UNL     1       0.318  -0.146  29.051  1.00  0.00    -0.000 C 
BRANCH  25  26
ATOM     26  C   UNL     1       1.199  -0.905  28.041  1.00  0.00    -0.000 C 
BRANCH  26  27
ATOM     27  C   UNL     1       1.300  -2.418  28.326  1.00  0.00    -0.000 C 
BRANCH  27  28
ATOM     28  C   UNL     1       0.151  -2.920  29.217  1.00  0.00    -0.000 C 
BRANCH  28  29
ATOM     29  C   UNL     1      -0.948  -3.638  28.421  1.00  0.00    -0.003 C 
ATOM     30  C   UNL     1      -2.127  -4.062  29.295  1.00  0.00     0.004 C 
ENDBRANCH  28  29
ENDBRANCH  27  28
ENDBRANCH  26  27
ENDBRANCH  25  26
ENDBRANCH  24  25
ENDBRANCH  23  24
ENDBRANCH  22  23
ENDBRANCH  21  22
ENDBRANCH  20  21
ENDBRANCH  19  20
ENDBRANCH  18  19
ENDBRANCH  17  18
ENDBRANCH   1  17
TORSDOF 26
ENDMDL
MODEL 3
REMARK VINA RESULT:    -4.934      1.850      2.512
REMARK INTER + INTRA:         -15.014
REMARK INTER:                 -12.710
REMARK INTRA:                  -2.304
REMARK UNBOUND:                -2.581
REMARK SMILES CCCCCCCCCCCCCCCCCCCCCCCCCCCC(=O)[O-]
REMARK SMILES IDX 15 1 16 2 17 3 18 4 19 5 20 6 21 7 22 8 23 9 24 10 25 11
REMARK SMILES IDX 26 12 27 13 28 14 29 15 30 16 14 17 13 18 12 19 11 20 10 21
REMARK SMILES IDX 9 22 8 23 7 24 6 25 5 26 4 27 3 28 2 29 1 30
REMARK H PARENT
REMARK Flexibility Score: inf
ROOT
ATOM      1  C   UNL     1      -5.387  -5.055  28.233  1.00  0.00     0.000 C 
ENDROOT
BRANCH   1   2
ATOM      2  C   UNL     1      -5.983  -6.478  28.170  1.00  0.00     0.000 C 
BRANCH   2   3
ATOM      3  C   UNL     1      -5.692  -7.329  29.418  1.00  0.00     0.000 C 
BRANCH   3   4
ATOM      4  C   UNL     1      -6.372  -8.706  29.372  1.00  0.00     0.000 C 
BRANCH   4   5
ATOM      5  C   UNL     1      -5.365  -9.857  29.166  1.00  0.00     0.000 C 
BRANCH   5   6
ATOM      6  C   UNL     1      -5.142 -10.221  27.685  1.00  0.00     0.000 C 
BRANCH   6   7
ATOM      7  C   UNL     1      -4.264 -11.464  27.446  1.00  0.00     0.000 C 
BRANCH   7   8
ATOM      8  C   UNL     1      -4.569 -12.238  26.150  1.00  0.00     0.000 C 
BRANCH   8   9
ATOM      9  C   UNL     1      -3.452 -12.105  25.100  1.00  0.00     0.000 C 
BRANCH   9  10
ATOM     10  C   UNL     1      -2.472 -13.291  25.112  1.00  0.00     0.000 C 
BRANCH  10  11
ATOM     11  C   UNL     1      -0.979 -12.910  25.161  1.00  0.00     0.000 C 
BRANCH  11  12
ATOM     12  C   UNL     1      -0.544 -11.833  24.153  1.00  0.00     0.006 C 
BRANCH  12  13
ATOM     13  C   UNL     1      -0.539 -12.340  22.704  1.00  0.00     0.053 C 
BRANCH  13  14
ATOM     14  C   UNL     1       0.664 -11.831  21.974  1.00  0.00     0.041 C 
ATOM     15  O   UNL     1       0.703 -11.864  20.716  1.00  0.00    -0.550 OA
ATOM     16  O   UNL     1       1.757 -11.348  22.684  1.00  0.00    -0.550 OA
ENDBRANCH  13  14
ENDBRANCH  12  13
ENDBRANCH  11  12
ENDBRANCH  10  11
ENDBRANCH   9  10
ENDBRANCH   8   9
ENDBRANCH   7   8
ENDBRANCH   6   7
ENDBRANCH   5   6
ENDBRANCH   4   5
ENDBRANCH   3   4
ENDBRANCH   2   3
ENDBRANCH   1   2
BRANCH   1  17
ATOM     17  C   UNL     1      -5.449  -4.454  29.651  1.00  0.00     0.000 C 
BRANCH  17  18
ATOM     18  C   UNL     1      -5.043  -2.966  29.673  1.00  0.00     0.000 C 
BRANCH  18  19
ATOM     19  C   UNL     1      -5.248  -2.250  28.327  1.00  0.00     0.000 C 
BRANCH  19  20
ATOM     20  C   UNL     1      -4.601  -0.858  28.283  1.00  0.00     0.000 C 
BRANCH  20  21
ATOM     21  C   UNL     1      -5.417   0.156  29.093  1.00  0.00     0.000 C 
BRANCH  21  22
ATOM     22  C   UNL     1      -4.549   1.245  29.747  1.00  0.00    -0.000 C 
BRANCH  22  23
ATOM     23  C   UNL     1      -3.035   0.944  29.736  1.00  0.00    -0.000 C 
BRANCH  23  24
ATOM     24  C   UNL     1      -2.192   2.107  29.176  1.00  0.00    -0.000 C 
BRANCH  24  25
ATOM     25  C   UNL     1      -1.225   1.655  28.068  1.00  0.00    -0.000 C 
BRANCH  25  26
ATOM     26  C   UNL     1      -1.143   0.130  27.863  1.00  0.00    -0.000 C 
BRANCH  26  27
ATOM     27  C   UNL     1       0.198  -0.483  28.319  1.00  0.00    -0.000 C 
BRANCH  27  28
ATOM     28  C   UNL     1       0.092  -1.998  28.562  1.00  0.00    -0.000 C 
BRANCH  28  29
ATOM     29  C   UNL     1      -1.324  -2.539  28.325  1.00  0.00    -0.003 C 
ATOM     30  C   UNL     1      -1.569  -3.877  29.023  1.00  0.00     0.004 C 
ENDBRANCH  28  29
ENDBRANCH  27  28
ENDBRANCH  26  27
ENDBRANCH  25  26
ENDBRANCH  24  25
ENDBRANCH  23  24
ENDBRANCH  22  23
ENDBRANCH  21  22
ENDBRANCH  20  21
ENDBRANCH  19  20
ENDBRANCH  18  19
ENDBRANCH  17  18
ENDBRANCH   1  17
TORSDOF 26
ENDMDL
MODEL 4
REMARK VINA RESULT:    -4.801      2.557     10.910
REMARK INTER + INTRA:         -14.679
REMARK INTER:                 -12.276
REMARK INTRA:                  -2.403
REMARK UNBOUND:                -2.581
REMARK SMILES CCCCCCCCCCCCCCCCCCCCCCCCCCCC(=O)[O-]
REMARK SMILES IDX 15 1 16 2 17 3 18 4 19 5 20 6 21 7 22 8 23 9 24 10 25 11
REMARK SMILES IDX 26 12 27 13 28 14 29 15 30 16 14 17 13 18 12 19 11 20 10 21
REMARK SMILES IDX 9 22 8 23 7 24 6 25 5 26 4 27 3 28 2 29 1 30
REMARK H PARENT
REMARK Flexibility Score: inf
ROOT
ATOM      1  C   UNL     1      -6.102  -7.602  28.652  1.00  0.00     0.000 C 
ENDROOT
BRANCH   1   2
ATOM      2  C   UNL     1      -5.701  -6.223  29.219  1.00  0.00     0.000 C 
BRANCH   2   3
ATOM      3  C   UNL     1      -5.340  -5.189  28.138  1.00  0.00     0.000 C 
BRANCH   3   4
ATOM      4  C   UNL     1      -4.389  -4.098  28.652  1.00  0.00     0.000 C 
BRANCH   4   5
ATOM      5  C   UNL     1      -5.141  -2.860  29.183  1.00  0.00     0.000 C 
BRANCH   5   6
ATOM      6  C   UNL     1      -4.880  -1.582  28.361  1.00  0.00     0.000 C 
BRANCH   6   7
ATOM      7  C   UNL     1      -5.446  -0.288  28.976  1.00  0.00     0.000 C 
BRANCH   7   8
ATOM      8  C   UNL     1      -4.388   0.741  29.418  1.00  0.00     0.000 C 
BRANCH   8   9
ATOM      9  C   UNL     1      -2.956   0.183  29.364  1.00  0.00     0.000 C 
BRANCH   9  10
ATOM     10  C   UNL     1      -1.913   1.242  28.968  1.00  0.00     0.000 C 
BRANCH  10  11
ATOM     11  C   UNL     1      -1.050   0.889  27.739  1.00  0.00     0.000 C 
BRANCH  11  12
ATOM     12  C   UNL     1      -1.454  -0.400  27.004  1.00  0.00     0.006 C 
BRANCH  12  13
ATOM     13  C   UNL     1      -0.279  -1.368  26.809  1.00  0.00     0.053 C 
BRANCH  13  14
ATOM     14  C   UNL     1      -0.042  -2.162  28.054  1.00  0.00     0.041 C 
ATOM     15  O   UNL     1      -1.000  -2.747  28.626  1.00  0.00    -0.550 OA
ATOM     16  O   UNL     1       1.233  -2.232  28.604  1.00  0.00    -0.550 OA
ENDBRANCH  13  14
ENDBRANCH  12  13
ENDBRANCH  11  12
ENDBRANCH  10  11
ENDBRANCH   9  10
ENDBRANCH   8   9
ENDBRANCH   7   8
ENDBRANCH   6   7
ENDBRANCH   5   6
ENDBRANCH   4   5
ENDBRANCH   3   4
ENDBRANCH   2   3
ENDBRANCH   1   2
BRANCH   1  17
ATOM     17  C   UNL     1      -6.184  -8.686  29.744  1.00  0.00     0.000 C 
BRANCH  17  18
ATOM     18  C   UNL     1      -5.354  -9.938  29.390  1.00  0.00     0.000 C 
BRANCH  18  19
ATOM     19  C   UNL     1      -5.283 -10.224  27.880  1.00  0.00     0.000 C 
BRANCH  19  20
ATOM     20  C   UNL     1      -4.200 -11.250  27.514  1.00  0.00     0.000 C 
BRANCH  20  21
ATOM     21  C   UNL     1      -3.707 -11.999  28.758  1.00  0.00     0.000 C 
BRANCH  21  22
ATOM     22  C   UNL     1      -2.244 -11.680  29.115  1.00  0.00    -0.000 C 
BRANCH  22  23
ATOM     23  C   UNL     1      -1.281 -11.680  27.909  1.00  0.00    -0.000 C 
BRANCH  23  24
ATOM     24  C   UNL     1      -0.719 -13.077  27.584  1.00  0.00    -0.000 C 
BRANCH  24  25
ATOM     25  C   UNL     1      -0.323 -13.226  26.104  1.00  0.00    -0.000 C 
BRANCH  25  26
ATOM     26  C   UNL     1      -0.765 -12.061  25.197  1.00  0.00    -0.000 C 
BRANCH  26  27
ATOM     27  C   UNL     1      -0.857 -12.443  23.705  1.00  0.00    -0.000 C 
BRANCH  27  28
ATOM     28  C   UNL     1      -2.233 -13.022  23.337  1.00  0.00    -0.000 C 
BRANCH  28  29
ATOM     29  C   UNL     1      -3.292 -12.768  24.419  1.00  0.00    -0.003 C 
ATOM     30  C   UNL     1      -3.852 -14.062  25.011  1.00  0.00     0.004 C 
ENDBRANCH  28  29
ENDBRANCH  27  28
ENDBRANCH  26  27
ENDBRANCH  25  26
ENDBRANCH  24  25
ENDBRANCH  23  24
ENDBRANCH  22  23
ENDBRANCH  21  22
ENDBRANCH  20  21
ENDBRANCH  19  20
ENDBRANCH  18  19
ENDBRANCH  17  18
ENDBRANCH   1  17
TORSDOF 26
ENDMDL
MODEL 5
REMARK VINA RESULT:    -4.782      2.594     10.903
REMARK INTER + INTRA:         -14.632
REMARK INTER:                 -12.628
REMARK INTRA:                  -2.005
REMARK UNBOUND:                -2.581
REMARK SMILES CCCCCCCCCCCCCCCCCCCCCCCCCCCC(=O)[O-]
REMARK SMILES IDX 15 1 16 2 17 3 18 4 19 5 20 6 21 7 22 8 23 9 24 10 25 11
REMARK SMILES IDX 26 12 27 13 28 14 29 15 30 16 14 17 13 18 12 19 11 20 10 21
REMARK SMILES IDX 9 22 8 23 7 24 6 25 5 26 4 27 3 28 2 29 1 30
REMARK H PARENT
REMARK Flexibility Score: inf
ROOT
ATOM      1  C   UNL     1      -6.100  -7.615  28.708  1.00  0.00     0.000 C 
ENDROOT
BRANCH   1   2
ATOM      2  C   UNL     1      -5.715  -6.215  29.232  1.00  0.00     0.000 C 
BRANCH   2   3
ATOM      3  C   UNL     1      -5.369  -5.210  28.119  1.00  0.00     0.000 C 
BRANCH   3   4
ATOM      4  C   UNL     1      -4.509  -4.039  28.619  1.00  0.00     0.000 C 
BRANCH   4   5
ATOM      5  C   UNL     1      -5.357  -2.823  29.048  1.00  0.00     0.000 C 
BRANCH   5   6
ATOM      6  C   UNL     1      -4.983  -1.522  28.311  1.00  0.00     0.000 C 
BRANCH   6   7
ATOM      7  C   UNL     1      -5.444  -0.227  29.006  1.00  0.00     0.000 C 
BRANCH   7   8
ATOM      8  C   UNL     1      -4.313   0.754  29.372  1.00  0.00     0.000 C 
BRANCH   8   9
ATOM      9  C   UNL     1      -2.914   0.131  29.225  1.00  0.00     0.000 C 
BRANCH   9  10
ATOM     10  C   UNL     1      -1.830   1.165  28.877  1.00  0.00     0.000 C 
BRANCH  10  11
ATOM     11  C   UNL     1      -0.975   0.831  27.637  1.00  0.00     0.000 C 
BRANCH  11  12
ATOM     12  C   UNL     1      -1.329  -0.491  26.935  1.00  0.00     0.006 C 
BRANCH  12  13
ATOM     13  C   UNL     1      -0.184  -1.512  26.976  1.00  0.00     0.053 C 
BRANCH  13  14
ATOM     14  C   UNL     1      -0.212  -2.280  28.260  1.00  0.00     0.041 C 
ATOM     15  O   UNL     1      -1.237  -2.935  28.587  1.00  0.00    -0.550 OA
ATOM     16  O   UNL     1       0.884  -2.247  29.115  1.00  0.00    -0.550 OA
ENDBRANCH  13  14
ENDBRANCH  12  13
ENDBRANCH  11  12
ENDBRANCH  10  11
ENDBRANCH   9  10
ENDBRANCH   8   9
ENDBRANCH   7   8
ENDBRANCH   6   7
ENDBRANCH   5   6
ENDBRANCH   4   5
ENDBRANCH   3   4
ENDBRANCH   2   3
ENDBRANCH   1   2
BRANCH   1  17
ATOM     17  C   UNL     1      -6.090  -8.682  29.820  1.00  0.00     0.000 C 
BRANCH  17  18
ATOM     18  C   UNL     1      -5.322  -9.954  29.402  1.00  0.00     0.000 C 
BRANCH  18  19
ATOM     19  C   UNL     1      -5.312 -10.197  27.883  1.00  0.00     0.000 C 
BRANCH  19  20
ATOM     20  C   UNL     1      -4.284 -11.253  27.451  1.00  0.00     0.000 C 
BRANCH  20  21
ATOM     21  C   UNL     1      -4.493 -11.662  25.988  1.00  0.00     0.000 C 
BRANCH  21  22
ATOM     22  C   UNL     1      -3.864 -13.024  25.646  1.00  0.00    -0.000 C 
BRANCH  22  23
ATOM     23  C   UNL     1      -2.428 -12.939  25.089  1.00  0.00    -0.000 C 
BRANCH  23  24
ATOM     24  C   UNL     1      -2.383 -12.662  23.573  1.00  0.00    -0.000 C 
BRANCH  24  25
ATOM     25  C   UNL     1      -1.100 -13.197  22.912  1.00  0.00    -0.000 C 
BRANCH  25  26
ATOM     26  C   UNL     1       0.153 -13.160  23.809  1.00  0.00    -0.000 C 
BRANCH  26  27
ATOM     27  C   UNL     1       0.986 -11.871  23.650  1.00  0.00    -0.000 C 
BRANCH  27  28
ATOM     28  C   UNL     1       0.655 -10.828  24.731  1.00  0.00    -0.000 C 
BRANCH  28  29
ATOM     29  C   UNL     1       1.116 -11.257  26.131  1.00  0.00    -0.003 C 
ATOM     30  C   UNL     1      -0.026 -11.283  27.146  1.00  0.00     0.004 C 
ENDBRANCH  28  29
ENDBRANCH  27  28
ENDBRANCH  26  27
ENDBRANCH  25  26
ENDBRANCH  24  25
ENDBRANCH  23  24
ENDBRANCH  22  23
ENDBRANCH  21  22
ENDBRANCH  20  21
ENDBRANCH  19  20
ENDBRANCH  18  19
ENDBRANCH  17  18
ENDBRANCH   1  17
TORSDOF 26
ENDMDL
MODEL 6
REMARK VINA RESULT:    -4.765      1.691      2.915
REMARK INTER + INTRA:         -14.589
REMARK INTER:                 -12.083
REMARK INTRA:                  -2.506
REMARK UNBOUND:                -2.581
REMARK SMILES CCCCCCCCCCCCCCCCCCCCCCCCCCCC(=O)[O-]
REMARK SMILES IDX 15 1 16 2 17 3 18 4 19 5 20 6 21 7 22 8 23 9 24 10 25 11
REMARK SMILES IDX 26 12 27 13 28 14 29 15 30 16 14 17 13 18 12 19 11 20 10 21
REMARK SMILES IDX 9 22 8 23 7 24 6 25 5 26 4 27 3 28 2 29 1 30
REMARK H PARENT
REMARK Flexibility Score: inf
ROOT
ATOM      1  C   UNL     1      -5.826  -6.450  28.208  1.00  0.00     0.000 C 
ENDROOT
BRANCH   1   2
ATOM      2  C   UNL     1      -5.748  -7.196  29.557  1.00  0.00     0.000 C 
BRANCH   2   3
ATOM      3  C   UNL     1      -6.378  -8.599  29.528  1.00  0.00     0.000 C 
BRANCH   3   4
ATOM      4  C   UNL     1      -5.341  -9.714  29.327  1.00  0.00     0.000 C 
BRANCH   4   5
ATOM      5  C   UNL     1      -5.334 -10.263  27.885  1.00  0.00     0.000 C 
BRANCH   5   6
ATOM      6  C   UNL     1      -4.118 -11.157  27.573  1.00  0.00     0.000 C 
BRANCH   6   7
ATOM      7  C   UNL     1      -3.613 -12.002  28.758  1.00  0.00     0.000 C 
BRANCH   7   8
ATOM      8  C   UNL     1      -2.210 -11.629  29.274  1.00  0.00     0.000 C 
BRANCH   8   9
ATOM      9  C   UNL     1      -1.121 -12.605  28.798  1.00  0.00     0.000 C 
BRANCH   9  10
ATOM     10  C   UNL     1      -0.010 -11.917  27.986  1.00  0.00     0.000 C 
BRANCH  10  11
ATOM     11  C   UNL     1      -0.409 -11.486  26.560  1.00  0.00     0.000 C 
BRANCH  11  12
ATOM     12  C   UNL     1      -1.181 -12.541  25.748  1.00  0.00     0.006 C 
BRANCH  12  13
ATOM     13  C   UNL     1      -1.258 -12.203  24.253  1.00  0.00     0.053 C 
BRANCH  13  14
ATOM     14  C   UNL     1      -2.607 -12.550  23.706  1.00  0.00     0.041 C 
ATOM     15  O   UNL     1      -3.649 -12.245  24.344  1.00  0.00    -0.550 OA
ATOM     16  O   UNL     1      -2.714 -13.241  22.504  1.00  0.00    -0.550 OA
ENDBRANCH  13  14
ENDBRANCH  12  13
ENDBRANCH  11  12
ENDBRANCH  10  11
ENDBRANCH   9  10
ENDBRANCH   8   9
ENDBRANCH   7   8
ENDBRANCH   6   7
ENDBRANCH   5   6
ENDBRANCH   4   5
ENDBRANCH   3   4
ENDBRANCH   2   3
ENDBRANCH   1   2
BRANCH   1  17
ATOM     17  C   UNL     1      -5.258  -5.020  28.291  1.00  0.00     0.000 C 
BRANCH  17  18
ATOM     18  C   UNL     1      -5.686  -4.296  29.585  1.00  0.00     0.000 C 
BRANCH  18  19
ATOM     19  C   UNL     1      -5.035  -2.914  29.762  1.00  0.00     0.000 C 
BRANCH  19  20
ATOM     20  C   UNL     1      -4.065  -2.558  28.627  1.00  0.00     0.000 C 
BRANCH  20  21
ATOM     21  C   UNL     1      -4.374  -1.171  28.049  1.00  0.00     0.000 C 
BRANCH  21  22
ATOM     22  C   UNL     1      -5.137  -0.264  29.031  1.00  0.00    -0.000 C 
BRANCH  22  23
ATOM     23  C   UNL     1      -4.314   0.926  29.567  1.00  0.00    -0.000 C 
BRANCH  23  24
ATOM     24  C   UNL     1      -2.797   0.658  29.574  1.00  0.00    -0.000 C 
BRANCH  24  25
ATOM     25  C   UNL     1      -2.010   1.695  28.753  1.00  0.00    -0.000 C 
BRANCH  25  26
ATOM     26  C   UNL     1      -0.797   1.128  27.989  1.00  0.00    -0.000 C 
BRANCH  26  27
ATOM     27  C   UNL     1      -1.155  -0.038  27.043  1.00  0.00    -0.000 C 
BRANCH  27  28
ATOM     28  C   UNL     1      -0.162  -1.206  27.159  1.00  0.00    -0.000 C 
BRANCH  28  29
ATOM     29  C   UNL     1      -0.575  -2.231  28.225  1.00  0.00    -0.003 C 
ATOM     30  C   UNL     1       0.572  -2.597  29.167  1.00  0.00     0.004 C 
ENDBRANCH  28  29
ENDBRANCH  27  28
ENDBRANCH  26  27
ENDBRANCH  25  26
ENDBRANCH  24  25
ENDBRANCH  23  24
ENDBRANCH  22  23
ENDBRANCH  21  22
ENDBRANCH  20  21
ENDBRANCH  19  20
ENDBRANCH  18  19
ENDBRANCH  17  18
ENDBRANCH   1  17
TORSDOF 26
ENDMDL
MODEL 7
REMARK VINA RESULT:    -4.759      2.984     11.113
REMARK INTER + INTRA:         -14.573
REMARK INTER:                 -11.856
REMARK INTRA:                  -2.716
REMARK UNBOUND:                -2.581
REMARK SMILES CCCCCCCCCCCCCCCCCCCCCCCCCCCC(=O)[O-]
REMARK SMILES IDX 15 1 16 2 17 3 18 4 19 5 20 6 21 7 22 8 23 9 24 10 25 11
REMARK SMILES IDX 26 12 27 13 28 14 29 15 30 16 14 17 13 18 12 19 11 20 10 21
REMARK SMILES IDX 9 22 8 23 7 24 6 25 5 26 4 27 3 28 2 29 1 30
REMARK H PARENT
REMARK Flexibility Score: inf
ROOT
ATOM      1  C   UNL     1      -5.068 -10.257  27.813  1.00  0.00     0.000 C 
ENDROOT
BRANCH   1   2
ATOM      2  C   UNL     1      -5.372  -9.833  29.266  1.00  0.00     0.000 C 
BRANCH   2   3
ATOM      3  C   UNL     1      -6.421  -8.713  29.378  1.00  0.00     0.000 C 
BRANCH   3   4
ATOM      4  C   UNL     1      -5.792  -7.315  29.468  1.00  0.00     0.000 C 
BRANCH   4   5
ATOM      5  C   UNL     1      -5.862  -6.546  28.132  1.00  0.00     0.000 C 
BRANCH   5   6
ATOM      6  C   UNL     1      -5.384  -5.086  28.236  1.00  0.00     0.000 C 
BRANCH   6   7
ATOM      7  C   UNL     1      -5.505  -4.461  29.639  1.00  0.00     0.000 C 
BRANCH   7   8
ATOM      8  C   UNL     1      -5.109  -2.974  29.727  1.00  0.00     0.000 C 
BRANCH   8   9
ATOM      9  C   UNL     1      -5.415  -2.199  28.434  1.00  0.00     0.000 C 
BRANCH   9  10
ATOM     10  C   UNL     1      -4.709  -0.834  28.370  1.00  0.00     0.000 C 
BRANCH  10  11
ATOM     11  C   UNL     1      -3.383  -0.815  27.583  1.00  0.00     0.000 C 
BRANCH  11  12
ATOM     12  C   UNL     1      -2.112  -0.704  28.441  1.00  0.00     0.006 C 
BRANCH  12  13
ATOM     13  C   UNL     1      -1.221  -1.950  28.351  1.00  0.00     0.053 C 
BRANCH  13  14
ATOM     14  C   UNL     1       0.101  -1.607  27.740  1.00  0.00     0.041 C 
ATOM     15  O   UNL     1       0.958  -0.962  28.401  1.00  0.00    -0.550 OA
ATOM     16  O   UNL     1       0.377  -1.970  26.427  1.00  0.00    -0.550 OA
ENDBRANCH  13  14
ENDBRANCH  12  13
ENDBRANCH  11  12
ENDBRANCH  10  11
ENDBRANCH   9  10
ENDBRANCH   8   9
ENDBRANCH   7   8
ENDBRANCH   6   7
ENDBRANCH   5   6
ENDBRANCH   4   5
ENDBRANCH   3   4
ENDBRANCH   2   3
ENDBRANCH   1   2
BRANCH   1  17
ATOM     17  C   UNL     1      -4.111 -11.462  27.740  1.00  0.00     0.000 C 
BRANCH  17  18
ATOM     18  C   UNL     1      -3.343 -11.680  29.061  1.00  0.00     0.000 C 
BRANCH  18  19
ATOM     19  C   UNL     1      -1.815 -11.719  28.887  1.00  0.00     0.000 C 
BRANCH  19  20
ATOM     20  C   UNL     1      -1.381 -11.783  27.416  1.00  0.00     0.000 C 
BRANCH  20  21
ATOM     21  C   UNL     1      -0.537 -13.035  27.143  1.00  0.00     0.000 C 
BRANCH  21  22
ATOM     22  C   UNL     1      -1.229 -14.337  27.584  1.00  0.00    -0.000 C 
BRANCH  22  23
ATOM     23  C   UNL     1      -2.575 -14.611  26.881  1.00  0.00    -0.000 C 
BRANCH  23  24
ATOM     24  C   UNL     1      -2.463 -14.624  25.344  1.00  0.00    -0.000 C 
BRANCH  24  25
ATOM     25  C   UNL     1      -3.406 -13.608  24.675  1.00  0.00    -0.000 C 
BRANCH  25  26
ATOM     26  C   UNL     1      -2.697 -12.460  23.931  1.00  0.00    -0.000 C 
BRANCH  26  27
ATOM     27  C   UNL     1      -1.214 -12.752  23.618  1.00  0.00    -0.000 C 
BRANCH  27  28
ATOM     28  C   UNL     1      -0.343 -11.487  23.699  1.00  0.00    -0.000 C 
BRANCH  28  29
ATOM     29  C   UNL     1       0.944 -11.598  22.870  1.00  0.00    -0.003 C 
ATOM     30  C   UNL     1       0.670 -11.725  21.371  1.00  0.00     0.004 C 
ENDBRANCH  28  29
ENDBRANCH  27  28
ENDBRANCH  26  27
ENDBRANCH  25  26
ENDBRANCH  24  25
ENDBRANCH  23  24
ENDBRANCH  22  23
ENDBRANCH  21  22
ENDBRANCH  20  21
ENDBRANCH  19  20
ENDBRANCH  18  19
ENDBRANCH  17  18
ENDBRANCH   1  17
TORSDOF 26
ENDMDL
MODEL 8
REMARK VINA RESULT:    -4.694      2.540     10.793
REMARK INTER + INTRA:         -14.409
REMARK INTER:                 -12.078
REMARK INTRA:                  -2.331
REMARK UNBOUND:                -2.581
REMARK SMILES CCCCCCCCCCCCCCCCCCCCCCCCCCCC(=O)[O-]
REMARK SMILES IDX 15 1 16 2 17 3 18 4 19 5 20 6 21 7 22 8 23 9 24 10 25 11
REMARK SMILES IDX 26 12 27 13 28 14 29 15 30 16 14 17 13 18 12 19 11 20 10 21
REMARK SMILES IDX 9 22 8 23 7 24 6 25 5 26 4 27 3 28 2 29 1 30
REMARK H PARENT
REMARK Flexibility Score: inf
ROOT
ATOM      1  C   UNL     1      -4.299  -4.267  28.658  1.00  0.00     0.000 C 
ENDROOT
BRANCH   1   2
ATOM      2  C   UNL     1      -4.856  -3.172  29.593  1.00  0.00     0.000 C 
BRANCH   2   3
ATOM      3  C   UNL     1      -5.546  -2.014  28.850  1.00  0.00     0.000 C 
BRANCH   3   4
ATOM      4  C   UNL     1      -4.548  -1.004  28.263  1.00  0.00     0.000 C 
BRANCH   4   5
ATOM      5  C   UNL     1      -4.529   0.329  29.040  1.00  0.00     0.000 C 
BRANCH   5   6
ATOM      6  C   UNL     1      -3.172   0.635  29.702  1.00  0.00     0.000 C 
BRANCH   6   7
ATOM      7  C   UNL     1      -2.828   2.133  29.815  1.00  0.00     0.000 C 
BRANCH   7   8
ATOM      8  C   UNL     1      -1.364   2.491  29.494  1.00  0.00     0.000 C 
BRANCH   8   9
ATOM      9  C   UNL     1      -1.203   3.168  28.122  1.00  0.00     0.000 C 
BRANCH   9  10
ATOM     10  C   UNL     1      -0.659   2.217  27.042  1.00  0.00     0.000 C 
BRANCH  10  11
ATOM     11  C   UNL     1      -0.315   0.795  27.531  1.00  0.00     0.000 C 
BRANCH  11  12
ATOM     12  C   UNL     1      -0.991  -0.347  26.755  1.00  0.00     0.006 C 
BRANCH  12  13
ATOM     13  C   UNL     1      -0.152  -1.632  26.734  1.00  0.00     0.053 C 
BRANCH  13  14
ATOM     14  C   UNL     1      -0.152  -2.281  28.082  1.00  0.00     0.041 C 
ATOM     15  O   UNL     1       0.935  -2.596  28.635  1.00  0.00    -0.550 OA
ATOM     16  O   UNL     1      -1.355  -2.568  28.717  1.00  0.00    -0.550 OA
ENDBRANCH  13  14
ENDBRANCH  12  13
ENDBRANCH  11  12
ENDBRANCH  10  11
ENDBRANCH   9  10
ENDBRANCH   8   9
ENDBRANCH   7   8
ENDBRANCH   6   7
ENDBRANCH   5   6
ENDBRANCH   4   5
ENDBRANCH   3   4
ENDBRANCH   2   3
ENDBRANCH   1   2
BRANCH   1  17
ATOM     17  C   UNL     1      -5.393  -5.237  28.171  1.00  0.00     0.000 C 
BRANCH  17  18
ATOM     18  C   UNL     1      -5.761  -6.287  29.240  1.00  0.00     0.000 C 
BRANCH  18  19
ATOM     19  C   UNL     1      -6.062  -7.679  28.660  1.00  0.00     0.000 C 
BRANCH  19  20
ATOM     20  C   UNL     1      -6.220  -8.758  29.741  1.00  0.00     0.000 C 
BRANCH  20  21
ATOM     21  C   UNL     1      -5.289  -9.947  29.474  1.00  0.00     0.000 C 
BRANCH  21  22
ATOM     22  C   UNL     1      -5.114 -10.254  27.977  1.00  0.00    -0.000 C 
BRANCH  22  23
ATOM     23  C   UNL     1      -4.155 -11.425  27.675  1.00  0.00    -0.000 C 
BRANCH  23  24
ATOM     24  C   UNL     1      -3.178 -11.719  28.830  1.00  0.00    -0.000 C 
BRANCH  24  25
ATOM     25  C   UNL     1      -1.712 -11.772  28.364  1.00  0.00    -0.000 C 
BRANCH  25  26
ATOM     26  C   UNL     1      -1.456 -12.665  27.135  1.00  0.00    -0.000 C 
BRANCH  26  27
ATOM     27  C   UNL     1      -0.510 -12.026  26.095  1.00  0.00    -0.000 C 
BRANCH  27  28
ATOM     28  C   UNL     1      -1.126 -12.003  24.687  1.00  0.00    -0.000 C 
BRANCH  28  29
ATOM     29  C   UNL     1      -2.444 -12.785  24.602  1.00  0.00    -0.003 C 
ATOM     30  C   UNL     1      -3.603 -11.932  24.086  1.00  0.00     0.004 C 
ENDBRANCH  28  29
ENDBRANCH  27  28
ENDBRANCH  26  27
ENDBRANCH  25  26
ENDBRANCH  24  25
ENDBRANCH  23  24
ENDBRANCH  22  23
ENDBRANCH  21  22
ENDBRANCH  20  21
ENDBRANCH  19  20
ENDBRANCH  18  19
ENDBRANCH  17  18
ENDBRANCH   1  17
TORSDOF 26
ENDMDL
MODEL 9
REMARK VINA RESULT:    -4.687      4.240     11.451
REMARK INTER + INTRA:         -14.392
REMARK INTER:                 -11.743
REMARK INTRA:                  -2.649
REMARK UNBOUND:                -2.581
REMARK SMILES CCCCCCCCCCCCCCCCCCCCCCCCCCCC(=O)[O-]
REMARK SMILES IDX 15 1 16 2 17 3 18 4 19 5 20 6 21 7 22 8 23 9 24 10 25 11
REMARK SMILES IDX 26 12 27 13 28 14 29 15 30 16 14 17 13 18 12 19 11 20 10 21
REMARK SMILES IDX 9 22 8 23 7 24 6 25 5 26 4 27 3 28 2 29 1 30
REMARK H PARENT
REMARK Flexibility Score: inf
ROOT
ATOM      1  C   UNL     1      -5.346  -1.939  28.618  1.00  0.00     0.000 C 
ENDROOT
BRANCH   1   2
ATOM      2  C   UNL     1      -4.885  -0.466  28.660  1.00  0.00     0.000 C 
BRANCH   2   3
ATOM      3  C   UNL     1      -3.391  -0.293  28.983  1.00  0.00     0.000 C 
BRANCH   3   4
ATOM      4  C   UNL     1      -2.482  -0.606  27.785  1.00  0.00     0.000 C 
BRANCH   4   5
ATOM      5  C   UNL     1      -1.336  -1.574  28.148  1.00  0.00     0.000 C 
BRANCH   5   6
ATOM      6  C   UNL     1      -0.099  -1.430  27.241  1.00  0.00     0.000 C 
BRANCH   6   7
ATOM      7  C   UNL     1       1.166  -0.906  27.946  1.00  0.00     0.000 C 
BRANCH   7   8
ATOM      8  C   UNL     1       1.123  -0.956  29.485  1.00  0.00     0.000 C 
BRANCH   8   9
ATOM      9  C   UNL     1       0.999   0.438  30.124  1.00  0.00     0.000 C 
BRANCH   9  10
ATOM     10  C   UNL     1       0.957   1.573  29.086  1.00  0.00     0.000 C 
BRANCH  10  11
ATOM     11  C   UNL     1      -0.372   2.353  29.017  1.00  0.00     0.000 C 
BRANCH  11  12
ATOM     12  C   UNL     1      -0.854   2.703  27.600  1.00  0.00     0.006 C 
BRANCH  12  13
ATOM     13  C   UNL     1       0.114   2.229  26.507  1.00  0.00     0.053 C 
BRANCH  13  14
ATOM     14  C   UNL     1       0.649   3.396  25.738  1.00  0.00     0.041 C 
ATOM     15  O   UNL     1       1.892   3.547  25.597  1.00  0.00    -0.550 OA
ATOM     16  O   UNL     1      -0.223   4.337  25.203  1.00  0.00    -0.550 OA
ENDBRANCH  13  14
ENDBRANCH  12  13
ENDBRANCH  11  12
ENDBRANCH  10  11
ENDBRANCH   9  10
ENDBRANCH   8   9
ENDBRANCH   7   8
ENDBRANCH   6   7
ENDBRANCH   5   6
ENDBRANCH   4   5
ENDBRANCH   3   4
ENDBRANCH   2   3
ENDBRANCH   1   2
BRANCH   1  17
ATOM     17  C   UNL     1      -4.614  -2.814  29.653  1.00  0.00     0.000 C 
BRANCH  17  18
ATOM     18  C   UNL     1      -3.860  -3.989  28.996  1.00  0.00     0.000 C 
BRANCH  18  19
ATOM     19  C   UNL     1      -4.764  -4.913  28.162  1.00  0.00     0.000 C 
BRANCH  19  20
ATOM     20  C   UNL     1      -5.743  -5.728  29.020  1.00  0.00     0.000 C 
BRANCH  20  21
ATOM     21  C   UNL     1      -5.804  -7.187  28.552  1.00  0.00     0.000 C 
BRANCH  21  22
ATOM     22  C   UNL     1      -6.059  -8.180  29.699  1.00  0.00    -0.000 C 
BRANCH  22  23
ATOM     23  C   UNL     1      -6.022  -9.664  29.277  1.00  0.00    -0.000 C 
BRANCH  23  24
ATOM     24  C   UNL     1      -5.306  -9.891  27.931  1.00  0.00    -0.000 C 
BRANCH  24  25
ATOM     25  C   UNL     1      -4.228 -10.986  28.013  1.00  0.00    -0.000 C 
BRANCH  25  26
ATOM     26  C   UNL     1      -4.452 -12.186  27.073  1.00  0.00    -0.000 C 
BRANCH  26  27
ATOM     27  C   UNL     1      -4.228 -11.853  25.583  1.00  0.00    -0.000 C 
BRANCH  27  28
ATOM     28  C   UNL     1      -3.488 -12.978  24.840  1.00  0.00    -0.000 C 
BRANCH  28  29
ATOM     29  C   UNL     1      -2.905 -12.518  23.497  1.00  0.00    -0.003 C 
ATOM     30  C   UNL     1      -3.319 -13.421  22.335  1.00  0.00     0.004 C 
ENDBRANCH  28  29
ENDBRANCH  27  28
ENDBRANCH  26  27
ENDBRANCH  25  26
ENDBRANCH  24  25
ENDBRANCH  23  24
ENDBRANCH  22  23
ENDBRANCH  21  22
ENDBRANCH  20  21
ENDBRANCH  19  20
ENDBRANCH  18  19
ENDBRANCH  17  18
ENDBRANCH   1  17
TORSDOF 26
ENDMDL
