MODEL 1
REMARK VINA RESULT:    -4.326      0.000      0.000
REMARK INTER + INTRA:          -5.752
REMARK INTER:                  -5.590
REMARK INTRA:                  -0.162
REMARK UNBOUND:                -0.162
REMARK SMILES CCCCCCC(=O)[O-]
REMARK SMILES IDX 5 1 6 2 7 3 8 4 9 5 4 6 3 7 2 8 1 9
REMARK H PARENT
REMARK Flexibility Score: inf
ROOT
ATOM      1  C   UNL     1     131.403 133.199 133.698  1.00  0.00     0.006 C 
ENDROOT
BRANCH   1   2
ATOM      2  C   UNL     1     131.376 131.824 133.023  1.00  0.00     0.053 C 
BRANCH   2   3
ATOM      3  C   UNL     1     130.013 131.531 132.481  1.00  0.00     0.041 C 
ATOM      4  O   UNL     1     129.081 131.194 133.257  1.00  0.00    -0.550 OA
ATOM      5  O   UNL     1     129.784 131.582 131.111  1.00  0.00    -0.550 OA
ENDBRANCH   2   3
ENDBRANCH   1   2
BRANCH   1   6
ATOM      6  C   UNL     1     132.840 133.731 133.804  1.00  0.00     0.000 C 
BRANCH   6   7
ATOM      7  C   UNL     1     132.916 135.261 133.677  1.00  0.00    -0.000 C 
BRANCH   7   8
ATOM      8  C   UNL     1     131.671 135.860 133.006  1.00  0.00    -0.003 C 
ATOM      9  C   UNL     1     131.608 137.370 133.217  1.00  0.00     0.004 C 
ENDBRANCH   7   8
ENDBRANCH   6   7
ENDBRANCH   1   6
TORSDOF 5
ENDMDL
MODEL 2
REMARK VINA RESULT:    -4.265      2.792      3.397
REMARK INTER + INTRA:          -5.673
REMARK INTER:                  -5.472
REMARK INTRA:                  -0.201
REMARK UNBOUND:                -0.162
REMARK SMILES CCCCCCC(=O)[O-]
REMARK SMILES IDX 5 1 6 2 7 3 8 4 9 5 4 6 3 7 2 8 1 9
REMARK H PARENT
REMARK Flexibility Score: inf
ROOT
ATOM      1  C   UNL     1     132.092 133.440 133.683  1.00  0.00     0.006 C 
ENDROOT
BRANCH   1   2
ATOM      2  C   UNL     1     133.474 133.448 134.344  1.00  0.00     0.053 C 
BRANCH   2   3
ATOM      3  C   UNL     1     134.356 132.407 133.732  1.00  0.00     0.041 C 
ATOM      4  O   UNL     1     135.521 132.704 133.356  1.00  0.00    -0.550 OA
ATOM      5  O   UNL     1     133.874 131.119 133.529  1.00  0.00    -0.550 OA
ENDBRANCH   2   3
ENDBRANCH   1   2
BRANCH   1   6
ATOM      6  C   UNL     1     131.674 134.857 133.266  1.00  0.00     0.000 C 
BRANCH   6   7
ATOM      7  C   UNL     1     132.830 135.866 133.354  1.00  0.00    -0.000 C 
BRANCH   7   8
ATOM      8  C   UNL     1     132.356 137.276 133.738  1.00  0.00    -0.003 C 
ATOM      9  C   UNL     1     131.153 137.697 132.899  1.00  0.00     0.004 C 
ENDBRANCH   7   8
ENDBRANCH   6   7
ENDBRANCH   1   6
TORSDOF 5
ENDMDL
MODEL 3
REMARK VINA RESULT:    -4.205      2.934      4.550
REMARK INTER + INTRA:          -5.596
REMARK INTER:                  -5.332
REMARK INTRA:                  -0.265
REMARK UNBOUND:                -0.162
REMARK SMILES CCCCCCC(=O)[O-]
REMARK SMILES IDX 5 1 6 2 7 3 8 4 9 5 4 6 3 7 2 8 1 9
REMARK H PARENT
REMARK Flexibility Score: inf
ROOT
ATOM      1  C   UNL     1     133.452 133.793 134.374  1.00  0.00     0.006 C 
ENDROOT
BRANCH   1   2
ATOM      2  C   UNL     1     134.848 133.698 133.751  1.00  0.00     0.053 C 
BRANCH   2   3
ATOM      3  C   UNL     1     135.031 132.382 133.065  1.00  0.00     0.041 C 
ATOM      4  O   UNL     1     135.592 132.326 131.939  1.00  0.00    -0.550 OA
ATOM      5  O   UNL     1     134.535 131.221 133.646  1.00  0.00    -0.550 OA
ENDBRANCH   2   3
ENDBRANCH   1   2
BRANCH   1   6
ATOM      6  C   UNL     1     132.389 134.068 133.301  1.00  0.00     0.000 C 
BRANCH   6   7
ATOM      7  C   UNL     1     131.064 133.340 133.579  1.00  0.00    -0.000 C 
BRANCH   7   8
ATOM      8  C   UNL     1     131.081 131.881 133.099  1.00  0.00    -0.003 C 
ATOM      9  C   UNL     1     129.667 131.312 133.026  1.00  0.00     0.004 C 
ENDBRANCH   7   8
ENDBRANCH   6   7
ENDBRANCH   1   6
TORSDOF 5
ENDMDL
MODEL 4
REMARK VINA RESULT:    -4.200      3.034      4.685
REMARK INTER + INTRA:          -5.590
REMARK INTER:                  -5.388
REMARK INTRA:                  -0.202
REMARK UNBOUND:                -0.162
REMARK SMILES CCCCCCC(=O)[O-]
REMARK SMILES IDX 5 1 6 2 7 3 8 4 9 5 4 6 3 7 2 8 1 9
REMARK H PARENT
REMARK Flexibility Score: inf
ROOT
ATOM      1  C   UNL     1     134.112 132.574 133.625  1.00  0.00     0.006 C 
ENDROOT
BRANCH   1   2
ATOM      2  C   UNL     1     133.662 133.732 134.520  1.00  0.00     0.053 C 
BRANCH   2   3
ATOM      3  C   UNL     1     133.594 135.005 133.739  1.00  0.00     0.041 C 
ATOM      4  O   UNL     1     134.652 135.566 133.349  1.00  0.00    -0.550 OA
ATOM      5  O   UNL     1     132.364 135.601 133.486  1.00  0.00    -0.550 OA
ENDBRANCH   2   3
ENDBRANCH   1   2
BRANCH   1   6
ATOM      6  C   UNL     1     133.000 131.524 133.482  1.00  0.00     0.000 C 
BRANCH   6   7
ATOM      7  C   UNL     1     131.840 132.008 132.597  1.00  0.00    -0.000 C 
BRANCH   7   8
ATOM      8  C   UNL     1     130.565 132.298 133.401  1.00  0.00    -0.003 C 
ATOM      9  C   UNL     1     129.470 131.285 133.077  1.00  0.00     0.004 C 
ENDBRANCH   7   8
ENDBRANCH   6   7
ENDBRANCH   1   6
TORSDOF 5
ENDMDL
MODEL 5
REMARK VINA RESULT:    -4.192      4.555      5.585
REMARK INTER + INTRA:          -5.579
REMARK INTER:                  -5.169
REMARK INTRA:                  -0.410
REMARK UNBOUND:                -0.162
REMARK SMILES CCCCCCC(=O)[O-]
REMARK SMILES IDX 5 1 6 2 7 3 8 4 9 5 4 6 3 7 2 8 1 9
REMARK H PARENT
REMARK Flexibility Score: inf
ROOT
ATOM      1  C   UNL     1     135.645 133.161 132.989  1.00  0.00     0.006 C 
ENDROOT
BRANCH   1   2
ATOM      2  C   UNL     1     136.360 134.301 133.720  1.00  0.00     0.053 C 
BRANCH   2   3
ATOM      3  C   UNL     1     136.693 135.408 132.769  1.00  0.00     0.041 C 
ATOM      4  O   UNL     1     135.995 135.587 131.737  1.00  0.00    -0.550 OA
ATOM      5  O   UNL     1     137.804 136.210 132.998  1.00  0.00    -0.550 OA
ENDBRANCH   2   3
ENDBRANCH   1   2
BRANCH   1   6
ATOM      6  C   UNL     1     134.357 132.760 133.724  1.00  0.00     0.000 C 
BRANCH   6   7
ATOM      7  C   UNL     1     133.692 133.945 134.442  1.00  0.00    -0.000 C 
BRANCH   7   8
ATOM      8  C   UNL     1     132.705 134.703 133.543  1.00  0.00    -0.003 C 
ATOM      9  C   UNL     1     133.002 136.200 133.540  1.00  0.00     0.004 C 
ENDBRANCH   7   8
ENDBRANCH   6   7
ENDBRANCH   1   6
TORSDOF 5
ENDMDL
MODEL 6
REMARK VINA RESULT:    -4.185      3.850      5.369
REMARK INTER + INTRA:          -5.569
REMARK INTER:                  -5.398
REMARK INTRA:                  -0.171
REMARK UNBOUND:                -0.162
REMARK SMILES CCCCCCC(=O)[O-]
REMARK SMILES IDX 5 1 6 2 7 3 8 4 9 5 4 6 3 7 2 8 1 9
REMARK H PARENT
REMARK Flexibility Score: inf
ROOT
ATOM      1  C   UNL     1     132.432 133.003 133.673  1.00  0.00     0.006 C 
ENDROOT
BRANCH   1   2
ATOM      2  C   UNL     1     133.489 133.880 134.351  1.00  0.00     0.053 C 
BRANCH   2   3
ATOM      3  C   UNL     1     133.561 135.221 133.692  1.00  0.00     0.041 C 
ATOM      4  O   UNL     1     132.509 135.877 133.474  1.00  0.00    -0.550 OA
ATOM      5  O   UNL     1     134.787 135.723 133.272  1.00  0.00    -0.550 OA
ENDBRANCH   2   3
ENDBRANCH   1   2
BRANCH   1   6
ATOM      6  C   UNL     1     133.055 131.706 133.136  1.00  0.00     0.000 C 
BRANCH   6   7
ATOM      7  C   UNL     1     134.439 131.420 133.741  1.00  0.00    -0.000 C 
BRANCH   7   8
ATOM      8  C   UNL     1     135.470 130.996 132.684  1.00  0.00    -0.003 C 
ATOM      9  C   UNL     1     136.064 129.630 133.014  1.00  0.00     0.004 C 
ENDBRANCH   7   8
ENDBRANCH   6   7
ENDBRANCH   1   6
TORSDOF 5
ENDMDL
MODEL 7
REMARK VINA RESULT:    -4.172      3.492      4.370
REMARK INTER + INTRA:          -5.553
REMARK INTER:                  -5.311
REMARK INTRA:                  -0.242
REMARK UNBOUND:                -0.162
REMARK SMILES CCCCCCC(=O)[O-]
REMARK SMILES IDX 5 1 6 2 7 3 8 4 9 5 4 6 3 7 2 8 1 9
REMARK H PARENT
REMARK Flexibility Score: inf
ROOT
ATOM      1  C   UNL     1     133.350 134.864 133.416  1.00  0.00     0.006 C 
ENDROOT
BRANCH   1   2
ATOM      2  C   UNL     1     133.658 133.735 134.404  1.00  0.00     0.053 C 
BRANCH   2   3
ATOM      3  C   UNL     1     133.898 132.450 133.677  1.00  0.00     0.041 C 
ATOM      4  O   UNL     1     132.931 131.702 133.376  1.00  0.00    -0.550 OA
ATOM      5  O   UNL     1     135.196 132.054 133.376  1.00  0.00    -0.550 OA
ENDBRANCH   2   3
ENDBRANCH   1   2
BRANCH   1   6
ATOM      6  C   UNL     1     134.496 135.886 133.375  1.00  0.00     0.000 C 
BRANCH   6   7
ATOM      7  C   UNL     1     135.677 135.418 132.510  1.00  0.00    -0.000 C 
BRANCH   7   8
ATOM      8  C   UNL     1     136.957 135.194 133.328  1.00  0.00    -0.003 C 
ATOM      9  C   UNL     1     138.009 136.250 133.000  1.00  0.00     0.004 C 
ENDBRANCH   7   8
ENDBRANCH   6   7
ENDBRANCH   1   6
TORSDOF 5
ENDMDL
MODEL 8
REMARK VINA RESULT:    -4.165      5.437      7.021
REMARK INTER + INTRA:          -5.544
REMARK INTER:                  -5.408
REMARK INTRA:                  -0.136
REMARK UNBOUND:                -0.162
REMARK SMILES CCCCCCC(=O)[O-]
REMARK SMILES IDX 5 1 6 2 7 3 8 4 9 5 4 6 3 7 2 8 1 9
REMARK H PARENT
REMARK Flexibility Score: inf
ROOT
ATOM      1  C   UNL     1     136.124 133.849 133.354  1.00  0.00     0.006 C 
ENDROOT
BRANCH   1   2
ATOM      2  C   UNL     1     136.148 135.372 133.195  1.00  0.00     0.053 C 
BRANCH   2   3
ATOM      3  C   UNL     1     137.435 135.816 132.573  1.00  0.00     0.041 C 
ATOM      4  O   UNL     1     138.369 136.252 133.295  1.00  0.00    -0.550 OA
ATOM      5  O   UNL     1     137.582 135.795 131.191  1.00  0.00    -0.550 OA
ENDBRANCH   2   3
ENDBRANCH   1   2
BRANCH   1   6
ATOM      6  C   UNL     1     134.697 133.347 133.618  1.00  0.00     0.000 C 
BRANCH   6   7
ATOM      7  C   UNL     1     134.345 132.102 132.788  1.00  0.00    -0.000 C 
BRANCH   7   8
ATOM      8  C   UNL     1     134.525 130.796 133.576  1.00  0.00    -0.003 C 
ATOM      9  C   UNL     1     135.781 130.054 133.127  1.00  0.00     0.004 C 
ENDBRANCH   7   8
ENDBRANCH   6   7
ENDBRANCH   1   6
TORSDOF 5
ENDMDL
MODEL 9
REMARK VINA RESULT:    -4.159      2.894      4.428
REMARK INTER + INTRA:          -5.537
REMARK INTER:                  -5.141
REMARK INTRA:                  -0.396
REMARK UNBOUND:                -0.162
REMARK SMILES CCCCCCC(=O)[O-]
REMARK SMILES IDX 5 1 6 2 7 3 8 4 9 5 4 6 3 7 2 8 1 9
REMARK H PARENT
REMARK Flexibility Score: inf
ROOT
ATOM      1  C   UNL     1     134.298 135.564 132.943  1.00  0.00     0.006 C 
ENDROOT
BRANCH   1   2
ATOM      2  C   UNL     1     133.164 136.295 133.668  1.00  0.00     0.053 C 
BRANCH   2   3
ATOM      3  C   UNL     1     132.061 136.632 132.714  1.00  0.00     0.041 C 
ATOM      4  O   UNL     1     131.290 137.597 132.954  1.00  0.00    -0.550 OA
ATOM      5  O   UNL     1     131.854 135.847 131.586  1.00  0.00    -0.550 OA
ENDBRANCH   2   3
ENDBRANCH   1   2
BRANCH   1   6
ATOM      6  C   UNL     1     134.740 134.320 133.728  1.00  0.00     0.000 C 
BRANCH   6   7
ATOM      7  C   UNL     1     133.581 133.659 134.492  1.00  0.00    -0.000 C 
BRANCH   7   8
ATOM      8  C   UNL     1     132.828 132.625 133.642  1.00  0.00    -0.003 C 
ATOM      9  C   UNL     1     131.344 132.968 133.549  1.00  0.00     0.004 C 
ENDBRANCH   7   8
ENDBRANCH   6   7
ENDBRANCH   1   6
TORSDOF 5
ENDMDL
