MODEL 1
REMARK VINA RESULT:     3.354      0.000      0.000
REMARK INTER + INTRA:           8.742
REMARK INTER:                   8.844
REMARK INTRA:                  -0.101
REMARK UNBOUND:                -0.101
REMARK SMILES CCCCCCCCCCCCCCCCCCCCCCCCCCCCCC(=O)[O-]
REMARK SMILES IDX 16 1 17 2 18 3 19 4 20 5 21 6 22 7 23 8 24 9 25 10 26 11
REMARK SMILES IDX 27 12 28 13 29 14 30 15 31 16 32 17 15 18 14 19 13 20 12 21
REMARK SMILES IDX 11 22 10 23 9 24 8 25 7 26 6 27 5 28 4 29 3 30 2 31 1 32
REMARK H PARENT
REMARK Flexibility Score: inf
ROOT
ATOM      1  C   UNL     1       5.043 -37.160  23.204  1.00  0.00     0.000 C 
ENDROOT
BRANCH   1   2
ATOM      2  C   UNL     1       5.730 -38.070  22.175  1.00  0.00     0.000 C 
BRANCH   2   3
ATOM      3  C   UNL     1       4.942 -39.364  21.901  1.00  0.00     0.000 C 
BRANCH   3   4
ATOM      4  C   UNL     1       5.831 -40.467  21.287  1.00  0.00     0.000 C 
BRANCH   4   5
ATOM      5  C   UNL     1       6.116 -41.631  22.253  1.00  0.00     0.000 C 
BRANCH   5   6
ATOM      6  C   UNL     1       5.016 -41.812  23.312  1.00  0.00     0.000 C 
BRANCH   6   7
ATOM      7  C   UNL     1       5.453 -41.339  24.708  1.00  0.00     0.000 C 
BRANCH   7   8
ATOM      8  C   UNL     1       5.343 -39.816  24.880  1.00  0.00     0.000 C 
BRANCH   8   9
ATOM      9  C   UNL     1       4.851 -39.417  26.281  1.00  0.00     0.000 C 
BRANCH   9  10
ATOM     10  C   UNL     1       3.939 -38.180  26.266  1.00  0.00     0.000 C 
BRANCH  10  11
ATOM     11  C   UNL     1       2.464 -38.518  26.546  1.00  0.00     0.000 C 
BRANCH  11  12
ATOM     12  C   UNL     1       1.936 -37.933  27.874  1.00  0.00     0.000 C 
BRANCH  12  13
ATOM     13  C   UNL     1       1.752 -36.407  27.809  1.00  0.00     0.006 C 
BRANCH  13  14
ATOM     14  C   UNL     1       1.838 -35.753  29.195  1.00  0.00     0.053 C 
BRANCH  14  15
ATOM     15  C   UNL     1       0.842 -34.643  29.349  1.00  0.00     0.041 C 
ATOM     16  O   UNL     1      -0.393 -34.883  29.262  1.00  0.00    -0.550 OA
ATOM     17  O   UNL     1       1.274 -33.351  29.616  1.00  0.00    -0.550 OA
ENDBRANCH  14  15
ENDBRANCH  13  14
ENDBRANCH  12  13
ENDBRANCH  11  12
ENDBRANCH  10  11
ENDBRANCH   9  10
ENDBRANCH   8   9
ENDBRANCH   7   8
ENDBRANCH   6   7
ENDBRANCH   5   6
ENDBRANCH   4   5
ENDBRANCH   3   4
ENDBRANCH   2   3
ENDBRANCH   1   2
BRANCH   1  18
ATOM     18  C   UNL     1       6.014 -36.641  24.279  1.00  0.00     0.000 C 
BRANCH  18  19
ATOM     19  C   UNL     1       6.093 -35.106  24.304  1.00  0.00     0.000 C 
BRANCH  19  20
ATOM     20  C   UNL     1       5.877 -34.478  22.914  1.00  0.00     0.000 C 
BRANCH  20  21
ATOM     21  C   UNL     1       4.410 -34.547  22.452  1.00  0.00     0.000 C 
BRANCH  21  22
ATOM     22  C   UNL     1       4.194 -35.191  21.064  1.00  0.00     0.000 C 
BRANCH  22  23
ATOM     23  C   UNL     1       5.473 -35.364  20.216  1.00  0.00     0.000 C 
BRANCH  23  24
ATOM     24  C   UNL     1       5.250 -35.222  18.699  1.00  0.00    -0.000 C 
BRANCH  24  25
ATOM     25  C   UNL     1       4.109 -36.117  18.189  1.00  0.00    -0.000 C 
BRANCH  25  26
ATOM     26  C   UNL     1       4.142 -37.527  18.808  1.00  0.00    -0.000 C 
BRANCH  26  27
ATOM     27  C   UNL     1       2.889 -38.377  18.521  1.00  0.00    -0.000 C 
BRANCH  27  28
ATOM     28  C   UNL     1       1.715 -37.625  17.861  1.00  0.00    -0.000 C 
BRANCH  28  29
ATOM     29  C   UNL     1       1.454 -38.030  16.394  1.00  0.00    -0.000 C 
BRANCH  29  30
ATOM     30  C   UNL     1       1.930 -36.959  15.397  1.00  0.00    -0.000 C 
BRANCH  30  31
ATOM     31  C   UNL     1       3.396 -37.156  14.981  1.00  0.00    -0.003 C 
ATOM     32  C   UNL     1       3.613 -38.430  14.163  1.00  0.00     0.004 C 
ENDBRANCH  30  31
ENDBRANCH  29  30
ENDBRANCH  28  29
ENDBRANCH  27  28
ENDBRANCH  26  27
ENDBRANCH  25  26
ENDBRANCH  24  25
ENDBRANCH  23  24
ENDBRANCH  22  23
ENDBRANCH  21  22
ENDBRANCH  20  21
ENDBRANCH  19  20
ENDBRANCH  18  19
ENDBRANCH   1  18
TORSDOF 28
ENDMDL
MODEL 2
REMARK VINA RESULT:     3.522      3.479      5.878
REMARK INTER + INTRA:           9.187
REMARK INTER:                   9.610
REMARK INTRA:                  -0.423
REMARK UNBOUND:                -0.101
REMARK SMILES CCCCCCCCCCCCCCCCCCCCCCCCCCCCCC(=O)[O-]
REMARK SMILES IDX 16 1 17 2 18 3 19 4 20 5 21 6 22 7 23 8 24 9 25 10 26 11
REMARK SMILES IDX 27 12 28 13 29 14 30 15 31 16 32 17 15 18 14 19 13 20 12 21
REMARK SMILES IDX 11 22 10 23 9 24 8 25 7 26 6 27 5 28 4 29 3 30 2 31 1 32
REMARK H PARENT
REMARK Flexibility Score: inf
ROOT
ATOM      1  C   UNL     1       6.047 -35.179  22.883  1.00  0.00     0.000 C 
ENDROOT
BRANCH   1   2
ATOM      2  C   UNL     1       6.037 -35.818  24.280  1.00  0.00     0.000 C 
BRANCH   2   3
ATOM      3  C   UNL     1       5.383 -37.212  24.294  1.00  0.00     0.000 C 
BRANCH   3   4
ATOM      4  C   UNL     1       5.063 -37.689  25.727  1.00  0.00     0.000 C 
BRANCH   4   5
ATOM      5  C   UNL     1       5.661 -39.067  26.061  1.00  0.00     0.000 C 
BRANCH   5   6
ATOM      6  C   UNL     1       5.701 -40.010  24.849  1.00  0.00     0.000 C 
BRANCH   6   7
ATOM      7  C   UNL     1       5.555 -41.490  25.242  1.00  0.00     0.000 C 
BRANCH   7   8
ATOM      8  C   UNL     1       5.966 -42.447  24.112  1.00  0.00     0.000 C 
BRANCH   8   9
ATOM      9  C   UNL     1       5.081 -42.295  22.864  1.00  0.00     0.000 C 
BRANCH   9  10
ATOM     10  C   UNL     1       5.821 -41.649  21.681  1.00  0.00     0.000 C 
BRANCH  10  11
ATOM     11  C   UNL     1       5.897 -40.116  21.786  1.00  0.00     0.000 C 
BRANCH  11  12
ATOM     12  C   UNL     1       4.525 -39.417  21.672  1.00  0.00     0.000 C 
BRANCH  12  13
ATOM     13  C   UNL     1       4.470 -38.424  20.498  1.00  0.00     0.006 C 
BRANCH  13  14
ATOM     14  C   UNL     1       3.055 -37.871  20.273  1.00  0.00     0.053 C 
BRANCH  14  15
ATOM     15  C   UNL     1       2.286 -38.696  19.286  1.00  0.00     0.041 C 
ATOM     16  O   UNL     1       1.082 -38.995  19.510  1.00  0.00    -0.550 OA
ATOM     17  O   UNL     1       2.889 -39.112  18.106  1.00  0.00    -0.550 OA
ENDBRANCH  14  15
ENDBRANCH  13  14
ENDBRANCH  12  13
ENDBRANCH  11  12
ENDBRANCH  10  11
ENDBRANCH   9  10
ENDBRANCH   8   9
ENDBRANCH   7   8
ENDBRANCH   6   7
ENDBRANCH   5   6
ENDBRANCH   4   5
ENDBRANCH   3   4
ENDBRANCH   2   3
ENDBRANCH   1   2
BRANCH   1  18
ATOM     18  C   UNL     1       5.231 -35.983  21.857  1.00  0.00     0.000 C 
BRANCH  18  19
ATOM     19  C   UNL     1       5.963 -36.132  20.514  1.00  0.00     0.000 C 
BRANCH  19  20
ATOM     20  C   UNL     1       5.874 -34.862  19.646  1.00  0.00     0.000 C 
BRANCH  20  21
ATOM     21  C   UNL     1       5.711 -35.176  18.148  1.00  0.00     0.000 C 
BRANCH  21  22
ATOM     22  C   UNL     1       4.730 -36.326  17.828  1.00  0.00     0.000 C 
BRANCH  22  23
ATOM     23  C   UNL     1       3.277 -35.888  17.542  1.00  0.00     0.000 C 
BRANCH  23  24
ATOM     24  C   UNL     1       2.743 -36.326  16.165  1.00  0.00    -0.000 C 
BRANCH  24  25
ATOM     25  C   UNL     1       3.796 -37.091  15.346  1.00  0.00    -0.000 C 
BRANCH  25  26
ATOM     26  C   UNL     1       3.396 -38.557  15.093  1.00  0.00    -0.000 C 
BRANCH  26  27
ATOM     27  C   UNL     1       4.585 -39.534  15.005  1.00  0.00    -0.000 C 
BRANCH  27  28
ATOM     28  C   UNL     1       4.499 -40.581  13.875  1.00  0.00    -0.000 C 
BRANCH  28  29
ATOM     29  C   UNL     1       5.158 -41.934  14.221  1.00  0.00    -0.000 C 
BRANCH  29  30
ATOM     30  C   UNL     1       6.105 -41.833  15.429  1.00  0.00    -0.000 C 
BRANCH  30  31
ATOM     31  C   UNL     1       6.078 -43.095  16.304  1.00  0.00    -0.003 C 
ATOM     32  C   UNL     1       6.125 -42.780  17.800  1.00  0.00     0.004 C 
ENDBRANCH  30  31
ENDBRANCH  29  30
ENDBRANCH  28  29
ENDBRANCH  27  28
ENDBRANCH  26  27
ENDBRANCH  25  26
ENDBRANCH  24  25
ENDBRANCH  23  24
ENDBRANCH  22  23
ENDBRANCH  21  22
ENDBRANCH  20  21
ENDBRANCH  19  20
ENDBRANCH  18  19
ENDBRANCH   1  18
TORSDOF 28
ENDMDL
MODEL 3
REMARK VINA RESULT:     3.542      4.950      9.983
REMARK INTER + INTRA:           9.239
REMARK INTER:                   6.124
REMARK INTRA:                   3.115
REMARK UNBOUND:                -0.101
REMARK SMILES CCCCCCCCCCCCCCCCCCCCCCCCCCCCCC(=O)[O-]
REMARK SMILES IDX 16 1 17 2 18 3 19 4 20 5 21 6 22 7 23 8 24 9 25 10 26 11
REMARK SMILES IDX 27 12 28 13 29 14 30 15 31 16 32 17 15 18 14 19 13 20 12 21
REMARK SMILES IDX 11 22 10 23 9 24 8 25 7 26 6 27 5 28 4 29 3 30 2 31 1 32
REMARK H PARENT
REMARK Flexibility Score: inf
ROOT
ATOM      1  C   UNL     1       4.570 -37.835  21.503  1.00  0.00     0.000 C 
ENDROOT
BRANCH   1   2
ATOM      2  C   UNL     1       5.721 -36.876  21.162  1.00  0.00     0.000 C 
BRANCH   2   3
ATOM      3  C   UNL     1       5.756 -36.492  19.670  1.00  0.00     0.000 C 
BRANCH   3   4
ATOM      4  C   UNL     1       4.841 -35.288  19.359  1.00  0.00     0.000 C 
BRANCH   4   5
ATOM      5  C   UNL     1       4.905 -34.837  17.889  1.00  0.00     0.000 C 
BRANCH   5   6
ATOM      6  C   UNL     1       4.221 -35.825  16.930  1.00  0.00     0.000 C 
BRANCH   6   7
ATOM      7  C   UNL     1       3.701 -37.083  17.645  1.00  0.00     0.000 C 
BRANCH   7   8
ATOM      8  C   UNL     1       2.620 -37.820  16.839  1.00  0.00     0.000 C 
BRANCH   8   9
ATOM      9  C   UNL     1       1.359 -36.966  16.630  1.00  0.00     0.000 C 
BRANCH   9  10
ATOM     10  C   UNL     1       0.927 -36.886  15.157  1.00  0.00     0.000 C 
BRANCH  10  11
ATOM     11  C   UNL     1       1.913 -37.584  14.203  1.00  0.00     0.000 C 
BRANCH  11  12
ATOM     12  C   UNL     1       3.376 -37.123  14.379  1.00  0.00     0.000 C 
BRANCH  12  13
ATOM     13  C   UNL     1       4.384 -38.237  14.044  1.00  0.00     0.006 C 
BRANCH  13  14
ATOM     14  C   UNL     1       3.829 -39.634  14.357  1.00  0.00     0.053 C 
BRANCH  14  15
ATOM     15  C   UNL     1       4.843 -40.707  14.092  1.00  0.00     0.041 C 
ATOM     16  O   UNL     1       6.071 -40.424  14.055  1.00  0.00    -0.550 OA
ATOM     17  O   UNL     1       4.435 -42.022  13.915  1.00  0.00    -0.550 OA
ENDBRANCH  14  15
ENDBRANCH  13  14
ENDBRANCH  12  13
ENDBRANCH  11  12
ENDBRANCH  10  11
ENDBRANCH   9  10
ENDBRANCH   8   9
ENDBRANCH   7   8
ENDBRANCH   6   7
ENDBRANCH   5   6
ENDBRANCH   4   5
ENDBRANCH   3   4
ENDBRANCH   2   3
ENDBRANCH   1   2
BRANCH   1  18
ATOM     18  C   UNL     1       4.636 -39.148  20.705  1.00  0.00     0.000 C 
BRANCH  18  19
ATOM     19  C   UNL     1       6.065 -39.710  20.620  1.00  0.00     0.000 C 
BRANCH  19  20
ATOM     20  C   UNL     1       6.122 -41.228  20.873  1.00  0.00     0.000 C 
BRANCH  20  21
ATOM     21  C   UNL     1       5.424 -41.638  22.183  1.00  0.00     0.000 C 
BRANCH  21  22
ATOM     22  C   UNL     1       6.024 -42.880  22.879  1.00  0.00     0.000 C 
BRANCH  22  23
ATOM     23  C   UNL     1       5.534 -43.125  24.323  1.00  0.00     0.000 C 
BRANCH  23  24
ATOM     24  C   UNL     1       5.431 -41.850  25.181  1.00  0.00    -0.000 C 
BRANCH  24  25
ATOM     25  C   UNL     1       5.659 -40.571  24.358  1.00  0.00    -0.000 C 
BRANCH  25  26
ATOM     26  C   UNL     1       4.920 -39.353  24.942  1.00  0.00    -0.000 C 
BRANCH  26  27
ATOM     27  C   UNL     1       5.728 -38.041  24.904  1.00  0.00    -0.000 C 
BRANCH  27  28
ATOM     28  C   UNL     1       4.988 -36.824  24.311  1.00  0.00    -0.000 C 
BRANCH  28  29
ATOM     29  C   UNL     1       5.799 -35.511  24.356  1.00  0.00    -0.000 C 
BRANCH  29  30
ATOM     30  C   UNL     1       5.874 -34.821  22.983  1.00  0.00    -0.000 C 
BRANCH  30  31
ATOM     31  C   UNL     1       4.626 -33.980  22.680  1.00  0.00    -0.003 C 
ATOM     32  C   UNL     1       3.471 -34.813  22.121  1.00  0.00     0.004 C 
ENDBRANCH  30  31
ENDBRANCH  29  30
ENDBRANCH  28  29
ENDBRANCH  27  28
ENDBRANCH  26  27
ENDBRANCH  25  26
ENDBRANCH  24  25
ENDBRANCH  23  24
ENDBRANCH  22  23
ENDBRANCH  21  22
ENDBRANCH  20  21
ENDBRANCH  19  20
ENDBRANCH  18  19
ENDBRANCH   1  18
TORSDOF 28
ENDMDL
MODEL 4
REMARK VINA RESULT:     4.067      3.718      5.363
REMARK INTER + INTRA:          10.622
REMARK INTER:                   8.113
REMARK INTRA:                   2.510
REMARK UNBOUND:                -0.101
REMARK SMILES CCCCCCCCCCCCCCCCCCCCCCCCCCCCCC(=O)[O-]
REMARK SMILES IDX 16 1 17 2 18 3 19 4 20 5 21 6 22 7 23 8 24 9 25 10 26 11
REMARK SMILES IDX 27 12 28 13 29 14 30 15 31 16 32 17 15 18 14 19 13 20 12 21
REMARK SMILES IDX 11 22 10 23 9 24 8 25 7 26 6 27 5 28 4 29 3 30 2 31 1 32
REMARK H PARENT
REMARK Flexibility Score: inf
ROOT
ATOM      1  C   UNL     1       5.296 -37.475  23.827  1.00  0.00     0.000 C 
ENDROOT
BRANCH   1   2
ATOM      2  C   UNL     1       5.965 -38.847  24.002  1.00  0.00     0.000 C 
BRANCH   2   3
ATOM      3  C   UNL     1       5.217 -39.752  24.999  1.00  0.00     0.000 C 
BRANCH   3   4
ATOM      4  C   UNL     1       5.774 -41.192  25.006  1.00  0.00     0.000 C 
BRANCH   4   5
ATOM      5  C   UNL     1       4.910 -42.186  24.209  1.00  0.00     0.000 C 
BRANCH   5   6
ATOM      6  C   UNL     1       5.742 -43.109  23.305  1.00  0.00     0.000 C 
BRANCH   6   7
ATOM      7  C   UNL     1       6.125 -42.446  21.971  1.00  0.00     0.000 C 
BRANCH   7   8
ATOM      8  C   UNL     1       5.871 -40.930  21.968  1.00  0.00     0.000 C 
BRANCH   8   9
ATOM      9  C   UNL     1       6.004 -40.316  20.565  1.00  0.00     0.000 C 
BRANCH   9  10
ATOM     10  C   UNL     1       5.333 -38.938  20.449  1.00  0.00     0.000 C 
BRANCH  10  11
ATOM     11  C   UNL     1       3.812 -38.989  20.684  1.00  0.00     0.000 C 
BRANCH  11  12
ATOM     12  C   UNL     1       2.984 -38.454  19.495  1.00  0.00     0.000 C 
BRANCH  12  13
ATOM     13  C   UNL     1       1.925 -37.427  19.935  1.00  0.00     0.006 C 
BRANCH  13  14
ATOM     14  C   UNL     1       0.638 -37.531  19.106  1.00  0.00     0.053 C 
BRANCH  14  15
ATOM     15  C   UNL     1       0.543 -38.843  18.388  1.00  0.00     0.041 C 
ATOM     16  O   UNL     1       0.179 -38.881  17.181  1.00  0.00    -0.550 OA
ATOM     17  O   UNL     1       0.882 -40.021  19.041  1.00  0.00    -0.550 OA
ENDBRANCH  14  15
ENDBRANCH  13  14
ENDBRANCH  12  13
ENDBRANCH  11  12
ENDBRANCH  10  11
ENDBRANCH   9  10
ENDBRANCH   8   9
ENDBRANCH   7   8
ENDBRANCH   6   7
ENDBRANCH   5   6
ENDBRANCH   4   5
ENDBRANCH   3   4
ENDBRANCH   2   3
ENDBRANCH   1   2
BRANCH   1  18
ATOM     18  C   UNL     1       5.193 -36.693  25.148  1.00  0.00     0.000 C 
BRANCH  18  19
ATOM     19  C   UNL     1       6.038 -35.408  25.134  1.00  0.00     0.000 C 
BRANCH  19  20
ATOM     20  C   UNL     1       6.016 -34.698  23.766  1.00  0.00     0.000 C 
BRANCH  20  21
ATOM     21  C   UNL     1       5.991 -35.686  22.585  1.00  0.00     0.000 C 
BRANCH  21  22
ATOM     22  C   UNL     1       4.857 -35.449  21.563  1.00  0.00     0.000 C 
BRANCH  22  23
ATOM     23  C   UNL     1       5.182 -35.871  20.113  1.00  0.00     0.000 C 
BRANCH  23  24
ATOM     24  C   UNL     1       4.014 -35.695  19.126  1.00  0.00    -0.000 C 
BRANCH  24  25
ATOM     25  C   UNL     1       4.378 -34.779  17.945  1.00  0.00    -0.000 C 
BRANCH  25  26
ATOM     26  C   UNL     1       3.718 -35.224  16.627  1.00  0.00    -0.000 C 
BRANCH  26  27
ATOM     27  C   UNL     1       3.053 -36.613  16.685  1.00  0.00    -0.000 C 
BRANCH  27  28
ATOM     28  C   UNL     1       2.095 -36.938  15.521  1.00  0.00    -0.000 C 
BRANCH  28  29
ATOM     29  C   UNL     1       2.801 -37.144  14.163  1.00  0.00    -0.000 C 
BRANCH  29  30
ATOM     30  C   UNL     1       4.058 -38.022  14.284  1.00  0.00    -0.000 C 
BRANCH  30  31
ATOM     31  C   UNL     1       3.757 -39.398  14.895  1.00  0.00    -0.003 C 
ATOM     32  C   UNL     1       4.503 -40.534  14.194  1.00  0.00     0.004 C 
ENDBRANCH  30  31
ENDBRANCH  29  30
ENDBRANCH  28  29
ENDBRANCH  27  28
ENDBRANCH  26  27
ENDBRANCH  25  26
ENDBRANCH  24  25
ENDBRANCH  23  24
ENDBRANCH  22  23
ENDBRANCH  21  22
ENDBRANCH  20  21
ENDBRANCH  19  20
ENDBRANCH  18  19
ENDBRANCH   1  18
TORSDOF 28
ENDMDL
MODEL 5
REMARK VINA RESULT:     4.139      0.996      2.032
REMARK INTER + INTRA:          10.812
REMARK INTER:                  10.882
REMARK INTRA:                  -0.070
REMARK UNBOUND:                -0.101
REMARK SMILES CCCCCCCCCCCCCCCCCCCCCCCCCCCCCC(=O)[O-]
REMARK SMILES IDX 16 1 17 2 18 3 19 4 20 5 21 6 22 7 23 8 24 9 25 10 26 11
REMARK SMILES IDX 27 12 28 13 29 14 30 15 31 16 32 17 15 18 14 19 13 20 12 21
REMARK SMILES IDX 11 22 10 23 9 24 8 25 7 26 6 27 5 28 4 29 3 30 2 31 1 32
REMARK H PARENT
REMARK Flexibility Score: inf
ROOT
ATOM      1  C   UNL     1       5.064 -37.694  22.880  1.00  0.00     0.000 C 
ENDROOT
BRANCH   1   2
ATOM      2  C   UNL     1       5.707 -38.621  21.837  1.00  0.00     0.000 C 
BRANCH   2   3
ATOM      3  C   UNL     1       5.017 -39.995  21.752  1.00  0.00     0.000 C 
BRANCH   3   4
ATOM      4  C   UNL     1       6.030 -41.158  21.811  1.00  0.00     0.000 C 
BRANCH   4   5
ATOM      5  C   UNL     1       5.567 -42.327  22.699  1.00  0.00     0.000 C 
BRANCH   5   6
ATOM      6  C   UNL     1       6.124 -42.247  24.130  1.00  0.00     0.000 C 
BRANCH   6   7
ATOM      7  C   UNL     1       5.139 -41.597  25.115  1.00  0.00     0.000 C 
BRANCH   7   8
ATOM      8  C   UNL     1       4.871 -40.117  24.795  1.00  0.00     0.000 C 
BRANCH   8   9
ATOM      9  C   UNL     1       5.493 -39.170  25.835  1.00  0.00     0.000 C 
BRANCH   9  10
ATOM     10  C   UNL     1       4.511 -38.777  26.950  1.00  0.00     0.000 C 
BRANCH  10  11
ATOM     11  C   UNL     1       3.114 -38.410  26.418  1.00  0.00     0.000 C 
BRANCH  11  12
ATOM     12  C   UNL     1       2.029 -38.353  27.515  1.00  0.00     0.000 C 
BRANCH  12  13
ATOM     13  C   UNL     1       1.380 -36.962  27.624  1.00  0.00     0.006 C 
BRANCH  13  14
ATOM     14  C   UNL     1       2.264 -35.968  28.389  1.00  0.00     0.053 C 
BRANCH  14  15
ATOM     15  C   UNL     1       1.468 -35.149  29.361  1.00  0.00     0.041 C 
ATOM     16  O   UNL     1       0.241 -34.942  29.160  1.00  0.00    -0.550 OA
ATOM     17  O   UNL     1       2.073 -34.640  30.502  1.00  0.00    -0.550 OA
ENDBRANCH  14  15
ENDBRANCH  13  14
ENDBRANCH  12  13
ENDBRANCH  11  12
ENDBRANCH  10  11
ENDBRANCH   9  10
ENDBRANCH   8   9
ENDBRANCH   7   8
ENDBRANCH   6   7
ENDBRANCH   5   6
ENDBRANCH   4   5
ENDBRANCH   3   4
ENDBRANCH   2   3
ENDBRANCH   1   2
BRANCH   1  18
ATOM     18  C   UNL     1       6.065 -36.692  23.480  1.00  0.00     0.000 C 
BRANCH  18  19
ATOM     19  C   UNL     1       5.694 -35.234  23.164  1.00  0.00     0.000 C 
BRANCH  19  20
ATOM     20  C   UNL     1       4.255 -35.090  22.634  1.00  0.00     0.000 C 
BRANCH  20  21
ATOM     21  C   UNL     1       4.146 -35.381  21.125  1.00  0.00     0.000 C 
BRANCH  21  22
ATOM     22  C   UNL     1       5.491 -35.651  20.416  1.00  0.00     0.000 C 
BRANCH  22  23
ATOM     23  C   UNL     1       5.378 -36.096  18.941  1.00  0.00     0.000 C 
BRANCH  23  24
ATOM     24  C   UNL     1       4.825 -35.014  17.995  1.00  0.00    -0.000 C 
BRANCH  24  25
ATOM     25  C   UNL     1       3.531 -35.456  17.293  1.00  0.00    -0.000 C 
BRANCH  25  26
ATOM     26  C   UNL     1       3.800 -36.222  15.984  1.00  0.00    -0.000 C 
BRANCH  26  27
ATOM     27  C   UNL     1       2.656 -37.159  15.549  1.00  0.00    -0.000 C 
BRANCH  27  28
ATOM     28  C   UNL     1       1.797 -37.733  16.695  1.00  0.00    -0.000 C 
BRANCH  28  29
ATOM     29  C   UNL     1       2.596 -38.561  17.725  1.00  0.00    -0.000 C 
BRANCH  29  30
ATOM     30  C   UNL     1       2.397 -38.056  19.164  1.00  0.00    -0.000 C 
BRANCH  30  31
ATOM     31  C   UNL     1       1.034 -38.459  19.745  1.00  0.00    -0.003 C 
ATOM     32  C   UNL     1       0.028 -38.866  18.666  1.00  0.00     0.004 C 
ENDBRANCH  30  31
ENDBRANCH  29  30
ENDBRANCH  28  29
ENDBRANCH  27  28
ENDBRANCH  26  27
ENDBRANCH  25  26
ENDBRANCH  24  25
ENDBRANCH  23  24
ENDBRANCH  22  23
ENDBRANCH  21  22
ENDBRANCH  20  21
ENDBRANCH  19  20
ENDBRANCH  18  19
ENDBRANCH   1  18
TORSDOF 28
ENDMDL
MODEL 6
REMARK VINA RESULT:     4.168      2.930      9.397
REMARK INTER + INTRA:          10.890
REMARK INTER:                  11.840
REMARK INTRA:                  -0.951
REMARK UNBOUND:                -0.101
REMARK SMILES CCCCCCCCCCCCCCCCCCCCCCCCCCCCCC(=O)[O-]
REMARK SMILES IDX 16 1 17 2 18 3 19 4 20 5 21 6 22 7 23 8 24 9 25 10 26 11
REMARK SMILES IDX 27 12 28 13 29 14 30 15 31 16 32 17 15 18 14 19 13 20 12 21
REMARK SMILES IDX 11 22 10 23 9 24 8 25 7 26 6 27 5 28 4 29 3 30 2 31 1 32
REMARK H PARENT
REMARK Flexibility Score: inf
ROOT
ATOM      1  C   UNL     1       4.763 -37.753  22.469  1.00  0.00     0.000 C 
ENDROOT
BRANCH   1   2
ATOM      2  C   UNL     1       6.040 -36.965  22.793  1.00  0.00     0.000 C 
BRANCH   2   3
ATOM      3  C   UNL     1       5.785 -35.455  22.960  1.00  0.00     0.000 C 
BRANCH   3   4
ATOM      4  C   UNL     1       4.278 -35.126  23.035  1.00  0.00     0.000 C 
BRANCH   4   5
ATOM      5  C   UNL     1       3.727 -34.490  21.747  1.00  0.00     0.000 C 
BRANCH   5   6
ATOM      6  C   UNL     1       3.789 -35.438  20.538  1.00  0.00     0.000 C 
BRANCH   6   7
ATOM      7  C   UNL     1       5.154 -35.409  19.831  1.00  0.00     0.000 C 
BRANCH   7   8
ATOM      8  C   UNL     1       5.043 -35.039  18.343  1.00  0.00     0.000 C 
BRANCH   8   9
ATOM      9  C   UNL     1       4.474 -36.187  17.494  1.00  0.00     0.000 C 
BRANCH   9  10
ATOM     10  C   UNL     1       3.316 -35.743  16.586  1.00  0.00     0.000 C 
BRANCH  10  11
ATOM     11  C   UNL     1       3.075 -36.702  15.406  1.00  0.00     0.000 C 
BRANCH  11  12
ATOM     12  C   UNL     1       2.439 -38.046  15.821  1.00  0.00     0.000 C 
BRANCH  12  13
ATOM     13  C   UNL     1       1.053 -37.863  16.465  1.00  0.00     0.006 C 
BRANCH  13  14
ATOM     14  C   UNL     1       1.149 -37.420  17.931  1.00  0.00     0.053 C 
BRANCH  14  15
ATOM     15  C   UNL     1       1.311 -38.589  18.856  1.00  0.00     0.041 C 
ATOM     16  O   UNL     1       2.307 -38.654  19.627  1.00  0.00    -0.550 OA
ATOM     17  O   UNL     1       0.351 -39.590  18.888  1.00  0.00    -0.550 OA
ENDBRANCH  14  15
ENDBRANCH  13  14
ENDBRANCH  12  13
ENDBRANCH  11  12
ENDBRANCH  10  11
ENDBRANCH   9  10
ENDBRANCH   8   9
ENDBRANCH   7   8
ENDBRANCH   6   7
ENDBRANCH   5   6
ENDBRANCH   4   5
ENDBRANCH   3   4
ENDBRANCH   2   3
ENDBRANCH   1   2
BRANCH   1  18
ATOM     18  C   UNL     1       4.970 -38.781  21.343  1.00  0.00     0.000 C 
BRANCH  18  19
ATOM     19  C   UNL     1       4.799 -40.228  21.835  1.00  0.00     0.000 C 
BRANCH  19  20
ATOM     20  C   UNL     1       6.125 -40.854  22.308  1.00  0.00     0.000 C 
BRANCH  20  21
ATOM     21  C   UNL     1       5.956 -42.305  22.795  1.00  0.00     0.000 C 
BRANCH  21  22
ATOM     22  C   UNL     1       5.418 -42.449  24.236  1.00  0.00     0.000 C 
BRANCH  22  23
ATOM     23  C   UNL     1       5.676 -41.235  25.157  1.00  0.00     0.000 C 
BRANCH  23  24
ATOM     24  C   UNL     1       4.587 -40.148  25.090  1.00  0.00    -0.000 C 
BRANCH  24  25
ATOM     25  C   UNL     1       5.124 -38.758  25.470  1.00  0.00    -0.000 C 
BRANCH  25  26
ATOM     26  C   UNL     1       4.052 -37.871  26.132  1.00  0.00    -0.000 C 
BRANCH  26  27
ATOM     27  C   UNL     1       3.007 -38.646  26.958  1.00  0.00    -0.000 C 
BRANCH  27  28
ATOM     28  C   UNL     1       1.758 -37.840  27.369  1.00  0.00    -0.000 C 
BRANCH  28  29
ATOM     29  C   UNL     1       2.075 -36.461  27.988  1.00  0.00    -0.000 C 
BRANCH  29  30
ATOM     30  C   UNL     1       0.813 -35.739  28.490  1.00  0.00    -0.000 C 
BRANCH  30  31
ATOM     31  C   UNL     1       1.141 -34.549  29.403  1.00  0.00    -0.003 C 
ATOM     32  C   UNL     1       2.372 -34.795  30.277  1.00  0.00     0.004 C 
ENDBRANCH  30  31
ENDBRANCH  29  30
ENDBRANCH  28  29
ENDBRANCH  27  28
ENDBRANCH  26  27
ENDBRANCH  25  26
ENDBRANCH  24  25
ENDBRANCH  23  24
ENDBRANCH  22  23
ENDBRANCH  21  22
ENDBRANCH  20  21
ENDBRANCH  19  20
ENDBRANCH  18  19
ENDBRANCH   1  18
TORSDOF 28
ENDMDL
MODEL 7
REMARK VINA RESULT:     4.233      2.974      9.155
REMARK INTER + INTRA:          11.060
REMARK INTER:                  10.780
REMARK INTRA:                   0.280
REMARK UNBOUND:                -0.101
REMARK SMILES CCCCCCCCCCCCCCCCCCCCCCCCCCCCCC(=O)[O-]
REMARK SMILES IDX 16 1 17 2 18 3 19 4 20 5 21 6 22 7 23 8 24 9 25 10 26 11
REMARK SMILES IDX 27 12 28 13 29 14 30 15 31 16 32 17 15 18 14 19 13 20 12 21
REMARK SMILES IDX 11 22 10 23 9 24 8 25 7 26 6 27 5 28 4 29 3 30 2 31 1 32
REMARK H PARENT
REMARK Flexibility Score: inf
ROOT
ATOM      1  C   UNL     1       6.058 -41.053  21.323  1.00  0.00     0.000 C 
ENDROOT
BRANCH   1   2
ATOM      2  C   UNL     1       5.992 -40.667  19.838  1.00  0.00     0.000 C 
BRANCH   2   3
ATOM      3  C   UNL     1       5.692 -39.172  19.623  1.00  0.00     0.000 C 
BRANCH   3   4
ATOM      4  C   UNL     1       4.997 -38.537  20.846  1.00  0.00     0.000 C 
BRANCH   4   5
ATOM      5  C   UNL     1       5.791 -37.372  21.464  1.00  0.00     0.000 C 
BRANCH   5   6
ATOM      6  C   UNL     1       5.176 -35.998  21.155  1.00  0.00     0.000 C 
BRANCH   6   7
ATOM      7  C   UNL     1       6.121 -35.093  20.347  1.00  0.00     0.000 C 
BRANCH   7   8
ATOM      8  C   UNL     1       5.813 -35.109  18.841  1.00  0.00     0.000 C 
BRANCH   8   9
ATOM      9  C   UNL     1       4.362 -35.517  18.542  1.00  0.00     0.000 C 
BRANCH   9  10
ATOM     10  C   UNL     1       4.035 -35.510  17.040  1.00  0.00     0.000 C 
BRANCH  10  11
ATOM     11  C   UNL     1       3.595 -36.888  16.515  1.00  0.00     0.000 C 
BRANCH  11  12
ATOM     12  C   UNL     1       2.216 -36.876  15.821  1.00  0.00     0.000 C 
BRANCH  12  13
ATOM     13  C   UNL     1       1.157 -37.666  16.611  1.00  0.00     0.006 C 
BRANCH  13  14
ATOM     14  C   UNL     1       1.790 -38.672  17.583  1.00  0.00     0.053 C 
BRANCH  14  15
ATOM     15  C   UNL     1       1.266 -38.503  18.977  1.00  0.00     0.041 C 
ATOM     16  O   UNL     1       2.036 -38.645  19.965  1.00  0.00    -0.550 OA
ATOM     17  O   UNL     1      -0.063 -38.161  19.186  1.00  0.00    -0.550 OA
ENDBRANCH  14  15
ENDBRANCH  13  14
ENDBRANCH  12  13
ENDBRANCH  11  12
ENDBRANCH  10  11
ENDBRANCH   9  10
ENDBRANCH   8   9
ENDBRANCH   7   8
ENDBRANCH   6   7
ENDBRANCH   5   6
ENDBRANCH   4   5
ENDBRANCH   3   4
ENDBRANCH   2   3
ENDBRANCH   1   2
BRANCH   1  18
ATOM     18  C   UNL     1       6.125 -42.575  21.537  1.00  0.00     0.000 C 
BRANCH  18  19
ATOM     19  C   UNL     1       5.423 -43.015  22.832  1.00  0.00     0.000 C 
BRANCH  19  20
ATOM     20  C   UNL     1       6.124 -42.483  24.097  1.00  0.00     0.000 C 
BRANCH  20  21
ATOM     21  C   UNL     1       5.426 -41.244  24.687  1.00  0.00     0.000 C 
BRANCH  21  22
ATOM     22  C   UNL     1       5.320 -40.039  23.726  1.00  0.00     0.000 C 
BRANCH  22  23
ATOM     23  C   UNL     1       4.375 -38.909  24.192  1.00  0.00     0.000 C 
BRANCH  23  24
ATOM     24  C   UNL     1       5.041 -37.523  24.278  1.00  0.00    -0.000 C 
BRANCH  24  25
ATOM     25  C   UNL     1       5.724 -37.284  25.635  1.00  0.00    -0.000 C 
BRANCH  25  26
ATOM     26  C   UNL     1       4.855 -37.741  26.822  1.00  0.00    -0.000 C 
BRANCH  26  27
ATOM     27  C   UNL     1       3.388 -38.044  26.457  1.00  0.00    -0.000 C 
BRANCH  27  28
ATOM     28  C   UNL     1       2.416 -38.145  27.650  1.00  0.00    -0.000 C 
BRANCH  28  29
ATOM     29  C   UNL     1       1.391 -36.993  27.726  1.00  0.00    -0.000 C 
BRANCH  29  30
ATOM     30  C   UNL     1       1.985 -35.719  28.350  1.00  0.00    -0.000 C 
BRANCH  30  31
ATOM     31  C   UNL     1       1.257 -35.300  29.635  1.00  0.00    -0.003 C 
ATOM     32  C   UNL     1       2.045 -34.277  30.456  1.00  0.00     0.004 C 
ENDBRANCH  30  31
ENDBRANCH  29  30
ENDBRANCH  28  29
ENDBRANCH  27  28
ENDBRANCH  26  27
ENDBRANCH  25  26
ENDBRANCH  24  25
ENDBRANCH  23  24
ENDBRANCH  22  23
ENDBRANCH  21  22
ENDBRANCH  20  21
ENDBRANCH  19  20
ENDBRANCH  18  19
ENDBRANCH   1  18
TORSDOF 28
ENDMDL
MODEL 8
REMARK VINA RESULT:     4.711      3.312      6.009
REMARK INTER + INTRA:          12.322
REMARK INTER:                  12.059
REMARK INTRA:                   0.263
REMARK UNBOUND:                -0.101
REMARK SMILES CCCCCCCCCCCCCCCCCCCCCCCCCCCCCC(=O)[O-]
REMARK SMILES IDX 16 1 17 2 18 3 19 4 20 5 21 6 22 7 23 8 24 9 25 10 26 11
REMARK SMILES IDX 27 12 28 13 29 14 30 15 31 16 32 17 15 18 14 19 13 20 12 21
REMARK SMILES IDX 11 22 10 23 9 24 8 25 7 26 6 27 5 28 4 29 3 30 2 31 1 32
REMARK H PARENT
REMARK Flexibility Score: inf
ROOT
ATOM      1  C   UNL     1       5.619 -41.045  22.772  1.00  0.00     0.000 C 
ENDROOT
BRANCH   1   2
ATOM      2  C   UNL     1       5.400 -41.184  24.286  1.00  0.00     0.000 C 
BRANCH   2   3
ATOM      3  C   UNL     1       4.592 -40.017  24.882  1.00  0.00     0.000 C 
BRANCH   3   4
ATOM      4  C   UNL     1       5.451 -39.128  25.807  1.00  0.00     0.000 C 
BRANCH   4   5
ATOM      5  C   UNL     1       4.933 -37.683  25.918  1.00  0.00     0.000 C 
BRANCH   5   6
ATOM      6  C   UNL     1       4.951 -36.937  24.574  1.00  0.00     0.000 C 
BRANCH   6   7
ATOM      7  C   UNL     1       6.066 -35.881  24.495  1.00  0.00     0.000 C 
BRANCH   7   8
ATOM      8  C   UNL     1       5.821 -34.841  23.390  1.00  0.00     0.000 C 
BRANCH   8   9
ATOM      9  C   UNL     1       4.367 -34.845  22.893  1.00  0.00     0.000 C 
BRANCH   9  10
ATOM     10  C   UNL     1       4.206 -35.513  21.518  1.00  0.00     0.000 C 
BRANCH  10  11
ATOM     11  C   UNL     1       2.760 -35.466  20.993  1.00  0.00     0.000 C 
BRANCH  11  12
ATOM     12  C   UNL     1       2.108 -36.858  20.846  1.00  0.00     0.000 C 
BRANCH  12  13
ATOM     13  C   UNL     1       2.667 -37.641  19.645  1.00  0.00     0.006 C 
BRANCH  13  14
ATOM     14  C   UNL     1       1.713 -38.751  19.182  1.00  0.00     0.053 C 
BRANCH  14  15
ATOM     15  C   UNL     1       0.350 -38.215  18.862  1.00  0.00     0.041 C 
ATOM     16  O   UNL     1      -0.508 -38.079  19.775  1.00  0.00    -0.550 OA
ATOM     17  O   UNL     1       0.036 -37.840  17.563  1.00  0.00    -0.550 OA
ENDBRANCH  14  15
ENDBRANCH  13  14
ENDBRANCH  12  13
ENDBRANCH  11  12
ENDBRANCH  10  11
ENDBRANCH   9  10
ENDBRANCH   8   9
ENDBRANCH   7   8
ENDBRANCH   6   7
ENDBRANCH   5   6
ENDBRANCH   4   5
ENDBRANCH   3   4
ENDBRANCH   2   3
ENDBRANCH   1   2
BRANCH   1  18
ATOM     18  C   UNL     1       5.573 -39.582  22.298  1.00  0.00     0.000 C 
BRANCH  18  19
ATOM     19  C   UNL     1       4.704 -39.400  21.043  1.00  0.00     0.000 C 
BRANCH  19  20
ATOM     20  C   UNL     1       5.485 -39.654  19.740  1.00  0.00     0.000 C 
BRANCH  20  21
ATOM     21  C   UNL     1       6.072 -38.364  19.137  1.00  0.00     0.000 C 
BRANCH  21  22
ATOM     22  C   UNL     1       5.471 -37.055  19.694  1.00  0.00     0.000 C 
BRANCH  22  23
ATOM     23  C   UNL     1       4.948 -36.067  18.628  1.00  0.00     0.000 C 
BRANCH  23  24
ATOM     24  C   UNL     1       4.447 -36.738  17.336  1.00  0.00    -0.000 C 
BRANCH  24  25
ATOM     25  C   UNL     1       3.214 -36.031  16.749  1.00  0.00    -0.000 C 
BRANCH  25  26
ATOM     26  C   UNL     1       2.518 -36.865  15.657  1.00  0.00    -0.000 C 
BRANCH  26  27
ATOM     27  C   UNL     1       3.073 -38.294  15.498  1.00  0.00    -0.000 C 
BRANCH  27  28
ATOM     28  C   UNL     1       3.509 -38.680  14.069  1.00  0.00    -0.000 C 
BRANCH  28  29
ATOM     29  C   UNL     1       4.919 -39.304  13.989  1.00  0.00    -0.000 C 
BRANCH  29  30
ATOM     30  C   UNL     1       4.876 -40.838  13.880  1.00  0.00    -0.000 C 
BRANCH  30  31
ATOM     31  C   UNL     1       5.074 -41.529  15.237  1.00  0.00    -0.003 C 
ATOM     32  C   UNL     1       4.734 -43.020  15.198  1.00  0.00     0.004 C 
ENDBRANCH  30  31
ENDBRANCH  29  30
ENDBRANCH  28  29
ENDBRANCH  27  28
ENDBRANCH  26  27
ENDBRANCH  25  26
ENDBRANCH  24  25
ENDBRANCH  23  24
ENDBRANCH  22  23
ENDBRANCH  21  22
ENDBRANCH  20  21
ENDBRANCH  19  20
ENDBRANCH  18  19
ENDBRANCH   1  18
TORSDOF 28
ENDMDL
