MODEL 1
REMARK VINA RESULT:    -4.361      0.000      0.000
REMARK INTER + INTRA:          -9.903
REMARK INTER:                  -8.185
REMARK INTRA:                  -1.718
REMARK UNBOUND:                -1.718
REMARK SMILES CCCCCCCCC=CCCCCCCCC(=O)[O-]
REMARK SMILES IDX 10 1 9 2 11 3 12 4 13 5 14 6 15 7 16 8 17 9 18 10 19 11
REMARK SMILES IDX 20 12 8 13 7 14 6 15 5 16 4 17 3 18 2 19 1 20
REMARK H PARENT
REMARK Flexibility Score: inf
ROOT
ATOM      1  C   UNL     1      -3.137  32.800  36.715  1.00  0.00    -0.031 C 
ATOM      2  C   UNL     1      -3.266  32.541  38.027  1.00  0.00    -0.031 C 
ENDROOT
BRANCH   1   3
ATOM      3  C   UNL     1      -1.897  32.532  35.902  1.00  0.00     0.027 C 
BRANCH   3   4
ATOM      4  C   UNL     1      -2.075  31.279  35.035  1.00  0.00     0.004 C 
BRANCH   4   5
ATOM      5  C   UNL     1      -1.826  29.974  35.813  1.00  0.00     0.000 C 
BRANCH   5   6
ATOM      6  C   UNL     1      -0.685  29.101  35.257  1.00  0.00     0.000 C 
BRANCH   6   7
ATOM      7  C   UNL     1       0.496  29.934  34.728  1.00  0.00     0.000 C 
BRANCH   7   8
ATOM      8  C   UNL     1       0.722  29.757  33.216  1.00  0.00     0.006 C 
BRANCH   8   9
ATOM      9  C   UNL     1       0.141  28.452  32.640  1.00  0.00     0.053 C 
BRANCH   9  10
ATOM     10  C   UNL     1      -0.429  28.645  31.268  1.00  0.00     0.041 C 
ATOM     11  O   UNL     1      -0.595  29.808  30.810  1.00  0.00    -0.550 OA
ATOM     12  O   UNL     1      -0.714  27.544  30.470  1.00  0.00    -0.550 OA
ENDBRANCH   9  10
ENDBRANCH   8   9
ENDBRANCH   7   8
ENDBRANCH   6   7
ENDBRANCH   5   6
ENDBRANCH   4   5
ENDBRANCH   3   4
ENDBRANCH   1   3
BRANCH   2  13
ATOM     13  C   UNL     1      -2.157  32.035  38.918  1.00  0.00     0.027 C 
BRANCH  13  14
ATOM     14  C   UNL     1      -1.580  33.149  39.805  1.00  0.00     0.004 C 
BRANCH  14  15
ATOM     15  C   UNL     1      -0.532  34.001  39.065  1.00  0.00     0.000 C 
BRANCH  15  16
ATOM     16  C   UNL     1      -1.075  35.399  38.703  1.00  0.00     0.000 C 
BRANCH  16  17
ATOM     17  C   UNL     1      -0.448  35.992  37.426  1.00  0.00    -0.000 C 
BRANCH  17  18
ATOM     18  C   UNL     1      -1.411  36.117  36.231  1.00  0.00    -0.000 C 
BRANCH  18  19
ATOM     19  C   UNL     1      -0.823  36.929  35.069  1.00  0.00    -0.003 C 
ATOM     20  C   UNL     1       0.059  38.062  35.587  1.00  0.00     0.004 C 
ENDBRANCH  18  19
ENDBRANCH  17  18
ENDBRANCH  16  17
ENDBRANCH  15  16
ENDBRANCH  14  15
ENDBRANCH  13  14
ENDBRANCH   2  13
TORSDOF 15
ENDMDL
MODEL 2
REMARK VINA RESULT:    -4.322      3.645      7.833
REMARK INTER + INTRA:          -9.830
REMARK INTER:                  -7.953
REMARK INTRA:                  -1.877
REMARK UNBOUND:                -1.718
REMARK SMILES CCCCCCCCC=CCCCCCCCC(=O)[O-]
REMARK SMILES IDX 10 1 9 2 11 3 12 4 13 5 14 6 15 7 16 8 17 9 18 10 19 11
REMARK SMILES IDX 20 12 8 13 7 14 6 15 5 16 4 17 3 18 2 19 1 20
REMARK H PARENT
REMARK Flexibility Score: inf
ROOT
ATOM      1  C   UNL     1      -1.819  32.716  33.892  1.00  0.00    -0.031 C 
ATOM      2  C   UNL     1      -1.127  31.565  33.826  1.00  0.00    -0.031 C 
ENDROOT
BRANCH   1   3
ATOM      3  C   UNL     1      -2.080  33.493  35.157  1.00  0.00     0.027 C 
BRANCH   3   4
ATOM      4  C   UNL     1      -1.414  34.873  35.094  1.00  0.00     0.004 C 
BRANCH   4   5
ATOM      5  C   UNL     1      -1.754  35.756  36.309  1.00  0.00     0.000 C 
BRANCH   5   6
ATOM      6  C   UNL     1      -0.593  35.962  37.300  1.00  0.00     0.000 C 
BRANCH   6   7
ATOM      7  C   UNL     1      -0.916  35.436  38.709  1.00  0.00     0.000 C 
BRANCH   7   8
ATOM      8  C   UNL     1      -0.318  34.043  38.979  1.00  0.00     0.006 C 
BRANCH   8   9
ATOM      9  C   UNL     1      -1.327  32.888  38.851  1.00  0.00     0.053 C 
BRANCH   9  10
ATOM     10  C   UNL     1      -2.201  32.766  40.062  1.00  0.00     0.041 C 
ATOM     11  O   UNL     1      -3.412  33.110  40.006  1.00  0.00    -0.550 OA
ATOM     12  O   UNL     1      -1.697  32.212  41.233  1.00  0.00    -0.550 OA
ENDBRANCH   9  10
ENDBRANCH   8   9
ENDBRANCH   7   8
ENDBRANCH   6   7
ENDBRANCH   5   6
ENDBRANCH   4   5
ENDBRANCH   3   4
ENDBRANCH   1   3
BRANCH   2  13
ATOM     13  C   UNL     1      -0.588  30.815  35.020  1.00  0.00     0.027 C 
BRANCH  13  14
ATOM     14  C   UNL     1       0.604  29.921  34.646  1.00  0.00     0.004 C 
BRANCH  14  15
ATOM     15  C   UNL     1       0.800  29.816  33.123  1.00  0.00     0.000 C 
BRANCH  15  16
ATOM     16  C   UNL     1       0.430  28.416  32.588  1.00  0.00     0.000 C 
BRANCH  16  17
ATOM     17  C   UNL     1      -1.008  28.326  32.041  1.00  0.00    -0.000 C 
BRANCH  17  18
ATOM     18  C   UNL     1      -2.071  27.929  33.081  1.00  0.00    -0.000 C 
BRANCH  18  19
ATOM     19  C   UNL     1      -1.596  26.824  34.034  1.00  0.00    -0.003 C 
ATOM     20  C   UNL     1      -1.787  27.240  35.490  1.00  0.00     0.004 C 
ENDBRANCH  18  19
ENDBRANCH  17  18
ENDBRANCH  16  17
ENDBRANCH  15  16
ENDBRANCH  14  15
ENDBRANCH  13  14
ENDBRANCH   2  13
TORSDOF 15
ENDMDL
MODEL 3
REMARK VINA RESULT:    -4.288      3.602      7.453
REMARK INTER + INTRA:          -9.766
REMARK INTER:                  -7.582
REMARK INTRA:                  -2.185
REMARK UNBOUND:                -1.718
REMARK SMILES CCCCCCCCC=CCCCCCCCC(=O)[O-]
REMARK SMILES IDX 10 1 9 2 11 3 12 4 13 5 14 6 15 7 16 8 17 9 18 10 19 11
REMARK SMILES IDX 20 12 8 13 7 14 6 15 5 16 4 17 3 18 2 19 1 20
REMARK H PARENT
REMARK Flexibility Score: inf
ROOT
ATOM      1  C   UNL     1      -2.148  32.862  33.316  1.00  0.00    -0.031 C 
ATOM      2  C   UNL     1      -2.503  32.222  34.443  1.00  0.00    -0.031 C 
ENDROOT
BRANCH   1   3
ATOM      3  C   UNL     1      -0.728  33.073  32.856  1.00  0.00     0.027 C 
BRANCH   3   4
ATOM      4  C   UNL     1      -0.541  34.493  32.307  1.00  0.00     0.004 C 
BRANCH   4   5
ATOM      5  C   UNL     1      -1.629  35.469  32.790  1.00  0.00     0.000 C 
BRANCH   5   6
ATOM      6  C   UNL     1      -1.156  36.493  33.839  1.00  0.00     0.000 C 
BRANCH   6   7
ATOM      7  C   UNL     1      -1.864  36.323  35.195  1.00  0.00     0.000 C 
BRANCH   7   8
ATOM      8  C   UNL     1      -1.113  35.373  36.145  1.00  0.00     0.006 C 
BRANCH   8   9
ATOM      9  C   UNL     1      -0.562  36.053  37.412  1.00  0.00     0.053 C 
BRANCH   9  10
ATOM     10  C   UNL     1      -1.030  35.378  38.665  1.00  0.00     0.041 C 
ATOM     11  O   UNL     1      -2.068  35.786  39.253  1.00  0.00    -0.550 OA
ATOM     12  O   UNL     1      -0.360  34.260  39.147  1.00  0.00    -0.550 OA
ENDBRANCH   9  10
ENDBRANCH   8   9
ENDBRANCH   7   8
ENDBRANCH   6   7
ENDBRANCH   5   6
ENDBRANCH   4   5
ENDBRANCH   3   4
ENDBRANCH   1   3
BRANCH   2  13
ATOM     13  C   UNL     1      -1.536  31.701  35.479  1.00  0.00     0.027 C 
BRANCH  13  14
ATOM     14  C   UNL     1      -1.807  30.231  35.830  1.00  0.00     0.004 C 
BRANCH  14  15
ATOM     15  C   UNL     1      -0.658  29.305  35.393  1.00  0.00     0.000 C 
BRANCH  15  16
ATOM     16  C   UNL     1       0.579  30.099  34.924  1.00  0.00     0.000 C 
BRANCH  16  17
ATOM     17  C   UNL     1       1.021  29.761  33.486  1.00  0.00    -0.000 C 
BRANCH  17  18
ATOM     18  C   UNL     1      -0.118  29.330  32.545  1.00  0.00    -0.000 C 
BRANCH  18  19
ATOM     19  C   UNL     1       0.189  28.031  31.787  1.00  0.00    -0.003 C 
ATOM     20  C   UNL     1      -0.825  27.799  30.670  1.00  0.00     0.004 C 
ENDBRANCH  18  19
ENDBRANCH  17  18
ENDBRANCH  16  17
ENDBRANCH  15  16
ENDBRANCH  14  15
ENDBRANCH  13  14
ENDBRANCH   2  13
TORSDOF 15
ENDMDL
MODEL 4
REMARK VINA RESULT:    -4.278      1.358      3.401
REMARK INTER + INTRA:          -9.748
REMARK INTER:                  -7.223
REMARK INTRA:                  -2.525
REMARK UNBOUND:                -1.718
REMARK SMILES CCCCCCCCC=CCCCCCCCC(=O)[O-]
REMARK SMILES IDX 10 1 9 2 11 3 12 4 13 5 14 6 15 7 16 8 17 9 18 10 19 11
REMARK SMILES IDX 20 12 8 13 7 14 6 15 5 16 4 17 3 18 2 19 1 20
REMARK H PARENT
REMARK Flexibility Score: inf
ROOT
ATOM      1  C   UNL     1      -2.735  32.412  35.641  1.00  0.00    -0.031 C 
ATOM      2  C   UNL     1      -2.712  33.726  35.360  1.00  0.00    -0.031 C 
ENDROOT
BRANCH   1   3
ATOM      3  C   UNL     1      -1.530  31.591  36.024  1.00  0.00     0.027 C 
BRANCH   3   4
ATOM      4  C   UNL     1      -1.881  30.099  36.068  1.00  0.00     0.004 C 
BRANCH   4   5
ATOM      5  C   UNL     1      -0.828  29.217  35.373  1.00  0.00     0.000 C 
BRANCH   5   6
ATOM      6  C   UNL     1       0.447  29.963  34.933  1.00  0.00     0.000 C 
BRANCH   6   7
ATOM      7  C   UNL     1       0.616  29.997  33.404  1.00  0.00     0.000 C 
BRANCH   7   8
ATOM      8  C   UNL     1       0.002  31.254  32.763  1.00  0.00     0.006 C 
BRANCH   8   9
ATOM      9  C   UNL     1      -1.432  31.059  32.240  1.00  0.00     0.053 C 
BRANCH   9  10
ATOM     10  C   UNL     1      -1.455  30.576  30.822  1.00  0.00     0.041 C 
ATOM     11  O   UNL     1      -2.383  29.818  30.427  1.00  0.00    -0.550 OA
ATOM     12  O   UNL     1      -0.491  31.011  29.921  1.00  0.00    -0.550 OA
ENDBRANCH   9  10
ENDBRANCH   8   9
ENDBRANCH   7   8
ENDBRANCH   6   7
ENDBRANCH   5   6
ENDBRANCH   4   5
ENDBRANCH   3   4
ENDBRANCH   1   3
BRANCH   2  13
ATOM     13  C   UNL     1      -1.461  34.568  35.285  1.00  0.00     0.027 C 
BRANCH  13  14
ATOM     14  C   UNL     1      -1.588  35.861  36.105  1.00  0.00     0.004 C 
BRANCH  14  15
ATOM     15  C   UNL     1      -0.576  35.920  37.263  1.00  0.00     0.000 C 
BRANCH  15  16
ATOM     16  C   UNL     1      -1.134  35.281  38.553  1.00  0.00     0.000 C 
BRANCH  16  17
ATOM     17  C   UNL     1      -0.350  34.036  39.012  1.00  0.00    -0.000 C 
BRANCH  17  18
ATOM     18  C   UNL     1      -1.223  32.872  39.514  1.00  0.00    -0.000 C 
BRANCH  18  19
ATOM     19  C   UNL     1      -2.716  33.068  39.215  1.00  0.00    -0.003 C 
ATOM     20  C   UNL     1      -3.500  31.788  39.493  1.00  0.00     0.004 C 
ENDBRANCH  18  19
ENDBRANCH  17  18
ENDBRANCH  16  17
ENDBRANCH  15  16
ENDBRANCH  14  15
ENDBRANCH  13  14
ENDBRANCH   2  13
TORSDOF 15
ENDMDL
MODEL 5
REMARK VINA RESULT:    -4.241      2.819      7.608
REMARK INTER + INTRA:          -9.677
REMARK INTER:                  -7.694
REMARK INTRA:                  -1.983
REMARK UNBOUND:                -1.718
REMARK SMILES CCCCCCCCC=CCCCCCCCC(=O)[O-]
REMARK SMILES IDX 10 1 9 2 11 3 12 4 13 5 14 6 15 7 16 8 17 9 18 10 19 11
REMARK SMILES IDX 20 12 8 13 7 14 6 15 5 16 4 17 3 18 2 19 1 20
REMARK H PARENT
REMARK Flexibility Score: inf
ROOT
ATOM      1  C   UNL     1      -2.143  31.270  35.304  1.00  0.00    -0.031 C 
ATOM      2  C   UNL     1      -1.077  30.983  34.538  1.00  0.00    -0.031 C 
ENDROOT
BRANCH   1   3
ATOM      3  C   UNL     1      -2.254  30.965  36.776  1.00  0.00     0.027 C 
BRANCH   3   4
ATOM      4  C   UNL     1      -2.189  32.254  37.605  1.00  0.00     0.004 C 
BRANCH   4   5
ATOM      5  C   UNL     1      -1.953  31.989  39.104  1.00  0.00     0.000 C 
BRANCH   5   6
ATOM      6  C   UNL     1      -1.374  33.184  39.884  1.00  0.00     0.000 C 
BRANCH   6   7
ATOM      7  C   UNL     1      -0.543  34.126  38.996  1.00  0.00     0.000 C 
BRANCH   7   8
ATOM      8  C   UNL     1      -1.158  35.532  38.877  1.00  0.00     0.006 C 
BRANCH   8   9
ATOM      9  C   UNL     1      -1.979  35.754  37.593  1.00  0.00     0.053 C 
BRANCH   9  10
ATOM     10  C   UNL     1      -1.106  35.918  36.386  1.00  0.00     0.041 C 
ATOM     11  O   UNL     1      -0.251  36.843  36.345  1.00  0.00    -0.550 OA
ATOM     12  O   UNL     1      -1.192  35.011  35.337  1.00  0.00    -0.550 OA
ENDBRANCH   9  10
ENDBRANCH   8   9
ENDBRANCH   7   8
ENDBRANCH   6   7
ENDBRANCH   5   6
ENDBRANCH   4   5
ENDBRANCH   3   4
ENDBRANCH   1   3
BRANCH   2  13
ATOM     13  C   UNL     1       0.139  30.219  35.006  1.00  0.00     0.027 C 
BRANCH  13  14
ATOM     14  C   UNL     1       1.030  29.783  33.834  1.00  0.00     0.004 C 
BRANCH  14  15
ATOM     15  C   UNL     1       0.230  29.592  32.532  1.00  0.00     0.000 C 
BRANCH  15  16
ATOM     16  C   UNL     1       0.001  28.101  32.207  1.00  0.00     0.000 C 
BRANCH  16  17
ATOM     17  C   UNL     1      -1.488  27.705  32.145  1.00  0.00    -0.000 C 
BRANCH  17  18
ATOM     18  C   UNL     1      -1.967  26.808  33.299  1.00  0.00    -0.000 C 
BRANCH  18  19
ATOM     19  C   UNL     1      -2.512  27.605  34.493  1.00  0.00    -0.003 C 
ATOM     20  C   UNL     1      -1.778  27.231  35.778  1.00  0.00     0.004 C 
ENDBRANCH  18  19
ENDBRANCH  17  18
ENDBRANCH  16  17
ENDBRANCH  15  16
ENDBRANCH  14  15
ENDBRANCH  13  14
ENDBRANCH   2  13
TORSDOF 15
ENDMDL
MODEL 6
REMARK VINA RESULT:    -4.220      3.601      7.589
REMARK INTER + INTRA:          -9.640
REMARK INTER:                  -7.938
REMARK INTRA:                  -1.702
REMARK UNBOUND:                -1.718
REMARK SMILES CCCCCCCCC=CCCCCCCCC(=O)[O-]
REMARK SMILES IDX 10 1 9 2 11 3 12 4 13 5 14 6 15 7 16 8 17 9 18 10 19 11
REMARK SMILES IDX 20 12 8 13 7 14 6 15 5 16 4 17 3 18 2 19 1 20
REMARK H PARENT
REMARK Flexibility Score: inf
ROOT
ATOM      1  C   UNL     1      -3.037  32.173  37.696  1.00  0.00    -0.031 C 
ATOM      2  C   UNL     1      -2.774  32.220  36.379  1.00  0.00    -0.031 C 
ENDROOT
BRANCH   1   3
ATOM      3  C   UNL     1      -2.026  31.850  38.765  1.00  0.00     0.027 C 
BRANCH   3   4
ATOM      4  C   UNL     1      -1.697  33.097  39.597  1.00  0.00     0.004 C 
BRANCH   4   5
ATOM      5  C   UNL     1      -0.565  33.942  38.985  1.00  0.00     0.000 C 
BRANCH   5   6
ATOM      6  C   UNL     1      -0.941  35.406  38.692  1.00  0.00     0.000 C 
BRANCH   6   7
ATOM      7  C   UNL     1      -1.618  35.581  37.321  1.00  0.00     0.000 C 
BRANCH   7   8
ATOM      8  C   UNL     1      -0.664  36.144  36.251  1.00  0.00     0.006 C 
BRANCH   8   9
ATOM      9  C   UNL     1       0.131  37.381  36.705  1.00  0.00     0.053 C 
BRANCH   9  10
ATOM     10  C   UNL     1       0.464  38.289  35.560  1.00  0.00     0.041 C 
ATOM     11  O   UNL     1      -0.450  38.932  34.976  1.00  0.00    -0.550 OA
ATOM     12  O   UNL     1       1.788  38.476  35.180  1.00  0.00    -0.550 OA
ENDBRANCH   9  10
ENDBRANCH   8   9
ENDBRANCH   7   8
ENDBRANCH   6   7
ENDBRANCH   5   6
ENDBRANCH   4   5
ENDBRANCH   3   4
ENDBRANCH   1   3
BRANCH   2  13
ATOM     13  C   UNL     1      -1.449  31.859  35.752  1.00  0.00     0.027 C 
BRANCH  13  14
ATOM     14  C   UNL     1      -1.422  30.403  35.264  1.00  0.00     0.004 C 
BRANCH  14  15
ATOM     15  C   UNL     1      -0.015  29.784  35.353  1.00  0.00     0.000 C 
BRANCH  15  16
ATOM     16  C   UNL     1       0.833  30.093  34.101  1.00  0.00     0.000 C 
BRANCH  16  17
ATOM     17  C   UNL     1       0.102  29.805  32.775  1.00  0.00    -0.000 C 
BRANCH  17  18
ATOM     18  C   UNL     1       0.153  28.338  32.314  1.00  0.00    -0.000 C 
BRANCH  18  19
ATOM     19  C   UNL     1      -1.237  27.744  32.045  1.00  0.00    -0.003 C 
ATOM     20  C   UNL     1      -1.831  27.149  33.320  1.00  0.00     0.004 C 
ENDBRANCH  18  19
ENDBRANCH  17  18
ENDBRANCH  16  17
ENDBRANCH  15  16
ENDBRANCH  14  15
ENDBRANCH  13  14
ENDBRANCH   2  13
TORSDOF 15
ENDMDL
MODEL 7
REMARK VINA RESULT:    -4.203      3.647      7.116
REMARK INTER + INTRA:          -9.607
REMARK INTER:                  -7.172
REMARK INTRA:                  -2.435
REMARK UNBOUND:                -1.718
REMARK SMILES CCCCCCCCC=CCCCCCCCC(=O)[O-]
REMARK SMILES IDX 10 1 9 2 11 3 12 4 13 5 14 6 15 7 16 8 17 9 18 10 19 11
REMARK SMILES IDX 20 12 8 13 7 14 6 15 5 16 4 17 3 18 2 19 1 20
REMARK H PARENT
REMARK Flexibility Score: inf
ROOT
ATOM      1  C   UNL     1       0.517  30.122  34.447  1.00  0.00    -0.031 C 
ATOM      2  C   UNL     1       0.798  29.399  33.349  1.00  0.00    -0.031 C 
ENDROOT
BRANCH   1   3
ATOM      3  C   UNL     1      -0.792  30.081  35.193  1.00  0.00     0.027 C 
BRANCH   3   4
ATOM      4  C   UNL     1      -1.560  31.398  35.016  1.00  0.00     0.004 C 
BRANCH   4   5
ATOM      5  C   UNL     1      -1.657  32.213  36.318  1.00  0.00     0.000 C 
BRANCH   5   6
ATOM      6  C   UNL     1      -2.937  33.059  36.454  1.00  0.00     0.000 C 
BRANCH   6   7
ATOM      7  C   UNL     1      -2.729  34.522  36.026  1.00  0.00     0.000 C 
BRANCH   7   8
ATOM      8  C   UNL     1      -1.245  34.930  35.993  1.00  0.00     0.006 C 
BRANCH   8   9
ATOM      9  C   UNL     1      -0.853  35.969  37.059  1.00  0.00     0.053 C 
BRANCH   9  10
ATOM     10  C   UNL     1      -1.042  35.449  38.451  1.00  0.00     0.041 C 
ATOM     11  O   UNL     1      -1.944  35.930  39.189  1.00  0.00    -0.550 OA
ATOM     12  O   UNL     1      -0.266  34.392  38.912  1.00  0.00    -0.550 OA
ENDBRANCH   9  10
ENDBRANCH   8   9
ENDBRANCH   7   8
ENDBRANCH   6   7
ENDBRANCH   5   6
ENDBRANCH   4   5
ENDBRANCH   3   4
ENDBRANCH   1   3
BRANCH   2  13
ATOM     13  C   UNL     1      -0.185  28.508  32.630  1.00  0.00     0.027 C 
BRANCH  13  14
ATOM     14  C   UNL     1      -0.599  29.088  31.269  1.00  0.00     0.004 C 
BRANCH  14  15
ATOM     15  C   UNL     1      -2.018  29.684  31.295  1.00  0.00     0.000 C 
BRANCH  15  16
ATOM     16  C   UNL     1      -1.997  31.223  31.402  1.00  0.00     0.000 C 
BRANCH  16  17
ATOM     17  C   UNL     1      -0.707  31.862  30.851  1.00  0.00    -0.000 C 
BRANCH  17  18
ATOM     18  C   UNL     1       0.088  32.698  31.870  1.00  0.00    -0.000 C 
BRANCH  18  19
ATOM     19  C   UNL     1      -0.705  33.895  32.413  1.00  0.00    -0.003 C 
ATOM     20  C   UNL     1       0.028  35.205  32.134  1.00  0.00     0.004 C 
ENDBRANCH  18  19
ENDBRANCH  17  18
ENDBRANCH  16  17
ENDBRANCH  15  16
ENDBRANCH  14  15
ENDBRANCH  13  14
ENDBRANCH   2  13
TORSDOF 15
ENDMDL
MODEL 8
REMARK VINA RESULT:    -4.162      1.396      3.695
REMARK INTER + INTRA:          -9.530
REMARK INTER:                  -7.968
REMARK INTRA:                  -1.562
REMARK UNBOUND:                -1.718
REMARK SMILES CCCCCCCCC=CCCCCCCCC(=O)[O-]
REMARK SMILES IDX 10 1 9 2 11 3 12 4 13 5 14 6 15 7 16 8 17 9 18 10 19 11
REMARK SMILES IDX 20 12 8 13 7 14 6 15 5 16 4 17 3 18 2 19 1 20
REMARK H PARENT
REMARK Flexibility Score: inf
ROOT
ATOM      1  C   UNL     1      -1.113  31.743  34.045  1.00  0.00    -0.031 C 
ATOM      2  C   UNL     1      -1.513  33.026  34.063  1.00  0.00    -0.031 C 
ENDROOT
BRANCH   1   3
ATOM      3  C   UNL     1      -1.066  30.838  35.249  1.00  0.00     0.027 C 
BRANCH   3   4
ATOM      4  C   UNL     1       0.052  29.798  35.106  1.00  0.00     0.004 C 
BRANCH   4   5
ATOM      5  C   UNL     1       0.794  29.902  33.761  1.00  0.00     0.000 C 
BRANCH   5   6
ATOM      6  C   UNL     1       0.312  28.913  32.682  1.00  0.00     0.000 C 
BRANCH   6   7
ATOM      7  C   UNL     1      -0.702  27.890  33.226  1.00  0.00     0.000 C 
BRANCH   7   8
ATOM      8  C   UNL     1      -1.845  27.600  32.237  1.00  0.00     0.006 C 
BRANCH   8   9
ATOM      9  C   UNL     1      -2.071  28.706  31.191  1.00  0.00     0.053 C 
BRANCH   9  10
ATOM     10  C   UNL     1      -2.165  28.157  29.800  1.00  0.00     0.041 C 
ATOM     11  O   UNL     1      -1.301  27.340  29.383  1.00  0.00    -0.550 OA
ATOM     12  O   UNL     1      -3.241  28.496  28.988  1.00  0.00    -0.550 OA
ENDBRANCH   9  10
ENDBRANCH   8   9
ENDBRANCH   7   8
ENDBRANCH   6   7
ENDBRANCH   5   6
ENDBRANCH   4   5
ENDBRANCH   3   4
ENDBRANCH   1   3
BRANCH   2  13
ATOM     13  C   UNL     1      -1.885  33.795  35.309  1.00  0.00     0.027 C 
BRANCH  13  14
ATOM     14  C   UNL     1      -1.519  35.282  35.196  1.00  0.00     0.004 C 
BRANCH  14  15
ATOM     15  C   UNL     1      -0.904  35.832  36.496  1.00  0.00     0.000 C 
BRANCH  15  16
ATOM     16  C   UNL     1      -1.860  35.682  37.698  1.00  0.00     0.000 C 
BRANCH  16  17
ATOM     17  C   UNL     1      -1.157  35.222  38.991  1.00  0.00    -0.000 C 
BRANCH  17  18
ATOM     18  C   UNL     1      -0.619  33.781  38.957  1.00  0.00    -0.000 C 
BRANCH  18  19
ATOM     19  C   UNL     1      -1.557  32.773  39.636  1.00  0.00    -0.003 C 
ATOM     20  C   UNL     1      -2.306  31.942  38.598  1.00  0.00     0.004 C 
ENDBRANCH  18  19
ENDBRANCH  17  18
ENDBRANCH  16  17
ENDBRANCH  15  16
ENDBRANCH  14  15
ENDBRANCH  13  14
ENDBRANCH   2  13
TORSDOF 15
ENDMDL
MODEL 9
REMARK VINA RESULT:    -4.145      3.683      5.481
REMARK INTER + INTRA:          -9.498
REMARK INTER:                  -6.462
REMARK INTRA:                  -3.035
REMARK UNBOUND:                -1.718
REMARK SMILES CCCCCCCCC=CCCCCCCCC(=O)[O-]
REMARK SMILES IDX 10 1 9 2 11 3 12 4 13 5 14 6 15 7 16 8 17 9 18 10 19 11
REMARK SMILES IDX 20 12 8 13 7 14 6 15 5 16 4 17 3 18 2 19 1 20
REMARK H PARENT
REMARK Flexibility Score: inf
ROOT
ATOM      1  C   UNL     1       0.914  29.683  33.358  1.00  0.00    -0.031 C 
ATOM      2  C   UNL     1       0.491  30.042  34.583  1.00  0.00    -0.031 C 
ENDROOT
BRANCH   1   3
ATOM      3  C   UNL     1       0.340  28.550  32.547  1.00  0.00     0.027 C 
BRANCH   3   4
ATOM      4  C   UNL     1      -0.520  29.087  31.395  1.00  0.00     0.004 C 
BRANCH   4   5
ATOM      5  C   UNL     1      -1.832  28.302  31.212  1.00  0.00     0.000 C 
BRANCH   5   6
ATOM      6  C   UNL     1      -2.671  28.146  32.495  1.00  0.00     0.000 C 
BRANCH   6   7
ATOM      7  C   UNL     1      -2.775  26.683  32.960  1.00  0.00     0.000 C 
BRANCH   7   8
ATOM      8  C   UNL     1      -2.748  26.540  34.493  1.00  0.00     0.006 C 
BRANCH   8   9
ATOM      9  C   UNL     1      -1.590  25.676  35.025  1.00  0.00     0.053 C 
BRANCH   9  10
ATOM     10  C   UNL     1      -1.655  25.498  36.511  1.00  0.00     0.041 C 
ATOM     11  O   UNL     1      -2.069  24.413  37.000  1.00  0.00    -0.550 OA
ATOM     12  O   UNL     1      -1.198  26.504  37.354  1.00  0.00    -0.550 OA
ENDBRANCH   9  10
ENDBRANCH   8   9
ENDBRANCH   7   8
ENDBRANCH   6   7
ENDBRANCH   5   6
ENDBRANCH   4   5
ENDBRANCH   3   4
ENDBRANCH   1   3
BRANCH   2  13
ATOM     13  C   UNL     1      -0.556  29.305  35.382  1.00  0.00     0.027 C 
BRANCH  13  14
ATOM     14  C   UNL     1      -1.841  30.131  35.545  1.00  0.00     0.004 C 
BRANCH  14  15
ATOM     15  C   UNL     1      -1.552  31.576  35.993  1.00  0.00     0.000 C 
BRANCH  15  16
ATOM     16  C   UNL     1      -1.890  32.601  34.890  1.00  0.00     0.000 C 
BRANCH  16  17
ATOM     17  C   UNL     1      -2.607  31.984  33.673  1.00  0.00    -0.000 C 
BRANCH  17  18
ATOM     18  C   UNL     1      -1.924  32.245  32.319  1.00  0.00    -0.000 C 
BRANCH  18  19
ATOM     19  C   UNL     1      -0.739  33.215  32.421  1.00  0.00    -0.003 C 
ATOM     20  C   UNL     1       0.403  32.777  31.508  1.00  0.00     0.004 C 
ENDBRANCH  18  19
ENDBRANCH  17  18
ENDBRANCH  16  17
ENDBRANCH  15  16
ENDBRANCH  14  15
ENDBRANCH  13  14
ENDBRANCH   2  13
TORSDOF 15
ENDMDL
