MODEL 1
REMARK VINA RESULT:    -4.595      0.000      0.000
REMARK INTER + INTRA:         -18.093
REMARK INTER:                 -12.117
REMARK INTRA:                  -5.976
REMARK UNBOUND:                -5.976
REMARK SMILES CCCCCCCCCCCCCCCCCCCCCCCCCCCCCC(=O)[O-]
REMARK SMILES IDX 16 1 17 2 18 3 19 4 20 5 21 6 22 7 23 8 24 9 25 10 26 11
REMARK SMILES IDX 27 12 28 13 29 14 30 15 31 16 32 17 15 18 14 19 13 20 12 21
REMARK SMILES IDX 11 22 10 23 9 24 8 25 7 26 6 27 5 28 4 29 3 30 2 31 1 32
REMARK H PARENT
REMARK Flexibility Score: inf
ROOT
ATOM      1  C   UNL     1      51.662 -40.733  -2.999  1.00  0.00     0.000 C 
ENDROOT
BRANCH   1   2
ATOM      2  C   UNL     1      52.128 -39.273  -3.143  1.00  0.00     0.000 C 
BRANCH   2   3
ATOM      3  C   UNL     1      51.779 -38.663  -4.512  1.00  0.00     0.000 C 
BRANCH   3   4
ATOM      4  C   UNL     1      50.670 -37.597  -4.430  1.00  0.00     0.000 C 
BRANCH   4   5
ATOM      5  C   UNL     1      50.204 -37.242  -3.006  1.00  0.00     0.000 C 
BRANCH   5   6
ATOM      6  C   UNL     1      48.682 -37.066  -2.901  1.00  0.00     0.000 C 
BRANCH   6   7
ATOM      7  C   UNL     1      48.197 -37.307  -1.467  1.00  0.00     0.000 C 
BRANCH   7   8
ATOM      8  C   UNL     1      46.726 -36.893  -1.310  1.00  0.00     0.000 C 
BRANCH   8   9
ATOM      9  C   UNL     1      46.128 -36.335  -2.612  1.00  0.00     0.000 C 
BRANCH   9  10
ATOM     10  C   UNL     1      44.961 -35.363  -2.354  1.00  0.00     0.000 C 
BRANCH  10  11
ATOM     11  C   UNL     1      44.822 -34.299  -3.454  1.00  0.00     0.000 C 
BRANCH  11  12
ATOM     12  C   UNL     1      45.045 -32.872  -2.927  1.00  0.00     0.000 C 
BRANCH  12  13
ATOM     13  C   UNL     1      46.053 -32.817  -1.764  1.00  0.00     0.006 C 
BRANCH  13  14
ATOM     14  C   UNL     1      47.527 -32.781  -2.204  1.00  0.00     0.053 C 
BRANCH  14  15
ATOM     15  C   UNL     1      48.022 -31.381  -2.404  1.00  0.00     0.041 C 
ATOM     16  O   UNL     1      48.373 -30.991  -3.549  1.00  0.00    -0.550 OA
ATOM     17  O   UNL     1      48.084 -30.502  -1.329  1.00  0.00    -0.550 OA
ENDBRANCH  14  15
ENDBRANCH  13  14
ENDBRANCH  12  13
ENDBRANCH  11  12
ENDBRANCH  10  11
ENDBRANCH   9  10
ENDBRANCH   8   9
ENDBRANCH   7   8
ENDBRANCH   6   7
ENDBRANCH   5   6
ENDBRANCH   4   5
ENDBRANCH   3   4
ENDBRANCH   2   3
ENDBRANCH   1   2
BRANCH   1  18
ATOM     18  C   UNL     1      50.174 -40.921  -2.632  1.00  0.00     0.000 C 
BRANCH  18  19
ATOM     19  C   UNL     1      49.341 -41.714  -3.655  1.00  0.00     0.000 C 
BRANCH  19  20
ATOM     20  C   UNL     1      49.003 -40.954  -4.952  1.00  0.00     0.000 C 
BRANCH  20  21
ATOM     21  C   UNL     1      47.798 -39.998  -4.823  1.00  0.00     0.000 C 
BRANCH  21  22
ATOM     22  C   UNL     1      46.820 -40.416  -3.711  1.00  0.00     0.000 C 
BRANCH  22  23
ATOM     23  C   UNL     1      45.450 -39.725  -3.828  1.00  0.00     0.000 C 
BRANCH  23  24
ATOM     24  C   UNL     1      45.317 -38.804  -5.058  1.00  0.00    -0.000 C 
BRANCH  24  25
ATOM     25  C   UNL     1      43.969 -38.068  -5.097  1.00  0.00    -0.000 C 
BRANCH  25  26
ATOM     26  C   UNL     1      44.043 -36.828  -6.004  1.00  0.00    -0.000 C 
BRANCH  26  27
ATOM     27  C   UNL     1      45.181 -36.914  -7.033  1.00  0.00    -0.000 C 
BRANCH  27  28
ATOM     28  C   UNL     1      46.070 -35.662  -7.042  1.00  0.00    -0.000 C 
BRANCH  28  29
ATOM     29  C   UNL     1      47.264 -35.829  -6.089  1.00  0.00    -0.000 C 
BRANCH  29  30
ATOM     30  C   UNL     1      47.699 -34.499  -5.452  1.00  0.00    -0.000 C 
BRANCH  30  31
ATOM     31  C   UNL     1      48.903 -33.871  -6.170  1.00  0.00    -0.003 C 
ATOM     32  C   UNL     1      49.753 -34.940  -6.851  1.00  0.00     0.004 C 
ENDBRANCH  30  31
ENDBRANCH  29  30
ENDBRANCH  28  29
ENDBRANCH  27  28
ENDBRANCH  26  27
ENDBRANCH  25  26
ENDBRANCH  24  25
ENDBRANCH  23  24
ENDBRANCH  22  23
ENDBRANCH  21  22
ENDBRANCH  20  21
ENDBRANCH  19  20
ENDBRANCH  18  19
ENDBRANCH   1  18
TORSDOF 28
ENDMDL
MODEL 2
REMARK VINA RESULT:    -4.462      3.180      6.677
REMARK INTER + INTRA:         -17.742
REMARK INTER:                 -12.003
REMARK INTRA:                  -5.739
REMARK UNBOUND:                -5.976
REMARK SMILES CCCCCCCCCCCCCCCCCCCCCCCCCCCCCC(=O)[O-]
REMARK SMILES IDX 16 1 17 2 18 3 19 4 20 5 21 6 22 7 23 8 24 9 25 10 26 11
REMARK SMILES IDX 27 12 28 13 29 14 30 15 31 16 32 17 15 18 14 19 13 20 12 21
REMARK SMILES IDX 11 22 10 23 9 24 8 25 7 26 6 27 5 28 4 29 3 30 2 31 1 32
REMARK H PARENT
REMARK Flexibility Score: inf
ROOT
ATOM      1  C   UNL     1      49.107 -36.319  -1.592  1.00  0.00     0.000 C 
ENDROOT
BRANCH   1   2
ATOM      2  C   UNL     1      48.188 -36.655  -0.402  1.00  0.00     0.000 C 
BRANCH   2   3
ATOM      3  C   UNL     1      47.474 -38.008  -0.557  1.00  0.00     0.000 C 
BRANCH   3   4
ATOM      4  C   UNL     1      45.953 -37.914  -0.335  1.00  0.00     0.000 C 
BRANCH   4   5
ATOM      5  C   UNL     1      45.086 -38.422  -1.501  1.00  0.00     0.000 C 
BRANCH   5   6
ATOM      6  C   UNL     1      45.685 -38.099  -2.878  1.00  0.00     0.000 C 
BRANCH   6   7
ATOM      7  C   UNL     1      45.641 -39.323  -3.799  1.00  0.00     0.000 C 
BRANCH   7   8
ATOM      8  C   UNL     1      46.716 -39.224  -4.892  1.00  0.00     0.000 C 
BRANCH   8   9
ATOM      9  C   UNL     1      47.908 -40.160  -4.634  1.00  0.00     0.000 C 
BRANCH   9  10
ATOM     10  C   UNL     1      47.825 -40.853  -3.260  1.00  0.00     0.000 C 
BRANCH  10  11
ATOM     11  C   UNL     1      49.210 -41.169  -2.672  1.00  0.00     0.000 C 
BRANCH  11  12
ATOM     12  C   UNL     1      50.338 -41.019  -3.705  1.00  0.00     0.000 C 
BRANCH  12  13
ATOM     13  C   UNL     1      51.632 -40.449  -3.095  1.00  0.00     0.006 C 
BRANCH  13  14
ATOM     14  C   UNL     1      52.473 -41.475  -2.316  1.00  0.00     0.053 C 
BRANCH  14  15
ATOM     15  C   UNL     1      53.828 -40.941  -1.963  1.00  0.00     0.041 C 
ATOM     16  O   UNL     1      54.002 -39.702  -1.820  1.00  0.00    -0.550 OA
ATOM     17  O   UNL     1      54.895 -41.812  -1.780  1.00  0.00    -0.550 OA
ENDBRANCH  14  15
ENDBRANCH  13  14
ENDBRANCH  12  13
ENDBRANCH  11  12
ENDBRANCH  10  11
ENDBRANCH   9  10
ENDBRANCH   8   9
ENDBRANCH   7   8
ENDBRANCH   6   7
ENDBRANCH   5   6
ENDBRANCH   4   5
ENDBRANCH   3   4
ENDBRANCH   2   3
ENDBRANCH   1   2
BRANCH   1  18
ATOM     18  C   UNL     1      49.282 -37.446  -2.632  1.00  0.00     0.000 C 
BRANCH  18  19
ATOM     19  C   UNL     1      50.447 -37.252  -3.620  1.00  0.00     0.000 C 
BRANCH  19  20
ATOM     20  C   UNL     1      50.065 -37.357  -5.109  1.00  0.00     0.000 C 
BRANCH  20  21
ATOM     21  C   UNL     1      49.728 -36.001  -5.767  1.00  0.00     0.000 C 
BRANCH  21  22
ATOM     22  C   UNL     1      48.216 -35.726  -5.828  1.00  0.00     0.000 C 
BRANCH  22  23
ATOM     23  C   UNL     1      47.769 -34.613  -4.864  1.00  0.00     0.000 C 
BRANCH  23  24
ATOM     24  C   UNL     1      46.628 -35.032  -3.914  1.00  0.00    -0.000 C 
BRANCH  24  25
ATOM     25  C   UNL     1      45.559 -33.938  -3.764  1.00  0.00    -0.000 C 
BRANCH  25  26
ATOM     26  C   UNL     1      44.672 -34.198  -2.535  1.00  0.00    -0.000 C 
BRANCH  26  27
ATOM     27  C   UNL     1      45.483 -34.335  -1.236  1.00  0.00    -0.000 C 
BRANCH  27  28
ATOM     28  C   UNL     1      45.967 -32.983  -0.692  1.00  0.00    -0.000 C 
BRANCH  28  29
ATOM     29  C   UNL     1      47.502 -32.910  -0.688  1.00  0.00    -0.000 C 
BRANCH  29  30
ATOM     30  C   UNL     1      48.024 -31.486  -0.938  1.00  0.00    -0.000 C 
BRANCH  30  31
ATOM     31  C   UNL     1      47.486 -30.885  -2.246  1.00  0.00    -0.003 C 
ATOM     32  C   UNL     1      48.360 -31.284  -3.432  1.00  0.00     0.004 C 
ENDBRANCH  30  31
ENDBRANCH  29  30
ENDBRANCH  28  29
ENDBRANCH  27  28
ENDBRANCH  26  27
ENDBRANCH  25  26
ENDBRANCH  24  25
ENDBRANCH  23  24
ENDBRANCH  22  23
ENDBRANCH  21  22
ENDBRANCH  20  21
ENDBRANCH  19  20
ENDBRANCH  18  19
ENDBRANCH   1  18
TORSDOF 28
ENDMDL
MODEL 3
REMARK VINA RESULT:    -4.450      1.189      3.454
REMARK INTER + INTRA:         -17.711
REMARK INTER:                 -11.865
REMARK INTRA:                  -5.846
REMARK UNBOUND:                -5.976
REMARK SMILES CCCCCCCCCCCCCCCCCCCCCCCCCCCCCC(=O)[O-]
REMARK SMILES IDX 16 1 17 2 18 3 19 4 20 5 21 6 22 7 23 8 24 9 25 10 26 11
REMARK SMILES IDX 27 12 28 13 29 14 30 15 31 16 32 17 15 18 14 19 13 20 12 21
REMARK SMILES IDX 11 22 10 23 9 24 8 25 7 26 6 27 5 28 4 29 3 30 2 31 1 32
REMARK H PARENT
REMARK Flexibility Score: inf
ROOT
ATOM      1  C   UNL     1      51.510 -38.543  -3.647  1.00  0.00     0.000 C 
ENDROOT
BRANCH   1   2
ATOM      2  C   UNL     1      51.874 -38.293  -5.123  1.00  0.00     0.000 C 
BRANCH   2   3
ATOM      3  C   UNL     1      50.653 -37.945  -5.992  1.00  0.00     0.000 C 
BRANCH   3   4
ATOM      4  C   UNL     1      49.609 -37.093  -5.247  1.00  0.00     0.000 C 
BRANCH   4   5
ATOM      5  C   UNL     1      49.518 -35.623  -5.696  1.00  0.00     0.000 C 
BRANCH   5   6
ATOM      6  C   UNL     1      48.139 -35.000  -5.429  1.00  0.00     0.000 C 
BRANCH   6   7
ATOM      7  C   UNL     1      47.231 -35.126  -6.657  1.00  0.00     0.000 C 
BRANCH   7   8
ATOM      8  C   UNL     1      46.050 -36.066  -6.370  1.00  0.00     0.000 C 
BRANCH   8   9
ATOM      9  C   UNL     1      45.933 -36.427  -4.880  1.00  0.00     0.000 C 
BRANCH   9  10
ATOM     10  C   UNL     1      44.553 -36.068  -4.295  1.00  0.00     0.000 C 
BRANCH  10  11
ATOM     11  C   UNL     1      44.557 -34.724  -3.550  1.00  0.00     0.000 C 
BRANCH  11  12
ATOM     12  C   UNL     1      45.771 -34.569  -2.618  1.00  0.00     0.000 C 
BRANCH  12  13
ATOM     13  C   UNL     1      46.098 -33.097  -2.308  1.00  0.00     0.006 C 
BRANCH  13  14
ATOM     14  C   UNL     1      47.548 -32.850  -1.855  1.00  0.00     0.053 C 
BRANCH  14  15
ATOM     15  C   UNL     1      48.031 -31.483  -2.232  1.00  0.00     0.041 C 
ATOM     16  O   UNL     1      48.011 -30.549  -1.386  1.00  0.00    -0.550 OA
ATOM     17  O   UNL     1      48.515 -31.242  -3.511  1.00  0.00    -0.550 OA
ENDBRANCH  14  15
ENDBRANCH  13  14
ENDBRANCH  12  13
ENDBRANCH  11  12
ENDBRANCH  10  11
ENDBRANCH   9  10
ENDBRANCH   8   9
ENDBRANCH   7   8
ENDBRANCH   6   7
ENDBRANCH   5   6
ENDBRANCH   4   5
ENDBRANCH   3   4
ENDBRANCH   2   3
ENDBRANCH   1   2
BRANCH   1  18
ATOM     18  C   UNL     1      52.299 -39.675  -2.954  1.00  0.00     0.000 C 
BRANCH  18  19
ATOM     19  C   UNL     1      51.478 -40.932  -2.612  1.00  0.00     0.000 C 
BRANCH  19  20
ATOM     20  C   UNL     1      50.520 -41.409  -3.721  1.00  0.00     0.000 C 
BRANCH  20  21
ATOM     21  C   UNL     1      49.047 -41.011  -3.489  1.00  0.00     0.000 C 
BRANCH  21  22
ATOM     22  C   UNL     1      48.313 -40.647  -4.791  1.00  0.00     0.000 C 
BRANCH  22  23
ATOM     23  C   UNL     1      47.048 -39.805  -4.551  1.00  0.00     0.000 C 
BRANCH  23  24
ATOM     24  C   UNL     1      46.080 -40.414  -3.515  1.00  0.00    -0.000 C 
BRANCH  24  25
ATOM     25  C   UNL     1      44.668 -39.813  -3.608  1.00  0.00    -0.000 C 
BRANCH  25  26
ATOM     26  C   UNL     1      44.304 -39.058  -2.319  1.00  0.00    -0.000 C 
BRANCH  26  27
ATOM     27  C   UNL     1      45.387 -39.179  -1.235  1.00  0.00    -0.000 C 
BRANCH  27  28
ATOM     28  C   UNL     1      46.116 -37.854  -0.971  1.00  0.00    -0.000 C 
BRANCH  28  29
ATOM     29  C   UNL     1      47.639 -38.050  -0.992  1.00  0.00    -0.000 C 
BRANCH  29  30
ATOM     30  C   UNL     1      48.317 -37.271  -2.132  1.00  0.00    -0.000 C 
BRANCH  30  31
ATOM     31  C   UNL     1      49.272 -36.185  -1.612  1.00  0.00    -0.003 C 
ATOM     32  C   UNL     1      48.999 -35.873  -0.144  1.00  0.00     0.004 C 
ENDBRANCH  30  31
ENDBRANCH  29  30
ENDBRANCH  28  29
ENDBRANCH  27  28
ENDBRANCH  26  27
ENDBRANCH  25  26
ENDBRANCH  24  25
ENDBRANCH  23  24
ENDBRANCH  22  23
ENDBRANCH  21  22
ENDBRANCH  20  21
ENDBRANCH  19  20
ENDBRANCH  18  19
ENDBRANCH   1  18
TORSDOF 28
ENDMDL
MODEL 4
REMARK VINA RESULT:    -4.440      1.554      5.327
REMARK INTER + INTRA:         -17.684
REMARK INTER:                 -12.559
REMARK INTRA:                  -5.124
REMARK UNBOUND:                -5.976
REMARK SMILES CCCCCCCCCCCCCCCCCCCCCCCCCCCCCC(=O)[O-]
REMARK SMILES IDX 16 1 17 2 18 3 19 4 20 5 21 6 22 7 23 8 24 9 25 10 26 11
REMARK SMILES IDX 27 12 28 13 29 14 30 15 31 16 32 17 15 18 14 19 13 20 12 21
REMARK SMILES IDX 11 22 10 23 9 24 8 25 7 26 6 27 5 28 4 29 3 30 2 31 1 32
REMARK H PARENT
REMARK Flexibility Score: inf
ROOT
ATOM      1  C   UNL     1      48.901 -35.797  -0.986  1.00  0.00     0.000 C 
ENDROOT
BRANCH   1   2
ATOM      2  C   UNL     1      48.931 -37.014  -1.929  1.00  0.00     0.000 C 
BRANCH   2   3
ATOM      3  C   UNL     1      48.076 -36.816  -3.193  1.00  0.00     0.000 C 
BRANCH   3   4
ATOM      4  C   UNL     1      46.605 -36.488  -2.877  1.00  0.00     0.000 C 
BRANCH   4   5
ATOM      5  C   UNL     1      45.568 -37.403  -3.553  1.00  0.00     0.000 C 
BRANCH   5   6
ATOM      6  C   UNL     1      46.016 -37.895  -4.938  1.00  0.00     0.000 C 
BRANCH   6   7
ATOM      7  C   UNL     1      44.984 -37.531  -6.011  1.00  0.00     0.000 C 
BRANCH   7   8
ATOM      8  C   UNL     1      45.580 -36.549  -7.031  1.00  0.00     0.000 C 
BRANCH   8   9
ATOM      9  C   UNL     1      46.176 -35.297  -6.367  1.00  0.00     0.000 C 
BRANCH   9  10
ATOM     10  C   UNL     1      47.503 -34.862  -7.017  1.00  0.00     0.000 C 
BRANCH  10  11
ATOM     11  C   UNL     1      48.714 -35.088  -6.099  1.00  0.00     0.000 C 
BRANCH  11  12
ATOM     12  C   UNL     1      49.202 -33.789  -5.434  1.00  0.00     0.000 C 
BRANCH  12  13
ATOM     13  C   UNL     1      48.226 -33.266  -4.364  1.00  0.00     0.006 C 
BRANCH  13  14
ATOM     14  C   UNL     1      48.612 -31.903  -3.763  1.00  0.00     0.053 C 
BRANCH  14  15
ATOM     15  C   UNL     1      47.723 -31.518  -2.621  1.00  0.00     0.041 C 
ATOM     16  O   UNL     1      48.104 -30.655  -1.786  1.00  0.00    -0.550 OA
ATOM     17  O   UNL     1      46.470 -32.102  -2.483  1.00  0.00    -0.550 OA
ENDBRANCH  14  15
ENDBRANCH  13  14
ENDBRANCH  12  13
ENDBRANCH  11  12
ENDBRANCH  10  11
ENDBRANCH   9  10
ENDBRANCH   8   9
ENDBRANCH   7   8
ENDBRANCH   6   7
ENDBRANCH   5   6
ENDBRANCH   4   5
ENDBRANCH   3   4
ENDBRANCH   2   3
ENDBRANCH   1   2
BRANCH   1  18
ATOM     18  C   UNL     1      48.331 -36.065   0.423  1.00  0.00     0.000 C 
BRANCH  18  19
ATOM     19  C   UNL     1      47.952 -37.530   0.710  1.00  0.00     0.000 C 
BRANCH  19  20
ATOM     20  C   UNL     1      46.440 -37.826   0.710  1.00  0.00     0.000 C 
BRANCH  20  21
ATOM     21  C   UNL     1      46.028 -38.982  -0.226  1.00  0.00     0.000 C 
BRANCH  21  22
ATOM     22  C   UNL     1      47.211 -39.880  -0.625  1.00  0.00     0.000 C 
BRANCH  22  23
ATOM     23  C   UNL     1      47.093 -40.424  -2.060  1.00  0.00     0.000 C 
BRANCH  23  24
ATOM     24  C   UNL     1      48.452 -40.687  -2.741  1.00  0.00    -0.000 C 
BRANCH  24  25
ATOM     25  C   UNL     1      48.456 -40.278  -4.222  1.00  0.00    -0.000 C 
BRANCH  25  26
ATOM     26  C   UNL     1      49.837 -40.510  -4.856  1.00  0.00    -0.000 C 
BRANCH  26  27
ATOM     27  C   UNL     1      50.481 -39.211  -5.366  1.00  0.00    -0.000 C 
BRANCH  27  28
ATOM     28  C   UNL     1      51.323 -38.503  -4.295  1.00  0.00    -0.000 C 
BRANCH  28  29
ATOM     29  C   UNL     1      51.917 -39.516  -3.305  1.00  0.00    -0.000 C 
BRANCH  29  30
ATOM     30  C   UNL     1      53.245 -39.035  -2.696  1.00  0.00    -0.000 C 
BRANCH  30  31
ATOM     31  C   UNL     1      53.970 -40.145  -1.919  1.00  0.00    -0.003 C 
ATOM     32  C   UNL     1      53.118 -41.409  -1.846  1.00  0.00     0.004 C 
ENDBRANCH  30  31
ENDBRANCH  29  30
ENDBRANCH  28  29
ENDBRANCH  27  28
ENDBRANCH  26  27
ENDBRANCH  25  26
ENDBRANCH  24  25
ENDBRANCH  23  24
ENDBRANCH  22  23
ENDBRANCH  21  22
ENDBRANCH  20  21
ENDBRANCH  19  20
ENDBRANCH  18  19
ENDBRANCH   1  18
TORSDOF 28
ENDMDL
MODEL 5
REMARK VINA RESULT:    -4.340      3.445      6.893
REMARK INTER + INTRA:         -17.420
REMARK INTER:                 -10.967
REMARK INTRA:                  -6.453
REMARK UNBOUND:                -5.976
REMARK SMILES CCCCCCCCCCCCCCCCCCCCCCCCCCCCCC(=O)[O-]
REMARK SMILES IDX 16 1 17 2 18 3 19 4 20 5 21 6 22 7 23 8 24 9 25 10 26 11
REMARK SMILES IDX 27 12 28 13 29 14 30 15 31 16 32 17 15 18 14 19 13 20 12 21
REMARK SMILES IDX 11 22 10 23 9 24 8 25 7 26 6 27 5 28 4 29 3 30 2 31 1 32
REMARK H PARENT
REMARK Flexibility Score: inf
ROOT
ATOM      1  C   UNL     1      46.676 -40.259  -2.467  1.00  0.00     0.000 C 
ENDROOT
BRANCH   1   2
ATOM      2  C   UNL     1      47.082 -40.406  -3.945  1.00  0.00     0.000 C 
BRANCH   2   3
ATOM      3  C   UNL     1      46.213 -39.563  -4.894  1.00  0.00     0.000 C 
BRANCH   3   4
ATOM      4  C   UNL     1      45.037 -38.873  -4.178  1.00  0.00     0.000 C 
BRANCH   4   5
ATOM      5  C   UNL     1      44.326 -37.775  -4.989  1.00  0.00     0.000 C 
BRANCH   5   6
ATOM      6  C   UNL     1      44.564 -37.899  -6.501  1.00  0.00     0.000 C 
BRANCH   6   7
ATOM      7  C   UNL     1      45.113 -36.591  -7.081  1.00  0.00     0.000 C 
BRANCH   7   8
ATOM      8  C   UNL     1      45.813 -35.762  -5.994  1.00  0.00     0.000 C 
BRANCH   8   9
ATOM      9  C   UNL     1      47.345 -35.875  -6.062  1.00  0.00     0.000 C 
BRANCH   9  10
ATOM     10  C   UNL     1      47.936 -36.611  -4.844  1.00  0.00     0.000 C 
BRANCH  10  11
ATOM     11  C   UNL     1      49.374 -37.095  -5.085  1.00  0.00     0.000 C 
BRANCH  11  12
ATOM     12  C   UNL     1      49.935 -37.894  -3.897  1.00  0.00     0.000 C 
BRANCH  12  13
ATOM     13  C   UNL     1      50.568 -39.231  -4.325  1.00  0.00     0.006 C 
BRANCH  13  14
ATOM     14  C   UNL     1      51.700 -39.721  -3.405  1.00  0.00     0.053 C 
BRANCH  14  15
ATOM     15  C   UNL     1      51.422 -41.082  -2.844  1.00  0.00     0.041 C 
ATOM     16  O   UNL     1      52.307 -41.687  -2.183  1.00  0.00    -0.550 OA
ATOM     17  O   UNL     1      50.182 -41.679  -3.041  1.00  0.00    -0.550 OA
ENDBRANCH  14  15
ENDBRANCH  13  14
ENDBRANCH  12  13
ENDBRANCH  11  12
ENDBRANCH  10  11
ENDBRANCH   9  10
ENDBRANCH   8   9
ENDBRANCH   7   8
ENDBRANCH   6   7
ENDBRANCH   5   6
ENDBRANCH   4   5
ENDBRANCH   3   4
ENDBRANCH   2   3
ENDBRANCH   1   2
BRANCH   1  18
ATOM     18  C   UNL     1      47.666 -39.469  -1.584  1.00  0.00     0.000 C 
BRANCH  18  19
ATOM     19  C   UNL     1      47.241 -39.299  -0.113  1.00  0.00     0.000 C 
BRANCH  19  20
ATOM     20  C   UNL     1      45.778 -39.672   0.192  1.00  0.00     0.000 C 
BRANCH  20  21
ATOM     21  C   UNL     1      44.884 -38.464   0.546  1.00  0.00     0.000 C 
BRANCH  21  22
ATOM     22  C   UNL     1      44.297 -37.770  -0.695  1.00  0.00     0.000 C 
BRANCH  22  23
ATOM     23  C   UNL     1      44.784 -36.319  -0.858  1.00  0.00     0.000 C 
BRANCH  23  24
ATOM     24  C   UNL     1      45.877 -36.144  -1.932  1.00  0.00    -0.000 C 
BRANCH  24  25
ATOM     25  C   UNL     1      46.270 -34.673  -2.135  1.00  0.00    -0.000 C 
BRANCH  25  26
ATOM     26  C   UNL     1      47.580 -34.345  -1.401  1.00  0.00    -0.000 C 
BRANCH  26  27
ATOM     27  C   UNL     1      48.589 -35.504  -1.442  1.00  0.00    -0.000 C 
BRANCH  27  28
ATOM     28  C   UNL     1      49.125 -35.875  -0.052  1.00  0.00    -0.000 C 
BRANCH  28  29
ATOM     29  C   UNL     1      48.094 -35.552   1.040  1.00  0.00    -0.000 C 
BRANCH  29  30
ATOM     30  C   UNL     1      47.948 -36.687   2.067  1.00  0.00    -0.000 C 
BRANCH  30  31
ATOM     31  C   UNL     1      46.753 -36.476   3.008  1.00  0.00    -0.003 C 
ATOM     32  C   UNL     1      45.830 -35.379   2.485  1.00  0.00     0.004 C 
ENDBRANCH  30  31
ENDBRANCH  29  30
ENDBRANCH  28  29
ENDBRANCH  27  28
ENDBRANCH  26  27
ENDBRANCH  25  26
ENDBRANCH  24  25
ENDBRANCH  23  24
ENDBRANCH  22  23
ENDBRANCH  21  22
ENDBRANCH  20  21
ENDBRANCH  19  20
ENDBRANCH  18  19
ENDBRANCH   1  18
TORSDOF 28
ENDMDL
MODEL 6
REMARK VINA RESULT:    -4.338      1.803      4.630
REMARK INTER + INTRA:         -17.414
REMARK INTER:                 -10.952
REMARK INTRA:                  -6.462
REMARK UNBOUND:                -5.976
REMARK SMILES CCCCCCCCCCCCCCCCCCCCCCCCCCCCCC(=O)[O-]
REMARK SMILES IDX 16 1 17 2 18 3 19 4 20 5 21 6 22 7 23 8 24 9 25 10 26 11
REMARK SMILES IDX 27 12 28 13 29 14 30 15 31 16 32 17 15 18 14 19 13 20 12 21
REMARK SMILES IDX 11 22 10 23 9 24 8 25 7 26 6 27 5 28 4 29 3 30 2 31 1 32
REMARK H PARENT
REMARK Flexibility Score: inf
ROOT
ATOM      1  C   UNL     1      44.682 -39.036  -3.855  1.00  0.00     0.000 C 
ENDROOT
BRANCH   1   2
ATOM      2  C   UNL     1      44.208 -37.661  -3.348  1.00  0.00     0.000 C 
BRANCH   2   3
ATOM      3  C   UNL     1      44.487 -37.444  -1.851  1.00  0.00     0.000 C 
BRANCH   3   4
ATOM      4  C   UNL     1      44.723 -38.760  -1.087  1.00  0.00     0.000 C 
BRANCH   4   5
ATOM      5  C   UNL     1      46.049 -38.839  -0.308  1.00  0.00     0.000 C 
BRANCH   5   6
ATOM      6  C   UNL     1      46.353 -37.560   0.488  1.00  0.00     0.000 C 
BRANCH   6   7
ATOM      7  C   UNL     1      47.741 -37.632   1.135  1.00  0.00     0.000 C 
BRANCH   7   8
ATOM      8  C   UNL     1      48.206 -36.239   1.585  1.00  0.00     0.000 C 
BRANCH   8   9
ATOM      9  C   UNL     1      47.063 -35.211   1.602  1.00  0.00     0.000 C 
BRANCH   9  10
ATOM     10  C   UNL     1      47.524 -33.811   1.153  1.00  0.00     0.000 C 
BRANCH  10  11
ATOM     11  C   UNL     1      47.660 -33.693  -0.373  1.00  0.00     0.000 C 
BRANCH  11  12
ATOM     12  C   UNL     1      46.326 -33.915  -1.104  1.00  0.00     0.000 C 
BRANCH  12  13
ATOM     13  C   UNL     1      46.300 -33.273  -2.503  1.00  0.00     0.006 C 
BRANCH  13  14
ATOM     14  C   UNL     1      47.519 -32.388  -2.819  1.00  0.00     0.053 C 
BRANCH  14  15
ATOM     15  C   UNL     1      47.238 -30.936  -2.582  1.00  0.00     0.041 C 
ATOM     16  O   UNL     1      46.495 -30.298  -3.374  1.00  0.00    -0.550 OA
ATOM     17  O   UNL     1      47.787 -30.289  -1.482  1.00  0.00    -0.550 OA
ENDBRANCH  14  15
ENDBRANCH  13  14
ENDBRANCH  12  13
ENDBRANCH  11  12
ENDBRANCH  10  11
ENDBRANCH   9  10
ENDBRANCH   8   9
ENDBRANCH   7   8
ENDBRANCH   6   7
ENDBRANCH   5   6
ENDBRANCH   4   5
ENDBRANCH   3   4
ENDBRANCH   2   3
ENDBRANCH   1   2
BRANCH   1  18
ATOM     18  C   UNL     1      45.781 -39.000  -4.938  1.00  0.00     0.000 C 
BRANCH  18  19
ATOM     19  C   UNL     1      46.999 -39.903  -4.668  1.00  0.00     0.000 C 
BRANCH  19  20
ATOM     20  C   UNL     1      46.993 -40.616  -3.301  1.00  0.00     0.000 C 
BRANCH  20  21
ATOM     21  C   UNL     1      48.395 -40.790  -2.679  1.00  0.00     0.000 C 
BRANCH  21  22
ATOM     22  C   UNL     1      49.502 -40.948  -3.735  1.00  0.00     0.000 C 
BRANCH  22  23
ATOM     23  C   UNL     1      50.864 -40.414  -3.258  1.00  0.00     0.000 C 
BRANCH  23  24
ATOM     24  C   UNL     1      51.342 -39.158  -4.016  1.00  0.00    -0.000 C 
BRANCH  24  25
ATOM     25  C   UNL     1      50.487 -38.860  -5.257  1.00  0.00    -0.000 C 
BRANCH  25  26
ATOM     26  C   UNL     1      51.002 -37.614  -5.996  1.00  0.00    -0.000 C 
BRANCH  26  27
ATOM     27  C   UNL     1      50.224 -36.341  -5.626  1.00  0.00    -0.000 C 
BRANCH  27  28
ATOM     28  C   UNL     1      48.727 -36.603  -5.401  1.00  0.00    -0.000 C 
BRANCH  28  29
ATOM     29  C   UNL     1      48.203 -35.798  -4.202  1.00  0.00    -0.000 C 
BRANCH  29  30
ATOM     30  C   UNL     1      47.765 -36.700  -3.036  1.00  0.00    -0.000 C 
BRANCH  30  31
ATOM     31  C   UNL     1      48.947 -37.143  -2.160  1.00  0.00    -0.003 C 
ATOM     32  C   UNL     1      49.838 -35.956  -1.802  1.00  0.00     0.004 C 
ENDBRANCH  30  31
ENDBRANCH  29  30
ENDBRANCH  28  29
ENDBRANCH  27  28
ENDBRANCH  26  27
ENDBRANCH  25  26
ENDBRANCH  24  25
ENDBRANCH  23  24
ENDBRANCH  22  23
ENDBRANCH  21  22
ENDBRANCH  20  21
ENDBRANCH  19  20
ENDBRANCH  18  19
ENDBRANCH   1  18
TORSDOF 28
ENDMDL
MODEL 7
REMARK VINA RESULT:    -4.324      2.905      6.068
REMARK INTER + INTRA:         -17.377
REMARK INTER:                 -10.381
REMARK INTRA:                  -6.996
REMARK UNBOUND:                -5.976
REMARK SMILES CCCCCCCCCCCCCCCCCCCCCCCCCCCCCC(=O)[O-]
REMARK SMILES IDX 16 1 17 2 18 3 19 4 20 5 21 6 22 7 23 8 24 9 25 10 26 11
REMARK SMILES IDX 27 12 28 13 29 14 30 15 31 16 32 17 15 18 14 19 13 20 12 21
REMARK SMILES IDX 11 22 10 23 9 24 8 25 7 26 6 27 5 28 4 29 3 30 2 31 1 32
REMARK H PARENT
REMARK Flexibility Score: inf
ROOT
ATOM      1  C   UNL     1      49.401 -35.579  -1.498  1.00  0.00     0.000 C 
ENDROOT
BRANCH   1   2
ATOM      2  C   UNL     1      48.871 -36.022  -0.122  1.00  0.00     0.000 C 
BRANCH   2   3
ATOM      3  C   UNL     1      47.797 -37.120  -0.216  1.00  0.00     0.000 C 
BRANCH   3   4
ATOM      4  C   UNL     1      47.153 -37.447   1.144  1.00  0.00     0.000 C 
BRANCH   4   5
ATOM      5  C   UNL     1      45.672 -37.051   1.282  1.00  0.00     0.000 C 
BRANCH   5   6
ATOM      6  C   UNL     1      44.728 -37.977   0.500  1.00  0.00     0.000 C 
BRANCH   6   7
ATOM      7  C   UNL     1      44.827 -39.419   1.009  1.00  0.00     0.000 C 
BRANCH   7   8
ATOM      8  C   UNL     1      44.809 -40.414  -0.162  1.00  0.00     0.000 C 
BRANCH   8   9
ATOM      9  C   UNL     1      46.098 -40.363  -0.998  1.00  0.00     0.000 C 
BRANCH   9  10
ATOM     10  C   UNL     1      45.830 -39.993  -2.470  1.00  0.00     0.000 C 
BRANCH  10  11
ATOM     11  C   UNL     1      47.102 -39.546  -3.209  1.00  0.00     0.000 C 
BRANCH  11  12
ATOM     12  C   UNL     1      47.280 -40.258  -4.560  1.00  0.00     0.000 C 
BRANCH  12  13
ATOM     13  C   UNL     1      48.749 -40.607  -4.860  1.00  0.00     0.006 C 
BRANCH  13  14
ATOM     14  C   UNL     1      49.752 -40.084  -3.817  1.00  0.00     0.053 C 
BRANCH  14  15
ATOM     15  C   UNL     1      50.815 -39.229  -4.437  1.00  0.00     0.041 C 
ATOM     16  O   UNL     1      50.906 -39.142  -5.690  1.00  0.00    -0.550 OA
ATOM     17  O   UNL     1      51.696 -38.518  -3.632  1.00  0.00    -0.550 OA
ENDBRANCH  14  15
ENDBRANCH  13  14
ENDBRANCH  12  13
ENDBRANCH  11  12
ENDBRANCH  10  11
ENDBRANCH   9  10
ENDBRANCH   8   9
ENDBRANCH   7   8
ENDBRANCH   6   7
ENDBRANCH   5   6
ENDBRANCH   4   5
ENDBRANCH   3   4
ENDBRANCH   2   3
ENDBRANCH   1   2
BRANCH   1  18
ATOM     18  C   UNL     1      48.975 -36.466  -2.688  1.00  0.00     0.000 C 
BRANCH  18  19
ATOM     19  C   UNL     1      48.736 -35.716  -4.012  1.00  0.00     0.000 C 
BRANCH  19  20
ATOM     20  C   UNL     1      48.076 -36.552  -5.126  1.00  0.00     0.000 C 
BRANCH  20  21
ATOM     21  C   UNL     1      47.416 -35.706  -6.236  1.00  0.00     0.000 C 
BRANCH  21  22
ATOM     22  C   UNL     1      45.893 -35.910  -6.317  1.00  0.00     0.000 C 
BRANCH  22  23
ATOM     23  C   UNL     1      45.464 -37.352  -5.997  1.00  0.00     0.000 C 
BRANCH  23  24
ATOM     24  C   UNL     1      44.369 -37.452  -4.914  1.00  0.00    -0.000 C 
BRANCH  24  25
ATOM     25  C   UNL     1      44.302 -36.196  -4.031  1.00  0.00    -0.000 C 
BRANCH  25  26
ATOM     26  C   UNL     1      45.175 -36.357  -2.775  1.00  0.00    -0.000 C 
BRANCH  26  27
ATOM     27  C   UNL     1      45.195 -35.094  -1.900  1.00  0.00    -0.000 C 
BRANCH  27  28
ATOM     28  C   UNL     1      46.011 -33.951  -2.523  1.00  0.00    -0.000 C 
BRANCH  28  29
ATOM     29  C   UNL     1      46.744 -33.145  -1.440  1.00  0.00    -0.000 C 
BRANCH  29  30
ATOM     30  C   UNL     1      46.204 -33.430  -0.029  1.00  0.00    -0.000 C 
BRANCH  30  31
ATOM     31  C   UNL     1      47.112 -32.860   1.072  1.00  0.00    -0.003 C 
ATOM     32  C   UNL     1      47.153 -33.787   2.284  1.00  0.00     0.004 C 
ENDBRANCH  30  31
ENDBRANCH  29  30
ENDBRANCH  28  29
ENDBRANCH  27  28
ENDBRANCH  26  27
ENDBRANCH  25  26
ENDBRANCH  24  25
ENDBRANCH  23  24
ENDBRANCH  22  23
ENDBRANCH  21  22
ENDBRANCH  20  21
ENDBRANCH  19  20
ENDBRANCH  18  19
ENDBRANCH   1  18
TORSDOF 28
ENDMDL
MODEL 8
REMARK VINA RESULT:    -4.285      1.782      4.364
REMARK INTER + INTRA:         -17.275
REMARK INTER:                 -10.723
REMARK INTRA:                  -6.552
REMARK UNBOUND:                -5.976
REMARK SMILES CCCCCCCCCCCCCCCCCCCCCCCCCCCCCC(=O)[O-]
REMARK SMILES IDX 16 1 17 2 18 3 19 4 20 5 21 6 22 7 23 8 24 9 25 10 26 11
REMARK SMILES IDX 27 12 28 13 29 14 30 15 31 16 32 17 15 18 14 19 13 20 12 21
REMARK SMILES IDX 11 22 10 23 9 24 8 25 7 26 6 27 5 28 4 29 3 30 2 31 1 32
REMARK H PARENT
REMARK Flexibility Score: inf
ROOT
ATOM      1  C   UNL     1      48.552 -36.952  -1.591  1.00  0.00     0.000 C 
ENDROOT
BRANCH   1   2
ATOM      2  C   UNL     1      47.071 -37.288  -1.335  1.00  0.00     0.000 C 
BRANCH   2   3
ATOM      3  C   UNL     1      46.107 -36.429  -2.172  1.00  0.00     0.000 C 
BRANCH   3   4
ATOM      4  C   UNL     1      44.648 -36.518  -1.686  1.00  0.00     0.000 C 
BRANCH   4   5
ATOM      5  C   UNL     1      44.397 -37.511  -0.536  1.00  0.00     0.000 C 
BRANCH   5   6
ATOM      6  C   UNL     1      44.148 -36.816   0.811  1.00  0.00     0.000 C 
BRANCH   6   7
ATOM      7  C   UNL     1      44.864 -37.550   1.950  1.00  0.00     0.000 C 
BRANCH   7   8
ATOM      8  C   UNL     1      46.167 -36.831   2.330  1.00  0.00     0.000 C 
BRANCH   8   9
ATOM      9  C   UNL     1      46.212 -35.382   1.817  1.00  0.00     0.000 C 
BRANCH   9  10
ATOM     10  C   UNL     1      47.626 -34.958   1.376  1.00  0.00     0.000 C 
BRANCH  10  11
ATOM     11  C   UNL     1      47.607 -33.835   0.327  1.00  0.00     0.000 C 
BRANCH  11  12
ATOM     12  C   UNL     1      46.180 -33.424  -0.072  1.00  0.00     0.000 C 
BRANCH  12  13
ATOM     13  C   UNL     1      46.114 -32.789  -1.474  1.00  0.00     0.006 C 
BRANCH  13  14
ATOM     14  C   UNL     1      47.459 -32.752  -2.219  1.00  0.00     0.053 C 
BRANCH  14  15
ATOM     15  C   UNL     1      47.668 -31.456  -2.941  1.00  0.00     0.041 C 
ATOM     16  O   UNL     1      46.777 -30.567  -2.916  1.00  0.00    -0.550 OA
ATOM     17  O   UNL     1      48.851 -31.226  -3.633  1.00  0.00    -0.550 OA
ENDBRANCH  14  15
ENDBRANCH  13  14
ENDBRANCH  12  13
ENDBRANCH  11  12
ENDBRANCH  10  11
ENDBRANCH   9  10
ENDBRANCH   8   9
ENDBRANCH   7   8
ENDBRANCH   6   7
ENDBRANCH   5   6
ENDBRANCH   4   5
ENDBRANCH   3   4
ENDBRANCH   2   3
ENDBRANCH   1   2
BRANCH   1  18
ATOM     18  C   UNL     1      48.862 -36.335  -2.972  1.00  0.00     0.000 C 
BRANCH  18  19
ATOM     19  C   UNL     1      49.201 -37.348  -4.081  1.00  0.00     0.000 C 
BRANCH  19  20
ATOM     20  C   UNL     1      50.698 -37.689  -4.220  1.00  0.00     0.000 C 
BRANCH  20  21
ATOM     21  C   UNL     1      51.003 -39.202  -4.175  1.00  0.00     0.000 C 
BRANCH  21  22
ATOM     22  C   UNL     1      50.249 -39.996  -5.254  1.00  0.00     0.000 C 
BRANCH  22  23
ATOM     23  C   UNL     1      49.299 -41.055  -4.666  1.00  0.00     0.000 C 
BRANCH  23  24
ATOM     24  C   UNL     1      49.208 -41.024  -3.126  1.00  0.00    -0.000 C 
BRANCH  24  25
ATOM     25  C   UNL     1      47.808 -40.631  -2.629  1.00  0.00    -0.000 C 
BRANCH  25  26
ATOM     26  C   UNL     1      46.874 -40.309  -3.808  1.00  0.00    -0.000 C 
BRANCH  26  27
ATOM     27  C   UNL     1      45.429 -40.036  -3.362  1.00  0.00    -0.000 C 
BRANCH  27  28
ATOM     28  C   UNL     1      44.698 -39.051  -4.286  1.00  0.00    -0.000 C 
BRANCH  28  29
ATOM     29  C   UNL     1      45.679 -38.377  -5.257  1.00  0.00    -0.000 C 
BRANCH  29  30
ATOM     30  C   UNL     1      45.098 -37.100  -5.889  1.00  0.00    -0.000 C 
BRANCH  30  31
ATOM     31  C   UNL     1      46.191 -36.156  -6.412  1.00  0.00    -0.003 C 
ATOM     32  C   UNL     1      46.417 -34.993  -5.449  1.00  0.00     0.004 C 
ENDBRANCH  30  31
ENDBRANCH  29  30
ENDBRANCH  28  29
ENDBRANCH  27  28
ENDBRANCH  26  27
ENDBRANCH  25  26
ENDBRANCH  24  25
ENDBRANCH  23  24
ENDBRANCH  22  23
ENDBRANCH  21  22
ENDBRANCH  20  21
ENDBRANCH  19  20
ENDBRANCH  18  19
ENDBRANCH   1  18
TORSDOF 28
ENDMDL
MODEL 9
REMARK VINA RESULT:    -4.238      2.121      4.765
REMARK INTER + INTRA:         -17.152
REMARK INTER:                 -11.125
REMARK INTRA:                  -6.027
REMARK UNBOUND:                -5.976
REMARK SMILES CCCCCCCCCCCCCCCCCCCCCCCCCCCCCC(=O)[O-]
REMARK SMILES IDX 16 1 17 2 18 3 19 4 20 5 21 6 22 7 23 8 24 9 25 10 26 11
REMARK SMILES IDX 27 12 28 13 29 14 30 15 31 16 32 17 15 18 14 19 13 20 12 21
REMARK SMILES IDX 11 22 10 23 9 24 8 25 7 26 6 27 5 28 4 29 3 30 2 31 1 32
REMARK H PARENT
REMARK Flexibility Score: inf
ROOT
ATOM      1  C   UNL     1      49.619 -37.763  -2.676  1.00  0.00     0.000 C 
ENDROOT
BRANCH   1   2
ATOM      2  C   UNL     1      50.967 -37.976  -3.389  1.00  0.00     0.000 C 
BRANCH   2   3
ATOM      3  C   UNL     1      51.106 -39.379  -4.004  1.00  0.00     0.000 C 
BRANCH   3   4
ATOM      4  C   UNL     1      50.593 -40.496  -3.075  1.00  0.00     0.000 C 
BRANCH   4   5
ATOM      5  C   UNL     1      49.445 -41.349  -3.645  1.00  0.00     0.000 C 
BRANCH   5   6
ATOM      6  C   UNL     1      48.959 -40.859  -5.017  1.00  0.00     0.000 C 
BRANCH   6   7
ATOM      7  C   UNL     1      47.603 -40.154  -4.902  1.00  0.00     0.000 C 
BRANCH   7   8
ATOM      8  C   UNL     1      46.871 -40.583  -3.621  1.00  0.00     0.000 C 
BRANCH   8   9
ATOM      9  C   UNL     1      45.497 -39.909  -3.473  1.00  0.00     0.000 C 
BRANCH   9  10
ATOM     10  C   UNL     1      45.201 -39.489  -2.020  1.00  0.00     0.000 C 
BRANCH  10  11
ATOM     11  C   UNL     1      46.473 -39.382  -1.164  1.00  0.00     0.000 C 
BRANCH  11  12
ATOM     12  C   UNL     1      46.576 -38.038  -0.424  1.00  0.00     0.000 C 
BRANCH  12  13
ATOM     13  C   UNL     1      47.769 -37.984   0.548  1.00  0.00     0.006 C 
BRANCH  13  14
ATOM     14  C   UNL     1      48.363 -36.578   0.747  1.00  0.00     0.053 C 
BRANCH  14  15
ATOM     15  C   UNL     1      47.788 -35.888   1.946  1.00  0.00     0.041 C 
ATOM     16  O   UNL     1      47.228 -34.766   1.822  1.00  0.00    -0.550 OA
ATOM     17  O   UNL     1      47.861 -36.486   3.198  1.00  0.00    -0.550 OA
ENDBRANCH  14  15
ENDBRANCH  13  14
ENDBRANCH  12  13
ENDBRANCH  11  12
ENDBRANCH  10  11
ENDBRANCH   9  10
ENDBRANCH   8   9
ENDBRANCH   7   8
ENDBRANCH   6   7
ENDBRANCH   5   6
ENDBRANCH   4   5
ENDBRANCH   3   4
ENDBRANCH   2   3
ENDBRANCH   1   2
BRANCH   1  18
ATOM     18  C   UNL     1      48.555 -36.993  -3.488  1.00  0.00     0.000 C 
BRANCH  18  19
ATOM     19  C   UNL     1      49.079 -36.286  -4.752  1.00  0.00     0.000 C 
BRANCH  19  20
ATOM     20  C   UNL     1      48.236 -35.086  -5.226  1.00  0.00     0.000 C 
BRANCH  20  21
ATOM     21  C   UNL     1      47.597 -35.280  -6.618  1.00  0.00     0.000 C 
BRANCH  21  22
ATOM     22  C   UNL     1      46.086 -35.557  -6.548  1.00  0.00     0.000 C 
BRANCH  22  23
ATOM     23  C   UNL     1      45.755 -36.917  -5.910  1.00  0.00     0.000 C 
BRANCH  23  24
ATOM     24  C   UNL     1      44.280 -37.063  -5.480  1.00  0.00    -0.000 C 
BRANCH  24  25
ATOM     25  C   UNL     1      43.888 -36.063  -4.380  1.00  0.00    -0.000 C 
BRANCH  25  26
ATOM     26  C   UNL     1      44.933 -36.046  -3.252  1.00  0.00    -0.000 C 
BRANCH  26  27
ATOM     27  C   UNL     1      45.361 -34.623  -2.861  1.00  0.00    -0.000 C 
BRANCH  27  28
ATOM     28  C   UNL     1      46.348 -34.601  -1.684  1.00  0.00    -0.000 C 
BRANCH  28  29
ATOM     29  C   UNL     1      47.516 -33.644  -1.965  1.00  0.00    -0.000 C 
BRANCH  29  30
ATOM     30  C   UNL     1      47.417 -32.341  -1.154  1.00  0.00    -0.000 C 
BRANCH  30  31
ATOM     31  C   UNL     1      47.952 -31.127  -1.928  1.00  0.00    -0.003 C 
ATOM     32  C   UNL     1      48.022 -31.418  -3.424  1.00  0.00     0.004 C 
ENDBRANCH  30  31
ENDBRANCH  29  30
ENDBRANCH  28  29
ENDBRANCH  27  28
ENDBRANCH  26  27
ENDBRANCH  25  26
ENDBRANCH  24  25
ENDBRANCH  23  24
ENDBRANCH  22  23
ENDBRANCH  21  22
ENDBRANCH  20  21
ENDBRANCH  19  20
ENDBRANCH  18  19
ENDBRANCH   1  18
TORSDOF 28
ENDMDL
