MODEL 1
REMARK VINA RESULT:    -5.185      0.000      0.000
REMARK INTER + INTRA:          -6.012
REMARK INTER:                  -5.791
REMARK INTRA:                  -0.221
REMARK UNBOUND:                -0.221
REMARK SMILES CC(C)c1ccc(C(=O)[O-])cc1
REMARK SMILES IDX 7 1 6 2 11 3 5 4 12 5 4 6 8 7 9 8 10 9 2 10 1 11 3 12
REMARK H PARENT
REMARK Flexibility Score: inf
ROOT
ATOM      1  C   UNL     1      36.600  19.157   8.063  1.00  0.00    -0.003 A 
ATOM      2  C   UNL     1      37.976  18.992   8.296  1.00  0.00     0.010 A 
ATOM      3  C   UNL     1      35.697  18.900   9.107  1.00  0.00     0.010 A 
ATOM      4  C   UNL     1      38.439  18.579   9.548  1.00  0.00     0.004 A 
ATOM      5  C   UNL     1      36.159  18.486  10.360  1.00  0.00     0.004 A 
ATOM      6  C   UNL     1      37.535  18.321  10.595  1.00  0.00    -0.045 A 
ENDROOT
BRANCH   1   7
ATOM      7  C   UNL     1      36.106  19.595   6.739  1.00  0.00     0.071 C 
ATOM      8  O   UNL     1      36.878  19.627   5.745  1.00  0.00    -0.545 OA
ATOM      9  O   UNL     1      34.779  19.977   6.573  1.00  0.00    -0.545 OA
ENDBRANCH   1   7
BRANCH   6  10
ATOM     10  C   UNL     1      38.024  17.870  11.960  1.00  0.00     0.013 C 
ATOM     11  C   UNL     1      37.228  18.547  13.082  1.00  0.00     0.012 C 
ATOM     12  C   UNL     1      39.527  18.123  12.119  1.00  0.00     0.012 C 
ENDBRANCH   6  10
TORSDOF 2
ENDMDL
MODEL 2
REMARK VINA RESULT:    -5.114      2.977      4.181
REMARK INTER + INTRA:          -5.933
REMARK INTER:                  -5.726
REMARK INTRA:                  -0.207
REMARK UNBOUND:                -0.221
REMARK SMILES CC(C)c1ccc(C(=O)[O-])cc1
REMARK SMILES IDX 7 1 6 2 11 3 5 4 12 5 4 6 8 7 9 8 10 9 2 10 1 11 3 12
REMARK H PARENT
REMARK Flexibility Score: inf
ROOT
ATOM      1  C   UNL     1      39.225  18.158  10.503  1.00  0.00    -0.003 A 
ATOM      2  C   UNL     1      39.188  18.188  11.908  1.00  0.00     0.010 A 
ATOM      3  C   UNL     1      38.015  18.164   9.791  1.00  0.00     0.010 A 
ATOM      4  C   UNL     1      37.966  18.222  12.585  1.00  0.00     0.004 A 
ATOM      5  C   UNL     1      36.792  18.198  10.467  1.00  0.00     0.004 A 
ATOM      6  C   UNL     1      36.754  18.227  11.871  1.00  0.00    -0.045 A 
ENDROOT
BRANCH   1   7
ATOM      7  C   UNL     1      40.517  18.123   9.783  1.00  0.00     0.071 C 
ATOM      8  O   UNL     1      41.470  18.866  10.138  1.00  0.00    -0.545 OA
ATOM      9  O   UNL     1      40.698  17.266   8.702  1.00  0.00    -0.545 OA
ENDBRANCH   1   7
BRANCH   6  10
ATOM     10  C   UNL     1      35.419  18.263  12.594  1.00  0.00     0.013 C 
ATOM     11  C   UNL     1      34.788  16.867  12.659  1.00  0.00     0.012 C 
ATOM     12  C   UNL     1      34.465  19.270  11.941  1.00  0.00     0.012 C 
ENDBRANCH   6  10
TORSDOF 2
ENDMDL
MODEL 3
REMARK VINA RESULT:    -5.111      2.809      4.120
REMARK INTER + INTRA:          -5.929
REMARK INTER:                  -5.724
REMARK INTRA:                  -0.205
REMARK UNBOUND:                -0.221
REMARK SMILES CC(C)c1ccc(C(=O)[O-])cc1
REMARK SMILES IDX 7 1 6 2 11 3 5 4 12 5 4 6 8 7 9 8 10 9 2 10 1 11 3 12
REMARK H PARENT
REMARK Flexibility Score: inf
ROOT
ATOM      1  C   UNL     1      39.000  18.171  10.381  1.00  0.00    -0.003 A 
ATOM      2  C   UNL     1      37.768  18.268   9.709  1.00  0.00     0.010 A 
ATOM      3  C   UNL     1      39.009  18.138  11.784  1.00  0.00     0.010 A 
ATOM      4  C   UNL     1      36.572  18.331  10.429  1.00  0.00     0.004 A 
ATOM      5  C   UNL     1      37.813  18.201  12.504  1.00  0.00     0.004 A 
ATOM      6  C   UNL     1      36.581  18.299  11.835  1.00  0.00    -0.045 A 
ENDROOT
BRANCH   1   7
ATOM      7  C   UNL     1      40.269  18.104   9.623  1.00  0.00     0.071 C 
ATOM      8  O   UNL     1      40.372  17.363   8.609  1.00  0.00    -0.545 OA
ATOM      9  O   UNL     1      41.367  18.860  10.018  1.00  0.00    -0.545 OA
ENDBRANCH   1   7
BRANCH   6  10
ATOM     10  C   UNL     1      35.289  18.366  12.629  1.00  0.00     0.013 C 
ATOM     11  C   UNL     1      34.671  16.974  12.799  1.00  0.00     0.012 C 
ATOM     12  C   UNL     1      34.294  19.337  11.984  1.00  0.00     0.012 C 
ENDBRANCH   6  10
TORSDOF 2
ENDMDL
MODEL 4
REMARK VINA RESULT:    -5.108      3.853      4.912
REMARK INTER + INTRA:          -5.925
REMARK INTER:                  -5.721
REMARK INTRA:                  -0.204
REMARK UNBOUND:                -0.221
REMARK SMILES CC(C)c1ccc(C(=O)[O-])cc1
REMARK SMILES IDX 7 1 6 2 11 3 5 4 12 5 4 6 8 7 9 8 10 9 2 10 1 11 3 12
REMARK H PARENT
REMARK Flexibility Score: inf
ROOT
ATOM      1  C   UNL     1      40.915  18.337  10.566  1.00  0.00    -0.003 A 
ATOM      2  C   UNL     1      39.953  18.275   9.542  1.00  0.00     0.010 A 
ATOM      3  C   UNL     1      40.492  18.259  11.902  1.00  0.00     0.010 A 
ATOM      4  C   UNL     1      38.597  18.137   9.851  1.00  0.00     0.004 A 
ATOM      5  C   UNL     1      39.136  18.121  12.211  1.00  0.00     0.004 A 
ATOM      6  C   UNL     1      38.173  18.060  11.190  1.00  0.00    -0.045 A 
ENDROOT
BRANCH   1   7
ATOM      7  C   UNL     1      42.351  18.482  10.243  1.00  0.00     0.071 C 
ATOM      8  O   UNL     1      42.896  19.618  10.235  1.00  0.00    -0.545 OA
ATOM      9  O   UNL     1      43.122  17.364   9.944  1.00  0.00    -0.545 OA
ENDBRANCH   1   7
BRANCH   6  10
ATOM     10  C   UNL     1      36.703  17.910  11.540  1.00  0.00     0.013 C 
ATOM     11  C   UNL     1      36.405  18.484  12.930  1.00  0.00     0.012 C 
ATOM     12  C   UNL     1      36.257  16.448  11.439  1.00  0.00     0.012 C 
ENDBRANCH   6  10
TORSDOF 2
ENDMDL
MODEL 5
REMARK VINA RESULT:    -5.029      3.052      4.489
REMARK INTER + INTRA:          -5.837
REMARK INTER:                  -5.627
REMARK INTRA:                  -0.210
REMARK UNBOUND:                -0.221
REMARK SMILES CC(C)c1ccc(C(=O)[O-])cc1
REMARK SMILES IDX 7 1 6 2 11 3 5 4 12 5 4 6 8 7 9 8 10 9 2 10 1 11 3 12
REMARK H PARENT
REMARK Flexibility Score: inf
ROOT
ATOM      1  C   UNL     1      38.120  18.149  11.037  1.00  0.00    -0.003 A 
ATOM      2  C   UNL     1      38.917  18.146  12.195  1.00  0.00     0.010 A 
ATOM      3  C   UNL     1      38.745  18.183   9.780  1.00  0.00     0.010 A 
ATOM      4  C   UNL     1      40.311  18.177  12.095  1.00  0.00     0.004 A 
ATOM      5  C   UNL     1      40.139  18.215   9.681  1.00  0.00     0.004 A 
ATOM      6  C   UNL     1      40.937  18.212  10.837  1.00  0.00    -0.045 A 
ENDROOT
BRANCH   1   7
ATOM      7  C   UNL     1      36.644  18.115  11.137  1.00  0.00     0.071 C 
ATOM      8  O   UNL     1      35.927  18.356  10.130  1.00  0.00    -0.545 OA
ATOM      9  O   UNL     1      36.027  17.814  12.347  1.00  0.00    -0.545 OA
ENDBRANCH   1   7
BRANCH   6  10
ATOM     10  C   UNL     1      42.450  18.247  10.715  1.00  0.00     0.013 C 
ATOM     11  C   UNL     1      42.934  19.620  10.233  1.00  0.00     0.012 C 
ATOM     12  C   UNL     1      42.956  17.130   9.796  1.00  0.00     0.012 C 
ENDBRANCH   6  10
TORSDOF 2
ENDMDL
MODEL 6
REMARK VINA RESULT:    -5.023      3.070      4.446
REMARK INTER + INTRA:          -5.830
REMARK INTER:                  -5.623
REMARK INTRA:                  -0.208
REMARK UNBOUND:                -0.221
REMARK SMILES CC(C)c1ccc(C(=O)[O-])cc1
REMARK SMILES IDX 7 1 6 2 11 3 5 4 12 5 4 6 8 7 9 8 10 9 2 10 1 11 3 12
REMARK H PARENT
REMARK Flexibility Score: inf
ROOT
ATOM      1  C   UNL     1      38.048  18.131  11.098  1.00  0.00    -0.003 A 
ATOM      2  C   UNL     1      38.628  18.148   9.817  1.00  0.00     0.010 A 
ATOM      3  C   UNL     1      38.886  18.146  12.224  1.00  0.00     0.010 A 
ATOM      4  C   UNL     1      40.018  18.179   9.669  1.00  0.00     0.004 A 
ATOM      5  C   UNL     1      40.275  18.177  12.076  1.00  0.00     0.004 A 
ATOM      6  C   UNL     1      40.857  18.193  10.797  1.00  0.00    -0.045 A 
ENDROOT
BRANCH   1   7
ATOM      7  C   UNL     1      36.578  18.099  11.259  1.00  0.00     0.071 C 
ATOM      8  O   UNL     1      35.821  18.428  10.308  1.00  0.00    -0.545 OA
ATOM      9  O   UNL     1      36.010  17.704  12.466  1.00  0.00    -0.545 OA
ENDBRANCH   1   7
BRANCH   6  10
ATOM     10  C   UNL     1      42.368  18.226  10.651  1.00  0.00     0.013 C 
ATOM     11  C   UNL     1      42.856  19.630  10.276  1.00  0.00     0.012 C 
ATOM     12  C   UNL     1      42.847  17.185   9.633  1.00  0.00     0.012 C 
ENDBRANCH   6  10
TORSDOF 2
ENDMDL
MODEL 7
REMARK VINA RESULT:    -5.010      3.514      4.917
REMARK INTER + INTRA:          -5.816
REMARK INTER:                  -5.615
REMARK INTRA:                  -0.201
REMARK UNBOUND:                -0.221
REMARK SMILES CC(C)c1ccc(C(=O)[O-])cc1
REMARK SMILES IDX 7 1 6 2 11 3 5 4 12 5 4 6 8 7 9 8 10 9 2 10 1 11 3 12
REMARK H PARENT
REMARK Flexibility Score: inf
ROOT
ATOM      1  C   UNL     1      37.924  17.818  11.744  1.00  0.00    -0.003 A 
ATOM      2  C   UNL     1      37.268  18.594  12.716  1.00  0.00     0.010 A 
ATOM      3  C   UNL     1      37.227  16.765  11.130  1.00  0.00     0.010 A 
ATOM      4  C   UNL     1      35.943  18.319  13.065  1.00  0.00     0.004 A 
ATOM      5  C   UNL     1      35.902  16.490  11.479  1.00  0.00     0.004 A 
ATOM      6  C   UNL     1      35.245  17.264  12.451  1.00  0.00    -0.045 A 
ENDROOT
BRANCH   1   7
ATOM      7  C   UNL     1      39.327  18.105  11.371  1.00  0.00     0.071 C 
ATOM      8  O   UNL     1      40.227  18.155  12.250  1.00  0.00    -0.545 OA
ATOM      9  O   UNL     1      39.671  18.323  10.041  1.00  0.00    -0.545 OA
ENDBRANCH   1   7
BRANCH   6  10
ATOM     10  C   UNL     1      33.805  16.955  12.821  1.00  0.00     0.013 C 
ATOM     11  C   UNL     1      32.913  18.190  12.649  1.00  0.00     0.012 C 
ATOM     12  C   UNL     1      33.708  16.399  14.246  1.00  0.00     0.012 C 
ENDBRANCH   6  10
TORSDOF 2
ENDMDL
MODEL 8
REMARK VINA RESULT:    -5.000      1.413      2.437
REMARK INTER + INTRA:          -5.805
REMARK INTER:                  -5.596
REMARK INTRA:                  -0.209
REMARK UNBOUND:                -0.221
REMARK SMILES CC(C)c1ccc(C(=O)[O-])cc1
REMARK SMILES IDX 7 1 6 2 11 3 5 4 12 5 4 6 8 7 9 8 10 9 2 10 1 11 3 12
REMARK H PARENT
REMARK Flexibility Score: inf
ROOT
ATOM      1  C   UNL     1      35.459  19.391   8.238  1.00  0.00    -0.003 A 
ATOM      2  C   UNL     1      34.472  19.955   9.066  1.00  0.00     0.010 A 
ATOM      3  C   UNL     1      36.424  18.546   8.809  1.00  0.00     0.010 A 
ATOM      4  C   UNL     1      34.454  19.679  10.436  1.00  0.00     0.004 A 
ATOM      5  C   UNL     1      36.406  18.270  10.179  1.00  0.00     0.004 A 
ATOM      6  C   UNL     1      35.421  18.833  11.008  1.00  0.00    -0.045 A 
ENDROOT
BRANCH   1   7
ATOM      7  C   UNL     1      35.483  19.680   6.787  1.00  0.00     0.071 C 
ATOM      8  O   UNL     1      36.569  19.679   6.150  1.00  0.00    -0.545 OA
ATOM      9  O   UNL     1      34.302  19.955   6.105  1.00  0.00    -0.545 OA
ENDBRANCH   1   7
BRANCH   6  10
ATOM     10  C   UNL     1      35.412  18.525  12.495  1.00  0.00     0.013 C 
ATOM     11  C   UNL     1      36.818  18.650  13.093  1.00  0.00     0.012 C 
ATOM     12  C   UNL     1      34.816  17.140  12.768  1.00  0.00     0.012 C 
ENDBRANCH   6  10
TORSDOF 2
ENDMDL
MODEL 9
REMARK VINA RESULT:    -4.968      9.590     11.055
REMARK INTER + INTRA:          -5.769
REMARK INTER:                  -5.558
REMARK INTRA:                  -0.211
REMARK UNBOUND:                -0.221
REMARK SMILES CC(C)c1ccc(C(=O)[O-])cc1
REMARK SMILES IDX 7 1 6 2 11 3 5 4 12 5 4 6 8 7 9 8 10 9 2 10 1 11 3 12
REMARK H PARENT
REMARK Flexibility Score: inf
ROOT
ATOM      1  C   UNL     1      32.333  13.789  15.561  1.00  0.00    -0.003 A 
ATOM      2  C   UNL     1      32.277  12.519  14.960  1.00  0.00     0.010 A 
ATOM      3  C   UNL     1      31.145  14.372  16.030  1.00  0.00     0.010 A 
ATOM      4  C   UNL     1      31.057  11.849  14.831  1.00  0.00     0.004 A 
ATOM      5  C   UNL     1      29.925  13.702  15.901  1.00  0.00     0.004 A 
ATOM      6  C   UNL     1      29.867  12.434  15.300  1.00  0.00    -0.045 A 
ENDROOT
BRANCH   1   7
ATOM      7  C   UNL     1      33.622  14.501  15.700  1.00  0.00     0.071 C 
ATOM      8  O   UNL     1      34.562  14.291  14.889  1.00  0.00    -0.545 OA
ATOM      9  O   UNL     1      33.814  15.416  16.731  1.00  0.00    -0.545 OA
ENDBRANCH   1   7
BRANCH   6  10
ATOM     10  C   UNL     1      28.535  11.717  15.166  1.00  0.00     0.013 C 
ATOM     11  C   UNL     1      27.925  11.942  13.778  1.00  0.00     0.012 C 
ATOM     12  C   UNL     1      27.564  12.145  16.272  1.00  0.00     0.012 C 
ENDBRANCH   6  10
TORSDOF 2
ENDMDL
