MODEL 1
REMARK VINA RESULT:    -5.040      0.000      0.000
REMARK INTER + INTRA:          -7.642
REMARK INTER:                  -6.807
REMARK INTRA:                  -0.835
REMARK UNBOUND:                -0.835
REMARK SMILES CCCCCCC=CC(=O)[O-]
REMARK SMILES IDX 5 1 6 2 7 3 8 4 9 5 10 6 11 7 4 8 3 9 2 10 1 11
REMARK H PARENT
REMARK Flexibility Score: inf
ROOT
ATOM      1  C   UNL     1     -15.664  -8.590   0.222  1.00  0.00     0.004 C 
ENDROOT
BRANCH   1   2
ATOM      2  C   UNL     1     -15.087  -8.013  -1.081  1.00  0.00     0.027 C 
BRANCH   2   3
ATOM      3  C   UNL     1     -16.160  -7.696  -2.090  1.00  0.00    -0.025 C 
ATOM      4  C   UNL     1     -16.492  -8.447  -3.153  1.00  0.00     0.020 C 
BRANCH   4   5
ATOM      5  C   UNL     1     -15.911  -9.754  -3.526  1.00  0.00     0.064 C 
ATOM      6  O   UNL     1     -14.964  -9.855  -4.348  1.00  0.00    -0.545 OA
ATOM      7  O   UNL     1     -16.410 -10.904  -2.930  1.00  0.00    -0.545 OA
ENDBRANCH   4   5
ENDBRANCH   2   3
ENDBRANCH   1   2
BRANCH   1   8
ATOM      8  C   UNL     1     -16.657  -7.628   0.890  1.00  0.00     0.000 C 
BRANCH   8   9
ATOM      9  C   UNL     1     -18.006  -8.313   1.134  1.00  0.00    -0.000 C 
BRANCH   9  10
ATOM     10  C   UNL     1     -18.080  -9.660   0.407  1.00  0.00    -0.003 C 
ATOM     11  C   UNL     1     -19.094  -9.618  -0.732  1.00  0.00     0.004 C 
ENDBRANCH   9  10
ENDBRANCH   8   9
ENDBRANCH   1   8
TORSDOF 6
ENDMDL
MODEL 2
REMARK VINA RESULT:    -4.901      4.085      5.712
REMARK INTER + INTRA:          -7.455
REMARK INTER:                  -6.623
REMARK INTRA:                  -0.832
REMARK UNBOUND:                -0.835
REMARK SMILES CCCCCCC=CC(=O)[O-]
REMARK SMILES IDX 5 1 6 2 7 3 8 4 9 5 10 6 11 7 4 8 3 9 2 10 1 11
REMARK H PARENT
REMARK Flexibility Score: inf
ROOT
ATOM      1  C   UNL     1     -17.258 -14.476  -2.590  1.00  0.00     0.004 C 
ENDROOT
BRANCH   1   2
ATOM      2  C   UNL     1     -18.044 -13.160  -2.477  1.00  0.00     0.027 C 
BRANCH   2   3
ATOM      3  C   UNL     1     -18.897 -13.108  -1.235  1.00  0.00    -0.025 C 
ATOM      4  C   UNL     1     -18.904 -12.122  -0.322  1.00  0.00     0.020 C 
BRANCH   4   5
ATOM      5  C   UNL     1     -18.118 -10.871  -0.369  1.00  0.00     0.064 C 
ATOM      6  O   UNL     1     -17.065 -10.717   0.302  1.00  0.00    -0.545 OA
ATOM      7  O   UNL     1     -18.543  -9.843  -1.200  1.00  0.00    -0.545 OA
ENDBRANCH   4   5
ENDBRANCH   2   3
ENDBRANCH   1   2
BRANCH   1   8
ATOM      8  C   UNL     1     -16.400 -14.745  -1.345  1.00  0.00     0.000 C 
BRANCH   8   9
ATOM      9  C   UNL     1     -15.130 -13.887  -1.356  1.00  0.00    -0.000 C 
BRANCH   9  10
ATOM     10  C   UNL     1     -14.732 -13.473   0.065  1.00  0.00    -0.003 C 
ATOM     11  C   UNL     1     -15.761 -13.946   1.087  1.00  0.00     0.004 C 
ENDBRANCH   9  10
ENDBRANCH   8   9
ENDBRANCH   1   8
TORSDOF 6
ENDMDL
MODEL 3
REMARK VINA RESULT:    -4.860      1.517      3.537
REMARK INTER + INTRA:          -7.400
REMARK INTER:                  -6.617
REMARK INTRA:                  -0.783
REMARK UNBOUND:                -0.835
REMARK SMILES CCCCCCC=CC(=O)[O-]
REMARK SMILES IDX 5 1 6 2 7 3 8 4 9 5 10 6 11 7 4 8 3 9 2 10 1 11
REMARK H PARENT
REMARK Flexibility Score: inf
ROOT
ATOM      1  C   UNL     1     -16.106  -7.891  -0.031  1.00  0.00     0.004 C 
ENDROOT
BRANCH   1   2
ATOM      2  C   UNL     1     -16.997  -9.107   0.272  1.00  0.00     0.027 C 
BRANCH   2   3
ATOM      3  C   UNL     1     -18.368  -8.978  -0.339  1.00  0.00    -0.025 C 
ATOM      4  C   UNL     1     -18.973  -9.888  -1.122  1.00  0.00     0.020 C 
BRANCH   4   5
ATOM      5  C   UNL     1     -18.444 -11.214  -1.504  1.00  0.00     0.064 C 
ATOM      6  O   UNL     1     -17.640 -11.363  -2.460  1.00  0.00    -0.545 OA
ATOM      7  O   UNL     1     -18.828 -12.327  -0.768  1.00  0.00    -0.545 OA
ENDBRANCH   4   5
ENDBRANCH   2   3
ENDBRANCH   1   2
BRANCH   1   8
ATOM      8  C   UNL     1     -15.938  -7.660  -1.540  1.00  0.00     0.000 C 
BRANCH   8   9
ATOM      9  C   UNL     1     -14.904  -8.624  -2.132  1.00  0.00    -0.000 C 
BRANCH   9  10
ATOM     10  C   UNL     1     -15.237  -8.962  -3.590  1.00  0.00    -0.003 C 
ATOM     11  C   UNL     1     -16.571  -8.353  -4.007  1.00  0.00     0.004 C 
ENDBRANCH   9  10
ENDBRANCH   8   9
ENDBRANCH   1   8
TORSDOF 6
ENDMDL
MODEL 4
REMARK VINA RESULT:    -4.832      2.240      4.319
REMARK INTER + INTRA:          -7.362
REMARK INTER:                  -6.894
REMARK INTRA:                  -0.468
REMARK UNBOUND:                -0.835
REMARK SMILES CCCCCCC=CC(=O)[O-]
REMARK SMILES IDX 5 1 6 2 7 3 8 4 9 5 10 6 11 7 4 8 3 9 2 10 1 11
REMARK H PARENT
REMARK Flexibility Score: inf
ROOT
ATOM      1  C   UNL     1     -18.216  -9.115  -0.661  1.00  0.00     0.004 C 
ENDROOT
BRANCH   1   2
ATOM      2  C   UNL     1     -19.201 -10.210  -1.101  1.00  0.00     0.027 C 
BRANCH   2   3
ATOM      3  C   UNL     1     -19.005 -11.495  -0.339  1.00  0.00    -0.025 C 
ATOM      4  C   UNL     1     -18.674 -12.685  -0.868  1.00  0.00     0.020 C 
BRANCH   4   5
ATOM      5  C   UNL     1     -18.388 -12.969  -2.290  1.00  0.00     0.064 C 
ATOM      6  O   UNL     1     -19.200 -13.590  -3.024  1.00  0.00    -0.545 OA
ATOM      7  O   UNL     1     -17.196 -12.515  -2.839  1.00  0.00    -0.545 OA
ENDBRANCH   4   5
ENDBRANCH   2   3
ENDBRANCH   1   2
BRANCH   1   8
ATOM      8  C   UNL     1     -16.811  -9.335  -1.241  1.00  0.00     0.000 C 
BRANCH   8   9
ATOM      9  C   UNL     1     -16.496  -8.301  -2.328  1.00  0.00    -0.000 C 
BRANCH   9  10
ATOM     10  C   UNL     1     -16.368  -8.968  -3.702  1.00  0.00    -0.003 C 
ATOM     11  C   UNL     1     -16.646  -7.975  -4.826  1.00  0.00     0.004 C 
ENDBRANCH   9  10
ENDBRANCH   8   9
ENDBRANCH   1   8
TORSDOF 6
ENDMDL
MODEL 5
REMARK VINA RESULT:    -4.801      2.375      3.440
REMARK INTER + INTRA:          -7.320
REMARK INTER:                  -6.894
REMARK INTRA:                  -0.427
REMARK UNBOUND:                -0.835
REMARK SMILES CCCCCCC=CC(=O)[O-]
REMARK SMILES IDX 5 1 6 2 7 3 8 4 9 5 10 6 11 7 4 8 3 9 2 10 1 11
REMARK H PARENT
REMARK Flexibility Score: inf
ROOT
ATOM      1  C   UNL     1     -19.003 -10.283  -1.001  1.00  0.00     0.004 C 
ENDROOT
BRANCH   1   2
ATOM      2  C   UNL     1     -17.894 -10.044  -2.038  1.00  0.00     0.027 C 
BRANCH   2   3
ATOM      3  C   UNL     1     -17.145  -8.760  -1.790  1.00  0.00    -0.025 C 
ATOM      4  C   UNL     1     -16.368  -8.114  -2.676  1.00  0.00     0.020 C 
BRANCH   4   5
ATOM      5  C   UNL     1     -16.125  -8.500  -4.082  1.00  0.00     0.064 C 
ATOM      6  O   UNL     1     -16.773  -7.996  -5.036  1.00  0.00    -0.545 OA
ATOM      7  O   UNL     1     -15.132  -9.429  -4.360  1.00  0.00    -0.545 OA
ENDBRANCH   4   5
ENDBRANCH   2   3
ENDBRANCH   1   2
BRANCH   1   8
ATOM      8  C   UNL     1     -18.750 -11.548  -0.167  1.00  0.00     0.000 C 
BRANCH   8   9
ATOM      9  C   UNL     1     -18.875 -12.809  -1.029  1.00  0.00    -0.000 C 
BRANCH   9  10
ATOM     10  C   UNL     1     -17.573 -13.617  -1.014  1.00  0.00    -0.003 C 
ATOM     11  C   UNL     1     -16.711 -13.254   0.191  1.00  0.00     0.004 C 
ENDBRANCH   9  10
ENDBRANCH   8   9
ENDBRANCH   1   8
TORSDOF 6
ENDMDL
MODEL 6
REMARK VINA RESULT:    -4.766      3.095      4.119
REMARK INTER + INTRA:          -7.273
REMARK INTER:                  -6.880
REMARK INTRA:                  -0.393
REMARK UNBOUND:                -0.835
REMARK SMILES CCCCCCC=CC(=O)[O-]
REMARK SMILES IDX 5 1 6 2 7 3 8 4 9 5 10 6 11 7 4 8 3 9 2 10 1 11
REMARK H PARENT
REMARK Flexibility Score: inf
ROOT
ATOM      1  C   UNL     1     -18.639 -11.487  -1.326  1.00  0.00     0.004 C 
ENDROOT
BRANCH   1   2
ATOM      2  C   UNL     1     -17.550 -10.866  -2.216  1.00  0.00     0.027 C 
BRANCH   2   3
ATOM      3  C   UNL     1     -17.264  -9.432  -1.854  1.00  0.00    -0.025 C 
ATOM      4  C   UNL     1     -16.667  -8.522  -2.642  1.00  0.00     0.020 C 
BRANCH   4   5
ATOM      5  C   UNL     1     -16.215  -8.722  -4.035  1.00  0.00     0.064 C 
ATOM      6  O   UNL     1     -16.776  -8.156  -5.009  1.00  0.00    -0.545 OA
ATOM      7  O   UNL     1     -15.120  -9.542  -4.273  1.00  0.00    -0.545 OA
ENDBRANCH   4   5
ENDBRANCH   2   3
ENDBRANCH   1   2
BRANCH   1   8
ATOM      8  C   UNL     1     -18.601 -13.022  -1.352  1.00  0.00     0.000 C 
BRANCH   8   9
ATOM      9  C   UNL     1     -17.329 -13.552  -0.682  1.00  0.00    -0.000 C 
BRANCH   9  10
ATOM     10  C   UNL     1     -16.633 -14.592  -1.567  1.00  0.00    -0.003 C 
ATOM     11  C   UNL     1     -17.360 -14.762  -2.896  1.00  0.00     0.004 C 
ENDBRANCH   9  10
ENDBRANCH   8   9
ENDBRANCH   1   8
TORSDOF 6
ENDMDL
MODEL 7
REMARK VINA RESULT:    -4.649      3.128      4.309
REMARK INTER + INTRA:          -7.114
REMARK INTER:                  -6.561
REMARK INTRA:                  -0.554
REMARK UNBOUND:                -0.835
REMARK SMILES CCCCCCC=CC(=O)[O-]
REMARK SMILES IDX 5 1 6 2 7 3 8 4 9 5 10 6 11 7 4 8 3 9 2 10 1 11
REMARK H PARENT
REMARK Flexibility Score: inf
ROOT
ATOM      1  C   UNL     1     -19.083 -12.075  -0.256  1.00  0.00     0.004 C 
ENDROOT
BRANCH   1   2
ATOM      2  C   UNL     1     -18.380 -10.721  -0.070  1.00  0.00     0.027 C 
BRANCH   2   3
ATOM      3  C   UNL     1     -18.525  -9.831  -1.277  1.00  0.00    -0.025 C 
ATOM      4  C   UNL     1     -17.526  -9.395  -2.062  1.00  0.00     0.020 C 
BRANCH   4   5
ATOM      5  C   UNL     1     -16.093  -9.734  -1.935  1.00  0.00     0.064 C 
ATOM      6  O   UNL     1     -15.272  -8.967  -1.369  1.00  0.00    -0.545 OA
ATOM      7  O   UNL     1     -15.644 -10.949  -2.436  1.00  0.00    -0.545 OA
ENDBRANCH   4   5
ENDBRANCH   2   3
ENDBRANCH   1   2
BRANCH   1   8
ATOM      8  C   UNL     1     -18.346 -12.977  -1.257  1.00  0.00     0.000 C 
BRANCH   8   9
ATOM      9  C   UNL     1     -17.122 -13.633  -0.609  1.00  0.00    -0.000 C 
BRANCH   9  10
ATOM     10  C   UNL     1     -16.474 -14.647  -1.558  1.00  0.00    -0.003 C 
ATOM     11  C   UNL     1     -17.249 -14.753  -2.867  1.00  0.00     0.004 C 
ENDBRANCH   9  10
ENDBRANCH   8   9
ENDBRANCH   1   8
TORSDOF 6
ENDMDL
MODEL 8
REMARK VINA RESULT:    -4.634      2.749      4.447
REMARK INTER + INTRA:          -7.095
REMARK INTER:                  -6.468
REMARK INTRA:                  -0.627
REMARK UNBOUND:                -0.835
REMARK SMILES CCCCCCC=CC(=O)[O-]
REMARK SMILES IDX 5 1 6 2 7 3 8 4 9 5 10 6 11 7 4 8 3 9 2 10 1 11
REMARK H PARENT
REMARK Flexibility Score: inf
ROOT
ATOM      1  C   UNL     1     -18.800 -10.305  -1.122  1.00  0.00     0.004 C 
ENDROOT
BRANCH   1   2
ATOM      2  C   UNL     1     -18.998 -11.560  -0.256  1.00  0.00     0.027 C 
BRANCH   2   3
ATOM      3  C   UNL     1     -18.499 -12.809  -0.935  1.00  0.00    -0.025 C 
ATOM      4  C   UNL     1     -17.276 -13.347  -0.800  1.00  0.00     0.020 C 
BRANCH   4   5
ATOM      5  C   UNL     1     -16.188 -12.857   0.073  1.00  0.00     0.064 C 
ATOM      6  O   UNL     1     -15.507 -11.839  -0.214  1.00  0.00    -0.545 OA
ATOM      7  O   UNL     1     -15.927 -13.528   1.260  1.00  0.00    -0.545 OA
ENDBRANCH   4   5
ENDBRANCH   2   3
ENDBRANCH   1   2
BRANCH   1   8
ATOM      8  C   UNL     1     -17.941  -9.246  -0.416  1.00  0.00     0.000 C 
BRANCH   8   9
ATOM      9  C   UNL     1     -16.945  -8.607  -1.390  1.00  0.00    -0.000 C 
BRANCH   9  10
ATOM     10  C   UNL     1     -16.958  -9.329  -2.743  1.00  0.00    -0.003 C 
ATOM     11  C   UNL     1     -16.561  -8.386  -3.875  1.00  0.00     0.004 C 
ENDBRANCH   9  10
ENDBRANCH   8   9
ENDBRANCH   1   8
TORSDOF 6
ENDMDL
MODEL 9
REMARK VINA RESULT:    -4.630      2.689      3.730
REMARK INTER + INTRA:          -7.089
REMARK INTER:                  -6.605
REMARK INTRA:                  -0.485
REMARK UNBOUND:                -0.835
REMARK SMILES CCCCCCC=CC(=O)[O-]
REMARK SMILES IDX 5 1 6 2 7 3 8 4 9 5 10 6 11 7 4 8 3 9 2 10 1 11
REMARK H PARENT
REMARK Flexibility Score: inf
ROOT
ATOM      1  C   UNL     1     -18.675  -9.656  -0.966  1.00  0.00     0.004 C 
ENDROOT
BRANCH   1   2
ATOM      2  C   UNL     1     -17.558  -9.680  -2.021  1.00  0.00     0.027 C 
BRANCH   2   3
ATOM      3  C   UNL     1     -16.786  -8.386  -2.067  1.00  0.00    -0.025 C 
ATOM      4  C   UNL     1     -15.987  -7.908  -1.098  1.00  0.00     0.020 C 
BRANCH   4   5
ATOM      5  C   UNL     1     -15.663  -8.568   0.184  1.00  0.00     0.064 C 
ATOM      6  O   UNL     1     -14.910  -9.574   0.248  1.00  0.00    -0.545 OA
ATOM      7  O   UNL     1     -16.188  -8.045   1.359  1.00  0.00    -0.545 OA
ENDBRANCH   4   5
ENDBRANCH   2   3
ENDBRANCH   1   2
BRANCH   1   8
ATOM      8  C   UNL     1     -18.567 -10.831   0.017  1.00  0.00     0.000 C 
BRANCH   8   9
ATOM      9  C   UNL     1     -19.050 -12.134  -0.629  1.00  0.00    -0.000 C 
BRANCH   9  10
ATOM     10  C   UNL     1     -17.923 -13.172  -0.683  1.00  0.00    -0.003 C 
ATOM     11  C   UNL     1     -16.711 -12.714   0.121  1.00  0.00     0.004 C 
ENDBRANCH   9  10
ENDBRANCH   8   9
ENDBRANCH   1   8
TORSDOF 6
ENDMDL
