MODEL 1
REMARK VINA RESULT:    -4.469      0.000      0.000
REMARK INTER + INTRA:          -6.288
REMARK INTER:                  -6.037
REMARK INTRA:                  -0.251
REMARK UNBOUND:                -0.251
REMARK SMILES CCCCCCCC(=O)[O-]
REMARK SMILES IDX 5 1 6 2 7 3 8 4 9 5 10 6 4 7 3 8 2 9 1 10
REMARK H PARENT
REMARK Flexibility Score: inf
ROOT
ATOM      1  C   UNL     1       4.031  45.620  11.001  1.00  0.00     0.000 C 
ENDROOT
BRANCH   1   2
ATOM      2  C   UNL     1       4.442  44.325  11.731  1.00  0.00     0.006 C 
BRANCH   2   3
ATOM      3  C   UNL     1       4.137  43.032  10.958  1.00  0.00     0.053 C 
BRANCH   3   4
ATOM      4  C   UNL     1       2.994  42.274  11.559  1.00  0.00     0.041 C 
ATOM      5  O   UNL     1       3.040  41.019  11.642  1.00  0.00    -0.550 OA
ATOM      6  O   UNL     1       1.863  42.953  11.996  1.00  0.00    -0.550 OA
ENDBRANCH   3   4
ENDBRANCH   2   3
ENDBRANCH   1   2
BRANCH   1   7
ATOM      7  C   UNL     1       4.316  45.634   9.488  1.00  0.00     0.000 C 
BRANCH   7   8
ATOM      8  C   UNL     1       4.723  47.021   8.968  1.00  0.00    -0.000 C 
BRANCH   8   9
ATOM      9  C   UNL     1       6.139  47.385   9.426  1.00  0.00    -0.003 C 
ATOM     10  C   UNL     1       6.448  48.853   9.149  1.00  0.00     0.004 C 
ENDBRANCH   8   9
ENDBRANCH   7   8
ENDBRANCH   1   7
TORSDOF 6
ENDMDL
MODEL 2
REMARK VINA RESULT:    -4.380      2.023      3.225
REMARK INTER + INTRA:          -6.167
REMARK INTER:                  -5.967
REMARK INTRA:                  -0.200
REMARK UNBOUND:                -0.251
REMARK SMILES CCCCCCCC(=O)[O-]
REMARK SMILES IDX 5 1 6 2 7 3 8 4 9 5 10 6 4 7 3 8 2 9 1 10
REMARK H PARENT
REMARK Flexibility Score: inf
ROOT
ATOM      1  C   UNL     1       2.812  42.834  11.174  1.00  0.00     0.000 C 
ENDROOT
BRANCH   1   2
ATOM      2  C   UNL     1       2.828  41.397  11.735  1.00  0.00     0.006 C 
BRANCH   2   3
ATOM      3  C   UNL     1       4.218  40.891  12.152  1.00  0.00     0.053 C 
BRANCH   3   4
ATOM      4  C   UNL     1       4.155  39.530  12.777  1.00  0.00     0.041 C 
ATOM      5  O   UNL     1       5.021  39.180  13.621  1.00  0.00    -0.550 OA
ATOM      6  O   UNL     1       3.160  38.637  12.400  1.00  0.00    -0.550 OA
ENDBRANCH   3   4
ENDBRANCH   2   3
ENDBRANCH   1   2
BRANCH   1   7
ATOM      7  C   UNL     1       4.189  43.393  10.772  1.00  0.00     0.000 C 
BRANCH   7   8
ATOM      8  C   UNL     1       4.497  44.751  11.420  1.00  0.00    -0.000 C 
BRANCH   8   9
ATOM      9  C   UNL     1       3.866  45.896  10.619  1.00  0.00    -0.003 C 
ATOM     10  C   UNL     1       4.824  46.415   9.551  1.00  0.00     0.004 C 
ENDBRANCH   8   9
ENDBRANCH   7   8
ENDBRANCH   1   7
TORSDOF 6
ENDMDL
MODEL 3
REMARK VINA RESULT:    -4.367      3.680      5.661
REMARK INTER + INTRA:          -6.150
REMARK INTER:                  -5.799
REMARK INTRA:                  -0.351
REMARK UNBOUND:                -0.251
REMARK SMILES CCCCCCCC(=O)[O-]
REMARK SMILES IDX 5 1 6 2 7 3 8 4 9 5 10 6 4 7 3 8 2 9 1 10
REMARK H PARENT
REMARK Flexibility Score: inf
ROOT
ATOM      1  C   UNL     1       4.138  45.780  10.967  1.00  0.00     0.000 C 
ENDROOT
BRANCH   1   2
ATOM      2  C   UNL     1       4.811  45.960   9.590  1.00  0.00     0.006 C 
BRANCH   2   3
ATOM      3  C   UNL     1       4.786  47.399   9.051  1.00  0.00     0.053 C 
BRANCH   3   4
ATOM      4  C   UNL     1       6.139  48.039   9.094  1.00  0.00     0.041 C 
ATOM      5  O   UNL     1       7.138  47.382   9.489  1.00  0.00    -0.550 OA
ATOM      6  O   UNL     1       6.291  49.371   8.731  1.00  0.00    -0.550 OA
ENDBRANCH   3   4
ENDBRANCH   2   3
ENDBRANCH   1   2
BRANCH   1   7
ATOM      7  C   UNL     1       4.346  44.402  11.619  1.00  0.00     0.000 C 
BRANCH   7   8
ATOM      8  C   UNL     1       4.159  43.238  10.635  1.00  0.00    -0.000 C 
BRANCH   8   9
ATOM      9  C   UNL     1       2.678  42.865  10.503  1.00  0.00    -0.003 C 
ATOM     10  C   UNL     1       2.142  43.217   9.117  1.00  0.00     0.004 C 
ENDBRANCH   8   9
ENDBRANCH   7   8
ENDBRANCH   1   7
TORSDOF 6
ENDMDL
MODEL 4
REMARK VINA RESULT:    -4.364      3.004      5.073
REMARK INTER + INTRA:          -6.146
REMARK INTER:                  -5.668
REMARK INTRA:                  -0.478
REMARK UNBOUND:                -0.251
REMARK SMILES CCCCCCCC(=O)[O-]
REMARK SMILES IDX 5 1 6 2 7 3 8 4 9 5 10 6 4 7 3 8 2 9 1 10
REMARK H PARENT
REMARK Flexibility Score: inf
ROOT
ATOM      1  C   UNL     1       4.390  44.363  11.367  1.00  0.00     0.000 C 
ENDROOT
BRANCH   1   2
ATOM      2  C   UNL     1       4.221  45.834  10.935  1.00  0.00     0.006 C 
BRANCH   2   3
ATOM      3  C   UNL     1       4.469  46.092   9.440  1.00  0.00     0.053 C 
BRANCH   3   4
ATOM      4  C   UNL     1       3.514  47.100   8.879  1.00  0.00     0.041 C 
ATOM      5  O   UNL     1       3.835  47.786   7.873  1.00  0.00    -0.550 OA
ATOM      6  O   UNL     1       2.282  47.307   9.488  1.00  0.00    -0.550 OA
ENDBRANCH   3   4
ENDBRANCH   2   3
ENDBRANCH   1   2
BRANCH   1   7
ATOM      7  C   UNL     1       3.114  43.689  11.900  1.00  0.00     0.000 C 
BRANCH   7   8
ATOM      8  C   UNL     1       2.682  42.476  11.062  1.00  0.00    -0.000 C 
BRANCH   8   9
ATOM      9  C   UNL     1       2.790  42.779   9.563  1.00  0.00    -0.003 C 
ATOM     10  C   UNL     1       1.593  43.593   9.078  1.00  0.00     0.004 C 
ENDBRANCH   8   9
ENDBRANCH   7   8
ENDBRANCH   1   7
TORSDOF 6
ENDMDL
MODEL 5
REMARK VINA RESULT:    -4.343      3.738      5.994
REMARK INTER + INTRA:          -6.118
REMARK INTER:                  -5.944
REMARK INTRA:                  -0.174
REMARK UNBOUND:                -0.251
REMARK SMILES CCCCCCCC(=O)[O-]
REMARK SMILES IDX 5 1 6 2 7 3 8 4 9 5 10 6 4 7 3 8 2 9 1 10
REMARK H PARENT
REMARK Flexibility Score: inf
ROOT
ATOM      1  C   UNL     1       3.627  45.374   9.974  1.00  0.00     0.000 C 
ENDROOT
BRANCH   1   2
ATOM      2  C   UNL     1       4.876  46.272  10.092  1.00  0.00     0.006 C 
BRANCH   2   3
ATOM      3  C   UNL     1       5.011  47.326   8.982  1.00  0.00     0.053 C 
BRANCH   3   4
ATOM      4  C   UNL     1       6.304  48.077   9.076  1.00  0.00     0.041 C 
ATOM      5  O   UNL     1       6.360  49.286   8.730  1.00  0.00    -0.550 OA
ATOM      6  O   UNL     1       7.454  47.430   9.511  1.00  0.00    -0.550 OA
ENDBRANCH   3   4
ENDBRANCH   2   3
ENDBRANCH   1   2
BRANCH   1   7
ATOM      7  C   UNL     1       3.900  43.936   9.499  1.00  0.00     0.000 C 
BRANCH   7   8
ATOM      8  C   UNL     1       2.659  43.033   9.577  1.00  0.00    -0.000 C 
BRANCH   8   9
ATOM      9  C   UNL     1       2.318  42.694  11.032  1.00  0.00    -0.003 C 
ATOM     10  C   UNL     1       3.208  41.571  11.558  1.00  0.00     0.004 C 
ENDBRANCH   8   9
ENDBRANCH   7   8
ENDBRANCH   1   7
TORSDOF 6
ENDMDL
MODEL 6
REMARK VINA RESULT:    -4.343      3.134      5.665
REMARK INTER + INTRA:          -6.118
REMARK INTER:                  -5.904
REMARK INTRA:                  -0.213
REMARK UNBOUND:                -0.251
REMARK SMILES CCCCCCCC(=O)[O-]
REMARK SMILES IDX 5 1 6 2 7 3 8 4 9 5 10 6 4 7 3 8 2 9 1 10
REMARK H PARENT
REMARK Flexibility Score: inf
ROOT
ATOM      1  C   UNL     1       4.165  43.866  11.978  1.00  0.00     0.000 C 
ENDROOT
BRANCH   1   2
ATOM      2  C   UNL     1       4.260  45.253  11.309  1.00  0.00     0.006 C 
BRANCH   2   3
ATOM      3  C   UNL     1       4.129  45.233   9.778  1.00  0.00     0.053 C 
BRANCH   3   4
ATOM      4  C   UNL     1       4.567  46.525   9.160  1.00  0.00     0.041 C 
ATOM      5  O   UNL     1       5.740  46.946   9.338  1.00  0.00    -0.550 OA
ATOM      6  O   UNL     1       3.669  47.280   8.416  1.00  0.00    -0.550 OA
ENDBRANCH   3   4
ENDBRANCH   2   3
ENDBRANCH   1   2
BRANCH   1   7
ATOM      7  C   UNL     1       2.833  43.127  11.760  1.00  0.00     0.000 C 
BRANCH   7   8
ATOM      8  C   UNL     1       3.011  41.754  11.096  1.00  0.00    -0.000 C 
BRANCH   8   9
ATOM      9  C   UNL     1       3.034  40.636  12.145  1.00  0.00    -0.003 C 
ATOM     10  C   UNL     1       4.466  40.243  12.499  1.00  0.00     0.004 C 
ENDBRANCH   8   9
ENDBRANCH   7   8
ENDBRANCH   1   7
TORSDOF 6
ENDMDL
MODEL 7
REMARK VINA RESULT:    -4.299      2.846      6.052
REMARK INTER + INTRA:          -6.058
REMARK INTER:                  -5.779
REMARK INTRA:                  -0.279
REMARK UNBOUND:                -0.251
REMARK SMILES CCCCCCCC(=O)[O-]
REMARK SMILES IDX 5 1 6 2 7 3 8 4 9 5 10 6 4 7 3 8 2 9 1 10
REMARK H PARENT
REMARK Flexibility Score: inf
ROOT
ATOM      1  C   UNL     1       2.994  42.182  10.933  1.00  0.00     0.000 C 
ENDROOT
BRANCH   1   2
ATOM      2  C   UNL     1       4.236  43.090  11.044  1.00  0.00     0.006 C 
BRANCH   2   3
ATOM      3  C   UNL     1       3.926  44.557  11.379  1.00  0.00     0.053 C 
BRANCH   3   4
ATOM      4  C   UNL     1       3.585  45.353  10.156  1.00  0.00     0.041 C 
ATOM      5  O   UNL     1       4.451  45.542   9.262  1.00  0.00    -0.550 OA
ATOM      6  O   UNL     1       2.321  45.914  10.021  1.00  0.00    -0.550 OA
ENDBRANCH   3   4
ENDBRANCH   2   3
ENDBRANCH   1   2
BRANCH   1   7
ATOM      7  C   UNL     1       2.981  40.975  11.887  1.00  0.00     0.000 C 
BRANCH   7   8
ATOM      8  C   UNL     1       4.381  40.598  12.397  1.00  0.00    -0.000 C 
BRANCH   8   9
ATOM      9  C   UNL     1       4.418  39.142  12.871  1.00  0.00    -0.003 C 
ATOM     10  C   UNL     1       3.204  38.366  12.367  1.00  0.00     0.004 C 
ENDBRANCH   8   9
ENDBRANCH   7   8
ENDBRANCH   1   7
TORSDOF 6
ENDMDL
MODEL 8
REMARK VINA RESULT:    -4.217      2.955      5.416
REMARK INTER + INTRA:          -5.947
REMARK INTER:                  -5.554
REMARK INTRA:                  -0.393
REMARK UNBOUND:                -0.251
REMARK SMILES CCCCCCCC(=O)[O-]
REMARK SMILES IDX 5 1 6 2 7 3 8 4 9 5 10 6 4 7 3 8 2 9 1 10
REMARK H PARENT
REMARK Flexibility Score: inf
ROOT
ATOM      1  C   UNL     1       3.799  43.796   9.213  1.00  0.00     0.000 C 
ENDROOT
BRANCH   1   2
ATOM      2  C   UNL     1       4.190  44.947  10.163  1.00  0.00     0.006 C 
BRANCH   2   3
ATOM      3  C   UNL     1       4.611  46.244   9.453  1.00  0.00     0.053 C 
BRANCH   3   4
ATOM      4  C   UNL     1       3.430  47.035   8.981  1.00  0.00     0.041 C 
ATOM      5  O   UNL     1       2.372  47.062   9.664  1.00  0.00    -0.550 OA
ATOM      6  O   UNL     1       3.485  47.713   7.770  1.00  0.00    -0.550 OA
ENDBRANCH   3   4
ENDBRANCH   2   3
ENDBRANCH   1   2
BRANCH   1   7
ATOM      7  C   UNL     1       2.551  43.000   9.634  1.00  0.00     0.000 C 
BRANCH   7   8
ATOM      8  C   UNL     1       1.904  43.534  10.920  1.00  0.00    -0.000 C 
BRANCH   8   9
ATOM      9  C   UNL     1       1.891  42.461  12.014  1.00  0.00    -0.003 C 
ATOM     10  C   UNL     1       2.956  41.398  11.756  1.00  0.00     0.004 C 
ENDBRANCH   8   9
ENDBRANCH   7   8
ENDBRANCH   1   7
TORSDOF 6
ENDMDL
MODEL 9
REMARK VINA RESULT:    -4.165      3.214      4.980
REMARK INTER + INTRA:          -5.877
REMARK INTER:                  -5.300
REMARK INTRA:                  -0.577
REMARK UNBOUND:                -0.251
REMARK SMILES CCCCCCCC(=O)[O-]
REMARK SMILES IDX 5 1 6 2 7 3 8 4 9 5 10 6 4 7 3 8 2 9 1 10
REMARK H PARENT
REMARK Flexibility Score: inf
ROOT
ATOM      1  C   UNL     1       1.147  44.389   9.548  1.00  0.00     0.000 C 
ENDROOT
BRANCH   1   2
ATOM      2  C   UNL     1       1.461  45.815   9.050  1.00  0.00     0.006 C 
BRANCH   2   3
ATOM      3  C   UNL     1       2.570  46.534   9.834  1.00  0.00     0.053 C 
BRANCH   3   4
ATOM      4  C   UNL     1       3.770  46.813   8.982  1.00  0.00     0.041 C 
ATOM      5  O   UNL     1       4.875  46.271   9.246  1.00  0.00    -0.550 OA
ATOM      6  O   UNL     1       3.676  47.700   7.917  1.00  0.00    -0.550 OA
ENDBRANCH   3   4
ENDBRANCH   2   3
ENDBRANCH   1   2
BRANCH   1   7
ATOM      7  C   UNL     1       2.225  43.336   9.234  1.00  0.00     0.000 C 
BRANCH   7   8
ATOM      8  C   UNL     1       2.787  42.659  10.493  1.00  0.00    -0.000 C 
BRANCH   8   9
ATOM      9  C   UNL     1       4.211  43.142  10.786  1.00  0.00    -0.003 C 
ATOM     10  C   UNL     1       4.248  44.030  12.027  1.00  0.00     0.004 C 
ENDBRANCH   8   9
ENDBRANCH   7   8
ENDBRANCH   1   7
TORSDOF 6
ENDMDL
