MODEL 1
REMARK VINA RESULT:     6.388      0.000      0.000
REMARK INTER + INTRA:           8.206
REMARK INTER:                   7.695
REMARK INTRA:                   0.511
REMARK UNBOUND:                 0.511
REMARK SMILES O=c1c(O)c(-c2ccc(O)c(O)c2)oc2cc(O)cc(O)c12
REMARK SMILES IDX 5 1 3 2 2 3 1 4 22 5 20 6 19 7 17 8 16 9 15 10 14 11 6 12
REMARK SMILES IDX 7 13 8 14 9 15 13 16 11 17 10 18 12 20 4 22 21 24 18 26
REMARK H PARENT 10 19 12 21 4 23 21 25 18 27
REMARK Flexibility Score: inf
ROOT
ATOM      1  C   UNL     1      -9.009  -2.874  16.883  1.00  0.00     0.180 A 
ATOM      2  C   UNL     1      -9.237  -1.998  15.807  1.00  0.00     0.208 A 
ATOM      3  C   UNL     1      -9.562  -2.534  14.551  1.00  0.00     0.238 A 
ATOM      4  O   UNL     1      -9.817  -1.744  13.605  1.00  0.00    -0.285 OA
ATOM      5  C   UNL     1      -9.641  -3.937  14.382  1.00  0.00     0.111 A 
ATOM      6  C   UNL     1      -9.923  -4.590  13.144  1.00  0.00     0.134 A 
ATOM      7  C   UNL     1     -10.106  -5.978  13.122  1.00  0.00     0.093 A 
ATOM      8  C   UNL     1      -9.952  -6.743  14.277  1.00  0.00     0.123 A 
ATOM      9  C   UNL     1      -9.617  -6.123  15.480  1.00  0.00     0.094 A 
ATOM     10  C   UNL     1      -9.464  -4.736  15.542  1.00  0.00     0.146 A 
ATOM     11  O   UNL     1      -9.156  -4.182  16.709  1.00  0.00    -0.452 OA
ENDROOT
BRANCH   1  12
ATOM     12  C   UNL     1      -8.639  -2.386  18.231  1.00  0.00     0.025 A 
ATOM     13  C   UNL     1      -8.308  -1.032  18.409  1.00  0.00     0.016 A 
ATOM     14  C   UNL     1      -7.977  -0.546  19.677  1.00  0.00     0.051 A 
ATOM     15  C   UNL     1      -7.985  -1.401  20.786  1.00  0.00     0.157 A 
ATOM     16  C   UNL     1      -8.666  -3.235  19.351  1.00  0.00     0.062 A 
ATOM     17  C   UNL     1      -8.336  -2.747  20.623  1.00  0.00     0.158 A 
BRANCH  15  18
ATOM     18  O   UNL     1      -7.654  -0.920  22.051  1.00  0.00    -0.504 OA
ATOM     19  H   UNL     1      -7.002  -0.154  22.172  1.00  0.00     0.293 HD
ENDBRANCH  15  18
BRANCH  17  20
ATOM     20  O   UNL     1      -8.357  -3.593  21.732  1.00  0.00    -0.504 OA
ATOM     21  H   UNL     1      -9.197  -4.090  22.003  1.00  0.00     0.293 HD
ENDBRANCH  17  20
ENDBRANCH   1  12
BRANCH   2  22
ATOM     22  O   UNL     1      -9.175  -0.615  16.002  1.00  0.00    -0.502 OA
ATOM     23  H   UNL     1      -9.758  -0.134  16.676  1.00  0.00     0.293 HD
ENDBRANCH   2  22
BRANCH   6  24
ATOM     24  O   UNL     1     -10.006  -3.929  11.915  1.00  0.00    -0.507 OA
ATOM     25  H   UNL     1     -10.753  -4.046  11.249  1.00  0.00     0.293 HD
ENDBRANCH   6  24
BRANCH   8  26
ATOM     26  O   UNL     1     -10.125  -8.125  14.213  1.00  0.00    -0.508 OA
ATOM     27  H   UNL     1     -10.593  -8.564  13.429  1.00  0.00     0.293 HD
ENDBRANCH   8  26
TORSDOF 6
ENDMDL
