MODEL 1
REMARK VINA RESULT:    -7.269      0.000      0.000
REMARK INTER + INTRA:          -9.036
REMARK INTER:                  -8.756
REMARK INTRA:                  -0.279
REMARK UNBOUND:                -0.279
REMARK SMILES O=c1c(O)c(-c2ccc(O)cc2O)oc2cc(O)cc(O)c12
REMARK SMILES IDX 5 1 3 2 2 3 1 4 22 5 20 6 19 7 17 8 16 9 15 10 14 11 6 12
REMARK SMILES IDX 8 13 7 14 9 15 11 16 12 17 10 18 13 20 4 22 21 24 18 26
REMARK H PARENT 10 19 13 21 4 23 21 25 18 27
REMARK Flexibility Score: inf
ROOT
ATOM      1  C   UNL     1       5.211 -23.926 -23.216  1.00  0.00     0.184 A 
ATOM      2  C   UNL     1       6.269 -24.814 -23.461  1.00  0.00     0.208 A 
ATOM      3  C   UNL     1       6.655 -25.063 -24.788  1.00  0.00     0.238 A 
ATOM      4  O   UNL     1       7.639 -25.819 -24.999  1.00  0.00    -0.285 OA
ATOM      5  C   UNL     1       5.965 -24.432 -25.851  1.00  0.00     0.111 A 
ATOM      6  C   UNL     1       6.245 -24.641 -27.235  1.00  0.00     0.134 A 
ATOM      7  C   UNL     1       5.587 -23.866 -28.197  1.00  0.00     0.093 A 
ATOM      8  C   UNL     1       4.614 -22.936 -27.831  1.00  0.00     0.123 A 
ATOM      9  C   UNL     1       4.290 -22.765 -26.484  1.00  0.00     0.094 A 
ATOM     10  C   UNL     1       4.956 -23.498 -25.498  1.00  0.00     0.146 A 
ATOM     11  O   UNL     1       4.626 -23.298 -24.228  1.00  0.00    -0.451 OA
ENDROOT
BRANCH   1  12
ATOM     12  C   UNL     1       4.744 -23.633 -21.844  1.00  0.00     0.063 A 
ATOM     13  C   UNL     1       3.001 -23.822 -20.159  1.00  0.00     0.047 A 
ATOM     14  C   UNL     1       3.472 -24.077 -21.449  1.00  0.00     0.020 A 
ATOM     15  C   UNL     1       3.800 -23.135 -19.242  1.00  0.00     0.119 A 
ATOM     16  C   UNL     1       5.081 -22.709 -19.618  1.00  0.00     0.093 A 
ATOM     17  C   UNL     1       5.563 -22.965 -20.911  1.00  0.00     0.130 A 
BRANCH  15  18
ATOM     18  O   UNL     1       3.317 -22.884 -17.960  1.00  0.00    -0.508 OA
ATOM     19  H   UNL     1       2.327 -22.935 -17.748  1.00  0.00     0.293 HD
ENDBRANCH  15  18
BRANCH  17  20
ATOM     20  O   UNL     1       6.858 -22.579 -21.258  1.00  0.00    -0.507 OA
ATOM     21  H   UNL     1       7.111 -21.604 -21.366  1.00  0.00     0.293 HD
ENDBRANCH  17  20
ENDBRANCH   1  12
BRANCH   2  22
ATOM     22  O   UNL     1       6.944 -25.409 -22.391  1.00  0.00    -0.502 OA
ATOM     23  H   UNL     1       7.946 -25.323 -22.266  1.00  0.00     0.293 HD
ENDBRANCH   2  22
BRANCH   6  24
ATOM     24  O   UNL     1       7.133 -25.609 -27.714  1.00  0.00    -0.507 OA
ATOM     25  H   UNL     1       8.127 -25.607 -27.551  1.00  0.00     0.293 HD
ENDBRANCH   6  24
BRANCH   8  26
ATOM     26  O   UNL     1       3.968 -22.193 -28.817  1.00  0.00    -0.508 OA
ATOM     27  H   UNL     1       4.423 -21.410 -29.274  1.00  0.00     0.293 HD
ENDBRANCH   8  26
TORSDOF 6
ENDMDL
MODEL 2
REMARK VINA RESULT:    -7.108      9.365     10.281
REMARK INTER + INTRA:          -8.841
REMARK INTER:                  -8.532
REMARK INTRA:                  -0.309
REMARK UNBOUND:                -0.279
REMARK SMILES O=c1c(O)c(-c2ccc(O)cc2O)oc2cc(O)cc(O)c12
REMARK SMILES IDX 5 1 3 2 2 3 1 4 22 5 20 6 19 7 17 8 16 9 15 10 14 11 6 12
REMARK SMILES IDX 8 13 7 14 9 15 11 16 12 17 10 18 13 20 4 22 21 24 18 26
REMARK H PARENT 10 19 13 21 4 23 21 25 18 27
REMARK Flexibility Score: inf
ROOT
ATOM      1  C   UNL     1       2.532 -33.367 -22.241  1.00  0.00     0.184 A 
ATOM      2  C   UNL     1       1.584 -33.221 -23.265  1.00  0.00     0.208 A 
ATOM      3  C   UNL     1       2.012 -33.263 -24.601  1.00  0.00     0.238 A 
ATOM      4  O   UNL     1       1.150 -33.185 -25.516  1.00  0.00    -0.285 OA
ATOM      5  C   UNL     1       3.387 -33.434 -24.894  1.00  0.00     0.111 A 
ATOM      6  C   UNL     1       3.939 -33.451 -26.210  1.00  0.00     0.134 A 
ATOM      7  C   UNL     1       5.294 -33.756 -26.387  1.00  0.00     0.093 A 
ATOM      8  C   UNL     1       6.130 -33.981 -25.293  1.00  0.00     0.123 A 
ATOM      9  C   UNL     1       5.614 -33.909 -23.999  1.00  0.00     0.094 A 
ATOM     10  C   UNL     1       4.258 -33.642 -23.792  1.00  0.00     0.146 A 
ATOM     11  O   UNL     1       3.804 -33.592 -22.545  1.00  0.00    -0.451 OA
ENDROOT
BRANCH   1  12
ATOM     12  C   UNL     1       2.149 -33.316 -20.815  1.00  0.00     0.063 A 
ATOM     13  C   UNL     1       1.884 -34.473 -18.693  1.00  0.00     0.047 A 
ATOM     14  C   UNL     1       2.233 -34.487 -20.045  1.00  0.00     0.020 A 
ATOM     15  C   UNL     1       1.461 -33.287 -18.088  1.00  0.00     0.119 A 
ATOM     16  C   UNL     1       1.397 -32.107 -18.841  1.00  0.00     0.093 A 
ATOM     17  C   UNL     1       1.751 -32.112 -20.199  1.00  0.00     0.130 A 
BRANCH  15  18
ATOM     18  O   UNL     1       1.112 -33.289 -16.739  1.00  0.00    -0.508 OA
ATOM     19  H   UNL     1       1.762 -32.983 -16.024  1.00  0.00     0.293 HD
ENDBRANCH  15  18
BRANCH  17  20
ATOM     20  O   UNL     1       1.729 -30.921 -20.925  1.00  0.00    -0.507 OA
ATOM     21  H   UNL     1       2.235 -30.100 -20.615  1.00  0.00     0.293 HD
ENDBRANCH  17  20
ENDBRANCH   1  12
BRANCH   2  22
ATOM     22  O   UNL     1       0.230 -33.072 -22.948  1.00  0.00    -0.502 OA
ATOM     23  H   UNL     1      -0.280 -33.759 -22.405  1.00  0.00     0.293 HD
ENDBRANCH   2  22
BRANCH   6  24
ATOM     24  O   UNL     1       3.212 -33.150 -27.365  1.00  0.00    -0.507 OA
ATOM     25  H   UNL     1       2.210 -33.042 -27.402  1.00  0.00     0.293 HD
ENDBRANCH   6  24
BRANCH   8  26
ATOM     26  O   UNL     1       7.477 -34.267 -25.506  1.00  0.00    -0.508 OA
ATOM     27  H   UNL     1       8.171 -34.114 -24.783  1.00  0.00     0.293 HD
ENDBRANCH   8  26
TORSDOF 6
ENDMDL
MODEL 3
REMARK VINA RESULT:    -6.984      1.549      1.666
REMARK INTER + INTRA:          -8.692
REMARK INTER:                  -8.279
REMARK INTRA:                  -0.413
REMARK UNBOUND:                -0.279
REMARK SMILES O=c1c(O)c(-c2ccc(O)cc2O)oc2cc(O)cc(O)c12
REMARK SMILES IDX 5 1 3 2 2 3 1 4 22 5 20 6 19 7 17 8 16 9 15 10 14 11 6 12
REMARK SMILES IDX 8 13 7 14 9 15 11 16 12 17 10 18 13 20 4 22 21 24 18 26
REMARK H PARENT 10 19 13 21 4 23 21 25 18 27
REMARK Flexibility Score: inf
ROOT
ATOM      1  C   UNL     1       5.034 -24.814 -23.746  1.00  0.00     0.184 A 
ATOM      2  C   UNL     1       5.235 -26.201 -23.814  1.00  0.00     0.208 A 
ATOM      3  C   UNL     1       5.557 -26.783 -25.050  1.00  0.00     0.238 A 
ATOM      4  O   UNL     1       5.789 -28.019 -25.093  1.00  0.00    -0.285 OA
ATOM      5  C   UNL     1       5.659 -25.970 -26.204  1.00  0.00     0.111 A 
ATOM      6  C   UNL     1       5.940 -26.458 -27.516  1.00  0.00     0.134 A 
ATOM      7  C   UNL     1       6.146 -25.550 -28.561  1.00  0.00     0.093 A 
ATOM      8  C   UNL     1       6.015 -24.176 -28.358  1.00  0.00     0.123 A 
ATOM      9  C   UNL     1       5.681 -23.691 -27.093  1.00  0.00     0.094 A 
ATOM     10  C   UNL     1       5.507 -24.571 -26.021  1.00  0.00     0.146 A 
ATOM     11  O   UNL     1       5.200 -24.068 -24.831  1.00  0.00    -0.451 OA
ENDROOT
BRANCH   1  12
ATOM     12  C   UNL     1       4.675 -24.141 -22.480  1.00  0.00     0.063 A 
ATOM     13  C   UNL     1       3.027 -23.730 -20.741  1.00  0.00     0.047 A 
ATOM     14  C   UNL     1       3.397 -24.347 -21.938  1.00  0.00     0.020 A 
ATOM     15  C   UNL     1       3.933 -22.913 -20.061  1.00  0.00     0.119 A 
ATOM     16  C   UNL     1       5.221 -22.720 -20.580  1.00  0.00     0.093 A 
ATOM     17  C   UNL     1       5.601 -23.340 -21.780  1.00  0.00     0.130 A 
BRANCH  15  18
ATOM     18  O   UNL     1       3.549 -22.301 -18.870  1.00  0.00    -0.508 OA
ATOM     19  H   UNL     1       4.186 -21.709 -18.349  1.00  0.00     0.293 HD
ENDBRANCH  15  18
BRANCH  17  20
ATOM     20  O   UNL     1       6.901 -23.179 -22.262  1.00  0.00    -0.507 OA
ATOM     21  H   UNL     1       7.181 -22.349 -22.769  1.00  0.00     0.293 HD
ENDBRANCH  17  20
ENDBRANCH   1  12
BRANCH   2  22
ATOM     22  O   UNL     1       5.146 -26.976 -22.654  1.00  0.00    -0.502 OA
ATOM     23  H   UNL     1       5.364 -27.966 -22.645  1.00  0.00     0.293 HD
ENDBRANCH   2  22
BRANCH   6  24
ATOM     24  O   UNL     1       6.002 -27.815 -27.847  1.00  0.00    -0.507 OA
ATOM     25  H   UNL     1       5.361 -28.284 -28.468  1.00  0.00     0.293 HD
ENDBRANCH   6  24
BRANCH   8  26
ATOM     26  O   UNL     1       6.211 -23.302 -29.425  1.00  0.00    -0.508 OA
ATOM     27  H   UNL     1       6.363 -23.643 -30.368  1.00  0.00     0.293 HD
ENDBRANCH   8  26
TORSDOF 6
ENDMDL
MODEL 4
REMARK VINA RESULT:    -6.883      2.168      2.541
REMARK INTER + INTRA:          -8.571
REMARK INTER:                  -8.362
REMARK INTRA:                  -0.210
REMARK UNBOUND:                -0.279
REMARK SMILES O=c1c(O)c(-c2ccc(O)cc2O)oc2cc(O)cc(O)c12
REMARK SMILES IDX 5 1 3 2 2 3 1 4 22 5 20 6 19 7 17 8 16 9 15 10 14 11 6 12
REMARK SMILES IDX 8 13 7 14 9 15 11 16 12 17 10 18 13 20 4 22 21 24 18 26
REMARK H PARENT 10 19 13 21 4 23 21 25 18 27
REMARK Flexibility Score: inf
ROOT
ATOM      1  C   UNL     1       5.420 -24.714 -22.932  1.00  0.00     0.184 A 
ATOM      2  C   UNL     1       6.522 -24.076 -23.522  1.00  0.00     0.208 A 
ATOM      3  C   UNL     1       6.977 -24.522 -24.773  1.00  0.00     0.238 A 
ATOM      4  O   UNL     1       7.932 -23.911 -25.321  1.00  0.00    -0.285 OA
ATOM      5  C   UNL     1       6.333 -25.610 -25.408  1.00  0.00     0.111 A 
ATOM      6  C   UNL     1       6.735 -26.171 -26.658  1.00  0.00     0.134 A 
ATOM      7  C   UNL     1       5.946 -27.163 -27.255  1.00  0.00     0.093 A 
ATOM      8  C   UNL     1       4.808 -27.658 -26.619  1.00  0.00     0.123 A 
ATOM      9  C   UNL     1       4.439 -27.159 -25.369  1.00  0.00     0.094 A 
ATOM     10  C   UNL     1       5.186 -26.144 -24.765  1.00  0.00     0.146 A 
ATOM     11  O   UNL     1       4.795 -25.689 -23.580  1.00  0.00    -0.451 OA
ENDROOT
BRANCH   1  12
ATOM     12  C   UNL     1       4.902 -24.305 -21.610  1.00  0.00     0.063 A 
ATOM     13  C   UNL     1       3.041 -23.505 -20.265  1.00  0.00     0.047 A 
ATOM     14  C   UNL     1       3.564 -23.894 -21.501  1.00  0.00     0.020 A 
ATOM     15  C   UNL     1       3.841 -23.537 -19.121  1.00  0.00     0.119 A 
ATOM     16  C   UNL     1       5.170 -23.970 -19.214  1.00  0.00     0.093 A 
ATOM     17  C   UNL     1       5.702 -24.366 -20.450  1.00  0.00     0.130 A 
BRANCH  15  18
ATOM     18  O   UNL     1       3.306 -23.144 -17.896  1.00  0.00    -0.508 OA
ATOM     19  H   UNL     1       3.113 -23.815 -17.162  1.00  0.00     0.293 HD
ENDBRANCH  15  18
BRANCH  17  20
ATOM     20  O   UNL     1       7.012 -24.841 -20.522  1.00  0.00    -0.507 OA
ATOM     21  H   UNL     1       7.808 -24.219 -20.449  1.00  0.00     0.293 HD
ENDBRANCH  17  20
ENDBRANCH   1  12
BRANCH   2  22
ATOM     22  O   UNL     1       7.128 -22.992 -22.880  1.00  0.00    -0.502 OA
ATOM     23  H   UNL     1       7.324 -22.119 -23.357  1.00  0.00     0.293 HD
ENDBRANCH   2  22
BRANCH   6  24
ATOM     24  O   UNL     1       7.904 -25.813 -27.335  1.00  0.00    -0.507 OA
ATOM     25  H   UNL     1       7.944 -25.172 -28.112  1.00  0.00     0.293 HD
ENDBRANCH   6  24
BRANCH   8  26
ATOM     26  O   UNL     1       4.056 -28.656 -27.236  1.00  0.00    -0.508 OA
ATOM     27  H   UNL     1       3.809 -29.511 -26.749  1.00  0.00     0.293 HD
ENDBRANCH   8  26
TORSDOF 6
ENDMDL
MODEL 5
REMARK VINA RESULT:    -6.860      1.829      6.890
REMARK INTER + INTRA:          -8.543
REMARK INTER:                  -8.199
REMARK INTRA:                  -0.344
REMARK UNBOUND:                -0.279
REMARK SMILES O=c1c(O)c(-c2ccc(O)cc2O)oc2cc(O)cc(O)c12
REMARK SMILES IDX 5 1 3 2 2 3 1 4 22 5 20 6 19 7 17 8 16 9 15 10 14 11 6 12
REMARK SMILES IDX 8 13 7 14 9 15 11 16 12 17 10 18 13 20 4 22 21 24 18 26
REMARK H PARENT 10 19 13 21 4 23 21 25 18 27
REMARK Flexibility Score: inf
ROOT
ATOM      1  C   UNL     1       4.984 -23.824 -25.255  1.00  0.00     0.184 A 
ATOM      2  C   UNL     1       3.883 -24.588 -24.841  1.00  0.00     0.208 A 
ATOM      3  C   UNL     1       3.477 -24.526 -23.499  1.00  0.00     0.238 A 
ATOM      4  O   UNL     1       2.455 -25.172 -23.146  1.00  0.00    -0.285 OA
ATOM      5  C   UNL     1       4.189 -23.712 -22.586  1.00  0.00     0.111 A 
ATOM      6  C   UNL     1       3.890 -23.603 -21.194  1.00  0.00     0.134 A 
ATOM      7  C   UNL     1       4.579 -22.669 -20.411  1.00  0.00     0.093 A 
ATOM      8  C   UNL     1       5.598 -21.886 -20.954  1.00  0.00     0.123 A 
ATOM      9  C   UNL     1       5.939 -22.026 -22.300  1.00  0.00     0.094 A 
ATOM     10  C   UNL     1       5.245 -22.924 -23.115  1.00  0.00     0.146 A 
ATOM     11  O   UNL     1       5.592 -23.020 -24.393  1.00  0.00    -0.451 OA
ENDROOT
BRANCH   1  12
ATOM     12  C   UNL     1       5.474 -23.858 -26.650  1.00  0.00     0.063 A 
ATOM     13  C   UNL     1       7.126 -24.641 -28.252  1.00  0.00     0.047 A 
ATOM     14  C   UNL     1       6.638 -24.584 -26.945  1.00  0.00     0.020 A 
ATOM     15  C   UNL     1       6.449 -23.986 -29.284  1.00  0.00     0.119 A 
ATOM     16  C   UNL     1       5.272 -23.279 -29.005  1.00  0.00     0.093 A 
ATOM     17  C   UNL     1       4.774 -23.221 -27.695  1.00  0.00     0.130 A 
BRANCH  15  18
ATOM     18  O   UNL     1       6.949 -24.048 -30.583  1.00  0.00    -0.508 OA
ATOM     19  H   UNL     1       7.528 -24.821 -30.891  1.00  0.00     0.293 HD
ENDBRANCH  15  18
BRANCH  17  20
ATOM     20  O   UNL     1       3.575 -22.554 -27.437  1.00  0.00    -0.507 OA
ATOM     21  H   UNL     1       2.737 -22.741 -27.974  1.00  0.00     0.293 HD
ENDBRANCH  17  20
ENDBRANCH   1  12
BRANCH   2  22
ATOM     22  O   UNL     1       3.187 -25.370 -25.768  1.00  0.00    -0.502 OA
ATOM     23  H   UNL     1       3.416 -25.374 -26.756  1.00  0.00     0.293 HD
ENDBRANCH   2  22
BRANCH   6  24
ATOM     24  O   UNL     1       2.954 -24.402 -20.532  1.00  0.00    -0.507 OA
ATOM     25  H   UNL     1       3.039 -24.716 -19.578  1.00  0.00     0.293 HD
ENDBRANCH   6  24
BRANCH   8  26
ATOM     26  O   UNL     1       6.273 -20.977 -20.141  1.00  0.00    -0.508 OA
ATOM     27  H   UNL     1       5.826 -20.555 -19.334  1.00  0.00     0.293 HD
ENDBRANCH   8  26
TORSDOF 6
ENDMDL
MODEL 6
REMARK VINA RESULT:    -6.858      2.083      7.179
REMARK INTER + INTRA:          -8.541
REMARK INTER:                  -8.138
REMARK INTRA:                  -0.403
REMARK UNBOUND:                -0.279
REMARK SMILES O=c1c(O)c(-c2ccc(O)cc2O)oc2cc(O)cc(O)c12
REMARK SMILES IDX 5 1 3 2 2 3 1 4 22 5 20 6 19 7 17 8 16 9 15 10 14 11 6 12
REMARK SMILES IDX 8 13 7 14 9 15 11 16 12 17 10 18 13 20 4 22 21 24 18 26
REMARK H PARENT 10 19 13 21 4 23 21 25 18 27
REMARK Flexibility Score: inf
ROOT
ATOM      1  C   UNL     1       4.568 -24.544 -25.505  1.00  0.00     0.184 A 
ATOM      2  C   UNL     1       3.252 -24.299 -25.083  1.00  0.00     0.208 A 
ATOM      3  C   UNL     1       2.977 -24.250 -23.707  1.00  0.00     0.238 A 
ATOM      4  O   UNL     1       1.806 -23.977 -23.334  1.00  0.00    -0.285 OA
ATOM      5  C   UNL     1       4.019 -24.463 -22.774  1.00  0.00     0.111 A 
ATOM      6  C   UNL     1       3.847 -24.477 -21.357  1.00  0.00     0.134 A 
ATOM      7  C   UNL     1       4.971 -24.568 -20.525  1.00  0.00     0.093 A 
ATOM      8  C   UNL     1       6.251 -24.712 -21.059  1.00  0.00     0.123 A 
ATOM      9  C   UNL     1       6.425 -24.760 -22.443  1.00  0.00     0.094 A 
ATOM     10  C   UNL     1       5.328 -24.634 -23.298  1.00  0.00     0.146 A 
ATOM     11  O   UNL     1       5.537 -24.675 -24.609  1.00  0.00    -0.451 OA
ENDROOT
BRANCH   1  12
ATOM     12  C   UNL     1       4.921 -24.624 -26.938  1.00  0.00     0.063 A 
ATOM     13  C   UNL     1       5.818 -23.538 -28.920  1.00  0.00     0.047 A 
ATOM     14  C   UNL     1       5.468 -23.495 -27.569  1.00  0.00     0.020 A 
ATOM     15  C   UNL     1       5.640 -24.713 -29.655  1.00  0.00     0.119 A 
ATOM     16  C   UNL     1       5.118 -25.853 -29.030  1.00  0.00     0.093 A 
ATOM     17  C   UNL     1       4.769 -25.819 -27.672  1.00  0.00     0.130 A 
BRANCH  15  18
ATOM     18  O   UNL     1       5.991 -24.740 -31.004  1.00  0.00    -0.508 OA
ATOM     19  H   UNL     1       6.534 -23.995 -31.425  1.00  0.00     0.293 HD
ENDBRANCH  15  18
BRANCH  17  20
ATOM     20  O   UNL     1       4.295 -26.974 -27.048  1.00  0.00    -0.507 OA
ATOM     21  H   UNL     1       3.929 -27.754 -27.581  1.00  0.00     0.293 HD
ENDBRANCH  17  20
ENDBRANCH   1  12
BRANCH   2  22
ATOM     22  O   UNL     1       2.246 -24.074 -26.027  1.00  0.00    -0.502 OA
ATOM     23  H   UNL     1       2.319 -23.355 -26.738  1.00  0.00     0.293 HD
ENDBRANCH   2  22
BRANCH   6  24
ATOM     24  O   UNL     1       2.604 -24.431 -20.721  1.00  0.00    -0.507 OA
ATOM     25  H   UNL     1       1.851 -23.809 -20.974  1.00  0.00     0.293 HD
ENDBRANCH   6  24
BRANCH   8  26
ATOM     26  O   UNL     1       7.345 -24.816 -20.201  1.00  0.00    -0.508 OA
ATOM     27  H   UNL     1       7.256 -24.642 -19.206  1.00  0.00     0.293 HD
ENDBRANCH   8  26
TORSDOF 6
ENDMDL
MODEL 7
REMARK VINA RESULT:    -6.813      1.845      6.600
REMARK INTER + INTRA:          -8.487
REMARK INTER:                  -8.355
REMARK INTRA:                  -0.132
REMARK UNBOUND:                -0.279
REMARK SMILES O=c1c(O)c(-c2ccc(O)cc2O)oc2cc(O)cc(O)c12
REMARK SMILES IDX 5 1 3 2 2 3 1 4 22 5 20 6 19 7 17 8 16 9 15 10 14 11 6 12
REMARK SMILES IDX 8 13 7 14 9 15 11 16 12 17 10 18 13 20 4 22 21 24 18 26
REMARK H PARENT 10 19 13 21 4 23 21 25 18 27
REMARK Flexibility Score: inf
ROOT
ATOM      1  C   UNL     1       5.268 -23.986 -25.067  1.00  0.00     0.184 A 
ATOM      2  C   UNL     1       6.235 -23.891 -24.055  1.00  0.00     0.208 A 
ATOM      3  C   UNL     1       5.820 -23.886 -22.714  1.00  0.00     0.238 A 
ATOM      4  O   UNL     1       6.696 -23.854 -21.810  1.00  0.00    -0.285 OA
ATOM      5  C   UNL     1       4.441 -23.960 -22.405  1.00  0.00     0.111 A 
ATOM      6  C   UNL     1       3.904 -23.922 -21.083  1.00  0.00     0.134 A 
ATOM      7  C   UNL     1       2.533 -24.133 -20.888  1.00  0.00     0.093 A 
ATOM      8  C   UNL     1       1.672 -24.315 -21.969  1.00  0.00     0.123 A 
ATOM      9  C   UNL     1       2.177 -24.295 -23.270  1.00  0.00     0.094 A 
ATOM     10  C   UNL     1       3.545 -24.123 -23.494  1.00  0.00     0.146 A 
ATOM     11  O   UNL     1       3.987 -24.121 -24.746  1.00  0.00    -0.451 OA
ENDROOT
BRANCH   1  12
ATOM     12  C   UNL     1       5.637 -23.980 -26.498  1.00  0.00     0.063 A 
ATOM     13  C   UNL     1       7.047 -24.838 -28.283  1.00  0.00     0.047 A 
ATOM     14  C   UNL     1       6.676 -24.816 -26.936  1.00  0.00     0.020 A 
ATOM     15  C   UNL     1       6.376 -24.038 -29.210  1.00  0.00     0.119 A 
ATOM     16  C   UNL     1       5.321 -23.218 -28.788  1.00  0.00     0.093 A 
ATOM     17  C   UNL     1       4.940 -23.194 -27.438  1.00  0.00     0.130 A 
BRANCH  15  18
ATOM     18  O   UNL     1       6.760 -24.068 -30.550  1.00  0.00    -0.508 OA
ATOM     19  H   UNL     1       7.194 -24.888 -30.958  1.00  0.00     0.293 HD
ENDBRANCH  15  18
BRANCH  17  20
ATOM     20  O   UNL     1       3.857 -22.410 -27.038  1.00  0.00    -0.507 OA
ATOM     21  H   UNL     1       3.879 -21.871 -26.181  1.00  0.00     0.293 HD
ENDBRANCH  17  20
ENDBRANCH   1  12
BRANCH   2  22
ATOM     22  O   UNL     1       7.592 -23.837 -24.388  1.00  0.00    -0.502 OA
ATOM     23  H   UNL     1       8.284 -24.433 -23.947  1.00  0.00     0.293 HD
ENDBRANCH   2  22
BRANCH   6  24
ATOM     24  O   UNL     1       4.662 -23.656 -19.939  1.00  0.00    -0.507 OA
ATOM     25  H   UNL     1       4.861 -24.326 -19.213  1.00  0.00     0.293 HD
ENDBRANCH   6  24
BRANCH   8  26
ATOM     26  O   UNL     1       0.311 -24.507 -21.738  1.00  0.00    -0.508 OA
ATOM     27  H   UNL     1      -0.283 -23.752 -21.414  1.00  0.00     0.293 HD
ENDBRANCH   8  26
TORSDOF 6
ENDMDL
MODEL 8
REMARK VINA RESULT:    -6.677      8.078      8.812
REMARK INTER + INTRA:          -8.322
REMARK INTER:                  -7.984
REMARK INTRA:                  -0.338
REMARK UNBOUND:                -0.279
REMARK SMILES O=c1c(O)c(-c2ccc(O)cc2O)oc2cc(O)cc(O)c12
REMARK SMILES IDX 5 1 3 2 2 3 1 4 22 5 20 6 19 7 17 8 16 9 15 10 14 11 6 12
REMARK SMILES IDX 8 13 7 14 9 15 11 16 12 17 10 18 13 20 4 22 21 24 18 26
REMARK H PARENT 10 19 13 21 4 23 21 25 18 27
REMARK Flexibility Score: inf
ROOT
ATOM      1  C   UNL     1       2.663 -31.782 -21.650  1.00  0.00     0.184 A 
ATOM      2  C   UNL     1       3.548 -30.701 -21.776  1.00  0.00     0.208 A 
ATOM      3  C   UNL     1       3.897 -30.253 -23.060  1.00  0.00     0.238 A 
ATOM      4  O   UNL     1       4.650 -29.249 -23.166  1.00  0.00    -0.285 OA
ATOM      5  C   UNL     1       3.367 -30.904 -24.200  1.00  0.00     0.111 A 
ATOM      6  C   UNL     1       3.684 -30.561 -25.549  1.00  0.00     0.134 A 
ATOM      7  C   UNL     1       3.001 -31.187 -26.599  1.00  0.00     0.093 A 
ATOM      8  C   UNL     1       2.062 -32.189 -26.352  1.00  0.00     0.123 A 
ATOM      9  C   UNL     1       1.788 -32.574 -25.039  1.00  0.00     0.094 A 
ATOM     10  C   UNL     1       2.426 -31.942 -23.969  1.00  0.00     0.146 A 
ATOM     11  O   UNL     1       2.130 -32.330 -22.734  1.00  0.00    -0.451 OA
ENDROOT
BRANCH   1  12
ATOM     12  C   UNL     1       2.268 -32.312 -20.328  1.00  0.00     0.063 A 
ATOM     13  C   UNL     1       2.509 -34.030 -18.623  1.00  0.00     0.047 A 
ATOM     14  C   UNL     1       2.855 -33.503 -19.870  1.00  0.00     0.020 A 
ATOM     15  C   UNL     1       1.584 -33.368 -17.813  1.00  0.00     0.119 A 
ATOM     16  C   UNL     1       1.010 -32.166 -18.249  1.00  0.00     0.093 A 
ATOM     17  C   UNL     1       1.356 -31.628 -19.498  1.00  0.00     0.130 A 
BRANCH  15  18
ATOM     18  O   UNL     1       1.245 -33.907 -16.573  1.00  0.00    -0.508 OA
ATOM     19  H   UNL     1       1.100 -34.902 -16.451  1.00  0.00     0.293 HD
ENDBRANCH  15  18
BRANCH  17  20
ATOM     20  O   UNL     1       0.815 -30.407 -19.901  1.00  0.00    -0.507 OA
ATOM     21  H   UNL     1      -0.096 -30.348 -20.339  1.00  0.00     0.293 HD
ENDBRANCH  17  20
ENDBRANCH   1  12
BRANCH   2  22
ATOM     22  O   UNL     1       4.043 -30.065 -20.633  1.00  0.00    -0.502 OA
ATOM     23  H   UNL     1       4.195 -29.064 -20.591  1.00  0.00     0.293 HD
ENDBRANCH   2  22
BRANCH   6  24
ATOM     24  O   UNL     1       4.671 -29.639 -25.909  1.00  0.00    -0.507 OA
ATOM     25  H   UNL     1       5.657 -29.842 -25.954  1.00  0.00     0.293 HD
ENDBRANCH   6  24
BRANCH   8  26
ATOM     26  O   UNL     1       1.414 -32.801 -27.422  1.00  0.00    -0.508 OA
ATOM     27  H   UNL     1       0.641 -33.441 -27.277  1.00  0.00     0.293 HD
ENDBRANCH   8  26
TORSDOF 6
ENDMDL
MODEL 9
REMARK VINA RESULT:    -6.610      8.593      9.311
REMARK INTER + INTRA:          -8.241
REMARK INTER:                  -7.826
REMARK INTRA:                  -0.415
REMARK UNBOUND:                -0.279
REMARK SMILES O=c1c(O)c(-c2ccc(O)cc2O)oc2cc(O)cc(O)c12
REMARK SMILES IDX 5 1 3 2 2 3 1 4 22 5 20 6 19 7 17 8 16 9 15 10 14 11 6 12
REMARK SMILES IDX 8 13 7 14 9 15 11 16 12 17 10 18 13 20 4 22 21 24 18 26
REMARK H PARENT 10 19 13 21 4 23 21 25 18 27
REMARK Flexibility Score: inf
ROOT
ATOM      1  C   UNL     1       1.806 -32.379 -22.158  1.00  0.00     0.184 A 
ATOM      2  C   UNL     1       0.864 -32.845 -23.088  1.00  0.00     0.208 A 
ATOM      3  C   UNL     1       0.954 -32.416 -24.422  1.00  0.00     0.238 A 
ATOM      4  O   UNL     1       0.139 -32.879 -25.262  1.00  0.00    -0.285 OA
ATOM      5  C   UNL     1       1.976 -31.514 -24.803  1.00  0.00     0.111 A 
ATOM      6  C   UNL     1       2.138 -30.982 -26.118  1.00  0.00     0.134 A 
ATOM      7  C   UNL     1       3.261 -30.200 -26.412  1.00  0.00     0.093 A 
ATOM      8  C   UNL     1       4.193 -29.876 -25.426  1.00  0.00     0.123 A 
ATOM      9  C   UNL     1       4.013 -30.342 -24.123  1.00  0.00     0.094 A 
ATOM     10  C   UNL     1       2.922 -31.155 -23.807  1.00  0.00     0.146 A 
ATOM     11  O   UNL     1       2.793 -31.586 -22.557  1.00  0.00    -0.451 OA
ENDROOT
BRANCH   1  12
ATOM     12  C   UNL     1       1.758 -32.778 -20.736  1.00  0.00     0.063 A 
ATOM     13  C   UNL     1       2.121 -34.487 -19.045  1.00  0.00     0.047 A 
ATOM     14  C   UNL     1       2.150 -34.078 -20.380  1.00  0.00     0.020 A 
ATOM     15  C   UNL     1       1.715 -33.598 -18.047  1.00  0.00     0.119 A 
ATOM     16  C   UNL     1       1.345 -32.290 -18.387  1.00  0.00     0.093 A 
ATOM     17  C   UNL     1       1.376 -31.871 -19.726  1.00  0.00     0.130 A 
BRANCH  15  18
ATOM     18  O   UNL     1       1.687 -34.021 -16.719  1.00  0.00    -0.508 OA
ATOM     19  H   UNL     1       2.394 -34.645 -16.348  1.00  0.00     0.293 HD
ENDBRANCH  15  18
BRANCH  17  20
ATOM     20  O   UNL     1       1.052 -30.552 -20.047  1.00  0.00    -0.507 OA
ATOM     21  H   UNL     1       0.183 -30.317 -20.512  1.00  0.00     0.293 HD
ENDBRANCH  17  20
ENDBRANCH   1  12
BRANCH   2  22
ATOM     22  O   UNL     1      -0.124 -33.749 -22.688  1.00  0.00    -0.502 OA
ATOM     23  H   UNL     1      -1.110 -33.583 -22.851  1.00  0.00     0.293 HD
ENDBRANCH   2  22
BRANCH   6  24
ATOM     24  O   UNL     1       1.219 -31.168 -27.154  1.00  0.00    -0.507 OA
ATOM     25  H   UNL     1       0.240 -30.933 -27.102  1.00  0.00     0.293 HD
ENDBRANCH   6  24
BRANCH   8  26
ATOM     26  O   UNL     1       5.290 -29.082 -25.752  1.00  0.00    -0.508 OA
ATOM     27  H   UNL     1       5.175 -28.134 -26.094  1.00  0.00     0.293 HD
ENDBRANCH   8  26
TORSDOF 6
ENDMDL
