MODEL 1
REMARK VINA RESULT:    -3.838      0.000      0.000
REMARK INTER + INTRA:          -4.219
REMARK INTER:                  -4.174
REMARK INTRA:                  -0.045
REMARK UNBOUND:                -0.045
REMARK SMILES COc1cc2ccc(=O)oc2cc1O
REMARK SMILES IDX 3 1 13 2 12 3 11 4 5 5 4 6 6 7 7 8 8 9 9 10 10 11 2 12 1 13
REMARK SMILES IDX 14 14
REMARK H PARENT 14 15
REMARK Flexibility Score: inf
ROOT
ATOM      1  C   UNL     1      24.825   8.240  18.810  1.00  0.00     0.161 A 
ATOM      2  C   UNL     1      26.062   7.887  18.248  1.00  0.00     0.161 A 
ATOM      3  C   UNL     1      26.113   7.135  17.065  1.00  0.00     0.098 A 
ATOM      4  C   UNL     1      24.934   6.732  16.436  1.00  0.00     0.142 A 
ATOM      5  C   UNL     1      23.687   7.082  16.993  1.00  0.00     0.022 A 
ATOM      6  C   UNL     1      23.634   7.833  18.175  1.00  0.00     0.062 A 
ATOM      7  C   UNL     1      22.524   6.663  16.340  1.00  0.00     0.019 A 
ATOM      8  C   UNL     1      22.628   5.918  15.166  1.00  0.00     0.094 A 
ATOM      9  C   UNL     1      23.899   5.608  14.671  1.00  0.00     0.336 A 
ATOM     10  O   UNL     1      24.015   4.936  13.613  1.00  0.00    -0.246 OA
ATOM     11  O   UNL     1      24.989   6.019  15.312  1.00  0.00    -0.423 OA
ENDROOT
BRANCH   1  12
ATOM     12  O   UNL     1      24.822   8.992  19.995  1.00  0.00    -0.493 OA
ATOM     13  C   UNL     1      23.648   9.481  20.637  1.00  0.00     0.278 C 
ENDBRANCH   1  12
BRANCH   2  14
ATOM     14  O   UNL     1      27.242   8.289  18.874  1.00  0.00    -0.504 OA
ATOM     15  H   UNL     1      27.699   7.708  19.568  1.00  0.00     0.293 HD
ENDBRANCH   2  14
TORSDOF 2
ENDMDL
MODEL 2
REMARK VINA RESULT:    -3.769      2.073      2.813
REMARK INTER + INTRA:          -4.145
REMARK INTER:                  -4.079
REMARK INTRA:                  -0.065
REMARK UNBOUND:                -0.045
REMARK SMILES COc1cc2ccc(=O)oc2cc1O
REMARK SMILES IDX 3 1 13 2 12 3 11 4 5 5 4 6 6 7 7 8 8 9 9 10 10 11 2 12 1 13
REMARK SMILES IDX 14 14
REMARK H PARENT 14 15
REMARK Flexibility Score: inf
ROOT
ATOM      1  C   UNL     1      25.415   7.906  18.154  1.00  0.00     0.161 A 
ATOM      2  C   UNL     1      25.550   7.243  16.924  1.00  0.00     0.161 A 
ATOM      3  C   UNL     1      24.412   6.856  16.201  1.00  0.00     0.098 A 
ATOM      4  C   UNL     1      23.136   7.128  16.698  1.00  0.00     0.142 A 
ATOM      5  C   UNL     1      22.992   7.794  17.932  1.00  0.00     0.022 A 
ATOM      6  C   UNL     1      24.127   8.181  18.656  1.00  0.00     0.062 A 
ATOM      7  C   UNL     1      21.700   8.052  18.404  1.00  0.00     0.019 A 
ATOM      8  C   UNL     1      20.601   7.647  17.646  1.00  0.00     0.094 A 
ATOM      9  C   UNL     1      20.821   6.992  16.431  1.00  0.00     0.336 A 
ATOM     10  O   UNL     1      19.843   6.618  15.732  1.00  0.00    -0.246 OA
ATOM     11  O   UNL     1      22.060   6.759  16.006  1.00  0.00    -0.423 OA
ENDROOT
BRANCH   1  12
ATOM     12  O   UNL     1      26.581   8.274  18.844  1.00  0.00    -0.493 OA
ATOM     13  C   UNL     1      27.104   7.579  19.972  1.00  0.00     0.278 C 
ENDBRANCH   1  12
BRANCH   2  14
ATOM     14  O   UNL     1      26.823   6.970  16.426  1.00  0.00    -0.504 OA
ATOM     15  H   UNL     1      27.128   6.022  16.238  1.00  0.00     0.293 HD
ENDBRANCH   2  14
TORSDOF 2
ENDMDL
MODEL 3
REMARK VINA RESULT:    -3.625      1.555      4.671
REMARK INTER + INTRA:          -3.988
REMARK INTER:                  -3.941
REMARK INTRA:                  -0.047
REMARK UNBOUND:                -0.045
REMARK SMILES COc1cc2ccc(=O)oc2cc1O
REMARK SMILES IDX 3 1 13 2 12 3 11 4 5 5 4 6 6 7 7 8 8 9 9 10 10 11 2 12 1 13
REMARK SMILES IDX 14 14
REMARK H PARENT 14 15
REMARK Flexibility Score: inf
ROOT
ATOM      1  C   UNL     1      24.537   6.593  15.913  1.00  0.00     0.161 A 
ATOM      2  C   UNL     1      25.553   7.122  16.724  1.00  0.00     0.161 A 
ATOM      3  C   UNL     1      25.233   7.801  17.908  1.00  0.00     0.098 A 
ATOM      4  C   UNL     1      23.899   7.957  18.291  1.00  0.00     0.142 A 
ATOM      5  C   UNL     1      22.872   7.428  17.483  1.00  0.00     0.022 A 
ATOM      6  C   UNL     1      23.190   6.750  16.299  1.00  0.00     0.062 A 
ATOM      7  C   UNL     1      21.545   7.601  17.893  1.00  0.00     0.019 A 
ATOM      8  C   UNL     1      21.279   8.284  19.080  1.00  0.00     0.094 A 
ATOM      9  C   UNL     1      22.349   8.780  19.830  1.00  0.00     0.336 A 
ATOM     10  O   UNL     1      22.130   9.399  20.904  1.00  0.00    -0.246 OA
ATOM     11  O   UNL     1      23.601   8.602  19.417  1.00  0.00    -0.423 OA
ENDROOT
BRANCH   1  12
ATOM     12  O   UNL     1      24.903   5.921  14.736  1.00  0.00    -0.493 OA
ATOM     13  C   UNL     1      24.109   4.930  14.092  1.00  0.00     0.278 C 
ENDBRANCH   1  12
BRANCH   2  14
ATOM     14  O   UNL     1      26.886   6.968  16.343  1.00  0.00    -0.504 OA
ATOM     15  H   UNL     1      27.271   6.058  16.114  1.00  0.00     0.293 HD
ENDBRANCH   2  14
TORSDOF 2
ENDMDL
MODEL 4
REMARK VINA RESULT:    -3.589      5.077      6.093
REMARK INTER + INTRA:          -3.949
REMARK INTER:                  -3.884
REMARK INTRA:                  -0.065
REMARK UNBOUND:                -0.045
REMARK SMILES COc1cc2ccc(=O)oc2cc1O
REMARK SMILES IDX 3 1 13 2 12 3 11 4 5 5 4 6 6 7 7 8 8 9 9 10 10 11 2 12 1 13
REMARK SMILES IDX 14 14
REMARK H PARENT 14 15
REMARK Flexibility Score: inf
ROOT
ATOM      1  C   UNL     1      20.422  11.416  17.215  1.00  0.00     0.161 A 
ATOM      2  C   UNL     1      19.036  11.514  17.013  1.00  0.00     0.161 A 
ATOM      3  C   UNL     1      18.300  10.392  16.605  1.00  0.00     0.098 A 
ATOM      4  C   UNL     1      18.939   9.168  16.397  1.00  0.00     0.142 A 
ATOM      5  C   UNL     1      20.331   9.061  16.598  1.00  0.00     0.022 A 
ATOM      6  C   UNL     1      21.068  10.181  17.005  1.00  0.00     0.062 A 
ATOM      7  C   UNL     1      20.942   7.822  16.380  1.00  0.00     0.019 A 
ATOM      8  C   UNL     1      20.166   6.737  15.976  1.00  0.00     0.094 A 
ATOM      9  C   UNL     1      18.791   6.917  15.796  1.00  0.00     0.336 A 
ATOM     10  O   UNL     1      18.073   5.950  15.431  1.00  0.00    -0.246 OA
ATOM     11  O   UNL     1      18.235   8.106  16.009  1.00  0.00    -0.423 OA
ENDROOT
BRANCH   1  12
ATOM     12  O   UNL     1      21.118  12.564  17.623  1.00  0.00    -0.493 OA
ATOM     13  C   UNL     1      21.616  12.781  18.940  1.00  0.00     0.278 C 
ENDBRANCH   1  12
BRANCH   2  14
ATOM     14  O   UNL     1      18.395  12.735  17.220  1.00  0.00    -0.504 OA
ATOM     15  H   UNL     1      17.387  12.822  17.158  1.00  0.00     0.293 HD
ENDBRANCH   2  14
TORSDOF 2
ENDMDL
MODEL 5
REMARK VINA RESULT:    -3.523      4.739      6.885
REMARK INTER + INTRA:          -3.877
REMARK INTER:                  -3.827
REMARK INTRA:                  -0.050
REMARK UNBOUND:                -0.045
REMARK SMILES COc1cc2ccc(=O)oc2cc1O
REMARK SMILES IDX 3 1 13 2 12 3 11 4 5 5 4 6 6 7 7 8 8 9 9 10 10 11 2 12 1 13
REMARK SMILES IDX 14 14
REMARK H PARENT 14 15
REMARK Flexibility Score: inf
ROOT
ATOM      1  C   UNL     1      20.740   6.936  16.197  1.00  0.00     0.161 A 
ATOM      2  C   UNL     1      19.370   6.827  15.912  1.00  0.00     0.161 A 
ATOM      3  C   UNL     1      18.528   7.942  16.045  1.00  0.00     0.098 A 
ATOM      4  C   UNL     1      19.047   9.169  16.461  1.00  0.00     0.142 A 
ATOM      5  C   UNL     1      20.423   9.287  16.749  1.00  0.00     0.022 A 
ATOM      6  C   UNL     1      21.264   8.175  16.617  1.00  0.00     0.062 A 
ATOM      7  C   UNL     1      20.912  10.530  17.164  1.00  0.00     0.019 A 
ATOM      8  C   UNL     1      20.035  11.608  17.280  1.00  0.00     0.094 A 
ATOM      9  C   UNL     1      18.684  11.417  16.977  1.00  0.00     0.336 A 
ATOM     10  O   UNL     1      17.875  12.376  17.076  1.00  0.00    -0.246 OA
ATOM     11  O   UNL     1      18.244  10.224  16.585  1.00  0.00    -0.423 OA
ENDROOT
BRANCH   1  12
ATOM     12  O   UNL     1      21.543   5.795  16.051  1.00  0.00    -0.493 OA
ATOM     13  C   UNL     1      22.875   5.805  15.546  1.00  0.00     0.278 C 
ENDBRANCH   1  12
BRANCH   2  14
ATOM     14  O   UNL     1      18.849   5.602  15.496  1.00  0.00    -0.504 OA
ATOM     15  H   UNL     1      17.993   5.545  14.955  1.00  0.00     0.293 HD
ENDBRANCH   2  14
TORSDOF 2
ENDMDL
MODEL 6
REMARK VINA RESULT:    -3.493     12.902     15.278
REMARK INTER + INTRA:          -3.844
REMARK INTER:                  -3.791
REMARK INTRA:                  -0.053
REMARK UNBOUND:                -0.045
REMARK SMILES COc1cc2ccc(=O)oc2cc1O
REMARK SMILES IDX 3 1 13 2 12 3 11 4 5 5 4 6 6 7 7 8 8 9 9 10 10 11 2 12 1 13
REMARK SMILES IDX 14 14
REMARK H PARENT 14 15
REMARK Flexibility Score: inf
ROOT
ATOM      1  C   UNL     1      20.758  23.411  19.020  1.00  0.00     0.161 A 
ATOM      2  C   UNL     1      22.085  22.972  19.147  1.00  0.00     0.161 A 
ATOM      3  C   UNL     1      22.361  21.658  19.552  1.00  0.00     0.098 A 
ATOM      4  C   UNL     1      21.317  20.774  19.832  1.00  0.00     0.142 A 
ATOM      5  C   UNL     1      19.981  21.206  19.707  1.00  0.00     0.022 A 
ATOM      6  C   UNL     1      19.703  22.519  19.303  1.00  0.00     0.062 A 
ATOM      7  C   UNL     1      18.957  20.298  19.995  1.00  0.00     0.019 A 
ATOM      8  C   UNL     1      19.283  19.002  20.393  1.00  0.00     0.094 A 
ATOM      9  C   UNL     1      20.631  18.644  20.495  1.00  0.00     0.336 A 
ATOM     10  O   UNL     1      20.947  17.479  20.853  1.00  0.00    -0.246 OA
ATOM     11  O   UNL     1      21.585  19.528  20.215  1.00  0.00    -0.423 OA
ENDROOT
BRANCH   1  12
ATOM     12  O   UNL     1      20.529  24.734  18.613  1.00  0.00    -0.493 OA
ATOM     13  C   UNL     1      19.590  25.120  17.614  1.00  0.00     0.278 C 
ENDBRANCH   1  12
BRANCH   2  14
ATOM     14  O   UNL     1      23.130  23.853  18.868  1.00  0.00    -0.504 OA
ATOM     15  H   UNL     1      23.058  24.545  18.130  1.00  0.00     0.293 HD
ENDBRANCH   2  14
TORSDOF 2
ENDMDL
MODEL 7
REMARK VINA RESULT:    -3.447      4.595      6.788
REMARK INTER + INTRA:          -3.794
REMARK INTER:                  -3.782
REMARK INTRA:                  -0.012
REMARK UNBOUND:                -0.045
REMARK SMILES COc1cc2ccc(=O)oc2cc1O
REMARK SMILES IDX 3 1 13 2 12 3 11 4 5 5 4 6 6 7 7 8 8 9 9 10 10 11 2 12 1 13
REMARK SMILES IDX 14 14
REMARK H PARENT 14 15
REMARK Flexibility Score: inf
ROOT
ATOM      1  C   UNL     1      18.992   7.077  15.869  1.00  0.00     0.161 A 
ATOM      2  C   UNL     1      20.391   7.004  15.955  1.00  0.00     0.161 A 
ATOM      3  C   UNL     1      21.137   8.135  16.317  1.00  0.00     0.098 A 
ATOM      4  C   UNL     1      20.495   9.342  16.598  1.00  0.00     0.142 A 
ATOM      5  C   UNL     1      19.089   9.424  16.515  1.00  0.00     0.022 A 
ATOM      6  C   UNL     1      18.342   8.296  16.152  1.00  0.00     0.062 A 
ATOM      7  C   UNL     1      18.475  10.648  16.801  1.00  0.00     0.019 A 
ATOM      8  C   UNL     1      19.261  11.742  17.158  1.00  0.00     0.094 A 
ATOM      9  C   UNL     1      20.650  11.587  17.220  1.00  0.00     0.336 A 
ATOM     10  O   UNL     1      21.378  12.563  17.539  1.00  0.00    -0.246 OA
ATOM     11  O   UNL     1      21.209  10.412  16.942  1.00  0.00    -0.423 OA
ENDROOT
BRANCH   1  12
ATOM     12  O   UNL     1      18.285   5.921  15.502  1.00  0.00    -0.493 OA
ATOM     13  C   UNL     1      17.875   4.903  16.410  1.00  0.00     0.278 C 
ENDBRANCH   1  12
BRANCH   2  14
ATOM     14  O   UNL     1      21.035   5.800  15.675  1.00  0.00    -0.504 OA
ATOM     15  H   UNL     1      20.589   5.075  15.125  1.00  0.00     0.293 HD
ENDBRANCH   2  14
TORSDOF 2
ENDMDL
MODEL 8
REMARK VINA RESULT:    -3.431      3.655      5.325
REMARK INTER + INTRA:          -3.777
REMARK INTER:                  -3.712
REMARK INTRA:                  -0.065
REMARK UNBOUND:                -0.045
REMARK SMILES COc1cc2ccc(=O)oc2cc1O
REMARK SMILES IDX 3 1 13 2 12 3 11 4 5 5 4 6 6 7 7 8 8 9 9 10 10 11 2 12 1 13
REMARK SMILES IDX 14 14
REMARK H PARENT 14 15
REMARK Flexibility Score: inf
ROOT
ATOM      1  C   UNL     1      22.583   6.806  16.302  1.00  0.00     0.161 A 
ATOM      2  C   UNL     1      23.047   7.943  16.982  1.00  0.00     0.161 A 
ATOM      3  C   UNL     1      22.180   9.014  17.245  1.00  0.00     0.098 A 
ATOM      4  C   UNL     1      20.847   8.958  16.833  1.00  0.00     0.142 A 
ATOM      5  C   UNL     1      20.372   7.820  16.149  1.00  0.00     0.022 A 
ATOM      6  C   UNL     1      21.237   6.749  15.886  1.00  0.00     0.062 A 
ATOM      7  C   UNL     1      19.032   7.794  15.749  1.00  0.00     0.019 A 
ATOM      8  C   UNL     1      18.211   8.883  16.035  1.00  0.00     0.094 A 
ATOM      9  C   UNL     1      18.751   9.978  16.717  1.00  0.00     0.336 A 
ATOM     10  O   UNL     1      18.027  10.972  16.984  1.00  0.00    -0.246 OA
ATOM     11  O   UNL     1      20.029   9.978  17.086  1.00  0.00    -0.423 OA
ENDROOT
BRANCH   1  12
ATOM     12  O   UNL     1      23.485   5.759  16.060  1.00  0.00    -0.493 OA
ATOM     13  C   UNL     1      24.140   5.529  14.816  1.00  0.00     0.278 C 
ENDBRANCH   1  12
BRANCH   2  14
ATOM     14  O   UNL     1      24.378   8.001  17.394  1.00  0.00    -0.504 OA
ATOM     15  H   UNL     1      25.139   7.769  16.767  1.00  0.00     0.293 HD
ENDBRANCH   2  14
TORSDOF 2
ENDMDL
MODEL 9
REMARK VINA RESULT:    -3.405      3.812      5.069
REMARK INTER + INTRA:          -3.749
REMARK INTER:                  -3.686
REMARK INTRA:                  -0.063
REMARK UNBOUND:                -0.045
REMARK SMILES COc1cc2ccc(=O)oc2cc1O
REMARK SMILES IDX 3 1 13 2 12 3 11 4 5 5 4 6 6 7 7 8 8 9 9 10 10 11 2 12 1 13
REMARK SMILES IDX 14 14
REMARK H PARENT 14 15
REMARK Flexibility Score: inf
ROOT
ATOM      1  C   UNL     1      19.698   9.353  16.919  1.00  0.00     0.161 A 
ATOM      2  C   UNL     1      19.178   8.458  15.971  1.00  0.00     0.161 A 
ATOM      3  C   UNL     1      19.961   7.396  15.494  1.00  0.00     0.098 A 
ATOM      4  C   UNL     1      21.266   7.221  15.960  1.00  0.00     0.142 A 
ATOM      5  C   UNL     1      21.796   8.115  16.913  1.00  0.00     0.022 A 
ATOM      6  C   UNL     1      21.015   9.176  17.389  1.00  0.00     0.062 A 
ATOM      7  C   UNL     1      23.106   7.912  17.360  1.00  0.00     0.019 A 
ATOM      8  C   UNL     1      23.844   6.842  16.856  1.00  0.00     0.094 A 
ATOM      9  C   UNL     1      23.252   5.996  15.913  1.00  0.00     0.336 A 
ATOM     10  O   UNL     1      23.901   5.024  15.446  1.00  0.00    -0.246 OA
ATOM     11  O   UNL     1      22.004   6.211  15.505  1.00  0.00    -0.423 OA
ENDROOT
BRANCH   1  12
ATOM     12  O   UNL     1      18.879  10.400  17.366  1.00  0.00    -0.493 OA
ATOM     13  C   UNL     1      18.936  11.736  16.876  1.00  0.00     0.278 C 
ENDBRANCH   1  12
BRANCH   2  14
ATOM     14  O   UNL     1      17.875   8.632  15.504  1.00  0.00    -0.504 OA
ATOM     15  H   UNL     1      17.615   8.389  14.555  1.00  0.00     0.293 HD
ENDBRANCH   2  14
TORSDOF 2
ENDMDL
