MODEL 1
REMARK VINA RESULT:    -4.805      0.000      0.000
REMARK INTER + INTRA:          -4.805
REMARK INTER:                  -4.805
REMARK INTRA:                   0.000
REMARK UNBOUND:                 0.000
REMARK SMILES CC1=CC[C@@H]2[C@@H](C1)C2(C)C
REMARK SMILES IDX 1 1 2 2 3 3 4 4 5 5 6 6 7 7 8 8 9 9 10 10
REMARK H PARENT
REMARK Flexibility Score: inf
ROOT
ATOM      1  C   UNL     1     104.875 111.999 129.498  1.00  0.00     0.039 C 
ATOM      2  C   UNL     1     104.867 111.062 128.324  1.00  0.00    -0.077 C 
ATOM      3  C   UNL     1     104.506 109.757 128.507  1.00  0.00    -0.028 C 
ATOM      4  C   UNL     1     104.503 108.750 127.358  1.00  0.00     0.031 C 
ATOM      5  C   UNL     1     105.459 109.266 126.278  1.00  0.00     0.003 C 
ATOM      6  C   UNL     1     104.766 110.624 125.881  1.00  0.00     0.003 C 
ATOM      7  C   UNL     1     105.326 111.569 126.951  1.00  0.00     0.034 C 
ATOM      8  C   UNL     1     105.343 109.699 124.833  1.00  0.00    -0.029 C 
ATOM      9  C   UNL     1     106.623 110.189 124.149  1.00  0.00     0.012 C 
ATOM     10  C   UNL     1     104.346 108.906 123.983  1.00  0.00     0.012 C 
ENDROOT
TORSDOF 0
ENDMDL
MODEL 2
REMARK VINA RESULT:    -4.787      7.352      9.292
REMARK INTER + INTRA:          -4.787
REMARK INTER:                  -4.787
REMARK INTRA:                   0.000
REMARK UNBOUND:                 0.000
REMARK SMILES CC1=CC[C@@H]2[C@@H](C1)C2(C)C
REMARK SMILES IDX 1 1 2 2 3 3 4 4 5 5 6 6 7 7 8 8 9 9 10 10
REMARK H PARENT
REMARK Flexibility Score: inf
ROOT
ATOM      1  C   UNL     1     105.614 102.467 123.544  1.00  0.00     0.039 C 
ATOM      2  C   UNL     1     105.541 102.302 125.035  1.00  0.00    -0.077 C 
ATOM      3  C   UNL     1     104.881 103.235 125.784  1.00  0.00    -0.028 C 
ATOM      4  C   UNL     1     104.795 103.136 127.305  1.00  0.00     0.031 C 
ATOM      5  C   UNL     1     105.966 102.274 127.788  1.00  0.00     0.003 C 
ATOM      6  C   UNL     1     105.645 100.902 127.084  1.00  0.00     0.003 C 
ATOM      7  C   UNL     1     106.265 101.125 125.700  1.00  0.00     0.034 C 
ATOM      8  C   UNL     1     106.126 100.958 128.516  1.00  0.00    -0.029 C 
ATOM      9  C   UNL     1     107.556 100.465 128.754  1.00  0.00     0.012 C 
ATOM     10  C   UNL     1     105.089 100.675 129.607  1.00  0.00     0.012 C 
ENDROOT
TORSDOF 0
ENDMDL
MODEL 3
REMARK VINA RESULT:    -4.785      3.727      6.176
REMARK INTER + INTRA:          -4.785
REMARK INTER:                  -4.785
REMARK INTRA:                   0.000
REMARK UNBOUND:                 0.000
REMARK SMILES CC1=CC[C@@H]2[C@@H](C1)C2(C)C
REMARK SMILES IDX 1 1 2 2 3 3 4 4 5 5 6 6 7 7 8 8 9 9 10 10
REMARK H PARENT
REMARK Flexibility Score: inf
ROOT
ATOM      1  C   UNL     1     102.620 107.120 123.549  1.00  0.00     0.039 C 
ATOM      2  C   UNL     1     102.427 107.115 125.038  1.00  0.00    -0.077 C 
ATOM      3  C   UNL     1     103.363 107.705 125.840  1.00  0.00    -0.028 C 
ATOM      4  C   UNL     1     103.235 107.709 127.363  1.00  0.00     0.031 C 
ATOM      5  C   UNL     1     102.330 106.539 127.763  1.00  0.00     0.003 C 
ATOM      6  C   UNL     1     100.983 106.940 127.052  1.00  0.00     0.003 C 
ATOM      7  C   UNL     1     101.215 106.391 125.640  1.00  0.00     0.034 C 
ATOM      8  C   UNL     1     100.995 106.379 128.456  1.00  0.00    -0.029 C 
ATOM      9  C   UNL     1     100.456 104.954 128.604  1.00  0.00     0.012 C 
ATOM     10  C   UNL     1     100.721 107.362 129.598  1.00  0.00     0.012 C 
ENDROOT
TORSDOF 0
ENDMDL
MODEL 4
REMARK VINA RESULT:    -4.775      6.784      8.096
REMARK INTER + INTRA:          -4.775
REMARK INTER:                  -4.775
REMARK INTRA:                   0.000
REMARK UNBOUND:                 0.000
REMARK SMILES CC1=CC[C@@H]2[C@@H](C1)C2(C)C
REMARK SMILES IDX 1 1 2 2 3 3 4 4 5 5 6 6 7 7 8 8 9 9 10 10
REMARK H PARENT
REMARK Flexibility Score: inf
ROOT
ATOM      1  C   UNL     1     109.849 105.710 123.634  1.00  0.00     0.039 C 
ATOM      2  C   UNL     1     110.074 105.597 125.115  1.00  0.00    -0.077 C 
ATOM      3  C   UNL     1     109.195 104.880 125.876  1.00  0.00    -0.028 C 
ATOM      4  C   UNL     1     109.355 104.751 127.390  1.00  0.00     0.031 C 
ATOM      5  C   UNL     1     110.192 105.938 127.877  1.00  0.00     0.003 C 
ATOM      6  C   UNL     1     111.547 105.690 127.113  1.00  0.00     0.003 C 
ATOM      7  C   UNL     1     111.249 106.344 125.759  1.00  0.00     0.034 C 
ATOM      8  C   UNL     1     111.528 106.124 128.561  1.00  0.00    -0.029 C 
ATOM      9  C   UNL     1     111.978 107.563 128.827  1.00  0.00     0.012 C 
ATOM     10  C   UNL     1     111.889 105.065 129.607  1.00  0.00     0.012 C 
ENDROOT
TORSDOF 0
ENDMDL
MODEL 5
REMARK VINA RESULT:    -4.763      5.336      6.125
REMARK INTER + INTRA:          -4.763
REMARK INTER:                  -4.763
REMARK INTRA:                   0.000
REMARK UNBOUND:                 0.000
REMARK SMILES CC1=CC[C@@H]2[C@@H](C1)C2(C)C
REMARK SMILES IDX 1 1 2 2 3 3 4 4 5 5 6 6 7 7 8 8 9 9 10 10
REMARK H PARENT
REMARK Flexibility Score: inf
ROOT
ATOM      1  C   UNL     1     112.044 107.620 129.473  1.00  0.00     0.039 C 
ATOM      2  C   UNL     1     111.103 107.595 128.302  1.00  0.00    -0.077 C 
ATOM      3  C   UNL     1     109.788 107.916 128.489  1.00  0.00    -0.028 C 
ATOM      4  C   UNL     1     108.778 107.884 127.344  1.00  0.00     0.031 C 
ATOM      5  C   UNL     1     109.319 106.940 126.265  1.00  0.00     0.003 C 
ATOM      6  C   UNL     1     110.653 107.673 125.861  1.00  0.00     0.003 C 
ATOM      7  C   UNL     1     111.618 107.146 126.929  1.00  0.00     0.034 C 
ATOM      8  C   UNL     1     109.743 107.064 124.818  1.00  0.00    -0.029 C 
ATOM      9  C   UNL     1     110.269 105.797 124.138  1.00  0.00     0.012 C 
ATOM     10  C   UNL     1     108.917 108.033 123.968  1.00  0.00     0.012 C 
ENDROOT
TORSDOF 0
ENDMDL
MODEL 6
REMARK VINA RESULT:    -4.739      5.233      6.024
REMARK INTER + INTRA:          -4.739
REMARK INTER:                  -4.739
REMARK INTRA:                   0.000
REMARK UNBOUND:                 0.000
REMARK SMILES CC1=CC[C@@H]2[C@@H](C1)C2(C)C
REMARK SMILES IDX 1 1 2 2 3 3 4 4 5 5 6 6 7 7 8 8 9 9 10 10
REMARK H PARENT
REMARK Flexibility Score: inf
ROOT
ATOM      1  C   UNL     1     100.457 104.890 129.354  1.00  0.00     0.039 C 
ATOM      2  C   UNL     1     101.424 104.893 128.205  1.00  0.00    -0.077 C 
ATOM      3  C   UNL     1     102.727 104.542 128.421  1.00  0.00    -0.028 C 
ATOM      4  C   UNL     1     103.763 104.551 127.299  1.00  0.00     0.031 C 
ATOM      5  C   UNL     1     103.268 105.506 126.209  1.00  0.00     0.003 C 
ATOM      6  C   UNL     1     101.927 104.804 125.774  1.00  0.00     0.003 C 
ATOM      7  C   UNL     1     100.950 105.352 126.821  1.00  0.00     0.034 C 
ATOM      8  C   UNL     1     102.874 105.391 124.753  1.00  0.00    -0.029 C 
ATOM      9  C   UNL     1     102.392 106.669 124.060  1.00  0.00     0.012 C 
ATOM     10  C   UNL     1     103.697 104.403 123.921  1.00  0.00     0.012 C 
ENDROOT
TORSDOF 0
ENDMDL
MODEL 7
REMARK VINA RESULT:    -4.716      1.715      4.408
REMARK INTER + INTRA:          -4.716
REMARK INTER:                  -4.716
REMARK INTRA:                   0.000
REMARK UNBOUND:                 0.000
REMARK SMILES CC1=CC[C@@H]2[C@@H](C1)C2(C)C
REMARK SMILES IDX 1 1 2 2 3 3 4 4 5 5 6 6 7 7 8 8 9 9 10 10
REMARK H PARENT
REMARK Flexibility Score: inf
ROOT
ATOM      1  C   UNL     1     106.521 109.802 123.737  1.00  0.00     0.039 C 
ATOM      2  C   UNL     1     106.722 110.041 125.206  1.00  0.00    -0.077 C 
ATOM      3  C   UNL     1     107.520 109.195 125.923  1.00  0.00    -0.028 C 
ATOM      4  C   UNL     1     107.741 109.370 127.424  1.00  0.00     0.031 C 
ATOM      5  C   UNL     1     106.558 110.167 127.985  1.00  0.00     0.003 C 
ATOM      6  C   UNL     1     106.704 111.524 127.199  1.00  0.00     0.003 C 
ATOM      7  C   UNL     1     105.975 111.192 125.892  1.00  0.00     0.034 C 
ATOM      8  C   UNL     1     106.367 111.500 128.673  1.00  0.00    -0.029 C 
ATOM      9  C   UNL     1     104.932 111.899 129.030  1.00  0.00     0.012 C 
ATOM     10  C   UNL     1     107.477 111.908 129.645  1.00  0.00     0.012 C 
ENDROOT
TORSDOF 0
ENDMDL
MODEL 8
REMARK VINA RESULT:    -4.704      7.268      8.553
REMARK INTER + INTRA:          -4.704
REMARK INTER:                  -4.704
REMARK INTRA:                   0.000
REMARK UNBOUND:                 0.000
REMARK SMILES CC1=CC[C@@H]2[C@@H](C1)C2(C)C
REMARK SMILES IDX 1 1 2 2 3 3 4 4 5 5 6 6 7 7 8 8 9 9 10 10
REMARK H PARENT
REMARK Flexibility Score: inf
ROOT
ATOM      1  C   UNL     1     107.526 100.374 129.312  1.00  0.00     0.039 C 
ATOM      2  C   UNL     1     107.547 101.371 128.190  1.00  0.00    -0.077 C 
ATOM      3  C   UNL     1     107.872 102.672 128.452  1.00  0.00    -0.028 C 
ATOM      4  C   UNL     1     107.885 103.738 127.358  1.00  0.00     0.031 C 
ATOM      5  C   UNL     1     106.974 103.260 126.223  1.00  0.00     0.003 C 
ATOM      6  C   UNL     1     107.710 101.940 125.777  1.00  0.00     0.003 C 
ATOM      7  C   UNL     1     107.141 100.928 126.779  1.00  0.00     0.034 C 
ATOM      8  C   UNL     1     107.142 102.907 124.762  1.00  0.00    -0.029 C 
ATOM      9  C   UNL     1     105.896 102.426 124.015  1.00  0.00     0.012 C 
ATOM     10  C   UNL     1     108.146 103.765 123.986  1.00  0.00     0.012 C 
ENDROOT
TORSDOF 0
ENDMDL
MODEL 9
REMARK VINA RESULT:    -4.645      3.349      5.370
REMARK INTER + INTRA:          -4.645
REMARK INTER:                  -4.645
REMARK INTRA:                   0.000
REMARK UNBOUND:                 0.000
REMARK SMILES CC1=CC[C@@H]2[C@@H](C1)C2(C)C
REMARK SMILES IDX 1 1 2 2 3 3 4 4 5 5 6 6 7 7 8 8 9 9 10 10
REMARK H PARENT
REMARK Flexibility Score: inf
ROOT
ATOM      1  C   UNL     1     105.270 108.956 126.735  1.00  0.00     0.039 C 
ATOM      2  C   UNL     1     104.039 108.135 126.993  1.00  0.00    -0.077 C 
ATOM      3  C   UNL     1     103.467 107.439 125.966  1.00  0.00    -0.028 C 
ATOM      4  C   UNL     1     102.199 106.609 126.159  1.00  0.00     0.031 C 
ATOM      5  C   UNL     1     101.459 107.157 127.383  1.00  0.00     0.003 C 
ATOM      6  C   UNL     1     102.519 106.900 128.521  1.00  0.00     0.003 C 
ATOM      7  C   UNL     1     103.405 108.144 128.390  1.00  0.00     0.034 C 
ATOM      8  C   UNL     1     101.047 106.627 128.739  1.00  0.00    -0.029 C 
ATOM      9  C   UNL     1     100.325 107.599 129.675  1.00  0.00     0.012 C 
ATOM     10  C   UNL     1     100.612 105.159 128.770  1.00  0.00     0.012 C 
ENDROOT
TORSDOF 0
ENDMDL
