MODEL 1
REMARK VINA RESULT:    -5.021      0.000      0.000
REMARK INTER + INTRA:          -6.947
REMARK INTER:                  -6.488
REMARK INTRA:                  -0.459
REMARK UNBOUND:                -0.459
REMARK SMILES CCO[C@@H]1O[C@H](CO)[C@H](O)[C@@H](O)[C@H]1O
REMARK SMILES IDX 4 1 13 2 11 3 9 4 6 5 5 6 3 7 2 8 1 9 14 10 12 12 7 14 8 15
REMARK SMILES IDX 10 17
REMARK H PARENT 14 11 12 13 8 16 10 18
REMARK Flexibility Score: inf
ROOT
ATOM      1  C   UNL     1      29.951   8.749  29.793  1.00  0.00     0.281 C 
ATOM      2  C   UNL     1      30.242   8.779  28.278  1.00  0.00     0.202 C 
ATOM      3  C   UNL     1      31.692   9.227  28.033  1.00  0.00     0.179 C 
ATOM      4  C   UNL     1      32.662   8.342  28.837  1.00  0.00     0.177 C 
ATOM      5  C   UNL     1      32.231   8.225  30.322  1.00  0.00     0.178 C 
ATOM      6  O   UNL     1      30.853   7.904  30.495  1.00  0.00    -0.341 OA
ENDROOT
BRANCH   1   7
ATOM      7  O   UNL     1      29.969  10.057  30.346  1.00  0.00    -0.350 OA
BRANCH   7   8
ATOM      8  C   UNL     1      28.784  10.775  30.056  1.00  0.00     0.160 C 
ATOM      9  C   UNL     1      28.551  11.858  31.104  1.00  0.00     0.035 C 
ENDBRANCH   7   8
ENDBRANCH   1   7
BRANCH   2  10
ATOM     10  O   UNL     1      30.022   7.495  27.748  1.00  0.00    -0.385 OA
ATOM     11  H   UNL     1      30.529   7.440  26.896  1.00  0.00     0.211 HD
ENDBRANCH   2  10
BRANCH   3  12
ATOM     12  O   UNL     1      31.997   9.216  26.658  1.00  0.00    -0.387 OA
ATOM     13  H   UNL     1      31.509   8.462  26.237  1.00  0.00     0.211 HD
ENDBRANCH   3  12
BRANCH   5  14
ATOM     14  C   UNL     1      32.705   9.360  31.266  1.00  0.00     0.191 C 
BRANCH  14  15
ATOM     15  O   UNL     1      32.808  10.599  30.617  1.00  0.00    -0.394 OA
ATOM     16  H   UNL     1      32.178  11.221  31.066  1.00  0.00     0.210 HD
ENDBRANCH  14  15
ENDBRANCH   5  14
BRANCH   4  17
ATOM     17  O   UNL     1      33.973   8.842  28.749  1.00  0.00    -0.387 OA
ATOM     18  H   UNL     1      34.236   8.798  27.793  1.00  0.00     0.211 HD
ENDBRANCH   4  17
TORSDOF 7
ENDMDL
MODEL 2
REMARK VINA RESULT:    -4.925      1.472      3.466
REMARK INTER + INTRA:          -6.823
REMARK INTER:                  -6.398
REMARK INTRA:                  -0.425
REMARK UNBOUND:                -0.459
REMARK SMILES CCO[C@@H]1O[C@H](CO)[C@H](O)[C@@H](O)[C@H]1O
REMARK SMILES IDX 4 1 13 2 11 3 9 4 6 5 5 6 3 7 2 8 1 9 14 10 12 12 7 14 8 15
REMARK SMILES IDX 10 17
REMARK H PARENT 14 11 12 13 8 16 10 18
REMARK Flexibility Score: inf
ROOT
ATOM      1  C   UNL     1      30.932   9.101  30.594  1.00  0.00     0.281 C 
ATOM      2  C   UNL     1      30.105  10.282  30.046  1.00  0.00     0.202 C 
ATOM      3  C   UNL     1      30.605  10.664  28.643  1.00  0.00     0.179 C 
ATOM      4  C   UNL     1      30.608   9.427  27.727  1.00  0.00     0.177 C 
ATOM      5  C   UNL     1      31.321   8.223  28.396  1.00  0.00     0.178 C 
ATOM      6  O   UNL     1      30.891   7.971  29.731  1.00  0.00    -0.341 OA
ENDROOT
BRANCH   1   7
ATOM      7  O   UNL     1      32.277   9.484  30.839  1.00  0.00    -0.350 OA
BRANCH   7   8
ATOM      8  C   UNL     1      32.834   8.798  31.945  1.00  0.00     0.160 C 
ATOM      9  C   UNL     1      34.294   8.453  31.673  1.00  0.00     0.035 C 
ENDBRANCH   7   8
ENDBRANCH   1   7
BRANCH   2  10
ATOM     10  O   UNL     1      28.750   9.908  30.005  1.00  0.00    -0.385 OA
ATOM     11  H   UNL     1      28.675   9.147  29.372  1.00  0.00     0.211 HD
ENDBRANCH   2  10
BRANCH   3  12
ATOM     12  O   UNL     1      29.833  11.710  28.101  1.00  0.00    -0.387 OA
ATOM     13  H   UNL     1      28.931  11.355  27.894  1.00  0.00     0.211 HD
ENDBRANCH   3  12
BRANCH   5  14
ATOM     14  C   UNL     1      32.863   8.166  28.243  1.00  0.00     0.191 C 
BRANCH  14  15
ATOM     15  O   UNL     1      33.268   7.825  26.944  1.00  0.00    -0.394 OA
ATOM     16  H   UNL     1      32.560   8.137  26.323  1.00  0.00     0.210 HD
ENDBRANCH  14  15
ENDBRANCH   5  14
BRANCH   4  17
ATOM     17  O   UNL     1      31.214   9.727  26.495  1.00  0.00    -0.387 OA
ATOM     18  H   UNL     1      30.634  10.394  26.042  1.00  0.00     0.211 HD
ENDBRANCH   4  17
TORSDOF 7
ENDMDL
MODEL 3
REMARK VINA RESULT:    -4.765      1.733      3.642
REMARK INTER + INTRA:          -6.617
REMARK INTER:                  -6.234
REMARK INTRA:                  -0.382
REMARK UNBOUND:                -0.459
REMARK SMILES CCO[C@@H]1O[C@H](CO)[C@H](O)[C@@H](O)[C@H]1O
REMARK SMILES IDX 4 1 13 2 11 3 9 4 6 5 5 6 3 7 2 8 1 9 14 10 12 12 7 14 8 15
REMARK SMILES IDX 10 17
REMARK H PARENT 14 11 12 13 8 16 10 18
REMARK Flexibility Score: inf
ROOT
ATOM      1  C   UNL     1      31.410   8.598  30.339  1.00  0.00     0.281 C 
ATOM      2  C   UNL     1      32.070   8.587  28.945  1.00  0.00     0.202 C 
ATOM      3  C   UNL     1      31.140   9.253  27.919  1.00  0.00     0.179 C 
ATOM      4  C   UNL     1      30.734  10.657  28.406  1.00  0.00     0.177 C 
ATOM      5  C   UNL     1      30.220  10.627  29.869  1.00  0.00     0.178 C 
ATOM      6  O   UNL     1      31.071   9.913  30.761  1.00  0.00    -0.341 OA
ENDROOT
BRANCH   1   7
ATOM      7  O   UNL     1      30.263   7.760  30.371  1.00  0.00    -0.350 OA
BRANCH   7   8
ATOM      8  C   UNL     1      30.600   6.404  30.598  1.00  0.00     0.160 C 
ATOM      9  C   UNL     1      29.617   5.487  29.880  1.00  0.00     0.035 C 
ENDBRANCH   7   8
ENDBRANCH   1   7
BRANCH   2  10
ATOM     10  O   UNL     1      33.298   9.270  29.019  1.00  0.00    -0.385 OA
ATOM     11  H   UNL     1      33.111  10.167  29.401  1.00  0.00     0.211 HD
ENDBRANCH   2  10
BRANCH   3  12
ATOM     12  O   UNL     1      31.743   9.299  26.647  1.00  0.00    -0.387 OA
ATOM     13  H   UNL     1      31.245   8.687  26.046  1.00  0.00     0.211 HD
ENDBRANCH   3  12
BRANCH   5  14
ATOM     14  C   UNL     1      28.722  10.279  30.063  1.00  0.00     0.191 C 
BRANCH  14  15
ATOM     15  O   UNL     1      27.866  11.311  29.648  1.00  0.00    -0.394 OA
ATOM     16  H   UNL     1      27.038  10.887  29.304  1.00  0.00     0.210 HD
ENDBRANCH  14  15
ENDBRANCH   5  14
BRANCH   4  17
ATOM     17  O   UNL     1      29.759  11.209  27.558  1.00  0.00    -0.387 OA
ATOM     18  H   UNL     1      29.608  10.557  26.826  1.00  0.00     0.211 HD
ENDBRANCH   4  17
TORSDOF 7
ENDMDL
MODEL 4
REMARK VINA RESULT:    -4.691      1.977      3.322
REMARK INTER + INTRA:          -6.521
REMARK INTER:                  -6.032
REMARK INTRA:                  -0.489
REMARK UNBOUND:                -0.459
REMARK SMILES CCO[C@@H]1O[C@H](CO)[C@H](O)[C@@H](O)[C@H]1O
REMARK SMILES IDX 4 1 13 2 11 3 9 4 6 5 5 6 3 7 2 8 1 9 14 10 12 12 7 14 8 15
REMARK SMILES IDX 10 17
REMARK H PARENT 14 11 12 13 8 16 10 18
REMARK Flexibility Score: inf
ROOT
ATOM      1  C   UNL     1      31.282   8.320  28.997  1.00  0.00     0.281 C 
ATOM      2  C   UNL     1      30.740   9.038  27.744  1.00  0.00     0.202 C 
ATOM      3  C   UNL     1      30.048  10.349  28.151  1.00  0.00     0.179 C 
ATOM      4  C   UNL     1      31.001  11.210  29.000  1.00  0.00     0.177 C 
ATOM      5  C   UNL     1      31.635  10.391  30.155  1.00  0.00     0.178 C 
ATOM      6  O   UNL     1      32.176   9.139  29.740  1.00  0.00    -0.341 OA
ENDROOT
BRANCH   1   7
ATOM      7  O   UNL     1      30.224   7.865  29.828  1.00  0.00    -0.350 OA
BRANCH   7   8
ATOM      8  C   UNL     1      30.535   6.639  30.464  1.00  0.00     0.160 C 
ATOM      9  C   UNL     1      29.674   5.516  29.896  1.00  0.00     0.035 C 
ENDBRANCH   7   8
ENDBRANCH   1   7
BRANCH   2  10
ATOM     10  O   UNL     1      31.810   9.294  26.868  1.00  0.00    -0.385 OA
ATOM     11  H   UNL     1      32.477   8.572  27.003  1.00  0.00     0.211 HD
ENDBRANCH   2  10
BRANCH   3  12
ATOM     12  O   UNL     1      29.586  11.048  27.019  1.00  0.00    -0.387 OA
ATOM     13  H   UNL     1      28.880  10.503  26.585  1.00  0.00     0.211 HD
ENDBRANCH   3  12
BRANCH   5  14
ATOM     14  C   UNL     1      30.800  10.281  31.457  1.00  0.00     0.191 C 
BRANCH  14  15
ATOM     15  O   UNL     1      29.419  10.359  31.225  1.00  0.00    -0.394 OA
ATOM     16  H   UNL     1      29.079  11.142  31.730  1.00  0.00     0.210 HD
ENDBRANCH  14  15
ENDBRANCH   5  14
BRANCH   4  17
ATOM     17  O   UNL     1      30.328  12.332  29.512  1.00  0.00    -0.387 OA
ATOM     18  H   UNL     1      29.463  12.010  29.876  1.00  0.00     0.211 HD
ENDBRANCH   4  17
TORSDOF 7
ENDMDL
MODEL 5
REMARK VINA RESULT:    -4.675      1.878      2.652
REMARK INTER + INTRA:          -6.500
REMARK INTER:                  -6.099
REMARK INTRA:                  -0.402
REMARK UNBOUND:                -0.459
REMARK SMILES CCO[C@@H]1O[C@H](CO)[C@H](O)[C@@H](O)[C@H]1O
REMARK SMILES IDX 4 1 13 2 11 3 9 4 6 5 5 6 3 7 2 8 1 9 14 10 12 12 7 14 8 15
REMARK SMILES IDX 10 17
REMARK H PARENT 14 11 12 13 8 16 10 18
REMARK Flexibility Score: inf
ROOT
ATOM      1  C   UNL     1      30.502  10.116  30.800  1.00  0.00     0.281 C 
ATOM      2  C   UNL     1      29.647  10.796  29.711  1.00  0.00     0.202 C 
ATOM      3  C   UNL     1      30.407  10.797  28.375  1.00  0.00     0.179 C 
ATOM      4  C   UNL     1      30.852   9.367  28.017  1.00  0.00     0.177 C 
ATOM      5  C   UNL     1      31.572   8.679  29.206  1.00  0.00     0.178 C 
ATOM      6  O   UNL     1      30.872   8.791  30.442  1.00  0.00    -0.341 OA
ENDROOT
BRANCH   1   7
ATOM      7  O   UNL     1      31.657  10.885  31.103  1.00  0.00    -0.350 OA
BRANCH   7   8
ATOM      8  C   UNL     1      31.397  11.875  32.080  1.00  0.00     0.160 C 
ATOM      9  C   UNL     1      31.815  13.249  31.567  1.00  0.00     0.035 C 
ENDBRANCH   7   8
ENDBRANCH   1   7
BRANCH   2  10
ATOM     10  O   UNL     1      28.430  10.101  29.588  1.00  0.00    -0.385 OA
ATOM     11  H   UNL     1      27.947  10.492  28.815  1.00  0.00     0.211 HD
ENDBRANCH   2  10
BRANCH   3  12
ATOM     12  O   UNL     1      29.627  11.370  27.352  1.00  0.00    -0.387 OA
ATOM     13  H   UNL     1      28.864  11.844  27.771  1.00  0.00     0.211 HD
ENDBRANCH   3  12
BRANCH   5  14
ATOM     14  C   UNL     1      33.089   8.964  29.349  1.00  0.00     0.191 C 
BRANCH  14  15
ATOM     15  O   UNL     1      33.862   8.281  28.398  1.00  0.00    -0.394 OA
ATOM     16  H   UNL     1      33.818   7.315  28.620  1.00  0.00     0.210 HD
ENDBRANCH  14  15
ENDBRANCH   5  14
BRANCH   4  17
ATOM     17  O   UNL     1      31.685   9.378  26.885  1.00  0.00    -0.387 OA
ATOM     18  H   UNL     1      32.151  10.254  26.877  1.00  0.00     0.211 HD
ENDBRANCH   4  17
TORSDOF 7
ENDMDL
MODEL 6
REMARK VINA RESULT:    -4.621      1.708      3.578
REMARK INTER + INTRA:          -6.430
REMARK INTER:                  -6.073
REMARK INTRA:                  -0.357
REMARK UNBOUND:                -0.459
REMARK SMILES CCO[C@@H]1O[C@H](CO)[C@H](O)[C@@H](O)[C@H]1O
REMARK SMILES IDX 4 1 13 2 11 3 9 4 6 5 5 6 3 7 2 8 1 9 14 10 12 12 7 14 8 15
REMARK SMILES IDX 10 17
REMARK H PARENT 14 11 12 13 8 16 10 18
REMARK Flexibility Score: inf
ROOT
ATOM      1  C   UNL     1      31.391  10.008  30.417  1.00  0.00     0.281 C 
ATOM      2  C   UNL     1      31.638  10.305  28.924  1.00  0.00     0.202 C 
ATOM      3  C   UNL     1      31.575   9.000  28.114  1.00  0.00     0.179 C 
ATOM      4  C   UNL     1      30.250   8.267  28.393  1.00  0.00     0.177 C 
ATOM      5  C   UNL     1      29.980   8.134  29.914  1.00  0.00     0.178 C 
ATOM      6  O   UNL     1      30.148   9.352  30.635  1.00  0.00    -0.341 OA
ENDROOT
BRANCH   1   7
ATOM      7  O   UNL     1      32.453   9.247  30.973  1.00  0.00    -0.350 OA
BRANCH   7   8
ATOM      8  C   UNL     1      33.710   9.869  30.785  1.00  0.00     0.160 C 
ATOM      9  C   UNL     1      34.732   8.856  30.282  1.00  0.00     0.035 C 
ENDBRANCH   7   8
ENDBRANCH   1   7
BRANCH   2  10
ATOM     10  O   UNL     1      30.665  11.216  28.474  1.00  0.00    -0.385 OA
ATOM     11  H   UNL     1      31.043  12.126  28.588  1.00  0.00     0.211 HD
ENDBRANCH   2  10
BRANCH   3  12
ATOM     12  O   UNL     1      31.750   9.251  26.739  1.00  0.00    -0.387 OA
ATOM     13  H   UNL     1      31.753   8.382  26.262  1.00  0.00     0.211 HD
ENDBRANCH   3  12
BRANCH   5  14
ATOM     14  C   UNL     1      30.637   6.923  30.624  1.00  0.00     0.191 C 
BRANCH  14  15
ATOM     15  O   UNL     1      29.876   5.750  30.514  1.00  0.00    -0.394 OA
ATOM     16  H   UNL     1      29.613   5.657  29.561  1.00  0.00     0.210 HD
ENDBRANCH  14  15
ENDBRANCH   5  14
BRANCH   4  17
ATOM     17  O   UNL     1      30.250   6.999  27.786  1.00  0.00    -0.387 OA
ATOM     18  H   UNL     1      29.512   6.995  27.123  1.00  0.00     0.211 HD
ENDBRANCH   4  17
TORSDOF 7
ENDMDL
MODEL 7
REMARK VINA RESULT:    -4.338      1.438      3.211
REMARK INTER + INTRA:          -6.065
REMARK INTER:                  -5.715
REMARK INTRA:                  -0.350
REMARK UNBOUND:                -0.459
REMARK SMILES CCO[C@@H]1O[C@H](CO)[C@H](O)[C@@H](O)[C@H]1O
REMARK SMILES IDX 4 1 13 2 11 3 9 4 6 5 5 6 3 7 2 8 1 9 14 10 12 12 7 14 8 15
REMARK SMILES IDX 10 17
REMARK H PARENT 14 11 12 13 8 16 10 18
REMARK Flexibility Score: inf
ROOT
ATOM      1  C   UNL     1      31.526   9.153  31.025  1.00  0.00     0.281 C 
ATOM      2  C   UNL     1      30.629   7.949  31.378  1.00  0.00     0.202 C 
ATOM      3  C   UNL     1      29.864   7.483  30.129  1.00  0.00     0.179 C 
ATOM      4  C   UNL     1      30.847   7.211  28.976  1.00  0.00     0.177 C 
ATOM      5  C   UNL     1      31.825   8.396  28.769  1.00  0.00     0.178 C 
ATOM      6  O   UNL     1      32.435   8.854  29.973  1.00  0.00    -0.341 OA
ENDROOT
BRANCH   1   7
ATOM      7  O   UNL     1      30.749  10.294  30.695  1.00  0.00    -0.350 OA
BRANCH   7   8
ATOM      8  C   UNL     1      30.072  10.822  31.821  1.00  0.00     0.160 C 
ATOM      9  C   UNL     1      28.903  11.694  31.376  1.00  0.00     0.035 C 
ENDBRANCH   7   8
ENDBRANCH   1   7
BRANCH   2  10
ATOM     10  O   UNL     1      31.436   6.912  31.880  1.00  0.00    -0.385 OA
ATOM     11  H   UNL     1      31.551   7.076  32.852  1.00  0.00     0.211 HD
ENDBRANCH   2  10
BRANCH   3  12
ATOM     12  O   UNL     1      29.073   6.353  30.414  1.00  0.00    -0.387 OA
ATOM     13  H   UNL     1      29.351   5.994  31.297  1.00  0.00     0.211 HD
ENDBRANCH   3  12
BRANCH   5  14
ATOM     14  C   UNL     1      31.317   9.557  27.875  1.00  0.00     0.191 C 
BRANCH  14  15
ATOM     15  O   UNL     1      31.676   9.403  26.528  1.00  0.00    -0.394 OA
ATOM     16  H   UNL     1      32.641   9.622  26.452  1.00  0.00     0.210 HD
ENDBRANCH  14  15
ENDBRANCH   5  14
BRANCH   4  17
ATOM     17  O   UNL     1      30.149   6.942  27.786  1.00  0.00    -0.387 OA
ATOM     18  H   UNL     1      30.827   6.850  27.067  1.00  0.00     0.211 HD
ENDBRANCH   4  17
TORSDOF 7
ENDMDL
MODEL 8
REMARK VINA RESULT:    -4.320      1.585      2.194
REMARK INTER + INTRA:          -6.042
REMARK INTER:                  -5.508
REMARK INTRA:                  -0.534
REMARK UNBOUND:                -0.459
REMARK SMILES CCO[C@@H]1O[C@H](CO)[C@H](O)[C@@H](O)[C@H]1O
REMARK SMILES IDX 4 1 13 2 11 3 9 4 6 5 5 6 3 7 2 8 1 9 14 10 12 12 7 14 8 15
REMARK SMILES IDX 10 17
REMARK H PARENT 14 11 12 13 8 16 10 18
REMARK Flexibility Score: inf
ROOT
ATOM      1  C   UNL     1      30.532   9.505  28.370  1.00  0.00     0.281 C 
ATOM      2  C   UNL     1      31.961   9.120  27.935  1.00  0.00     0.202 C 
ATOM      3  C   UNL     1      32.897   9.116  29.154  1.00  0.00     0.179 C 
ATOM      4  C   UNL     1      32.319   8.218  30.263  1.00  0.00     0.177 C 
ATOM      5  C   UNL     1      30.831   8.550  30.550  1.00  0.00     0.178 C 
ATOM      6  O   UNL     1      30.027   8.638  29.377  1.00  0.00    -0.341 OA
ENDROOT
BRANCH   1   7
ATOM      7  O   UNL     1      30.474  10.855  28.808  1.00  0.00    -0.350 OA
BRANCH   7   8
ATOM      8  C   UNL     1      29.230  11.459  28.508  1.00  0.00     0.160 C 
ATOM      9  C   UNL     1      28.738  11.006  27.137  1.00  0.00     0.035 C 
ENDBRANCH   7   8
ENDBRANCH   1   7
BRANCH   2  10
ATOM     10  O   UNL     1      31.926   7.849  27.333  1.00  0.00    -0.385 OA
ATOM     11  H   UNL     1      31.965   7.989  26.352  1.00  0.00     0.211 HD
ENDBRANCH   2  10
BRANCH   3  12
ATOM     12  O   UNL     1      34.198   8.720  28.790  1.00  0.00    -0.387 OA
ATOM     13  H   UNL     1      34.834   9.093  29.455  1.00  0.00     0.211 HD
ENDBRANCH   3  12
BRANCH   5  14
ATOM     14  C   UNL     1      30.567   9.709  31.546  1.00  0.00     0.191 C 
BRANCH  14  15
ATOM     15  O   UNL     1      31.556  10.702  31.499  1.00  0.00    -0.394 OA
ATOM     16  H   UNL     1      31.541  11.175  32.371  1.00  0.00     0.210 HD
ENDBRANCH  14  15
ENDBRANCH   5  14
BRANCH   4  17
ATOM     17  O   UNL     1      33.080   8.334  31.439  1.00  0.00    -0.387 OA
ATOM     18  H   UNL     1      33.567   9.196  31.384  1.00  0.00     0.211 HD
ENDBRANCH   4  17
TORSDOF 7
ENDMDL
MODEL 9
REMARK VINA RESULT:    -4.213      9.629     11.629
REMARK INTER + INTRA:          -5.902
REMARK INTER:                  -5.353
REMARK INTRA:                  -0.549
REMARK UNBOUND:                -0.459
REMARK SMILES CCO[C@@H]1O[C@H](CO)[C@H](O)[C@@H](O)[C@H]1O
REMARK SMILES IDX 4 1 13 2 11 3 9 4 6 5 5 6 3 7 2 8 1 9 14 10 12 12 7 14 8 15
REMARK SMILES IDX 10 17
REMARK H PARENT 14 11 12 13 8 16 10 18
REMARK Flexibility Score: inf
ROOT
ATOM      1  C   UNL     1      22.745   1.124  26.896  1.00  0.00     0.281 C 
ATOM      2  C   UNL     1      23.901   1.443  27.866  1.00  0.00     0.202 C 
ATOM      3  C   UNL     1      24.282   2.928  27.756  1.00  0.00     0.179 C 
ATOM      4  C   UNL     1      23.037   3.811  27.958  1.00  0.00     0.177 C 
ATOM      5  C   UNL     1      21.856   3.345  27.066  1.00  0.00     0.178 C 
ATOM      6  O   UNL     1      21.607   1.944  27.130  1.00  0.00    -0.341 OA
ENDROOT
BRANCH   1   7
ATOM      7  O   UNL     1      23.163   1.237  25.543  1.00  0.00    -0.350 OA
BRANCH   7   8
ATOM      8  C   UNL     1      22.707   0.155  24.752  1.00  0.00     0.160 C 
ATOM      9  C   UNL     1      21.799   0.660  23.637  1.00  0.00     0.035 C 
ENDBRANCH   7   8
ENDBRANCH   1   7
BRANCH   2  10
ATOM     10  O   UNL     1      23.494   1.131  29.175  1.00  0.00    -0.385 OA
ATOM     11  H   UNL     1      23.460   0.141  29.243  1.00  0.00     0.211 HD
ENDBRANCH   2  10
BRANCH   3  12
ATOM     12  O   UNL     1      25.304   3.255  28.668  1.00  0.00    -0.387 OA
ATOM     13  H   UNL     1      25.606   2.419  29.109  1.00  0.00     0.211 HD
ENDBRANCH   3  12
BRANCH   5  14
ATOM     14  C   UNL     1      21.835   3.892  25.615  1.00  0.00     0.191 C 
BRANCH  14  15
ATOM     15  O   UNL     1      23.117   3.990  25.053  1.00  0.00    -0.394 OA
ATOM     16  H   UNL     1      23.065   3.622  24.133  1.00  0.00     0.210 HD
ENDBRANCH  14  15
ENDBRANCH   5  14
BRANCH   4  17
ATOM     17  O   UNL     1      23.341   5.159  27.700  1.00  0.00    -0.387 OA
ATOM     18  H   UNL     1      23.610   5.218  26.747  1.00  0.00     0.211 HD
ENDBRANCH   4  17
TORSDOF 7
ENDMDL
