MODEL 1
REMARK VINA RESULT:    -4.938      0.000      0.000
REMARK INTER + INTRA:          -3.395
REMARK INTER:                  -6.093
REMARK INTRA:                   2.698
REMARK UNBOUND:                 2.698
REMARK SMILES C=C1CC[C@@H]2[C@@H]([C@@H]3[C@@H](C)CC[C@@H]13)C2(C)C
REMARK SMILES IDX 3 1 2 2 1 3 12 4 9 5 8 6 10 7 7 8 11 9 4 11 5 12 6 13 13 14
REMARK SMILES IDX 14 16 15 17
REMARK H PARENT
REMARK Flexibility Score: 80.00
ROOT
ATOM      1  C   UNL     1     109.359 112.468 107.517  1.00  0.00     0.031 C 
ENDROOT
BRANCH   1   2
ATOM      2  C   UNL     1     109.941 111.067 107.305  1.00  0.00    -0.074 C 
ATOM      3  C   UNL     1     109.170 110.092 106.800  1.00  0.00     0.008 C 
BRANCH   2   4
ATOM      4  C   UNL     1     111.316 110.780 107.902  1.00  0.00     0.018 C 
ATOM      5  C   UNL     1     112.763 108.822 110.773  1.00  0.00     0.008 C 
ATOM      6  C   UNL     1     112.652 109.893 109.682  1.00  0.00    -0.010 C 
ATOM      7  C   UNL     1     113.270 109.431 108.335  1.00  0.00     0.004 C 
ATOM      8  C   UNL     1     111.207 110.215 109.319  1.00  0.00     0.003 CG0
ATOM      9  C   UNL     1     112.274 109.812 107.218  1.00  0.00     0.008 C 
ATOM     10  G   UNL     1     110.266 111.008 110.273  1.00  0.00     0.000 G0
ENDBRANCH   2   4
ENDBRANCH   1   2
BRANCH   1  11
ATOM     11  C   UNL     1     109.053 112.800 109.005  1.00  0.00     0.009 C 
BRANCH  11  12
ATOM     12  C   UNL     1     110.293 112.523 109.878  1.00  0.00    -0.001 C 
ATOM     13  C   UNL     1     110.269 111.017 110.282  1.00  0.00     0.002 CG0
ATOM     14  C   UNL     1     110.376 112.123 111.340  1.00  0.00    -0.029 C 
ATOM     15  G   UNL     1     111.222 110.233 109.332  1.00  0.00     0.000 G0
ATOM     16  C   UNL     1     109.124 112.380 112.189  1.00  0.00     0.011 C 
ATOM     17  C   UNL     1     111.729 112.305 112.037  1.00  0.00     0.011 C 
ENDBRANCH  11  12
ENDBRANCH   1  11
TORSDOF 0
ENDMDL
MODEL 2
REMARK VINA RESULT:    -4.911      3.660      6.078
REMARK INTER + INTRA:          -3.361
REMARK INTER:                  -6.107
REMARK INTRA:                   2.746
REMARK UNBOUND:                 2.698
REMARK SMILES C=C1CC[C@@H]2[C@@H]([C@@H]3[C@@H](C)CC[C@@H]13)C2(C)C
REMARK SMILES IDX 3 1 2 2 1 3 12 4 9 5 8 6 10 7 7 8 11 9 4 11 5 12 6 13 13 14
REMARK SMILES IDX 14 16 15 17
REMARK H PARENT
REMARK Flexibility Score: 80.00
ROOT
ATOM      1  C   UNL     1     112.898 109.533 112.510  1.00  0.00     0.031 C 
ENDROOT
BRANCH   1   2
ATOM      2  C   UNL     1     112.383 110.946 112.217  1.00  0.00    -0.074 C 
ATOM      3  C   UNL     1     113.202 111.857 111.668  1.00  0.00     0.008 C 
BRANCH   2   4
ATOM      4  C   UNL     1     111.018 111.327 112.783  1.00  0.00     0.018 C 
ATOM      5  C   UNL     1     109.640 113.494 115.535  1.00  0.00     0.008 C 
ATOM      6  C   UNL     1     109.710 112.365 114.500  1.00  0.00    -0.010 C 
ATOM      7  C   UNL     1     109.127 112.787 113.125  1.00  0.00     0.004 C 
ATOM      8  C   UNL     1     111.142 111.957 114.170  1.00  0.00     0.003 CG0
ATOM      9  C   UNL     1     110.114 112.303 112.040  1.00  0.00     0.008 C 
ATOM     10  G   UNL     1     112.035 111.171 115.174  1.00  0.00     0.000 G0
ENDBRANCH   2   4
ENDBRANCH   1   2
BRANCH   1  11
ATOM     11  C   UNL     1     113.182 109.271 114.016  1.00  0.00     0.009 C 
BRANCH  11  12
ATOM     12  C   UNL     1     111.954 109.659 114.865  1.00  0.00    -0.001 C 
ATOM     13  C   UNL     1     112.053 111.183 115.181  1.00  0.00     0.002 CG0
ATOM     14  C   UNL     1     111.886 110.146 116.300  1.00  0.00    -0.029 C 
ATOM     15  G   UNL     1     111.144 111.958 114.183  1.00  0.00     0.000 G0
ATOM     16  C   UNL     1     113.121 109.876 117.171  1.00  0.00     0.011 C 
ATOM     17  C   UNL     1     110.523 110.073 116.998  1.00  0.00     0.011 C 
ENDBRANCH  11  12
ENDBRANCH   1  11
TORSDOF 0
ENDMDL
MODEL 3
REMARK VINA RESULT:    -4.900      1.387      3.609
REMARK INTER + INTRA:          -3.347
REMARK INTER:                  -6.109
REMARK INTRA:                   2.762
REMARK UNBOUND:                 2.698
REMARK SMILES C=C1CC[C@@H]2[C@@H]([C@@H]3[C@@H](C)CC[C@@H]13)C2(C)C
REMARK SMILES IDX 3 1 2 2 1 3 12 4 9 5 8 6 10 7 7 8 11 9 4 11 5 12 6 13 13 14
REMARK SMILES IDX 14 16 15 17
REMARK H PARENT
REMARK Flexibility Score: 80.00
ROOT
ATOM      1  C   UNL     1     112.855 109.753 107.466  1.00  0.00     0.031 C 
ENDROOT
BRANCH   1   2
ATOM      2  C   UNL     1     112.271 111.153 107.250  1.00  0.00    -0.074 C 
ATOM      3  C   UNL     1     113.032 112.121 106.716  1.00  0.00     0.008 C 
BRANCH   2   4
ATOM      4  C   UNL     1     110.911 111.450 107.875  1.00  0.00     0.018 C 
ATOM      5  C   UNL     1     109.532 113.457 110.746  1.00  0.00     0.008 C 
ATOM      6  C   UNL     1     109.618 112.367 109.671  1.00  0.00    -0.010 C 
ATOM      7  C   UNL     1     108.968 112.808 108.331  1.00  0.00     0.004 C 
ATOM      8  C   UNL     1     111.054 112.039 109.279  1.00  0.00     0.003 CG0
ATOM      9  C   UNL     1     109.937 112.407 107.198  1.00  0.00     0.008 C 
ATOM     10  G   UNL     1     112.017 111.262 110.224  1.00  0.00     0.000 G0
ENDBRANCH   2   4
ENDBRANCH   1   2
BRANCH   1  11
ATOM     11  C   UNL     1     113.188 109.436 108.952  1.00  0.00     0.009 C 
BRANCH  11  12
ATOM     12  C   UNL     1     111.971 109.744 109.847  1.00  0.00    -0.001 C 
ATOM     13  C   UNL     1     112.029 111.254 110.232  1.00  0.00     0.002 CG0
ATOM     14  C   UNL     1     111.925 110.162 111.305  1.00  0.00    -0.029 C 
ATOM     15  G   UNL     1     111.069 112.043 109.293  1.00  0.00     0.000 G0
ATOM     16  C   UNL     1     113.190 109.894 112.131  1.00  0.00     0.011 C 
ATOM     17  C   UNL     1     110.583 110.011 112.032  1.00  0.00     0.011 C 
ENDBRANCH  11  12
ENDBRANCH   1  11
TORSDOF 0
ENDMDL
MODEL 4
REMARK VINA RESULT:    -4.877      3.274      4.543
REMARK INTER + INTRA:          -3.319
REMARK INTER:                  -6.049
REMARK INTRA:                   2.730
REMARK UNBOUND:                 2.698
REMARK SMILES C=C1CC[C@@H]2[C@@H]([C@@H]3[C@@H](C)CC[C@@H]13)C2(C)C
REMARK SMILES IDX 3 1 2 2 1 3 12 4 9 5 8 6 10 7 7 8 11 9 4 11 5 12 6 13 13 14
REMARK SMILES IDX 14 16 15 17
REMARK H PARENT
REMARK Flexibility Score: 80.00
ROOT
ATOM      1  C   UNL     1     109.493 112.494 111.954  1.00  0.00     0.031 C 
ENDROOT
BRANCH   1   2
ATOM      2  C   UNL     1     110.000 111.054 111.831  1.00  0.00    -0.074 C 
ATOM      3  C   UNL     1     109.182 110.092 111.376  1.00  0.00     0.008 C 
BRANCH   2   4
ATOM      4  C   UNL     1     111.353 110.729 112.460  1.00  0.00     0.018 C 
ATOM      5  C   UNL     1     112.668 108.889 115.468  1.00  0.00     0.008 C 
ATOM      6  C   UNL     1     112.625 109.889 114.307  1.00  0.00    -0.010 C 
ATOM      7  C   UNL     1     113.223 109.303 113.000  1.00  0.00     0.004 C 
ATOM      8  C   UNL     1     111.202 110.268 113.909  1.00  0.00     0.003 CG0
ATOM      9  C   UNL     1     112.257 109.665 111.851  1.00  0.00     0.008 C 
ATOM     10  G   UNL     1     110.303 111.175 114.800  1.00  0.00     0.000 G0
ENDBRANCH   2   4
ENDBRANCH   1   2
BRANCH   1  11
ATOM     11  C   UNL     1     109.189 112.928 113.417  1.00  0.00     0.009 C 
BRANCH  11  12
ATOM     12  C   UNL     1     110.405 112.639 114.321  1.00  0.00    -0.001 C 
ATOM     13  C   UNL     1     110.297 111.163 114.813  1.00  0.00     0.002 CG0
ATOM     14  C   UNL     1     110.453 112.324 115.804  1.00  0.00    -0.029 C 
ATOM     15  G   UNL     1     111.217 110.275 113.924  1.00  0.00     0.000 G0
ATOM     16  C   UNL     1     109.208 112.697 116.621  1.00  0.00     0.011 C 
ATOM     17  C   UNL     1     111.807 112.477 116.507  1.00  0.00     0.011 C 
ENDBRANCH  11  12
ENDBRANCH   1  11
TORSDOF 0
ENDMDL
MODEL 5
REMARK VINA RESULT:    -4.854      1.677      4.096
REMARK INTER + INTRA:          -3.291
REMARK INTER:                  -6.001
REMARK INTRA:                   2.710
REMARK UNBOUND:                 2.698
REMARK SMILES C=C1CC[C@@H]2[C@@H]([C@@H]3[C@@H](C)CC[C@@H]13)C2(C)C
REMARK SMILES IDX 3 1 2 2 1 3 12 4 9 5 8 6 10 7 7 8 11 9 4 11 5 12 6 13 13 14
REMARK SMILES IDX 14 16 15 17
REMARK H PARENT
REMARK Flexibility Score: 80.00
ROOT
ATOM      1  C   UNL     1     112.762 108.758 111.140  1.00  0.00     0.031 C 
ENDROOT
BRANCH   1   2
ATOM      2  C   UNL     1     112.348 109.787 110.084  1.00  0.00    -0.074 C 
ATOM      3  C   UNL     1     113.250 110.238 109.198  1.00  0.00     0.008 C 
BRANCH   2   4
ATOM      4  C   UNL     1     110.974 110.434 110.234  1.00  0.00     0.018 C 
ATOM      5  C   UNL     1     109.554 113.784 111.200  1.00  0.00     0.008 C 
ATOM      6  C   UNL     1     109.624 112.269 110.977  1.00  0.00    -0.010 C 
ATOM      7  C   UNL     1     109.145 111.858 109.559  1.00  0.00     0.004 C 
ATOM      8  C   UNL     1     111.049 111.731 111.041  1.00  0.00     0.003 CG0
ATOM      9  C   UNL     1     110.167 110.839 109.007  1.00  0.00     0.008 C 
ATOM     10  G   UNL     1     111.840 111.629 112.379  1.00  0.00     0.000 G0
ENDBRANCH   2   4
ENDBRANCH   1   2
BRANCH   1  11
ATOM     11  C   UNL     1     112.934 109.359 112.565  1.00  0.00     0.009 C 
BRANCH  11  12
ATOM     12  C   UNL     1     111.682 110.172 112.954  1.00  0.00    -0.001 C 
ATOM     13  C   UNL     1     111.852 111.615 112.387  1.00  0.00     0.002 CG0
ATOM     14  C   UNL     1     111.558 111.373 113.874  1.00  0.00    -0.029 C 
ATOM     15  G   UNL     1     111.052 111.723 111.056  1.00  0.00     0.000 G0
ATOM     16  C   UNL     1     112.719 111.609 114.848  1.00  0.00     0.011 C 
ATOM     17  C   UNL     1     110.153 111.719 114.382  1.00  0.00     0.011 C 
ENDBRANCH  11  12
ENDBRANCH   1  11
TORSDOF 0
ENDMDL
MODEL 6
REMARK VINA RESULT:    -4.780      2.119      3.139
REMARK INTER + INTRA:          -3.199
REMARK INTER:                  -5.940
REMARK INTRA:                   2.741
REMARK UNBOUND:                 2.698
REMARK SMILES C=C1CC[C@@H]2[C@@H]([C@@H]3[C@@H](C)CC[C@@H]13)C2(C)C
REMARK SMILES IDX 3 1 2 2 1 3 12 4 9 5 8 6 10 7 7 8 11 9 4 11 5 12 6 13 13 14
REMARK SMILES IDX 14 16 15 17
REMARK H PARENT
REMARK Flexibility Score: 80.00
ROOT
ATOM      1  C   UNL     1     109.471 113.580 106.345  1.00  0.00     0.031 C 
ENDROOT
BRANCH   1   2
ATOM      2  C   UNL     1     109.906 112.650 105.208  1.00  0.00    -0.074 C 
ATOM      3  C   UNL     1     109.018 112.276 104.274  1.00  0.00     0.008 C 
BRANCH   2   4
ATOM      4  C   UNL     1     111.280 111.998 105.321  1.00  0.00     0.018 C 
ATOM      5  C   UNL     1     112.705 108.590 106.048  1.00  0.00     0.008 C 
ATOM      6  C   UNL     1     112.631 110.118 105.937  1.00  0.00    -0.010 C 
ATOM      7  C   UNL     1     113.119 110.634 104.557  1.00  0.00     0.004 C 
ATOM      8  C   UNL     1     111.204 110.645 106.030  1.00  0.00     0.003 CG0
ATOM      9  C   UNL     1     112.098 111.687 104.074  1.00  0.00     0.008 C 
ATOM     10  G   UNL     1     110.403 110.646 107.365  1.00  0.00     0.000 G0
ENDBRANCH   2   4
ENDBRANCH   1   2
BRANCH   1  11
ATOM     11  C   UNL     1     109.290 112.857 107.710  1.00  0.00     0.009 C 
BRANCH  11  12
ATOM     12  C   UNL     1     110.551 112.036 108.049  1.00  0.00    -0.001 C 
ATOM     13  C   UNL     1     110.408 110.638 107.371  1.00  0.00     0.002 CG0
ATOM     14  C   UNL     1     110.687 110.770 108.875  1.00  0.00    -0.029 C 
ATOM     15  G   UNL     1     111.222 110.644 106.044  1.00  0.00     0.000 G0
ATOM     16  C   UNL     1     109.520 110.442 109.817  1.00  0.00     0.011 C 
ATOM     17  C   UNL     1     112.092 110.406 109.368  1.00  0.00     0.011 C 
ENDBRANCH  11  12
ENDBRANCH   1  11
TORSDOF 0
ENDMDL
MODEL 7
REMARK VINA RESULT:    -4.766      5.480      7.372
REMARK INTER + INTRA:          -3.182
REMARK INTER:                  -5.883
REMARK INTRA:                   2.701
REMARK UNBOUND:                 2.698
REMARK SMILES C=C1CC[C@@H]2[C@@H]([C@@H]3[C@@H](C)CC[C@@H]13)C2(C)C
REMARK SMILES IDX 3 1 2 2 1 3 12 4 9 5 8 6 10 7 7 8 11 9 4 11 5 12 6 13 13 14
REMARK SMILES IDX 14 16 15 17
REMARK H PARENT
REMARK Flexibility Score: 80.00
ROOT
ATOM      1  C   UNL     1     109.553 113.614 116.247  1.00  0.00     0.031 C 
ENDROOT
BRANCH   1   2
ATOM      2  C   UNL     1     109.964 112.640 115.139  1.00  0.00    -0.074 C 
ATOM      3  C   UNL     1     109.078 112.289 114.193  1.00  0.00     0.008 C 
BRANCH   2   4
ATOM      4  C   UNL     1     111.302 111.923 115.295  1.00  0.00     0.018 C 
ATOM      5  C   UNL     1     112.540 108.462 116.109  1.00  0.00     0.008 C 
ATOM      6  C   UNL     1     112.544 109.989 115.972  1.00  0.00    -0.010 C 
ATOM      7  C   UNL     1     113.088 110.458 114.596  1.00  0.00     0.004 C 
ATOM      8  C   UNL     1     111.142 110.587 116.023  1.00  0.00     0.003 CG0
ATOM      9  C   UNL     1     112.132 111.551 114.072  1.00  0.00     0.008 C 
ATOM     10  G   UNL     1     110.312 110.650 117.338  1.00  0.00     0.000 G0
ENDBRANCH   2   4
ENDBRANCH   1   2
BRANCH   1  11
ATOM     11  C   UNL     1     109.302 112.929 117.621  1.00  0.00     0.009 C 
BRANCH  11  12
ATOM     12  C   UNL     1     110.508 112.048 118.005  1.00  0.00    -0.001 C 
ATOM     13  C   UNL     1     110.305 110.646 117.353  1.00  0.00     0.002 CG0
ATOM     14  C   UNL     1     110.557 110.795 118.859  1.00  0.00    -0.029 C 
ATOM     15  G   UNL     1     111.146 110.580 116.044  1.00  0.00     0.000 G0
ATOM     16  C   UNL     1     109.354 110.552 119.781  1.00  0.00     0.011 C 
ATOM     17  C   UNL     1     111.929 110.367 119.392  1.00  0.00     0.011 C 
ENDBRANCH  11  12
ENDBRANCH   1  11
TORSDOF 0
ENDMDL
MODEL 8
REMARK VINA RESULT:    -4.750      1.924      4.262
REMARK INTER + INTRA:          -3.163
REMARK INTER:                  -5.860
REMARK INTRA:                   2.698
REMARK UNBOUND:                 2.698
REMARK SMILES C=C1CC[C@@H]2[C@@H]([C@@H]3[C@@H](C)CC[C@@H]13)C2(C)C
REMARK SMILES IDX 3 1 2 2 1 3 12 4 9 5 8 6 10 7 7 8 11 9 4 11 5 12 6 13 13 14
REMARK SMILES IDX 14 16 15 17
REMARK H PARENT
REMARK Flexibility Score: 80.00
ROOT
ATOM      1  C   UNL     1     112.886 108.689 106.599  1.00  0.00     0.031 C 
ENDROOT
BRANCH   1   2
ATOM      2  C   UNL     1     112.323 109.555 105.468  1.00  0.00    -0.074 C 
ATOM      3  C   UNL     1     113.108 109.904 104.438  1.00  0.00     0.008 C 
BRANCH   2   4
ATOM      4  C   UNL     1     110.948 110.182 105.682  1.00  0.00     0.018 C 
ATOM      5  C   UNL     1     109.508 113.594 106.359  1.00  0.00     0.008 C 
ATOM      6  C   UNL     1     109.613 112.065 106.325  1.00  0.00    -0.010 C 
ATOM      7  C   UNL     1     109.006 111.459 105.031  1.00  0.00     0.004 C 
ATOM      8  C   UNL     1     111.057 111.575 106.304  1.00  0.00     0.003 CG0
ATOM      9  C   UNL     1     110.003 110.403 104.507  1.00  0.00     0.008 C 
ATOM     10  G   UNL     1     111.985 111.668 107.550  1.00  0.00     0.000 G0
ENDBRANCH   2   4
ENDBRANCH   1   2
BRANCH   1  11
ATOM     11  C   UNL     1     113.190 109.482 107.902  1.00  0.00     0.009 C 
BRANCH  11  12
ATOM     12  C   UNL     1     111.958 110.310 108.321  1.00  0.00    -0.001 C 
ATOM     13  C   UNL     1     112.008 111.666 107.552  1.00  0.00     0.002 CG0
ATOM     14  C   UNL     1     111.889 111.621 109.082  1.00  0.00    -0.029 C 
ATOM     15  G   UNL     1     111.063 111.573 106.319  1.00  0.00     0.000 G0
ATOM     16  C   UNL     1     113.141 112.015 109.876  1.00  0.00     0.011 C 
ATOM     17  C   UNL     1     110.537 112.000 109.696  1.00  0.00     0.011 C 
ENDBRANCH  11  12
ENDBRANCH   1  11
TORSDOF 0
ENDMDL
MODEL 9
REMARK VINA RESULT:    -4.741      1.696      2.652
REMARK INTER + INTRA:          -3.152
REMARK INTER:                  -5.879
REMARK INTRA:                   2.727
REMARK UNBOUND:                 2.698
REMARK SMILES C=C1CC[C@@H]2[C@@H]([C@@H]3[C@@H](C)CC[C@@H]13)C2(C)C
REMARK SMILES IDX 3 1 2 2 1 3 12 4 9 5 8 6 10 7 7 8 11 9 4 11 5 12 6 13 13 14
REMARK SMILES IDX 14 16 15 17
REMARK H PARENT
REMARK Flexibility Score: 80.00
ROOT
ATOM      1  C   UNL     1     109.339 113.562 111.204  1.00  0.00     0.031 C 
ENDROOT
BRANCH   1   2
ATOM      2  C   UNL     1     109.800 112.580 110.122  1.00  0.00    -0.074 C 
ATOM      3  C   UNL     1     108.939 112.171 109.177  1.00  0.00     0.008 C 
BRANCH   2   4
ATOM      4  C   UNL     1     111.165 111.923 110.305  1.00  0.00     0.018 C 
ATOM      5  C   UNL     1     112.539 108.536 111.203  1.00  0.00     0.008 C 
ATOM      6  C   UNL     1     112.480 110.058 111.034  1.00  0.00    -0.010 C 
ATOM      7  C   UNL     1     113.019 110.521 109.654  1.00  0.00     0.004 C 
ATOM      8  C   UNL     1     111.054 110.598 111.059  1.00  0.00     0.003 CG0
ATOM      9  C   UNL     1     112.023 111.563 109.098  1.00  0.00     0.008 C 
ATOM     10  G   UNL     1     110.208 110.652 112.365  1.00  0.00     0.000 G0
ENDBRANCH   2   4
ENDBRANCH   1   2
BRANCH   1  11
ATOM     11  C   UNL     1     109.105 112.899 112.591  1.00  0.00     0.009 C 
BRANCH  11  12
ATOM     12  C   UNL     1     110.342 112.075 113.003  1.00  0.00    -0.001 C 
ATOM     13  C   UNL     1     110.204 110.655 112.371  1.00  0.00     0.002 CG0
ATOM     14  C   UNL     1     110.432 110.838 113.878  1.00  0.00    -0.029 C 
ATOM     15  G   UNL     1     111.063 110.603 111.074  1.00  0.00     0.000 G0
ATOM     16  C   UNL     1     109.229 110.560 114.789  1.00  0.00     0.011 C 
ATOM     17  C   UNL     1     111.814 110.475 114.433  1.00  0.00     0.011 C 
ENDBRANCH  11  12
ENDBRANCH   1  11
TORSDOF 0
ENDMDL
