MODEL 1
REMARK VINA RESULT:    -7.286      0.000      0.000
REMARK INTER + INTRA:         -11.078
REMARK INTER:                 -10.693
REMARK INTRA:                  -0.385
REMARK UNBOUND:                -0.385
REMARK SMILES O=c1c(O[C@@H]2O[C@@H](CO)[C@H](O)[C@H](O)[C@H]2O)c(-c2ccc(O)c(O)c2)oc2cc(O)cc(O)c12
REMARK SMILES IDX 4 1 3 2 16 3 25 4 2 5 26 6 1 7 33 8 27 9 31 10 28 11 30 12
REMARK SMILES IDX 17 13 18 14 19 15 20 16 24 17 22 18 21 19 23 21 32 23 29 25
REMARK SMILES IDX 5 27 14 28 6 29 12 30 7 31 10 32 15 33 13 35 8 37 9 38 11 40
REMARK H PARENT 21 20 23 22 32 24 29 26 15 34 13 36 9 39 11 41
REMARK Flexibility Score: inf
ROOT
ATOM      1  O   UNL     1      60.394 151.766   5.676  1.00  0.00    -0.454 OA
ENDROOT
BRANCH   1   2
ATOM      2  C   UNL     1      60.651 152.224   4.379  1.00  0.00     0.214 A 
ATOM      3  C   UNL     1      61.825 151.822   3.721  1.00  0.00     0.180 A 
ATOM      4  O   UNL     1      62.058 152.239   2.482  1.00  0.00    -0.452 OA
ATOM      5  C   UNL     1      59.757 153.079   3.719  1.00  0.00     0.239 A 
ATOM      6  C   UNL     1      61.230 153.024   1.805  1.00  0.00     0.146 A 
ATOM      7  O   UNL     1      58.761 153.514   4.349  1.00  0.00    -0.285 OA
ATOM      8  C   UNL     1      60.010 153.466   2.380  1.00  0.00     0.111 A 
ATOM      9  C   UNL     1      61.591 153.414   0.513  1.00  0.00     0.094 A 
ATOM     10  C   UNL     1      59.141 154.274   1.584  1.00  0.00     0.134 A 
ATOM     11  C   UNL     1      60.749 154.225  -0.242  1.00  0.00     0.123 A 
ATOM     12  C   UNL     1      59.537 154.655   0.297  1.00  0.00     0.093 A 
BRANCH   3  13
ATOM     13  C   UNL     1      62.805 150.903   4.342  1.00  0.00     0.025 A 
ATOM     14  C   UNL     1      64.103 151.361   4.606  1.00  0.00     0.016 A 
ATOM     15  C   UNL     1      65.051 150.511   5.178  1.00  0.00     0.051 A 
ATOM     16  C   UNL     1      64.717 149.192   5.501  1.00  0.00     0.157 A 
ATOM     17  C   UNL     1      62.465 149.582   4.689  1.00  0.00     0.062 A 
ATOM     18  C   UNL     1      63.417 148.725   5.256  1.00  0.00     0.158 A 
BRANCH  16  19
ATOM     19  O   UNL     1      65.686 148.362   6.062  1.00  0.00    -0.504 OA
ATOM     20  H   UNL     1      65.729 147.372   5.862  1.00  0.00     0.293 HD
ENDBRANCH  16  19
BRANCH  18  21
ATOM     21  O   UNL     1      63.079 147.410   5.572  1.00  0.00    -0.504 OA
ATOM     22  H   UNL     1      62.761 146.766   4.869  1.00  0.00     0.293 HD
ENDBRANCH  18  21
ENDBRANCH   3  13
BRANCH  10  23
ATOM     23  O   UNL     1      57.875 154.702   1.991  1.00  0.00    -0.507 OA
ATOM     24  H   UNL     1      57.146 155.053   1.387  1.00  0.00     0.293 HD
ENDBRANCH  10  23
BRANCH  11  25
ATOM     25  O   UNL     1      61.125 154.602  -1.528  1.00  0.00    -0.508 OA
ATOM     26  H   UNL     1      61.525 155.513  -1.718  1.00  0.00     0.293 HD
ENDBRANCH  11  25
ENDBRANCH   1   2
BRANCH   1  27
ATOM     27  C   UNL     1      61.277 151.966   6.782  1.00  0.00     0.339 C 
ATOM     28  C   UNL     1      60.635 152.912   7.816  1.00  0.00     0.214 C 
ATOM     29  O   UNL     1      61.649 150.743   7.383  1.00  0.00    -0.332 OA
ATOM     30  C   UNL     1      59.592 152.204   8.717  1.00  0.00     0.180 C 
ATOM     31  C   UNL     1      60.555 149.978   7.881  1.00  0.00     0.179 C 
ATOM     32  C   UNL     1      59.258 150.785   8.228  1.00  0.00     0.177 C 
BRANCH  28  33
ATOM     33  O   UNL     1      61.630 153.516   8.611  1.00  0.00    -0.384 OA
ATOM     34  H   UNL     1      62.135 154.142   8.021  1.00  0.00     0.211 HD
ENDBRANCH  28  33
BRANCH  30  35
ATOM     35  O   UNL     1      58.419 152.977   8.771  1.00  0.00    -0.387 OA
ATOM     36  H   UNL     1      57.964 152.883   7.893  1.00  0.00     0.211 HD
ENDBRANCH  30  35
BRANCH  31  37
ATOM     37  C   UNL     1      61.058 149.221   9.124  1.00  0.00     0.191 C 
BRANCH  37  38
ATOM     38  O   UNL     1      62.421 148.942   8.986  1.00  0.00    -0.394 OA
ATOM     39  H   UNL     1      62.916 149.746   9.272  1.00  0.00     0.210 HD
ENDBRANCH  37  38
ENDBRANCH  31  37
BRANCH  32  40
ATOM     40  O   UNL     1      58.400 150.844   7.117  1.00  0.00    -0.387 OA
ATOM     41  H   UNL     1      57.669 150.193   7.281  1.00  0.00     0.211 HD
ENDBRANCH  32  40
ENDBRANCH   1  27
TORSDOF 12
ENDMDL
MODEL 2
REMARK VINA RESULT:    -6.948      0.883      2.362
REMARK INTER + INTRA:         -10.583
REMARK INTER:                 -10.140
REMARK INTRA:                  -0.442
REMARK UNBOUND:                -0.385
REMARK SMILES O=c1c(O[C@@H]2O[C@@H](CO)[C@H](O)[C@H](O)[C@H]2O)c(-c2ccc(O)c(O)c2)oc2cc(O)cc(O)c12
REMARK SMILES IDX 4 1 3 2 16 3 25 4 2 5 26 6 1 7 33 8 27 9 31 10 28 11 30 12
REMARK SMILES IDX 17 13 18 14 19 15 20 16 24 17 22 18 21 19 23 21 32 23 29 25
REMARK SMILES IDX 5 27 14 28 6 29 12 30 7 31 10 32 15 33 13 35 8 37 9 38 11 40
REMARK H PARENT 21 20 23 22 32 24 29 26 15 34 13 36 9 39 11 41
REMARK Flexibility Score: inf
ROOT
ATOM      1  O   UNL     1      60.543 151.998   5.847  1.00  0.00    -0.454 OA
ENDROOT
BRANCH   1   2
ATOM      2  C   UNL     1      60.729 152.381   4.515  1.00  0.00     0.214 A 
ATOM      3  C   UNL     1      61.846 151.910   3.807  1.00  0.00     0.180 A 
ATOM      4  O   UNL     1      62.010 152.256   2.535  1.00  0.00    -0.452 OA
ATOM      5  C   UNL     1      59.819 153.230   3.869  1.00  0.00     0.239 A 
ATOM      6  C   UNL     1      61.163 153.032   1.871  1.00  0.00     0.146 A 
ATOM      7  O   UNL     1      58.877 153.727   4.536  1.00  0.00    -0.285 OA
ATOM      8  C   UNL     1      59.995 153.540   2.498  1.00  0.00     0.111 A 
ATOM      9  C   UNL     1      61.450 153.344   0.540  1.00  0.00     0.094 A 
ATOM     10  C   UNL     1      59.100 154.333   1.717  1.00  0.00     0.134 A 
ATOM     11  C   UNL     1      60.585 154.141  -0.201  1.00  0.00     0.123 A 
ATOM     12  C   UNL     1      59.423 154.636   0.389  1.00  0.00     0.093 A 
BRANCH   3  13
ATOM     13  C   UNL     1      62.838 150.993   4.412  1.00  0.00     0.025 A 
ATOM     14  C   UNL     1      64.146 151.446   4.631  1.00  0.00     0.016 A 
ATOM     15  C   UNL     1      65.105 150.598   5.188  1.00  0.00     0.051 A 
ATOM     16  C   UNL     1      64.772 149.287   5.541  1.00  0.00     0.157 A 
ATOM     17  C   UNL     1      62.500 149.680   4.789  1.00  0.00     0.062 A 
ATOM     18  C   UNL     1      63.462 148.825   5.340  1.00  0.00     0.158 A 
BRANCH  16  19
ATOM     19  O   UNL     1      65.751 148.458   6.085  1.00  0.00    -0.504 OA
ATOM     20  H   UNL     1      65.602 147.469   6.231  1.00  0.00     0.293 HD
ENDBRANCH  16  19
BRANCH  18  21
ATOM     21  O   UNL     1      63.125 147.518   5.686  1.00  0.00    -0.504 OA
ATOM     22  H   UNL     1      62.476 146.980   5.138  1.00  0.00     0.293 HD
ENDBRANCH  18  21
ENDBRANCH   3  13
BRANCH  10  23
ATOM     23  O   UNL     1      57.875 154.821   2.179  1.00  0.00    -0.507 OA
ATOM     24  H   UNL     1      57.651 155.790   2.351  1.00  0.00     0.293 HD
ENDBRANCH  10  23
BRANCH  11  25
ATOM     25  O   UNL     1      60.888 154.441  -1.527  1.00  0.00    -0.508 OA
ATOM     26  H   UNL     1      61.207 153.728  -2.172  1.00  0.00     0.293 HD
ENDBRANCH  11  25
ENDBRANCH   1   2
BRANCH   1  27
ATOM     27  C   UNL     1      59.315 151.480   6.365  1.00  0.00     0.339 C 
ATOM     28  C   UNL     1      59.591 150.306   7.326  1.00  0.00     0.214 C 
ATOM     29  O   UNL     1      58.551 152.483   7.003  1.00  0.00    -0.332 OA
ATOM     30  C   UNL     1      60.042 150.770   8.733  1.00  0.00     0.180 C 
ATOM     31  C   UNL     1      59.210 153.113   8.098  1.00  0.00     0.179 C 
ATOM     32  C   UNL     1      60.342 152.277   8.789  1.00  0.00     0.177 C 
BRANCH  28  33
ATOM     33  O   UNL     1      58.452 149.481   7.430  1.00  0.00    -0.384 OA
ATOM     34  H   UNL     1      57.893 149.847   8.172  1.00  0.00     0.211 HD
ENDBRANCH  28  33
BRANCH  30  35
ATOM     35  O   UNL     1      61.180 150.044   9.122  1.00  0.00    -0.387 OA
ATOM     36  H   UNL     1      61.721 150.637   9.709  1.00  0.00     0.211 HD
ENDBRANCH  30  35
BRANCH  31  37
ATOM     37  C   UNL     1      58.126 153.488   9.125  1.00  0.00     0.191 C 
BRANCH  37  38
ATOM     38  O   UNL     1      57.916 154.870   9.105  1.00  0.00    -0.394 OA
ATOM     39  H   UNL     1      58.696 155.292   9.538  1.00  0.00     0.210 HD
ENDBRANCH  37  38
ENDBRANCH  31  37
BRANCH  32  40
ATOM     40  O   UNL     1      61.587 152.546   8.196  1.00  0.00    -0.387 OA
ATOM     41  H   UNL     1      62.213 151.840   8.505  1.00  0.00     0.211 HD
ENDBRANCH  32  40
ENDBRANCH   1  27
TORSDOF 12
ENDMDL
MODEL 3
REMARK VINA RESULT:    -4.515      2.488      7.533
REMARK INTER + INTRA:          -7.012
REMARK INTER:                  -7.093
REMARK INTRA:                   0.081
REMARK UNBOUND:                -0.385
REMARK SMILES O=c1c(O[C@@H]2O[C@@H](CO)[C@H](O)[C@H](O)[C@H]2O)c(-c2ccc(O)c(O)c2)oc2cc(O)cc(O)c12
REMARK SMILES IDX 4 1 3 2 16 3 25 4 2 5 26 6 1 7 33 8 27 9 31 10 28 11 30 12
REMARK SMILES IDX 17 13 18 14 19 15 20 16 24 17 22 18 21 19 23 21 32 23 29 25
REMARK SMILES IDX 5 27 14 28 6 29 12 30 7 31 10 32 15 33 13 35 8 37 9 38 11 40
REMARK H PARENT 21 20 23 22 32 24 29 26 15 34 13 36 9 39 11 41
REMARK Flexibility Score: inf
ROOT
ATOM      1  O   UNL     1      62.585 150.644   6.251  1.00  0.00    -0.454 OA
ENDROOT
BRANCH   1   2
ATOM      2  C   UNL     1      61.684 149.755   6.846  1.00  0.00     0.214 A 
ATOM      3  C   UNL     1      60.679 150.250   7.694  1.00  0.00     0.180 A 
ATOM      4  O   UNL     1      59.809 149.407   8.240  1.00  0.00    -0.452 OA
ATOM      5  C   UNL     1      61.762 148.375   6.613  1.00  0.00     0.239 A 
ATOM      6  C   UNL     1      59.824 148.098   8.028  1.00  0.00     0.146 A 
ATOM      7  O   UNL     1      62.723 147.930   5.935  1.00  0.00    -0.285 OA
ATOM      8  C   UNL     1      60.790 147.509   7.171  1.00  0.00     0.111 A 
ATOM      9  C   UNL     1      58.869 147.309   8.673  1.00  0.00     0.094 A 
ATOM     10  C   UNL     1      60.726 146.099   6.948  1.00  0.00     0.134 A 
ATOM     11  C   UNL     1      58.835 145.934   8.471  1.00  0.00     0.123 A 
ATOM     12  C   UNL     1      59.764 145.336   7.619  1.00  0.00     0.093 A 
BRANCH   3  13
ATOM     13  C   UNL     1      60.516 151.695   7.969  1.00  0.00     0.025 A 
ATOM     14  C   UNL     1      61.414 152.332   8.837  1.00  0.00     0.016 A 
ATOM     15  C   UNL     1      61.276 153.691   9.125  1.00  0.00     0.051 A 
ATOM     16  C   UNL     1      60.244 154.436   8.548  1.00  0.00     0.157 A 
ATOM     17  C   UNL     1      59.492 152.452   7.372  1.00  0.00     0.062 A 
ATOM     18  C   UNL     1      59.347 153.814   7.666  1.00  0.00     0.158 A 
BRANCH  16  19
ATOM     19  O   UNL     1      60.123 155.789   8.861  1.00  0.00    -0.504 OA
ATOM     20  H   UNL     1      60.917 156.414   8.873  1.00  0.00     0.293 HD
ENDBRANCH  16  19
BRANCH  18  21
ATOM     21  O   UNL     1      58.314 154.551   7.090  1.00  0.00    -0.504 OA
ATOM     22  H   UNL     1      57.523 154.857   7.630  1.00  0.00     0.293 HD
ENDBRANCH  18  21
ENDBRANCH   3  13
BRANCH  10  23
ATOM     23  O   UNL     1      61.555 145.405   6.064  1.00  0.00    -0.507 OA
ATOM     24  H   UNL     1      62.563 145.453   6.035  1.00  0.00     0.293 HD
ENDBRANCH  10  23
BRANCH  11  25
ATOM     25  O   UNL     1      57.875 145.163   9.123  1.00  0.00    -0.508 OA
ATOM     26  H   UNL     1      57.387 144.413   8.649  1.00  0.00     0.293 HD
ENDBRANCH  11  25
ENDBRANCH   1   2
BRANCH   1  27
ATOM     27  C   UNL     1      62.261 151.991   5.897  1.00  0.00     0.339 C 
ATOM     28  C   UNL     1      63.541 152.847   5.815  1.00  0.00     0.214 C 
ATOM     29  O   UNL     1      61.537 152.054   4.686  1.00  0.00    -0.332 OA
ATOM     30  C   UNL     1      64.324 152.639   4.495  1.00  0.00     0.180 C 
ATOM     31  C   UNL     1      62.221 151.502   3.564  1.00  0.00     0.179 C 
ATOM     32  C   UNL     1      63.784 151.460   3.669  1.00  0.00     0.177 C 
BRANCH  28  33
ATOM     33  O   UNL     1      63.229 154.211   5.983  1.00  0.00    -0.384 OA
ATOM     34  H   UNL     1      63.245 154.396   6.964  1.00  0.00     0.211 HD
ENDBRANCH  28  33
BRANCH  30  35
ATOM     35  O   UNL     1      65.683 152.433   4.785  1.00  0.00    -0.387 OA
ATOM     36  H   UNL     1      65.961 151.602   4.318  1.00  0.00     0.211 HD
ENDBRANCH  30  35
BRANCH  31  37
ATOM     37  C   UNL     1      61.793 152.312   2.327  1.00  0.00     0.191 C 
BRANCH  37  38
ATOM     38  O   UNL     1      60.567 152.935   2.573  1.00  0.00    -0.394 OA
ATOM     39  H   UNL     1      60.350 153.480   1.779  1.00  0.00     0.210 HD
ENDBRANCH  37  38
ENDBRANCH  31  37
BRANCH  32  40
ATOM     40  O   UNL     1      64.210 150.242   4.225  1.00  0.00    -0.387 OA
ATOM     41  H   UNL     1      65.184 150.329   4.398  1.00  0.00     0.211 HD
ENDBRANCH  32  40
ENDBRANCH   1  27
TORSDOF 12
ENDMDL
