MODEL 1
REMARK VINA RESULT:    -3.775      0.000      0.000
REMARK INTER + INTRA:          -6.171
REMARK INTER:                  -5.761
REMARK INTRA:                  -0.410
REMARK UNBOUND:                -0.410
REMARK SMILES CC1=CCC[C@H](C)C(=O)C[C@H](C(C)C)C(=O)C1
REMARK SMILES IDX 8 1 9 2 6 3 7 4 5 5 4 6 3 7 2 8 1 9 10 11 11 12 15 13 16 14
REMARK SMILES IDX 17 15 12 17 13 18 14 19
REMARK H PARENT
REMARK Flexibility Score: 70.00
ROOT
ATOM      1  C   UNL     1      20.674  25.838  29.153  1.00  0.00     0.136 C 
ATOM      2  O   UNL     1      21.000  24.816  29.740  1.00  0.00    -0.299 OA
ENDROOT
BRANCH   1   3
ATOM      3  C   UNL     1      20.072  25.710  27.765  1.00  0.00     0.053 C 
ATOM      4  C   UNL     1      20.713  24.573  26.955  1.00  0.00     0.016 C 
BRANCH   3   5
ATOM      5  C   UNL     1      18.524  25.687  27.793  1.00  0.00     0.015 C 
BRANCH   5   6
ATOM      6  C   UNL     1      17.828  26.995  27.372  1.00  0.00     0.028 C 
BRANCH   6   7
ATOM      7  C   UNL     1      17.234  27.692  28.568  1.00  0.00    -0.028 C 
ATOM      8  C   UNL     1      17.616  28.912  29.013  1.00  0.00    -0.070 CG0
ATOM      9  C   UNL     1      16.872  29.502  30.183  1.00  0.00     0.039 C 
ATOM     10  G   UNL     1      18.766  29.696  28.399  1.00  0.00     0.000 G0
ENDBRANCH   6   7
ENDBRANCH   5   6
ENDBRANCH   3   5
ENDBRANCH   1   3
BRANCH   1  11
ATOM     11  C   UNL     1      20.869  27.162  29.857  1.00  0.00     0.087 C 
BRANCH  11  12
ATOM     12  C   UNL     1      21.023  28.338  28.859  1.00  0.00     0.066 C 
BRANCH  12  13
ATOM     13  C   UNL     1      20.073  29.494  29.156  1.00  0.00     0.140 C 
ATOM     14  O   UNL     1      20.329  30.229  30.099  1.00  0.00    -0.299 OA
BRANCH  13  15
ATOM     15  C   UNL     1      18.780  29.708  28.403  1.00  0.00     0.106 CG0
ATOM     16  G   UNL     1      17.617  28.934  29.004  1.00  0.00     0.000 G0
ENDBRANCH  13  15
ENDBRANCH  12  13
BRANCH  12  17
ATOM     17  C   UNL     1      22.511  28.770  28.665  1.00  0.00    -0.006 C 
ATOM     18  C   UNL     1      23.235  28.097  27.486  1.00  0.00     0.008 C 
ATOM     19  C   UNL     1      23.326  28.597  29.956  1.00  0.00     0.008 C 
ENDBRANCH  12  17
ENDBRANCH  11  12
ENDBRANCH   1  11
TORSDOF 1
ENDMDL
MODEL 2
REMARK VINA RESULT:    -3.317      2.543      4.836
REMARK INTER + INTRA:          -5.472
REMARK INTER:                  -5.234
REMARK INTRA:                  -0.238
REMARK UNBOUND:                -0.410
REMARK SMILES CC1=CCC[C@H](C)C(=O)C[C@H](C(C)C)C(=O)C1
REMARK SMILES IDX 8 1 9 2 6 3 7 4 5 5 4 6 3 7 2 8 1 9 10 11 11 12 15 13 16 14
REMARK SMILES IDX 17 15 12 17 13 18 14 19
REMARK H PARENT
REMARK Flexibility Score: 70.00
ROOT
ATOM      1  C   UNL     1      22.988  28.501  28.295  1.00  0.00     0.136 C 
ATOM      2  O   UNL     1      23.349  28.498  27.127  1.00  0.00    -0.299 OA
ENDROOT
BRANCH   1   3
ATOM      3  C   UNL     1      24.047  28.382  29.377  1.00  0.00     0.053 C 
ATOM      4  C   UNL     1      25.126  27.348  29.022  1.00  0.00     0.016 C 
BRANCH   3   5
ATOM      5  C   UNL     1      24.596  29.760  29.819  1.00  0.00     0.015 C 
BRANCH   5   6
ATOM      6  C   UNL     1      24.165  30.233  31.220  1.00  0.00     0.028 C 
BRANCH   6   7
ATOM      7  C   UNL     1      22.959  31.130  31.133  1.00  0.00    -0.028 C 
ATOM      8  C   UNL     1      21.704  30.763  31.482  1.00  0.00    -0.070 CG0
ATOM      9  C   UNL     1      20.615  31.803  31.402  1.00  0.00     0.039 C 
ATOM     10  G   UNL     1      21.345  29.354  31.931  1.00  0.00     0.000 G0
ENDBRANCH   6   7
ENDBRANCH   5   6
ENDBRANCH   3   5
ENDBRANCH   1   3
BRANCH   1  11
ATOM     11  C   UNL     1      21.511  28.649  28.587  1.00  0.00     0.087 C 
BRANCH  11  12
ATOM     12  C   UNL     1      21.064  27.777  29.788  1.00  0.00     0.066 C 
BRANCH  12  13
ATOM     13  C   UNL     1      20.484  28.600  30.933  1.00  0.00     0.140 C 
ATOM     14  O   UNL     1      19.271  28.744  30.990  1.00  0.00    -0.299 OA
BRANCH  13  15
ATOM     15  C   UNL     1      21.346  29.330  31.938  1.00  0.00     0.106 CG0
ATOM     16  G   UNL     1      21.688  30.745  31.497  1.00  0.00     0.000 G0
ENDBRANCH  13  15
ENDBRANCH  12  13
BRANCH  12  17
ATOM     17  C   UNL     1      20.171  26.571  29.354  1.00  0.00    -0.006 C 
ATOM     18  C   UNL     1      20.938  25.283  29.013  1.00  0.00     0.008 C 
ATOM     19  C   UNL     1      19.228  26.949  28.201  1.00  0.00     0.008 C 
ENDBRANCH  12  17
ENDBRANCH  11  12
ENDBRANCH   1  11
TORSDOF 1
ENDMDL
MODEL 3
REMARK VINA RESULT:    -3.312      2.071      4.755
REMARK INTER + INTRA:          -5.465
REMARK INTER:                  -5.509
REMARK INTRA:                   0.044
REMARK UNBOUND:                -0.410
REMARK SMILES CC1=CCC[C@H](C)C(=O)C[C@H](C(C)C)C(=O)C1
REMARK SMILES IDX 8 1 9 2 6 3 7 4 5 5 4 6 3 7 2 8 1 9 10 11 11 12 15 13 16 14
REMARK SMILES IDX 17 15 12 17 13 18 14 19
REMARK H PARENT
REMARK Flexibility Score: 70.00
ROOT
ATOM      1  C   UNL     1      17.866  26.921  27.759  1.00  0.00     0.136 C 
ATOM      2  O   UNL     1      18.150  27.348  26.649  1.00  0.00    -0.299 OA
ENDROOT
BRANCH   1   3
ATOM      3  C   UNL     1      17.029  27.797  28.675  1.00  0.00     0.053 C 
ATOM      4  C   UNL     1      16.127  26.970  29.604  1.00  0.00     0.016 C 
BRANCH   3   5
ATOM      5  C   UNL     1      17.873  28.877  29.392  1.00  0.00     0.015 C 
BRANCH   5   6
ATOM      6  C   UNL     1      18.806  28.366  30.507  1.00  0.00     0.028 C 
BRANCH   6   7
ATOM      7  C   UNL     1      20.250  28.583  30.136  1.00  0.00    -0.028 C 
ATOM      8  C   UNL     1      21.107  27.597  29.783  1.00  0.00    -0.070 CG0
ATOM      9  C   UNL     1      22.503  27.988  29.371  1.00  0.00     0.039 C 
ATOM     10  G   UNL     1      20.730  26.123  29.802  1.00  0.00     0.000 G0
ENDBRANCH   6   7
ENDBRANCH   5   6
ENDBRANCH   3   5
ENDBRANCH   1   3
BRANCH   1  11
ATOM     11  C   UNL     1      18.347  25.538  28.140  1.00  0.00     0.087 C 
BRANCH  11  12
ATOM     12  C   UNL     1      19.722  25.204  27.508  1.00  0.00     0.066 C 
BRANCH  12  13
ATOM     13  C   UNL     1      20.886  25.449  28.463  1.00  0.00     0.140 C 
ATOM     14  O   UNL     1      21.986  25.007  28.164  1.00  0.00    -0.299 OA
BRANCH  13  15
ATOM     15  C   UNL     1      20.719  26.121  29.806  1.00  0.00     0.106 CG0
ATOM     16  G   UNL     1      21.110  27.591  29.778  1.00  0.00     0.000 G0
ENDBRANCH  13  15
ENDBRANCH  12  13
BRANCH  12  17
ATOM     17  C   UNL     1      19.744  23.801  26.824  1.00  0.00    -0.006 C 
ATOM     18  C   UNL     1      20.571  23.721  25.529  1.00  0.00     0.008 C 
ATOM     19  C   UNL     1      18.324  23.265  26.580  1.00  0.00     0.008 C 
ENDBRANCH  12  17
ENDBRANCH  11  12
ENDBRANCH   1  11
TORSDOF 1
ENDMDL
MODEL 4
REMARK VINA RESULT:    -3.291      2.100      4.329
REMARK INTER + INTRA:          -5.432
REMARK INTER:                  -5.011
REMARK INTRA:                  -0.421
REMARK UNBOUND:                -0.410
REMARK SMILES CC1=CCC[C@H](C)C(=O)C[C@H](C(C)C)C(=O)C1
REMARK SMILES IDX 8 1 9 2 6 3 7 4 5 5 4 6 3 7 2 8 1 9 10 11 11 12 15 13 16 14
REMARK SMILES IDX 17 15 12 17 13 18 14 19
REMARK H PARENT
REMARK Flexibility Score: 70.00
ROOT
ATOM      1  C   UNL     1      18.325  27.780  27.995  1.00  0.00     0.136 C 
ATOM      2  O   UNL     1      17.978  27.628  26.833  1.00  0.00    -0.299 OA
ENDROOT
BRANCH   1   3
ATOM      3  C   UNL     1      18.426  26.552  28.884  1.00  0.00     0.053 C 
ATOM      4  C   UNL     1      17.094  25.792  28.978  1.00  0.00     0.016 C 
BRANCH   3   5
ATOM      5  C   UNL     1      19.647  25.669  28.533  1.00  0.00     0.015 C 
BRANCH   5   6
ATOM      6  C   UNL     1      20.913  25.913  29.377  1.00  0.00     0.028 C 
BRANCH   6   7
ATOM      7  C   UNL     1      21.964  26.626  28.569  1.00  0.00    -0.028 C 
ATOM      8  C   UNL     1      22.480  27.838  28.881  1.00  0.00    -0.070 CG0
ATOM      9  C   UNL     1      23.579  28.385  28.005  1.00  0.00     0.039 C 
ATOM     10  G   UNL     1      21.990  28.672  30.055  1.00  0.00     0.000 G0
ENDBRANCH   6   7
ENDBRANCH   5   6
ENDBRANCH   3   5
ENDBRANCH   1   3
BRANCH   1  11
ATOM     11  C   UNL     1      18.654  29.179  28.467  1.00  0.00     0.087 C 
BRANCH  11  12
ATOM     12  C   UNL     1      19.390  29.177  29.831  1.00  0.00     0.066 C 
BRANCH  12  13
ATOM     13  C   UNL     1      20.851  29.601  29.715  1.00  0.00     0.140 C 
ATOM     14  O   UNL     1      21.102  30.698  29.237  1.00  0.00    -0.299 OA
BRANCH  13  15
ATOM     15  C   UNL     1      22.002  28.687  30.069  1.00  0.00     0.106 CG0
ATOM     16  G   UNL     1      22.466  27.847  28.889  1.00  0.00     0.000 G0
ENDBRANCH  13  15
ENDBRANCH  12  13
BRANCH  12  17
ATOM     17  C   UNL     1      18.595  29.931  30.943  1.00  0.00    -0.006 C 
ATOM     18  C   UNL     1      18.057  29.039  32.076  1.00  0.00     0.008 C 
ATOM     19  C   UNL     1      17.459  30.781  30.353  1.00  0.00     0.008 C 
ENDBRANCH  12  17
ENDBRANCH  11  12
ENDBRANCH   1  11
TORSDOF 1
ENDMDL
MODEL 5
REMARK VINA RESULT:    -3.214      1.591      2.257
REMARK INTER + INTRA:          -5.315
REMARK INTER:                  -5.269
REMARK INTRA:                  -0.045
REMARK UNBOUND:                -0.410
REMARK SMILES CC1=CCC[C@H](C)C(=O)C[C@H](C(C)C)C(=O)C1
REMARK SMILES IDX 8 1 9 2 6 3 7 4 5 5 4 6 3 7 2 8 1 9 10 11 11 12 15 13 16 14
REMARK SMILES IDX 17 15 12 17 13 18 14 19
REMARK H PARENT
REMARK Flexibility Score: 70.00
ROOT
ATOM      1  C   UNL     1      20.682  25.901  28.625  1.00  0.00     0.136 C 
ATOM      2  O   UNL     1      21.811  25.435  28.679  1.00  0.00    -0.299 OA
ENDROOT
BRANCH   1   3
ATOM      3  C   UNL     1      19.786  25.488  27.471  1.00  0.00     0.053 C 
ATOM      4  C   UNL     1      20.537  24.652  26.423  1.00  0.00     0.016 C 
BRANCH   3   5
ATOM      5  C   UNL     1      18.452  24.868  27.952  1.00  0.00     0.015 C 
BRANCH   5   6
ATOM      6  C   UNL     1      17.194  25.726  27.718  1.00  0.00     0.028 C 
BRANCH   6   7
ATOM      7  C   UNL     1      16.360  25.803  28.970  1.00  0.00    -0.028 C 
ATOM      8  C   UNL     1      16.164  26.931  29.692  1.00  0.00    -0.070 CG0
ATOM      9  C   UNL     1      15.243  26.856  30.884  1.00  0.00     0.039 C 
ATOM     10  G   UNL     1      16.842  28.254  29.367  1.00  0.00     0.000 G0
ENDBRANCH   6   7
ENDBRANCH   5   6
ENDBRANCH   3   5
ENDBRANCH   1   3
BRANCH   1  11
ATOM     11  C   UNL     1      20.242  26.842  29.726  1.00  0.00     0.087 C 
BRANCH  11  12
ATOM     12  C   UNL     1      19.491  28.078  29.171  1.00  0.00     0.066 C 
BRANCH  12  13
ATOM     13  C   UNL     1      18.221  28.398  29.954  1.00  0.00     0.140 C 
ATOM     14  O   UNL     1      18.326  28.698  31.134  1.00  0.00    -0.299 OA
BRANCH  13  15
ATOM     15  C   UNL     1      16.836  28.262  29.363  1.00  0.00     0.106 CG0
ATOM     16  G   UNL     1      16.178  26.936  29.715  1.00  0.00     0.000 G0
ENDBRANCH  13  15
ENDBRANCH  12  13
BRANCH  12  17
ATOM     17  C   UNL     1      20.431  29.305  28.955  1.00  0.00    -0.006 C 
ATOM     18  C   UNL     1      21.593  29.419  29.957  1.00  0.00     0.008 C 
ATOM     19  C   UNL     1      19.643  30.624  28.905  1.00  0.00     0.008 C 
ENDBRANCH  12  17
ENDBRANCH  11  12
ENDBRANCH   1  11
TORSDOF 1
ENDMDL
MODEL 6
REMARK VINA RESULT:    -3.194      2.152      4.470
REMARK INTER + INTRA:          -5.284
REMARK INTER:                  -5.185
REMARK INTRA:                  -0.099
REMARK UNBOUND:                -0.410
REMARK SMILES CC1=CCC[C@H](C)C(=O)C[C@H](C(C)C)C(=O)C1
REMARK SMILES IDX 8 1 9 2 6 3 7 4 5 5 4 6 3 7 2 8 1 9 10 11 11 12 15 13 16 14
REMARK SMILES IDX 17 15 12 17 13 18 14 19
REMARK H PARENT
REMARK Flexibility Score: 70.00
ROOT
ATOM      1  C   UNL     1      16.865  26.342  28.005  1.00  0.00     0.136 C 
ATOM      2  O   UNL     1      15.648  26.327  27.885  1.00  0.00    -0.299 OA
ENDROOT
BRANCH   1   3
ATOM      3  C   UNL     1      17.616  25.027  27.896  1.00  0.00     0.053 C 
ATOM      4  C   UNL     1      16.815  23.963  27.130  1.00  0.00     0.016 C 
BRANCH   3   5
ATOM      5  C   UNL     1      19.070  25.217  27.402  1.00  0.00     0.015 C 
BRANCH   5   6
ATOM      6  C   UNL     1      20.166  25.073  28.476  1.00  0.00     0.028 C 
BRANCH   6   7
ATOM      7  C   UNL     1      21.303  26.023  28.209  1.00  0.00    -0.028 C 
ATOM      8  C   UNL     1      21.585  27.113  28.961  1.00  0.00    -0.070 CG0
ATOM      9  C   UNL     1      22.804  27.924  28.600  1.00  0.00     0.039 C 
ATOM     10  G   UNL     1      20.721  27.560  30.130  1.00  0.00     0.000 G0
ENDBRANCH   6   7
ENDBRANCH   5   6
ENDBRANCH   3   5
ENDBRANCH   1   3
BRANCH   1  11
ATOM     11  C   UNL     1      17.546  27.674  28.229  1.00  0.00     0.087 C 
BRANCH  11  12
ATOM     12  C   UNL     1      18.107  27.808  29.668  1.00  0.00     0.066 C 
BRANCH  12  13
ATOM     13  C   UNL     1      19.519  28.384  29.701  1.00  0.00     0.140 C 
ATOM     14  O   UNL     1      19.694  29.519  29.283  1.00  0.00    -0.299 OA
BRANCH  13  15
ATOM     15  C   UNL     1      20.724  27.578  30.130  1.00  0.00     0.106 CG0
ATOM     16  G   UNL     1      21.575  27.125  28.953  1.00  0.00     0.000 G0
ENDBRANCH  13  15
ENDBRANCH  12  13
BRANCH  12  17
ATOM     17  C   UNL     1      17.109  28.515  30.638  1.00  0.00    -0.006 C 
ATOM     18  C   UNL     1      16.135  27.574  31.369  1.00  0.00     0.008 C 
ATOM     19  C   UNL     1      16.333  29.639  29.935  1.00  0.00     0.008 C 
ENDBRANCH  12  17
ENDBRANCH  11  12
ENDBRANCH   1  11
TORSDOF 1
ENDMDL
MODEL 7
REMARK VINA RESULT:    -3.135      2.668      5.467
REMARK INTER + INTRA:          -5.195
REMARK INTER:                  -4.724
REMARK INTRA:                  -0.471
REMARK UNBOUND:                -0.410
REMARK SMILES CC1=CCC[C@H](C)C(=O)C[C@H](C(C)C)C(=O)C1
REMARK SMILES IDX 8 1 9 2 6 3 7 4 5 5 4 6 3 7 2 8 1 9 10 11 11 12 15 13 16 14
REMARK SMILES IDX 17 15 12 17 13 18 14 19
REMARK H PARENT
REMARK Flexibility Score: 70.00
ROOT
ATOM      1  C   UNL     1      19.300  31.131  31.323  1.00  0.00     0.136 C 
ATOM      2  O   UNL     1      19.977  31.459  32.287  1.00  0.00    -0.299 OA
ENDROOT
BRANCH   1   3
ATOM      3  C   UNL     1      19.961  31.098  29.956  1.00  0.00     0.053 C 
ATOM      4  C   UNL     1      20.604  32.444  29.589  1.00  0.00     0.016 C 
BRANCH   3   5
ATOM      5  C   UNL     1      20.888  29.872  29.778  1.00  0.00     0.015 C 
BRANCH   5   6
ATOM      6  C   UNL     1      20.310  28.523  30.247  1.00  0.00     0.028 C 
BRANCH   6   7
ATOM      7  C   UNL     1      19.584  27.834  29.121  1.00  0.00    -0.028 C 
ATOM      8  C   UNL     1      18.242  27.671  29.061  1.00  0.00    -0.070 CG0
ATOM      9  C   UNL     1      17.663  27.021  27.830  1.00  0.00     0.039 C 
ATOM     10  G   UNL     1      17.303  28.096  30.180  1.00  0.00     0.000 G0
ENDBRANCH   6   7
ENDBRANCH   5   6
ENDBRANCH   3   5
ENDBRANCH   1   3
BRANCH   1  11
ATOM     11  C   UNL     1      17.854  30.755  31.559  1.00  0.00     0.087 C 
BRANCH  11  12
ATOM     12  C   UNL     1      17.031  30.751  30.246  1.00  0.00     0.066 C 
BRANCH  12  13
ATOM     13  C   UNL     1      16.533  29.361  29.864  1.00  0.00     0.140 C 
ATOM     14  O   UNL     1      15.429  29.259  29.349  1.00  0.00    -0.299 OA
BRANCH  13  15
ATOM     15  C   UNL     1      17.299  28.098  30.186  1.00  0.00     0.106 CG0
ATOM     16  G   UNL     1      18.239  27.681  29.064  1.00  0.00     0.000 G0
ENDBRANCH  13  15
ENDBRANCH  12  13
BRANCH  12  17
ATOM     17  C   UNL     1      15.922  31.850  30.229  1.00  0.00    -0.006 C 
ATOM     18  C   UNL     1      16.241  33.084  29.367  1.00  0.00     0.008 C 
ATOM     19  C   UNL     1      15.531  32.284  31.651  1.00  0.00     0.008 C 
ENDBRANCH  12  17
ENDBRANCH  11  12
ENDBRANCH   1  11
TORSDOF 1
ENDMDL
MODEL 8
REMARK VINA RESULT:    -3.114      2.232      4.544
REMARK INTER + INTRA:          -5.162
REMARK INTER:                  -4.958
REMARK INTRA:                  -0.204
REMARK UNBOUND:                -0.410
REMARK SMILES CC1=CCC[C@H](C)C(=O)C[C@H](C(C)C)C(=O)C1
REMARK SMILES IDX 8 1 9 2 6 3 7 4 5 5 4 6 3 7 2 8 1 9 10 11 11 12 15 13 16 14
REMARK SMILES IDX 17 15 12 17 13 18 14 19
REMARK H PARENT
REMARK Flexibility Score: 70.00
ROOT
ATOM      1  C   UNL     1      18.714  26.048  28.074  1.00  0.00     0.136 C 
ATOM      2  O   UNL     1      18.902  25.032  27.420  1.00  0.00    -0.299 OA
ENDROOT
BRANCH   1   3
ATOM      3  C   UNL     1      19.785  26.479  29.060  1.00  0.00     0.053 C 
ATOM      4  C   UNL     1      20.646  25.299  29.536  1.00  0.00     0.016 C 
BRANCH   3   5
ATOM      5  C   UNL     1      20.591  27.701  28.558  1.00  0.00     0.015 C 
BRANCH   5   6
ATOM      6  C   UNL     1      19.937  29.077  28.795  1.00  0.00     0.028 C 
BRANCH   6   7
ATOM      7  C   UNL     1      19.435  29.191  30.210  1.00  0.00    -0.028 C 
ATOM      8  C   UNL     1      18.127  29.250  30.556  1.00  0.00    -0.070 CG0
ATOM      9  C   UNL     1      17.787  29.292  32.024  1.00  0.00     0.039 C 
ATOM     10  G   UNL     1      16.999  29.293  29.536  1.00  0.00     0.000 G0
ENDBRANCH   6   7
ENDBRANCH   5   6
ENDBRANCH   3   5
ENDBRANCH   1   3
BRANCH   1  11
ATOM     11  C   UNL     1      17.436  26.823  27.841  1.00  0.00     0.087 C 
BRANCH  11  12
ATOM     12  C   UNL     1      16.462  26.718  29.042  1.00  0.00     0.066 C 
BRANCH  12  13
ATOM     13  C   UNL     1      16.084  28.079  29.617  1.00  0.00     0.140 C 
ATOM     14  O   UNL     1      14.965  28.221  30.089  1.00  0.00    -0.299 OA
BRANCH  13  15
ATOM     15  C   UNL     1      16.993  29.285  29.537  1.00  0.00     0.106 CG0
ATOM     16  G   UNL     1      18.116  29.240  30.562  1.00  0.00     0.000 G0
ENDBRANCH  13  15
ENDBRANCH  12  13
BRANCH  12  17
ATOM     17  C   UNL     1      15.241  25.791  28.745  1.00  0.00    -0.006 C 
ATOM     18  C   UNL     1      15.050  24.630  29.736  1.00  0.00     0.008 C 
ATOM     19  C   UNL     1      15.267  25.260  27.304  1.00  0.00     0.008 C 
ENDBRANCH  12  17
ENDBRANCH  11  12
ENDBRANCH   1  11
TORSDOF 1
ENDMDL
MODEL 9
REMARK VINA RESULT:    -3.041      1.779      4.041
REMARK INTER + INTRA:          -5.051
REMARK INTER:                  -5.070
REMARK INTRA:                   0.019
REMARK UNBOUND:                -0.410
REMARK SMILES CC1=CCC[C@H](C)C(=O)C[C@H](C(C)C)C(=O)C1
REMARK SMILES IDX 8 1 9 2 6 3 7 4 5 5 4 6 3 7 2 8 1 9 10 11 11 12 15 13 16 14
REMARK SMILES IDX 17 15 12 17 13 18 14 19
REMARK H PARENT
REMARK Flexibility Score: 70.00
ROOT
ATOM      1  C   UNL     1      19.277  26.789  28.031  1.00  0.00     0.136 C 
ATOM      2  O   UNL     1      18.934  25.857  27.316  1.00  0.00    -0.299 OA
ENDROOT
BRANCH   1   3
ATOM      3  C   UNL     1      20.485  26.600  28.931  1.00  0.00     0.053 C 
ATOM      4  C   UNL     1      20.527  25.200  29.562  1.00  0.00     0.016 C 
BRANCH   3   5
ATOM      5  C   UNL     1      21.803  27.039  28.249  1.00  0.00     0.015 C 
BRANCH   5   6
ATOM      6  C   UNL     1      22.200  28.514  28.448  1.00  0.00     0.028 C 
BRANCH   6   7
ATOM      7  C   UNL     1      21.997  28.933  29.880  1.00  0.00    -0.028 C 
ATOM      8  C   UNL     1      21.092  29.853  30.289  1.00  0.00    -0.070 CG0
ATOM      9  C   UNL     1      20.963  30.110  31.769  1.00  0.00     0.039 C 
ATOM     10  G   UNL     1      20.221  30.646  29.325  1.00  0.00     0.000 G0
ENDBRANCH   6   7
ENDBRANCH   5   6
ENDBRANCH   3   5
ENDBRANCH   1   3
BRANCH   1  11
ATOM     11  C   UNL     1      18.489  28.078  27.953  1.00  0.00     0.087 C 
BRANCH  11  12
ATOM     12  C   UNL     1      18.339  28.755  29.338  1.00  0.00     0.066 C 
BRANCH  12  13
ATOM     13  C   UNL     1      18.772  30.218  29.331  1.00  0.00     0.140 C 
ATOM     14  O   UNL     1      17.908  31.079  29.254  1.00  0.00    -0.299 OA
BRANCH  13  15
ATOM     15  C   UNL     1      20.221  30.645  29.313  1.00  0.00     0.106 CG0
ATOM     16  G   UNL     1      21.079  29.847  30.283  1.00  0.00     0.000 G0
ENDBRANCH  13  15
ENDBRANCH  12  13
BRANCH  12  17
ATOM     17  C   UNL     1      16.936  28.509  29.979  1.00  0.00    -0.006 C 
ATOM     18  C   UNL     1      16.870  28.718  31.501  1.00  0.00     0.008 C 
ATOM     19  C   UNL     1      16.377  27.127  29.608  1.00  0.00     0.008 C 
ENDBRANCH  12  17
ENDBRANCH  11  12
ENDBRANCH   1  11
TORSDOF 1
ENDMDL
