MODEL 1
REMARK VINA RESULT:     4.104      0.000      0.000
REMARK INTER + INTRA:           9.644
REMARK INTER:                  10.821
REMARK INTRA:                  -1.177
REMARK UNBOUND:                -1.177
REMARK SMILES CCCCCCCCCCCCCCCCCCCCCCCCCCCCCC(=O)[O-]
REMARK SMILES IDX 16 1 17 2 18 3 19 4 20 5 21 6 22 7 23 8 24 9 25 10 26 11
REMARK SMILES IDX 27 12 28 13 29 14 30 15 31 16 32 17 15 18 14 19 13 20 12 21
REMARK SMILES IDX 11 22 10 23 9 24 8 25 7 26 6 27 5 28 4 29 3 30 2 31 1 32
REMARK H PARENT
REMARK Flexibility Score: inf
ROOT
ATOM      1  C   UNL     1     -10.936   3.949   0.033  1.00  0.00     0.000 C 
ENDROOT
BRANCH   1   2
ATOM      2  C   UNL     1     -12.153   3.384   0.795  1.00  0.00     0.000 C 
BRANCH   2   3
ATOM      3  C   UNL     1     -13.448   3.271  -0.030  1.00  0.00     0.000 C 
BRANCH   3   4
ATOM      4  C   UNL     1     -14.226   1.976   0.247  1.00  0.00     0.000 C 
BRANCH   4   5
ATOM      5  C   UNL     1     -15.683   2.111  -0.214  1.00  0.00     0.000 C 
BRANCH   5   6
ATOM      6  C   UNL     1     -16.458   0.805  -0.002  1.00  0.00     0.000 C 
BRANCH   6   7
ATOM      7  C   UNL     1     -16.801   0.153  -1.347  1.00  0.00     0.000 C 
BRANCH   7   8
ATOM      8  C   UNL     1     -16.891  -1.376  -1.224  1.00  0.00     0.000 C 
BRANCH   8   9
ATOM      9  C   UNL     1     -16.071  -2.105  -2.309  1.00  0.00     0.000 C 
BRANCH   9  10
ATOM     10  C   UNL     1     -16.814  -2.279  -3.648  1.00  0.00     0.000 C 
BRANCH  10  11
ATOM     11  C   UNL     1     -16.381  -3.498  -4.478  1.00  0.00     0.000 C 
BRANCH  11  12
ATOM     12  C   UNL     1     -14.856  -3.697  -4.496  1.00  0.00     0.000 C 
BRANCH  12  13
ATOM     13  C   UNL     1     -14.428  -5.046  -3.899  1.00  0.00     0.006 C 
BRANCH  13  14
ATOM     14  C   UNL     1     -13.093  -4.964  -3.143  1.00  0.00     0.053 C 
BRANCH  14  15
ATOM     15  C   UNL     1     -13.316  -4.837  -1.668  1.00  0.00     0.041 C 
ATOM     16  O   UNL     1     -12.393  -5.119  -0.856  1.00  0.00    -0.550 OA
ATOM     17  O   UNL     1     -14.555  -4.429  -1.185  1.00  0.00    -0.550 OA
ENDBRANCH  14  15
ENDBRANCH  13  14
ENDBRANCH  12  13
ENDBRANCH  11  12
ENDBRANCH  10  11
ENDBRANCH   9  10
ENDBRANCH   8   9
ENDBRANCH   7   8
ENDBRANCH   6   7
ENDBRANCH   5   6
ENDBRANCH   4   5
ENDBRANCH   3   4
ENDBRANCH   2   3
ENDBRANCH   1   2
BRANCH   1  18
ATOM     18  C   UNL     1      -9.586   3.806   0.759  1.00  0.00     0.000 C 
BRANCH  18  19
ATOM     19  C   UNL     1      -8.661   2.708   0.200  1.00  0.00     0.000 C 
BRANCH  19  20
ATOM     20  C   UNL     1      -7.193   2.837   0.664  1.00  0.00     0.000 C 
BRANCH  20  21
ATOM     21  C   UNL     1      -6.933   4.144   1.433  1.00  0.00     0.000 C 
BRANCH  21  22
ATOM     22  C   UNL     1      -5.459   4.313   1.841  1.00  0.00     0.000 C 
BRANCH  22  23
ATOM     23  C   UNL     1      -4.501   3.510   0.947  1.00  0.00     0.000 C 
BRANCH  23  24
ATOM     24  C   UNL     1      -3.281   3.023   1.746  1.00  0.00    -0.000 C 
BRANCH  24  25
ATOM     25  C   UNL     1      -3.660   2.024   2.852  1.00  0.00    -0.000 C 
BRANCH  25  26
ATOM     26  C   UNL     1      -2.996   2.355   4.200  1.00  0.00    -0.000 C 
BRANCH  26  27
ATOM     27  C   UNL     1      -2.481   1.104   4.934  1.00  0.00    -0.000 C 
BRANCH  27  28
ATOM     28  C   UNL     1      -1.241   0.444   4.299  1.00  0.00    -0.000 C 
BRANCH  28  29
ATOM     29  C   UNL     1       0.096   1.046   4.783  1.00  0.00    -0.000 C 
BRANCH  29  30
ATOM     30  C   UNL     1       1.174  -0.028   4.990  1.00  0.00    -0.000 C 
BRANCH  30  31
ATOM     31  C   UNL     1       2.567   0.603   5.110  1.00  0.00    -0.003 C 
ATOM     32  C   UNL     1       2.556   1.780   6.080  1.00  0.00     0.004 C 
ENDBRANCH  30  31
ENDBRANCH  29  30
ENDBRANCH  28  29
ENDBRANCH  27  28
ENDBRANCH  26  27
ENDBRANCH  25  26
ENDBRANCH  24  25
ENDBRANCH  23  24
ENDBRANCH  22  23
ENDBRANCH  21  22
ENDBRANCH  20  21
ENDBRANCH  19  20
ENDBRANCH  18  19
ENDBRANCH   1  18
TORSDOF 28
ENDMDL
MODEL 2
REMARK VINA RESULT:     4.194      4.487     14.668
REMARK INTER + INTRA:           9.882
REMARK INTER:                  10.974
REMARK INTRA:                  -1.092
REMARK UNBOUND:                -1.177
REMARK SMILES CCCCCCCCCCCCCCCCCCCCCCCCCCCCCC(=O)[O-]
REMARK SMILES IDX 16 1 17 2 18 3 19 4 20 5 21 6 22 7 23 8 24 9 25 10 26 11
REMARK SMILES IDX 27 12 28 13 29 14 30 15 31 16 32 17 15 18 14 19 13 20 12 21
REMARK SMILES IDX 11 22 10 23 9 24 8 25 7 26 6 27 5 28 4 29 3 30 2 31 1 32
REMARK H PARENT
REMARK Flexibility Score: inf
ROOT
ATOM      1  C   UNL     1      -9.734   3.532   0.312  1.00  0.00     0.000 C 
ENDROOT
BRANCH   1   2
ATOM      2  C   UNL     1      -8.365   3.121   0.892  1.00  0.00     0.000 C 
BRANCH   2   3
ATOM      3  C   UNL     1      -7.314   2.697  -0.149  1.00  0.00     0.000 C 
BRANCH   3   4
ATOM      4  C   UNL     1      -5.975   2.286   0.481  1.00  0.00     0.000 C 
BRANCH   4   5
ATOM      5  C   UNL     1      -5.492   3.353   1.471  1.00  0.00     0.000 C 
BRANCH   5   6
ATOM      6  C   UNL     1      -3.962   3.384   1.557  1.00  0.00     0.000 C 
BRANCH   6   7
ATOM      7  C   UNL     1      -3.429   2.112   2.227  1.00  0.00     0.000 C 
BRANCH   7   8
ATOM      8  C   UNL     1      -3.299   2.290   3.748  1.00  0.00     0.000 C 
BRANCH   8   9
ATOM      9  C   UNL     1      -2.767   1.021   4.447  1.00  0.00     0.000 C 
BRANCH   9  10
ATOM     10  C   UNL     1      -1.356   1.177   5.046  1.00  0.00     0.000 C 
BRANCH  10  11
ATOM     11  C   UNL     1      -0.262   0.343   4.359  1.00  0.00     0.000 C 
BRANCH  11  12
ATOM     12  C   UNL     1       1.153   0.889   4.613  1.00  0.00     0.000 C 
BRANCH  12  13
ATOM     13  C   UNL     1       2.208  -0.223   4.709  1.00  0.00     0.006 C 
BRANCH  13  14
ATOM     14  C   UNL     1       2.703  -0.449   6.147  1.00  0.00     0.053 C 
BRANCH  14  15
ATOM     15  C   UNL     1       2.610  -1.894   6.528  1.00  0.00     0.041 C 
ATOM     16  O   UNL     1       2.462  -2.780   5.643  1.00  0.00    -0.550 OA
ATOM     17  O   UNL     1       2.662  -2.263   7.868  1.00  0.00    -0.550 OA
ENDBRANCH  14  15
ENDBRANCH  13  14
ENDBRANCH  12  13
ENDBRANCH  11  12
ENDBRANCH  10  11
ENDBRANCH   9  10
ENDBRANCH   8   9
ENDBRANCH   7   8
ENDBRANCH   6   7
ENDBRANCH   5   6
ENDBRANCH   4   5
ENDBRANCH   3   4
ENDBRANCH   2   3
ENDBRANCH   1   2
BRANCH   1  18
ATOM     18  C   UNL     1     -10.947   3.203   1.201  1.00  0.00     0.000 C 
BRANCH  18  19
ATOM     19  C   UNL     1     -12.319   3.412   0.533  1.00  0.00     0.000 C 
BRANCH  19  20
ATOM     20  C   UNL     1     -13.292   2.227   0.727  1.00  0.00     0.000 C 
BRANCH  20  21
ATOM     21  C   UNL     1     -14.591   2.396  -0.081  1.00  0.00     0.000 C 
BRANCH  21  22
ATOM     22  C   UNL     1     -15.541   1.195   0.060  1.00  0.00     0.000 C 
BRANCH  22  23
ATOM     23  C   UNL     1     -16.362   0.936  -1.213  1.00  0.00     0.000 C 
BRANCH  23  24
ATOM     24  C   UNL     1     -17.070  -0.427  -1.144  1.00  0.00    -0.000 C 
BRANCH  24  25
ATOM     25  C   UNL     1     -16.738  -1.327  -2.346  1.00  0.00    -0.000 C 
BRANCH  25  26
ATOM     26  C   UNL     1     -16.620  -2.811  -1.959  1.00  0.00    -0.000 C 
BRANCH  26  27
ATOM     27  C   UNL     1     -15.185  -3.215  -1.579  1.00  0.00    -0.000 C 
BRANCH  27  28
ATOM     28  C   UNL     1     -14.635  -4.442  -2.334  1.00  0.00    -0.000 C 
BRANCH  28  29
ATOM     29  C   UNL     1     -14.717  -4.311  -3.870  1.00  0.00    -0.000 C 
BRANCH  29  30
ATOM     30  C   UNL     1     -13.483  -4.900  -4.569  1.00  0.00    -0.000 C 
BRANCH  30  31
ATOM     31  C   UNL     1     -13.671  -4.931  -6.091  1.00  0.00    -0.003 C 
ATOM     32  C   UNL     1     -14.745  -3.942  -6.533  1.00  0.00     0.004 C 
ENDBRANCH  30  31
ENDBRANCH  29  30
ENDBRANCH  28  29
ENDBRANCH  27  28
ENDBRANCH  26  27
ENDBRANCH  25  26
ENDBRANCH  24  25
ENDBRANCH  23  24
ENDBRANCH  22  23
ENDBRANCH  21  22
ENDBRANCH  20  21
ENDBRANCH  19  20
ENDBRANCH  18  19
ENDBRANCH   1  18
TORSDOF 28
ENDMDL
MODEL 3
REMARK VINA RESULT:     4.234      2.038      2.430
REMARK INTER + INTRA:           9.989
REMARK INTER:                  11.223
REMARK INTRA:                  -1.234
REMARK UNBOUND:                -1.177
REMARK SMILES CCCCCCCCCCCCCCCCCCCCCCCCCCCCCC(=O)[O-]
REMARK SMILES IDX 16 1 17 2 18 3 19 4 20 5 21 6 22 7 23 8 24 9 25 10 26 11
REMARK SMILES IDX 27 12 28 13 29 14 30 15 31 16 32 17 15 18 14 19 13 20 12 21
REMARK SMILES IDX 11 22 10 23 9 24 8 25 7 26 6 27 5 28 4 29 3 30 2 31 1 32
REMARK H PARENT
REMARK Flexibility Score: inf
ROOT
ATOM      1  C   UNL     1     -10.831   4.017   0.027  1.00  0.00     0.000 C 
ENDROOT
BRANCH   1   2
ATOM      2  C   UNL     1     -12.027   3.407   0.787  1.00  0.00     0.000 C 
BRANCH   2   3
ATOM      3  C   UNL     1     -13.374   3.467   0.045  1.00  0.00     0.000 C 
BRANCH   3   4
ATOM      4  C   UNL     1     -14.118   2.123   0.038  1.00  0.00     0.000 C 
BRANCH   4   5
ATOM      5  C   UNL     1     -15.592   2.322  -0.334  1.00  0.00     0.000 C 
BRANCH   5   6
ATOM      6  C   UNL     1     -16.438   1.108   0.068  1.00  0.00     0.000 C 
BRANCH   6   7
ATOM      7  C   UNL     1     -16.705   0.207  -1.143  1.00  0.00     0.000 C 
BRANCH   7   8
ATOM      8  C   UNL     1     -16.916  -1.255  -0.721  1.00  0.00     0.000 C 
BRANCH   8   9
ATOM      9  C   UNL     1     -16.007  -2.230  -1.498  1.00  0.00     0.000 C 
BRANCH   9  10
ATOM     10  C   UNL     1     -16.567  -2.654  -2.870  1.00  0.00     0.000 C 
BRANCH  10  11
ATOM     11  C   UNL     1     -16.086  -4.025  -3.374  1.00  0.00     0.000 C 
BRANCH  11  12
ATOM     12  C   UNL     1     -14.680  -3.971  -3.995  1.00  0.00     0.000 C 
BRANCH  12  13
ATOM     13  C   UNL     1     -14.707  -3.610  -5.488  1.00  0.00     0.006 C 
BRANCH  13  14
ATOM     14  C   UNL     1     -14.290  -4.782  -6.390  1.00  0.00     0.053 C 
BRANCH  14  15
ATOM     15  C   UNL     1     -15.028  -4.749  -7.693  1.00  0.00     0.041 C 
ATOM     16  O   UNL     1     -16.285  -4.850  -7.718  1.00  0.00    -0.550 OA
ATOM     17  O   UNL     1     -14.324  -4.630  -8.887  1.00  0.00    -0.550 OA
ENDBRANCH  14  15
ENDBRANCH  13  14
ENDBRANCH  12  13
ENDBRANCH  11  12
ENDBRANCH  10  11
ENDBRANCH   9  10
ENDBRANCH   8   9
ENDBRANCH   7   8
ENDBRANCH   6   7
ENDBRANCH   5   6
ENDBRANCH   4   5
ENDBRANCH   3   4
ENDBRANCH   2   3
ENDBRANCH   1   2
BRANCH   1  18
ATOM     18  C   UNL     1      -9.471   3.893   0.738  1.00  0.00     0.000 C 
BRANCH  18  19
ATOM     19  C   UNL     1      -8.524   2.829   0.150  1.00  0.00     0.000 C 
BRANCH  19  20
ATOM     20  C   UNL     1      -7.093   2.884   0.729  1.00  0.00     0.000 C 
BRANCH  20  21
ATOM     21  C   UNL     1      -6.794   4.220   1.431  1.00  0.00     0.000 C 
BRANCH  21  22
ATOM     22  C   UNL     1      -5.318   4.360   1.842  1.00  0.00     0.000 C 
BRANCH  22  23
ATOM     23  C   UNL     1      -4.378   3.511   0.972  1.00  0.00     0.000 C 
BRANCH  23  24
ATOM     24  C   UNL     1      -3.113   3.116   1.753  1.00  0.00    -0.000 C 
BRANCH  24  25
ATOM     25  C   UNL     1      -3.310   1.843   2.592  1.00  0.00    -0.000 C 
BRANCH  25  26
ATOM     26  C   UNL     1      -2.872   2.026   4.056  1.00  0.00    -0.000 C 
BRANCH  26  27
ATOM     27  C   UNL     1      -2.635   0.688   4.779  1.00  0.00    -0.000 C 
BRANCH  27  28
ATOM     28  C   UNL     1      -1.303  -0.007   4.436  1.00  0.00    -0.000 C 
BRANCH  28  29
ATOM     29  C   UNL     1      -0.057   0.831   4.798  1.00  0.00    -0.000 C 
BRANCH  29  30
ATOM     30  C   UNL     1       1.142  -0.050   5.181  1.00  0.00    -0.000 C 
BRANCH  30  31
ATOM     31  C   UNL     1       2.291   0.115   4.178  1.00  0.00    -0.003 C 
ATOM     32  C   UNL     1       2.533   1.587   3.856  1.00  0.00     0.004 C 
ENDBRANCH  30  31
ENDBRANCH  29  30
ENDBRANCH  28  29
ENDBRANCH  27  28
ENDBRANCH  26  27
ENDBRANCH  25  26
ENDBRANCH  24  25
ENDBRANCH  23  24
ENDBRANCH  22  23
ENDBRANCH  21  22
ENDBRANCH  20  21
ENDBRANCH  19  20
ENDBRANCH  18  19
ENDBRANCH   1  18
TORSDOF 28
ENDMDL
MODEL 4
REMARK VINA RESULT:     4.467      1.675      3.169
REMARK INTER + INTRA:          10.601
REMARK INTER:                  11.700
REMARK INTRA:                  -1.098
REMARK UNBOUND:                -1.177
REMARK SMILES CCCCCCCCCCCCCCCCCCCCCCCCCCCCCC(=O)[O-]
REMARK SMILES IDX 16 1 17 2 18 3 19 4 20 5 21 6 22 7 23 8 24 9 25 10 26 11
REMARK SMILES IDX 27 12 28 13 29 14 30 15 31 16 32 17 15 18 14 19 13 20 12 21
REMARK SMILES IDX 11 22 10 23 9 24 8 25 7 26 6 27 5 28 4 29 3 30 2 31 1 32
REMARK H PARENT
REMARK Flexibility Score: inf
ROOT
ATOM      1  C   UNL     1      -8.425   3.367   1.022  1.00  0.00     0.000 C 
ENDROOT
BRANCH   1   2
ATOM      2  C   UNL     1      -9.876   2.953   0.704  1.00  0.00     0.000 C 
BRANCH   2   3
ATOM      3  C   UNL     1     -10.778   4.081   0.173  1.00  0.00     0.000 C 
BRANCH   3   4
ATOM      4  C   UNL     1     -12.218   4.000   0.701  1.00  0.00     0.000 C 
BRANCH   4   5
ATOM      5  C   UNL     1     -12.847   2.646   0.350  1.00  0.00     0.000 C 
BRANCH   5   6
ATOM      6  C   UNL     1     -14.348   2.783   0.071  1.00  0.00     0.000 C 
BRANCH   6   7
ATOM      7  C   UNL     1     -15.028   1.409   0.068  1.00  0.00     0.000 C 
BRANCH   7   8
ATOM      8  C   UNL     1     -16.423   1.473  -0.574  1.00  0.00     0.000 C 
BRANCH   8   9
ATOM      9  C   UNL     1     -17.026   0.073  -0.815  1.00  0.00     0.000 C 
BRANCH   9  10
ATOM     10  C   UNL     1     -16.133  -0.862  -1.653  1.00  0.00     0.000 C 
BRANCH  10  11
ATOM     11  C   UNL     1     -16.788  -2.190  -2.066  1.00  0.00     0.000 C 
BRANCH  11  12
ATOM     12  C   UNL     1     -15.853  -3.397  -1.886  1.00  0.00     0.000 C 
BRANCH  12  13
ATOM     13  C   UNL     1     -15.765  -4.270  -3.148  1.00  0.00     0.006 C 
BRANCH  13  14
ATOM     14  C   UNL     1     -16.229  -3.531  -4.413  1.00  0.00     0.053 C 
BRANCH  14  15
ATOM     15  C   UNL     1     -15.074  -3.234  -5.318  1.00  0.00     0.041 C 
ATOM     16  O   UNL     1     -15.186  -2.377  -6.236  1.00  0.00    -0.550 OA
ATOM     17  O   UNL     1     -13.875  -3.923  -5.164  1.00  0.00    -0.550 OA
ENDBRANCH  14  15
ENDBRANCH  13  14
ENDBRANCH  12  13
ENDBRANCH  11  12
ENDBRANCH  10  11
ENDBRANCH   9  10
ENDBRANCH   8   9
ENDBRANCH   7   8
ENDBRANCH   6   7
ENDBRANCH   5   6
ENDBRANCH   4   5
ENDBRANCH   3   4
ENDBRANCH   2   3
ENDBRANCH   1   2
BRANCH   1  18
ATOM     18  C   UNL     1      -7.341   2.401   0.509  1.00  0.00     0.000 C 
BRANCH  18  19
ATOM     19  C   UNL     1      -5.981   3.055   0.199  1.00  0.00     0.000 C 
BRANCH  19  20
ATOM     20  C   UNL     1      -5.127   3.340   1.455  1.00  0.00     0.000 C 
BRANCH  20  21
ATOM     21  C   UNL     1      -3.618   3.319   1.156  1.00  0.00     0.000 C 
BRANCH  21  22
ATOM     22  C   UNL     1      -2.794   2.690   2.292  1.00  0.00     0.000 C 
BRANCH  22  23
ATOM     23  C   UNL     1      -3.622   1.736   3.167  1.00  0.00     0.000 C 
BRANCH  23  24
ATOM     24  C   UNL     1      -2.987   1.574   4.557  1.00  0.00    -0.000 C 
BRANCH  24  25
ATOM     25  C   UNL     1      -1.453   1.475   4.499  1.00  0.00    -0.000 C 
BRANCH  25  26
ATOM     26  C   UNL     1      -0.932   0.094   4.934  1.00  0.00    -0.000 C 
BRANCH  26  27
ATOM     27  C   UNL     1       0.548  -0.125   4.576  1.00  0.00    -0.000 C 
BRANCH  27  28
ATOM     28  C   UNL     1       1.431   1.136   4.669  1.00  0.00    -0.000 C 
BRANCH  28  29
ATOM     29  C   UNL     1       2.905   0.834   5.018  1.00  0.00    -0.000 C 
BRANCH  29  30
ATOM     30  C   UNL     1       3.040   0.051   6.332  1.00  0.00    -0.000 C 
BRANCH  30  31
ATOM     31  C   UNL     1       3.083  -1.460   6.073  1.00  0.00    -0.003 C 
ATOM     32  C   UNL     1       3.094  -2.243   7.383  1.00  0.00     0.004 C 
ENDBRANCH  30  31
ENDBRANCH  29  30
ENDBRANCH  28  29
ENDBRANCH  27  28
ENDBRANCH  26  27
ENDBRANCH  25  26
ENDBRANCH  24  25
ENDBRANCH  23  24
ENDBRANCH  22  23
ENDBRANCH  21  22
ENDBRANCH  20  21
ENDBRANCH  19  20
ENDBRANCH  18  19
ENDBRANCH   1  18
TORSDOF 28
ENDMDL
MODEL 5
REMARK VINA RESULT:     4.726      4.525     14.130
REMARK INTER + INTRA:          11.286
REMARK INTER:                  12.758
REMARK INTRA:                  -1.472
REMARK UNBOUND:                -1.177
REMARK SMILES CCCCCCCCCCCCCCCCCCCCCCCCCCCCCC(=O)[O-]
REMARK SMILES IDX 16 1 17 2 18 3 19 4 20 5 21 6 22 7 23 8 24 9 25 10 26 11
REMARK SMILES IDX 27 12 28 13 29 14 30 15 31 16 32 17 15 18 14 19 13 20 12 21
REMARK SMILES IDX 11 22 10 23 9 24 8 25 7 26 6 27 5 28 4 29 3 30 2 31 1 32
REMARK H PARENT
REMARK Flexibility Score: inf
ROOT
ATOM      1  C   UNL     1     -10.915   4.237   0.446  1.00  0.00     0.000 C 
ENDROOT
BRANCH   1   2
ATOM      2  C   UNL     1      -9.553   3.767  -0.104  1.00  0.00     0.000 C 
BRANCH   2   3
ATOM      3  C   UNL     1      -8.668   3.006   0.899  1.00  0.00     0.000 C 
BRANCH   3   4
ATOM      4  C   UNL     1      -7.732   3.929   1.695  1.00  0.00     0.000 C 
BRANCH   4   5
ATOM      5  C   UNL     1      -6.427   4.170   0.927  1.00  0.00     0.000 C 
BRANCH   5   6
ATOM      6  C   UNL     1      -5.354   3.145   1.313  1.00  0.00     0.000 C 
BRANCH   6   7
ATOM      7  C   UNL     1      -3.997   3.524   0.709  1.00  0.00     0.000 C 
BRANCH   7   8
ATOM      8  C   UNL     1      -2.840   3.163   1.653  1.00  0.00     0.000 C 
BRANCH   8   9
ATOM      9  C   UNL     1      -3.142   1.912   2.504  1.00  0.00     0.000 C 
BRANCH   9  10
ATOM     10  C   UNL     1      -3.330   2.203   4.006  1.00  0.00     0.000 C 
BRANCH  10  11
ATOM     11  C   UNL     1      -2.430   1.381   4.945  1.00  0.00     0.000 C 
BRANCH  11  12
ATOM     12  C   UNL     1      -1.721   0.221   4.226  1.00  0.00     0.000 C 
BRANCH  12  13
ATOM     13  C   UNL     1      -0.353  -0.108   4.844  1.00  0.00     0.006 C 
BRANCH  13  14
ATOM     14  C   UNL     1       0.710   0.958   4.536  1.00  0.00     0.053 C 
BRANCH  14  15
ATOM     15  C   UNL     1       2.046   0.562   5.084  1.00  0.00     0.041 C 
ATOM     16  O   UNL     1       3.087   1.184   4.738  1.00  0.00    -0.550 OA
ATOM     17  O   UNL     1       2.146  -0.513   5.962  1.00  0.00    -0.550 OA
ENDBRANCH  14  15
ENDBRANCH  13  14
ENDBRANCH  12  13
ENDBRANCH  11  12
ENDBRANCH  10  11
ENDBRANCH   9  10
ENDBRANCH   8   9
ENDBRANCH   7   8
ENDBRANCH   6   7
ENDBRANCH   5   6
ENDBRANCH   4   5
ENDBRANCH   3   4
ENDBRANCH   2   3
ENDBRANCH   1   2
BRANCH   1  18
ATOM     18  C   UNL     1     -11.847   3.113   0.934  1.00  0.00     0.000 C 
BRANCH  18  19
ATOM     19  C   UNL     1     -13.289   3.185   0.398  1.00  0.00     0.000 C 
BRANCH  19  20
ATOM     20  C   UNL     1     -13.964   1.804   0.241  1.00  0.00     0.000 C 
BRANCH  20  21
ATOM     21  C   UNL     1     -15.378   1.906  -0.359  1.00  0.00     0.000 C 
BRANCH  21  22
ATOM     22  C   UNL     1     -16.396   1.006   0.360  1.00  0.00     0.000 C 
BRANCH  22  23
ATOM     23  C   UNL     1     -16.655  -0.311  -0.388  1.00  0.00     0.000 C 
BRANCH  23  24
ATOM     24  C   UNL     1     -16.052  -0.269  -1.802  1.00  0.00    -0.000 C 
BRANCH  24  25
ATOM     25  C   UNL     1     -16.696  -1.294  -2.750  1.00  0.00    -0.000 C 
BRANCH  25  26
ATOM     26  C   UNL     1     -17.125  -2.582  -2.025  1.00  0.00    -0.000 C 
BRANCH  26  27
ATOM     27  C   UNL     1     -16.300  -3.809  -2.452  1.00  0.00    -0.000 C 
BRANCH  27  28
ATOM     28  C   UNL     1     -14.772  -3.629  -2.352  1.00  0.00    -0.000 C 
BRANCH  28  29
ATOM     29  C   UNL     1     -13.971  -4.811  -2.941  1.00  0.00    -0.000 C 
BRANCH  29  30
ATOM     30  C   UNL     1     -13.060  -4.374  -4.098  1.00  0.00    -0.000 C 
BRANCH  30  31
ATOM     31  C   UNL     1     -13.450  -5.076  -5.404  1.00  0.00    -0.003 C 
ATOM     32  C   UNL     1     -14.286  -4.161  -6.293  1.00  0.00     0.004 C 
ENDBRANCH  30  31
ENDBRANCH  29  30
ENDBRANCH  28  29
ENDBRANCH  27  28
ENDBRANCH  26  27
ENDBRANCH  25  26
ENDBRANCH  24  25
ENDBRANCH  23  24
ENDBRANCH  22  23
ENDBRANCH  21  22
ENDBRANCH  20  21
ENDBRANCH  19  20
ENDBRANCH  18  19
ENDBRANCH   1  18
TORSDOF 28
ENDMDL
MODEL 6
REMARK VINA RESULT:     5.480      4.600     14.893
REMARK INTER + INTRA:          13.273
REMARK INTER:                  13.551
REMARK INTRA:                  -0.279
REMARK UNBOUND:                -1.177
REMARK SMILES CCCCCCCCCCCCCCCCCCCCCCCCCCCCCC(=O)[O-]
REMARK SMILES IDX 16 1 17 2 18 3 19 4 20 5 21 6 22 7 23 8 24 9 25 10 26 11
REMARK SMILES IDX 27 12 28 13 29 14 30 15 31 16 32 17 15 18 14 19 13 20 12 21
REMARK SMILES IDX 11 22 10 23 9 24 8 25 7 26 6 27 5 28 4 29 3 30 2 31 1 32
REMARK H PARENT
REMARK Flexibility Score: inf
ROOT
ATOM      1  C   UNL     1      -8.758   3.219   0.370  1.00  0.00     0.000 C 
ENDROOT
BRANCH   1   2
ATOM      2  C   UNL     1      -7.735   3.630   1.448  1.00  0.00     0.000 C 
BRANCH   2   3
ATOM      3  C   UNL     1      -6.409   4.197   0.910  1.00  0.00     0.000 C 
BRANCH   3   4
ATOM      4  C   UNL     1      -5.221   3.945   1.851  1.00  0.00     0.000 C 
BRANCH   4   5
ATOM      5  C   UNL     1      -4.005   3.439   1.066  1.00  0.00     0.000 C 
BRANCH   5   6
ATOM      6  C   UNL     1      -2.970   2.794   1.994  1.00  0.00     0.000 C 
BRANCH   6   7
ATOM      7  C   UNL     1      -3.660   2.018   3.122  1.00  0.00     0.000 C 
BRANCH   7   8
ATOM      8  C   UNL     1      -2.876   2.124   4.439  1.00  0.00     0.000 C 
BRANCH   8   9
ATOM      9  C   UNL     1      -1.483   1.466   4.351  1.00  0.00     0.000 C 
BRANCH   9  10
ATOM     10  C   UNL     1      -1.490  -0.057   4.584  1.00  0.00     0.000 C 
BRANCH  10  11
ATOM     11  C   UNL     1      -0.311  -0.594   5.412  1.00  0.00     0.000 C 
BRANCH  11  12
ATOM     12  C   UNL     1       1.054  -0.300   4.766  1.00  0.00     0.000 C 
BRANCH  12  13
ATOM     13  C   UNL     1       2.232  -0.698   5.667  1.00  0.00     0.006 C 
BRANCH  13  14
ATOM     14  C   UNL     1       3.124   0.497   6.041  1.00  0.00     0.053 C 
BRANCH  14  15
ATOM     15  C   UNL     1       2.723   1.725   5.284  1.00  0.00     0.041 C 
ATOM     16  O   UNL     1       2.357   1.642   4.080  1.00  0.00    -0.550 OA
ATOM     17  O   UNL     1       2.777   2.970   5.903  1.00  0.00    -0.550 OA
ENDBRANCH  14  15
ENDBRANCH  13  14
ENDBRANCH  12  13
ENDBRANCH  11  12
ENDBRANCH  10  11
ENDBRANCH   9  10
ENDBRANCH   8   9
ENDBRANCH   7   8
ENDBRANCH   6   7
ENDBRANCH   5   6
ENDBRANCH   4   5
ENDBRANCH   3   4
ENDBRANCH   2   3
ENDBRANCH   1   2
BRANCH   1  18
ATOM     18  C   UNL     1     -10.117   3.939   0.448  1.00  0.00     0.000 C 
BRANCH  18  19
ATOM     19  C   UNL     1     -11.278   3.082   0.986  1.00  0.00     0.000 C 
BRANCH  19  20
ATOM     20  C   UNL     1     -12.653   3.448   0.384  1.00  0.00     0.000 C 
BRANCH  20  21
ATOM     21  C   UNL     1     -13.690   2.326   0.566  1.00  0.00     0.000 C 
BRANCH  21  22
ATOM     22  C   UNL     1     -14.702   2.258  -0.591  1.00  0.00     0.000 C 
BRANCH  22  23
ATOM     23  C   UNL     1     -16.044   1.640  -0.169  1.00  0.00     0.000 C 
BRANCH  23  24
ATOM     24  C   UNL     1     -15.826   0.410   0.728  1.00  0.00    -0.000 C 
BRANCH  24  25
ATOM     25  C   UNL     1     -16.408  -0.876   0.119  1.00  0.00    -0.000 C 
BRANCH  25  26
ATOM     26  C   UNL     1     -15.986  -1.080  -1.346  1.00  0.00    -0.000 C 
BRANCH  26  27
ATOM     27  C   UNL     1     -16.813  -2.165  -2.060  1.00  0.00    -0.000 C 
BRANCH  27  28
ATOM     28  C   UNL     1     -16.139  -3.550  -2.133  1.00  0.00    -0.000 C 
BRANCH  28  29
ATOM     29  C   UNL     1     -15.204  -3.719  -3.351  1.00  0.00    -0.000 C 
BRANCH  29  30
ATOM     30  C   UNL     1     -15.678  -2.902  -4.562  1.00  0.00    -0.000 C 
BRANCH  30  31
ATOM     31  C   UNL     1     -15.664  -3.750  -5.840  1.00  0.00    -0.003 C 
ATOM     32  C   UNL     1     -14.293  -4.379  -6.067  1.00  0.00     0.004 C 
ENDBRANCH  30  31
ENDBRANCH  29  30
ENDBRANCH  28  29
ENDBRANCH  27  28
ENDBRANCH  26  27
ENDBRANCH  25  26
ENDBRANCH  24  25
ENDBRANCH  23  24
ENDBRANCH  22  23
ENDBRANCH  21  22
ENDBRANCH  20  21
ENDBRANCH  19  20
ENDBRANCH  18  19
ENDBRANCH   1  18
TORSDOF 28
ENDMDL
MODEL 7
REMARK VINA RESULT:     5.897      1.685      4.315
REMARK INTER + INTRA:          14.374
REMARK INTER:                  15.673
REMARK INTRA:                  -1.299
REMARK UNBOUND:                -1.177
REMARK SMILES CCCCCCCCCCCCCCCCCCCCCCCCCCCCCC(=O)[O-]
REMARK SMILES IDX 16 1 17 2 18 3 19 4 20 5 21 6 22 7 23 8 24 9 25 10 26 11
REMARK SMILES IDX 27 12 28 13 29 14 30 15 31 16 32 17 15 18 14 19 13 20 12 21
REMARK SMILES IDX 11 22 10 23 9 24 8 25 7 26 6 27 5 28 4 29 3 30 2 31 1 32
REMARK H PARENT
REMARK Flexibility Score: inf
ROOT
ATOM      1  C   UNL     1      -7.270   1.662  -0.354  1.00  0.00     0.000 C 
ENDROOT
BRANCH   1   2
ATOM      2  C   UNL     1      -8.360   2.205   0.592  1.00  0.00     0.000 C 
BRANCH   2   3
ATOM      3  C   UNL     1      -8.483   3.739   0.638  1.00  0.00     0.000 C 
BRANCH   3   4
ATOM      4  C   UNL     1      -9.922   4.233   0.425  1.00  0.00     0.000 C 
BRANCH   4   5
ATOM      5  C   UNL     1     -10.932   3.148   0.817  1.00  0.00     0.000 C 
BRANCH   5   6
ATOM      6  C   UNL     1     -12.360   3.549   0.434  1.00  0.00     0.000 C 
BRANCH   6   7
ATOM      7  C   UNL     1     -13.227   2.307   0.192  1.00  0.00     0.000 C 
BRANCH   7   8
ATOM      8  C   UNL     1     -14.722   2.627   0.347  1.00  0.00     0.000 C 
BRANCH   8   9
ATOM      9  C   UNL     1     -15.625   1.487  -0.170  1.00  0.00     0.000 C 
BRANCH   9  10
ATOM     10  C   UNL     1     -15.445   0.152   0.580  1.00  0.00     0.000 C 
BRANCH  10  11
ATOM     11  C   UNL     1     -16.416  -0.964   0.162  1.00  0.00     0.000 C 
BRANCH  11  12
ATOM     12  C   UNL     1     -17.056  -0.715  -1.214  1.00  0.00     0.000 C 
BRANCH  12  13
ATOM     13  C   UNL     1     -17.101  -1.981  -2.083  1.00  0.00     0.006 C 
BRANCH  13  14
ATOM     14  C   UNL     1     -16.238  -1.863  -3.349  1.00  0.00     0.053 C 
BRANCH  14  15
ATOM     15  C   UNL     1     -15.452  -3.115  -3.584  1.00  0.00     0.041 C 
ATOM     16  O   UNL     1     -15.282  -3.947  -2.651  1.00  0.00    -0.550 OA
ATOM     17  O   UNL     1     -14.883  -3.354  -4.831  1.00  0.00    -0.550 OA
ENDBRANCH  14  15
ENDBRANCH  13  14
ENDBRANCH  12  13
ENDBRANCH  11  12
ENDBRANCH  10  11
ENDBRANCH   9  10
ENDBRANCH   8   9
ENDBRANCH   7   8
ENDBRANCH   6   7
ENDBRANCH   5   6
ENDBRANCH   4   5
ENDBRANCH   3   4
ENDBRANCH   2   3
ENDBRANCH   1   2
BRANCH   1  18
ATOM     18  C   UNL     1      -5.869   1.527   0.271  1.00  0.00     0.000 C 
BRANCH  18  19
ATOM     19  C   UNL     1      -5.513   2.608   1.309  1.00  0.00     0.000 C 
BRANCH  19  20
ATOM     20  C   UNL     1      -4.067   3.138   1.186  1.00  0.00     0.000 C 
BRANCH  20  21
ATOM     21  C   UNL     1      -3.087   2.389   2.107  1.00  0.00     0.000 C 
BRANCH  21  22
ATOM     22  C   UNL     1      -3.732   1.954   3.434  1.00  0.00     0.000 C 
BRANCH  22  23
ATOM     23  C   UNL     1      -2.707   1.402   4.437  1.00  0.00     0.000 C 
BRANCH  23  24
ATOM     24  C   UNL     1      -1.407   0.991   3.727  1.00  0.00    -0.000 C 
BRANCH  24  25
ATOM     25  C   UNL     1      -0.179   1.074   4.648  1.00  0.00    -0.000 C 
BRANCH  25  26
ATOM     26  C   UNL     1       1.066   1.618   3.927  1.00  0.00    -0.000 C 
BRANCH  26  27
ATOM     27  C   UNL     1       2.349   1.479   4.765  1.00  0.00    -0.000 C 
BRANCH  27  28
ATOM     28  C   UNL     1       2.210   0.599   6.023  1.00  0.00    -0.000 C 
BRANCH  28  29
ATOM     29  C   UNL     1       3.124  -0.646   6.011  1.00  0.00    -0.000 C 
BRANCH  29  30
ATOM     30  C   UNL     1       2.335  -1.941   5.770  1.00  0.00    -0.000 C 
BRANCH  30  31
ATOM     31  C   UNL     1       3.097  -3.160   6.306  1.00  0.00    -0.003 C 
ATOM     32  C   UNL     1       3.074  -4.308   5.301  1.00  0.00     0.004 C 
ENDBRANCH  30  31
ENDBRANCH  29  30
ENDBRANCH  28  29
ENDBRANCH  27  28
ENDBRANCH  26  27
ENDBRANCH  25  26
ENDBRANCH  24  25
ENDBRANCH  23  24
ENDBRANCH  22  23
ENDBRANCH  21  22
ENDBRANCH  20  21
ENDBRANCH  19  20
ENDBRANCH  18  19
ENDBRANCH   1  18
TORSDOF 28
ENDMDL
MODEL 8
REMARK VINA RESULT:     6.115      4.197     12.690
REMARK INTER + INTRA:          14.949
REMARK INTER:                  14.732
REMARK INTRA:                   0.217
REMARK UNBOUND:                -1.177
REMARK SMILES CCCCCCCCCCCCCCCCCCCCCCCCCCCCCC(=O)[O-]
REMARK SMILES IDX 16 1 17 2 18 3 19 4 20 5 21 6 22 7 23 8 24 9 25 10 26 11
REMARK SMILES IDX 27 12 28 13 29 14 30 15 31 16 32 17 15 18 14 19 13 20 12 21
REMARK SMILES IDX 11 22 10 23 9 24 8 25 7 26 6 27 5 28 4 29 3 30 2 31 1 32
REMARK H PARENT
REMARK Flexibility Score: inf
ROOT
ATOM      1  C   UNL     1     -16.452  -0.283  -2.532  1.00  0.00     0.000 C 
ENDROOT
BRANCH   1   2
ATOM      2  C   UNL     1     -16.995   0.146  -1.154  1.00  0.00     0.000 C 
BRANCH   2   3
ATOM      3  C   UNL     1     -16.915   1.655  -0.859  1.00  0.00     0.000 C 
BRANCH   3   4
ATOM      4  C   UNL     1     -15.479   2.145  -0.618  1.00  0.00     0.000 C 
BRANCH   4   5
ATOM      5  C   UNL     1     -14.794   1.302   0.464  1.00  0.00     0.000 C 
BRANCH   5   6
ATOM      6  C   UNL     1     -13.593   2.039   1.069  1.00  0.00     0.000 C 
BRANCH   6   7
ATOM      7  C   UNL     1     -13.343   3.363   0.337  1.00  0.00     0.000 C 
BRANCH   7   8
ATOM      8  C   UNL     1     -12.026   4.014   0.786  1.00  0.00     0.000 C 
BRANCH   8   9
ATOM      9  C   UNL     1     -10.889   2.985   0.961  1.00  0.00     0.000 C 
BRANCH   9  10
ATOM     10  C   UNL     1      -9.495   3.516   0.573  1.00  0.00     0.000 C 
BRANCH  10  11
ATOM     11  C   UNL     1      -8.425   3.395   1.670  1.00  0.00     0.000 C 
BRANCH  11  12
ATOM     12  C   UNL     1      -7.183   4.258   1.389  1.00  0.00     0.000 C 
BRANCH  12  13
ATOM     13  C   UNL     1      -5.936   3.415   1.077  1.00  0.00     0.006 C 
BRANCH  13  14
ATOM     14  C   UNL     1      -4.719   3.822   1.922  1.00  0.00     0.053 C 
BRANCH  14  15
ATOM     15  C   UNL     1      -3.527   2.979   1.590  1.00  0.00     0.041 C 
ATOM     16  O   UNL     1      -3.354   1.865   2.158  1.00  0.00    -0.550 OA
ATOM     17  O   UNL     1      -2.588   3.434   0.670  1.00  0.00    -0.550 OA
ENDBRANCH  14  15
ENDBRANCH  13  14
ENDBRANCH  12  13
ENDBRANCH  11  12
ENDBRANCH  10  11
ENDBRANCH   9  10
ENDBRANCH   8   9
ENDBRANCH   7   8
ENDBRANCH   6   7
ENDBRANCH   5   6
ENDBRANCH   4   5
ENDBRANCH   3   4
ENDBRANCH   2   3
ENDBRANCH   1   2
BRANCH   1  18
ATOM     18  C   UNL     1     -17.058  -1.580  -3.099  1.00  0.00     0.000 C 
BRANCH  18  19
ATOM     19  C   UNL     1     -16.807  -2.840  -2.250  1.00  0.00     0.000 C 
BRANCH  19  20
ATOM     20  C   UNL     1     -17.020  -4.162  -3.021  1.00  0.00     0.000 C 
BRANCH  20  21
ATOM     21  C   UNL     1     -16.249  -4.195  -4.353  1.00  0.00     0.000 C 
BRANCH  21  22
ATOM     22  C   UNL     1     -17.101  -4.722  -5.521  1.00  0.00     0.000 C 
BRANCH  22  23
ATOM     23  C   UNL     1     -16.274  -4.970  -6.792  1.00  0.00     0.000 C 
BRANCH  23  24
ATOM     24  C   UNL     1     -14.768  -4.915  -6.489  1.00  0.00    -0.000 C 
BRANCH  24  25
ATOM     25  C   UNL     1     -13.939  -4.452  -7.699  1.00  0.00    -0.000 C 
BRANCH  25  26
ATOM     26  C   UNL     1     -12.447  -4.280  -7.362  1.00  0.00    -0.000 C 
BRANCH  26  27
ATOM     27  C   UNL     1     -12.097  -4.762  -5.943  1.00  0.00    -0.000 C 
BRANCH  27  28
ATOM     28  C   UNL     1     -12.858  -4.047  -4.809  1.00  0.00    -0.000 C 
BRANCH  28  29
ATOM     29  C   UNL     1     -13.392  -5.006  -3.722  1.00  0.00    -0.000 C 
BRANCH  29  30
ATOM     30  C   UNL     1     -12.510  -5.004  -2.465  1.00  0.00    -0.000 C 
BRANCH  30  31
ATOM     31  C   UNL     1     -13.363  -5.077  -1.192  1.00  0.00    -0.003 C 
ATOM     32  C   UNL     1     -14.297  -3.876  -1.086  1.00  0.00     0.004 C 
ENDBRANCH  30  31
ENDBRANCH  29  30
ENDBRANCH  28  29
ENDBRANCH  27  28
ENDBRANCH  26  27
ENDBRANCH  25  26
ENDBRANCH  24  25
ENDBRANCH  23  24
ENDBRANCH  22  23
ENDBRANCH  21  22
ENDBRANCH  20  21
ENDBRANCH  19  20
ENDBRANCH  18  19
ENDBRANCH   1  18
TORSDOF 28
ENDMDL
