MODEL 1
REMARK VINA RESULT:    18.880      0.000      0.000
REMARK INTER + INTRA:          30.974
REMARK INTER:                  28.814
REMARK INTRA:                   2.161
REMARK UNBOUND:                 2.161
REMARK SMILES CC1=CCC[C@@H](C)C(=O)C[C@H](C(C)C)C(=O)C1
REMARK SMILES IDX 8 1 9 2 6 3 7 4 5 5 4 6 3 7 2 8 1 9 10 11 11 12 15 13 16 14
REMARK SMILES IDX 17 15 12 17 13 18 14 19
REMARK H PARENT
REMARK Flexibility Score: 70.00
ROOT
ATOM      1  C   UNL     1      35.248  11.983  40.566  1.00  0.00     0.136 C 
ATOM      2  O   UNL     1      34.445  12.493  39.796  1.00  0.00    -0.299 OA
ENDROOT
BRANCH   1   3
ATOM      3  C   UNL     1      35.649  10.537  40.378  1.00  0.00     0.053 C 
ATOM      4  C   UNL     1      37.027  10.454  39.712  1.00  0.00     0.016 C 
BRANCH   3   5
ATOM      5  C   UNL     1      34.599   9.763  39.558  1.00  0.00     0.015 C 
BRANCH   5   6
ATOM      6  C   UNL     1      33.489   9.145  40.434  1.00  0.00     0.028 C 
BRANCH   6   7
ATOM      7  C   UNL     1      32.404  10.150  40.744  1.00  0.00    -0.028 C 
ATOM      8  C   UNL     1      32.393  11.070  41.740  1.00  0.00    -0.070 CG0
ATOM      9  C   UNL     1      31.156  11.922  41.882  1.00  0.00     0.039 C 
ATOM     10  G   UNL     1      33.537  11.309  42.711  1.00  0.00     0.000 G0
ENDBRANCH   6   7
ENDBRANCH   5   6
ENDBRANCH   3   5
ENDBRANCH   1   3
BRANCH   1  11
ATOM     11  C   UNL     1      35.902  12.810  41.649  1.00  0.00     0.087 C 
BRANCH  11  12
ATOM     12  C   UNL     1      34.896  13.630  42.495  1.00  0.00     0.066 C 
BRANCH  12  13
ATOM     13  C   UNL     1      33.718  12.813  43.011  1.00  0.00     0.140 C 
ATOM     14  O   UNL     1      32.915  13.367  43.747  1.00  0.00    -0.299 OA
BRANCH  13  15
ATOM     15  C   UNL     1      33.540  11.336  42.732  1.00  0.00     0.106 CG0
ATOM     16  G   UNL     1      32.409  11.094  41.748  1.00  0.00     0.000 G0
ENDBRANCH  13  15
ENDBRANCH  12  13
BRANCH  12  17
ATOM     17  C   UNL     1      35.553  14.450  43.649  1.00  0.00    -0.006 C 
ATOM     18  C   UNL     1      37.089  14.365  43.681  1.00  0.00     0.008 C 
ATOM     19  C   UNL     1      35.109  15.921  43.635  1.00  0.00     0.008 C 
ENDBRANCH  12  17
ENDBRANCH  11  12
ENDBRANCH   1  11
TORSDOF 1
ENDMDL
MODEL 2
REMARK VINA RESULT:    20.483      3.255      4.927
REMARK INTER + INTRA:          33.420
REMARK INTER:                  32.276
REMARK INTRA:                   1.144
REMARK UNBOUND:                 2.161
REMARK SMILES CC1=CCC[C@@H](C)C(=O)C[C@H](C(C)C)C(=O)C1
REMARK SMILES IDX 8 1 9 2 6 3 7 4 5 5 4 6 3 7 2 8 1 9 10 11 11 12 15 13 16 14
REMARK SMILES IDX 17 15 12 17 13 18 14 19
REMARK H PARENT
REMARK Flexibility Score: 70.00
ROOT
ATOM      1  C   UNL     1      33.975  13.892  40.012  1.00  0.00     0.136 C 
ATOM      2  O   UNL     1      32.839  13.762  39.578  1.00  0.00    -0.299 OA
ENDROOT
BRANCH   1   3
ATOM      3  C   UNL     1      34.731  12.680  40.508  1.00  0.00     0.053 C 
ATOM      4  C   UNL     1      33.757  11.663  41.114  1.00  0.00     0.016 C 
BRANCH   3   5
ATOM      5  C   UNL     1      35.816  13.071  41.529  1.00  0.00     0.015 C 
BRANCH   5   6
ATOM      6  C   UNL     1      35.251  13.308  42.945  1.00  0.00     0.028 C 
BRANCH   6   7
ATOM      7  C   UNL     1      35.767  14.598  43.540  1.00  0.00    -0.028 C 
ATOM      8  C   UNL     1      35.162  15.812  43.526  1.00  0.00    -0.070 CG0
ATOM      9  C   UNL     1      35.916  16.967  44.136  1.00  0.00     0.039 C 
ATOM     10  G   UNL     1      33.783  16.086  42.951  1.00  0.00     0.000 G0
ENDBRANCH   6   7
ENDBRANCH   5   6
ENDBRANCH   3   5
ENDBRANCH   1   3
BRANCH   1  11
ATOM     11  C   UNL     1      34.658  15.241  39.979  1.00  0.00     0.087 C 
BRANCH  11  12
ATOM     12  C   UNL     1      33.709  16.424  40.298  1.00  0.00     0.066 C 
BRANCH  12  13
ATOM     13  C   UNL     1      33.849  16.957  41.718  1.00  0.00     0.140 C 
ATOM     14  O   UNL     1      34.110  18.142  41.861  1.00  0.00    -0.299 OA
BRANCH  13  15
ATOM     15  C   UNL     1      33.771  16.082  42.951  1.00  0.00     0.106 CG0
ATOM     16  G   UNL     1      35.152  15.810  43.521  1.00  0.00     0.000 G0
ENDBRANCH  13  15
ENDBRANCH  12  13
BRANCH  12  17
ATOM     17  C   UNL     1      33.766  17.585  39.258  1.00  0.00    -0.006 C 
ATOM     18  C   UNL     1      32.520  18.486  39.256  1.00  0.00     0.008 C 
ATOM     19  C   UNL     1      35.033  18.441  39.419  1.00  0.00     0.008 C 
ENDBRANCH  12  17
ENDBRANCH  11  12
ENDBRANCH   1  11
TORSDOF 1
ENDMDL
MODEL 3
REMARK VINA RESULT:    20.704      2.431      5.125
REMARK INTER + INTRA:          33.758
REMARK INTER:                  30.502
REMARK INTRA:                   3.256
REMARK UNBOUND:                 2.161
REMARK SMILES CC1=CCC[C@@H](C)C(=O)C[C@H](C(C)C)C(=O)C1
REMARK SMILES IDX 8 1 9 2 6 3 7 4 5 5 4 6 3 7 2 8 1 9 10 11 11 12 15 13 16 14
REMARK SMILES IDX 17 15 12 17 13 18 14 19
REMARK H PARENT
REMARK Flexibility Score: 70.00
ROOT
ATOM      1  C   UNL     1      36.068  13.249  42.362  1.00  0.00     0.136 C 
ATOM      2  O   UNL     1      36.965  12.945  41.587  1.00  0.00    -0.299 OA
ENDROOT
BRANCH   1   3
ATOM      3  C   UNL     1      36.163  14.536  43.150  1.00  0.00     0.053 C 
ATOM      4  C   UNL     1      37.042  14.330  44.389  1.00  0.00     0.016 C 
BRANCH   3   5
ATOM      5  C   UNL     1      34.769  15.055  43.551  1.00  0.00     0.015 C 
BRANCH   5   6
ATOM      6  C   UNL     1      34.623  16.581  43.373  1.00  0.00     0.028 C 
BRANCH   6   7
ATOM      7  C   UNL     1      33.982  16.927  42.049  1.00  0.00    -0.028 C 
ATOM      8  C   UNL     1      34.136  16.282  40.867  1.00  0.00    -0.070 CG0
ATOM      9  C   UNL     1      33.433  16.864  39.665  1.00  0.00     0.039 C 
ATOM     10  G   UNL     1      34.952  15.016  40.670  1.00  0.00     0.000 G0
ENDBRANCH   6   7
ENDBRANCH   5   6
ENDBRANCH   3   5
ENDBRANCH   1   3
BRANCH   1  11
ATOM     11  C   UNL     1      34.828  12.391  42.472  1.00  0.00     0.087 C 
BRANCH  11  12
ATOM     12  C   UNL     1      33.648  12.891  41.599  1.00  0.00     0.066 C 
BRANCH  12  13
ATOM     13  C   UNL     1      34.078  13.784  40.441  1.00  0.00     0.140 C 
ATOM     14  O   UNL     1      33.757  13.449  39.310  1.00  0.00    -0.299 OA
BRANCH  13  15
ATOM     15  C   UNL     1      34.951  15.008  40.609  1.00  0.00     0.106 CG0
ATOM     16  G   UNL     1      34.116  16.244  40.896  1.00  0.00     0.000 G0
ENDBRANCH  13  15
ENDBRANCH  12  13
BRANCH  12  17
ATOM     17  C   UNL     1      32.695  11.759  41.106  1.00  0.00    -0.006 C 
ATOM     18  C   UNL     1      33.419  10.584  40.426  1.00  0.00     0.008 C 
ATOM     19  C   UNL     1      31.791  11.236  42.233  1.00  0.00     0.008 C 
ENDBRANCH  12  17
ENDBRANCH  11  12
ENDBRANCH   1  11
TORSDOF 1
ENDMDL
MODEL 4
REMARK VINA RESULT:    21.544      2.724      4.469
REMARK INTER + INTRA:          35.039
REMARK INTER:                  34.630
REMARK INTRA:                   0.409
REMARK UNBOUND:                 2.161
REMARK SMILES CC1=CCC[C@@H](C)C(=O)C[C@H](C(C)C)C(=O)C1
REMARK SMILES IDX 8 1 9 2 6 3 7 4 5 5 4 6 3 7 2 8 1 9 10 11 11 12 15 13 16 14
REMARK SMILES IDX 17 15 12 17 13 18 14 19
REMARK H PARENT
REMARK Flexibility Score: 70.00
ROOT
ATOM      1  C   UNL     1      34.114  17.309  41.790  1.00  0.00     0.136 C 
ATOM      2  O   UNL     1      33.231  18.067  42.170  1.00  0.00    -0.299 OA
ENDROOT
BRANCH   1   3
ATOM      3  C   UNL     1      34.250  16.997  40.317  1.00  0.00     0.053 C 
ATOM      4  C   UNL     1      33.640  18.127  39.480  1.00  0.00     0.016 C 
BRANCH   3   5
ATOM      5  C   UNL     1      33.600  15.646  39.964  1.00  0.00     0.015 C 
BRANCH   5   6
ATOM      6  C   UNL     1      34.614  14.484  39.921  1.00  0.00     0.028 C 
BRANCH   6   7
ATOM      7  C   UNL     1      34.137  13.300  40.729  1.00  0.00    -0.028 C 
ATOM      8  C   UNL     1      34.756  12.722  41.788  1.00  0.00    -0.070 CG0
ATOM      9  C   UNL     1      34.103  11.502  42.390  1.00  0.00     0.039 C 
ATOM     10  G   UNL     1      36.049  13.219  42.413  1.00  0.00     0.000 G0
ENDBRANCH   6   7
ENDBRANCH   5   6
ENDBRANCH   3   5
ENDBRANCH   1   3
BRANCH   1  11
ATOM     11  C   UNL     1      35.118  16.749  42.772  1.00  0.00     0.087 C 
BRANCH  11  12
ATOM     12  C   UNL     1      34.727  15.358  43.334  1.00  0.00     0.066 C 
BRANCH  12  13
ATOM     13  C   UNL     1      35.883  14.368  43.380  1.00  0.00     0.140 C 
ATOM     14  O   UNL     1      36.743  14.532  44.233  1.00  0.00    -0.299 OA
BRANCH  13  15
ATOM     15  C   UNL     1      36.068  13.251  42.375  1.00  0.00     0.106 CG0
ATOM     16  G   UNL     1      34.731  12.766  41.840  1.00  0.00     0.000 G0
ENDBRANCH  13  15
ENDBRANCH  12  13
BRANCH  12  17
ATOM     17  C   UNL     1      33.982  15.411  44.703  1.00  0.00    -0.006 C 
ATOM     18  C   UNL     1      34.575  16.421  45.700  1.00  0.00     0.008 C 
ATOM     19  C   UNL     1      32.476  15.666  44.531  1.00  0.00     0.008 C 
ENDBRANCH  12  17
ENDBRANCH  11  12
ENDBRANCH   1  11
TORSDOF 1
ENDMDL
