MODEL 1
REMARK VINA RESULT:    -6.690      0.000      0.000
REMARK INTER + INTRA:         -11.563
REMARK INTER:                 -10.600
REMARK INTRA:                  -0.963
REMARK UNBOUND:                -0.963
REMARK SMILES CCCCCCCCCCCC(=O)[O-]
REMARK SMILES IDX 7 1 8 2 9 3 10 4 11 5 12 6 13 7 14 8 6 9 5 10 4 11 3 12 2 13
REMARK SMILES IDX 1 14
REMARK H PARENT
REMARK Flexibility Score: inf
ROOT
ATOM      1  C   UNL     1      28.947  -3.643  19.720  1.00  0.00     0.000 C 
ENDROOT
BRANCH   1   2
ATOM      2  C   UNL     1      28.757  -4.471  18.440  1.00  0.00     0.000 C 
BRANCH   2   3
ATOM      3  C   UNL     1      27.410  -5.217  18.402  1.00  0.00     0.000 C 
BRANCH   3   4
ATOM      4  C   UNL     1      26.791  -5.517  19.783  1.00  0.00     0.006 C 
BRANCH   4   5
ATOM      5  C   UNL     1      25.256  -5.575  19.795  1.00  0.00     0.053 C 
BRANCH   5   6
ATOM      6  C   UNL     1      24.748  -6.942  20.136  1.00  0.00     0.041 C 
ATOM      7  O   UNL     1      25.557  -7.879  20.363  1.00  0.00    -0.550 OA
ATOM      8  O   UNL     1      23.382  -7.173  20.236  1.00  0.00    -0.550 OA
ENDBRANCH   5   6
ENDBRANCH   4   5
ENDBRANCH   3   4
ENDBRANCH   2   3
ENDBRANCH   1   2
BRANCH   1   9
ATOM      9  C   UNL     1      29.311  -2.189  19.383  1.00  0.00     0.000 C 
BRANCH   9  10
ATOM     10  C   UNL     1      28.181  -1.202  19.718  1.00  0.00    -0.000 C 
BRANCH  10  11
ATOM     11  C   UNL     1      27.027  -1.862  20.494  1.00  0.00    -0.000 C 
BRANCH  11  12
ATOM     12  C   UNL     1      25.645  -1.430  19.959  1.00  0.00    -0.000 C 
BRANCH  12  13
ATOM     13  C   UNL     1      25.505   0.091  19.773  1.00  0.00    -0.003 C 
ATOM     14  C   UNL     1      24.101   0.516  19.350  1.00  0.00     0.004 C 
ENDBRANCH  12  13
ENDBRANCH  11  12
ENDBRANCH  10  11
ENDBRANCH   9  10
ENDBRANCH   1   9
TORSDOF 10
ENDMDL
MODEL 2
REMARK VINA RESULT:    -6.571      2.834      5.914
REMARK INTER + INTRA:         -11.375
REMARK INTER:                 -10.604
REMARK INTRA:                  -0.772
REMARK UNBOUND:                -0.963
REMARK SMILES CCCCCCCCCCCC(=O)[O-]
REMARK SMILES IDX 7 1 8 2 9 3 10 4 11 5 12 6 13 7 14 8 6 9 5 10 4 11 3 12 2 13
REMARK SMILES IDX 1 14
REMARK H PARENT
REMARK Flexibility Score: inf
ROOT
ATOM      1  C   UNL     1      25.106  -2.563  19.804  1.00  0.00     0.000 C 
ENDROOT
BRANCH   1   2
ATOM      2  C   UNL     1      26.499  -2.215  20.349  1.00  0.00     0.000 C 
BRANCH   2   3
ATOM      3  C   UNL     1      27.189  -1.087  19.560  1.00  0.00     0.000 C 
BRANCH   3   4
ATOM      4  C   UNL     1      28.699  -1.290  19.317  1.00  0.00     0.006 C 
BRANCH   4   5
ATOM      5  C   UNL     1      29.294  -2.535  19.992  1.00  0.00     0.053 C 
BRANCH   5   6
ATOM      6  C   UNL     1      30.188  -3.302  19.067  1.00  0.00     0.041 C 
ATOM      7  O   UNL     1      31.425  -3.069  19.045  1.00  0.00    -0.550 OA
ATOM      8  O   UNL     1      29.661  -4.297  18.254  1.00  0.00    -0.550 OA
ENDBRANCH   5   6
ENDBRANCH   4   5
ENDBRANCH   3   4
ENDBRANCH   2   3
ENDBRANCH   1   2
BRANCH   1   9
ATOM      9  C   UNL     1      25.084  -3.984  19.221  1.00  0.00     0.000 C 
BRANCH   9  10
ATOM     10  C   UNL     1      26.489  -4.592  19.089  1.00  0.00    -0.000 C 
BRANCH  10  11
ATOM     11  C   UNL     1      26.571  -6.025  19.646  1.00  0.00    -0.000 C 
BRANCH  11  12
ATOM     12  C   UNL     1      25.182  -6.582  20.023  1.00  0.00    -0.000 C 
BRANCH  12  13
ATOM     13  C   UNL     1      25.235  -7.971  20.684  1.00  0.00    -0.003 C 
ATOM     14  C   UNL     1      26.526  -8.729  20.382  1.00  0.00     0.004 C 
ENDBRANCH  12  13
ENDBRANCH  11  12
ENDBRANCH  10  11
ENDBRANCH   9  10
ENDBRANCH   1   9
TORSDOF 10
ENDMDL
MODEL 3
REMARK VINA RESULT:    -6.527      0.855      1.700
REMARK INTER + INTRA:         -11.305
REMARK INTER:                 -10.421
REMARK INTRA:                  -0.884
REMARK UNBOUND:                -0.963
REMARK SMILES CCCCCCCCCCCC(=O)[O-]
REMARK SMILES IDX 7 1 8 2 9 3 10 4 11 5 12 6 13 7 14 8 6 9 5 10 4 11 3 12 2 13
REMARK SMILES IDX 1 14
REMARK H PARENT
REMARK Flexibility Score: inf
ROOT
ATOM      1  C   UNL     1      29.227  -2.146  19.036  1.00  0.00     0.000 C 
ENDROOT
BRANCH   1   2
ATOM      2  C   UNL     1      28.922  -3.532  19.624  1.00  0.00     0.000 C 
BRANCH   2   3
ATOM      3  C   UNL     1      28.494  -4.556  18.557  1.00  0.00     0.000 C 
BRANCH   3   4
ATOM      4  C   UNL     1      26.969  -4.706  18.371  1.00  0.00     0.006 C 
BRANCH   4   5
ATOM      5  C   UNL     1      26.236  -5.312  19.577  1.00  0.00     0.053 C 
BRANCH   5   6
ATOM      6  C   UNL     1      25.764  -6.707  19.304  1.00  0.00     0.041 C 
ATOM      7  O   UNL     1      24.532  -6.962  19.259  1.00  0.00    -0.550 OA
ATOM      8  O   UNL     1      26.685  -7.720  19.066  1.00  0.00    -0.550 OA
ENDBRANCH   5   6
ENDBRANCH   4   5
ENDBRANCH   3   4
ENDBRANCH   2   3
ENDBRANCH   1   2
BRANCH   1   9
ATOM      9  C   UNL     1      28.294  -1.081  19.632  1.00  0.00     0.000 C 
BRANCH   9  10
ATOM     10  C   UNL     1      27.222  -1.682  20.555  1.00  0.00    -0.000 C 
BRANCH  10  11
ATOM     11  C   UNL     1      25.792  -1.453  20.032  1.00  0.00    -0.000 C 
BRANCH  11  12
ATOM     12  C   UNL     1      25.523   0.032  19.707  1.00  0.00    -0.000 C 
BRANCH  12  13
ATOM     13  C   UNL     1      24.055   0.327  19.354  1.00  0.00    -0.003 C 
ATOM     14  C   UNL     1      23.862   1.682  18.678  1.00  0.00     0.004 C 
ENDBRANCH  12  13
ENDBRANCH  11  12
ENDBRANCH  10  11
ENDBRANCH   9  10
ENDBRANCH   1   9
TORSDOF 10
ENDMDL
MODEL 4
REMARK VINA RESULT:    -6.521      0.952      1.686
REMARK INTER + INTRA:         -11.295
REMARK INTER:                 -10.533
REMARK INTRA:                  -0.762
REMARK UNBOUND:                -0.963
REMARK SMILES CCCCCCCCCCCC(=O)[O-]
REMARK SMILES IDX 7 1 8 2 9 3 10 4 11 5 12 6 13 7 14 8 6 9 5 10 4 11 3 12 2 13
REMARK SMILES IDX 1 14
REMARK H PARENT
REMARK Flexibility Score: inf
ROOT
ATOM      1  C   UNL     1      28.480  -4.512  18.629  1.00  0.00     0.000 C 
ENDROOT
BRANCH   1   2
ATOM      2  C   UNL     1      26.975  -4.807  18.711  1.00  0.00     0.000 C 
BRANCH   2   3
ATOM      3  C   UNL     1      26.614  -5.777  19.852  1.00  0.00     0.000 C 
BRANCH   3   4
ATOM      4  C   UNL     1      26.291  -7.218  19.406  1.00  0.00     0.006 C 
BRANCH   4   5
ATOM      5  C   UNL     1      25.727  -8.119  20.516  1.00  0.00     0.053 C 
BRANCH   5   6
ATOM      6  C   UNL     1      24.344  -7.711  20.921  1.00  0.00     0.041 C 
ATOM      7  O   UNL     1      23.947  -7.903  22.100  1.00  0.00    -0.550 OA
ATOM      8  O   UNL     1      23.505  -7.088  20.006  1.00  0.00    -0.550 OA
ENDBRANCH   5   6
ENDBRANCH   4   5
ENDBRANCH   3   4
ENDBRANCH   2   3
ENDBRANCH   1   2
BRANCH   1   9
ATOM      9  C   UNL     1      28.901  -3.506  19.710  1.00  0.00     0.000 C 
BRANCH   9  10
ATOM     10  C   UNL     1      29.123  -2.092  19.149  1.00  0.00    -0.000 C 
BRANCH  10  11
ATOM     11  C   UNL     1      27.953  -1.140  19.457  1.00  0.00    -0.000 C 
BRANCH  11  12
ATOM     12  C   UNL     1      26.999  -1.717  20.525  1.00  0.00    -0.000 C 
BRANCH  12  13
ATOM     13  C   UNL     1      25.520  -1.702  20.102  1.00  0.00    -0.003 C 
ATOM     14  C   UNL     1      25.018  -0.309  19.731  1.00  0.00     0.004 C 
ENDBRANCH  12  13
ENDBRANCH  11  12
ENDBRANCH  10  11
ENDBRANCH   9  10
ENDBRANCH   1   9
TORSDOF 10
ENDMDL
MODEL 5
REMARK VINA RESULT:    -6.377      1.545      3.225
REMARK INTER + INTRA:         -11.068
REMARK INTER:                 -10.093
REMARK INTRA:                  -0.975
REMARK UNBOUND:                -0.963
REMARK SMILES CCCCCCCCCCCC(=O)[O-]
REMARK SMILES IDX 7 1 8 2 9 3 10 4 11 5 12 6 13 7 14 8 6 9 5 10 4 11 3 12 2 13
REMARK SMILES IDX 1 14
REMARK H PARENT
REMARK Flexibility Score: inf
ROOT
ATOM      1  C   UNL     1      25.143  -3.966  19.492  1.00  0.00     0.000 C 
ENDROOT
BRANCH   1   2
ATOM      2  C   UNL     1      26.429  -4.594  18.932  1.00  0.00     0.000 C 
BRANCH   2   3
ATOM      3  C   UNL     1      26.889  -5.830  19.725  1.00  0.00     0.000 C 
BRANCH   3   4
ATOM      4  C   UNL     1      26.223  -7.158  19.310  1.00  0.00     0.006 C 
BRANCH   4   5
ATOM      5  C   UNL     1      25.722  -8.016  20.482  1.00  0.00     0.053 C 
BRANCH   5   6
ATOM      6  C   UNL     1      24.315  -7.674  20.866  1.00  0.00     0.041 C 
ATOM      7  O   UNL     1      23.892  -7.942  22.022  1.00  0.00    -0.550 OA
ATOM      8  O   UNL     1      23.482  -7.030  19.961  1.00  0.00    -0.550 OA
ENDBRANCH   5   6
ENDBRANCH   4   5
ENDBRANCH   3   4
ENDBRANCH   2   3
ENDBRANCH   1   2
BRANCH   1   9
ATOM      9  C   UNL     1      25.327  -2.459  19.728  1.00  0.00     0.000 C 
BRANCH   9  10
ATOM     10  C   UNL     1      26.627  -2.131  20.479  1.00  0.00    -0.000 C 
BRANCH  10  11
ATOM     11  C   UNL     1      27.363  -0.915  19.889  1.00  0.00    -0.000 C 
BRANCH  11  12
ATOM     12  C   UNL     1      28.778  -1.277  19.389  1.00  0.00    -0.000 C 
BRANCH  12  13
ATOM     13  C   UNL     1      29.261  -2.660  19.860  1.00  0.00    -0.003 C 
ATOM     14  C   UNL     1      30.295  -3.283  18.926  1.00  0.00     0.004 C 
ENDBRANCH  12  13
ENDBRANCH  11  12
ENDBRANCH  10  11
ENDBRANCH   9  10
ENDBRANCH   1   9
TORSDOF 10
ENDMDL
MODEL 6
REMARK VINA RESULT:    -6.346      2.953      5.743
REMARK INTER + INTRA:         -11.018
REMARK INTER:                 -10.362
REMARK INTRA:                  -0.656
REMARK UNBOUND:                -0.963
REMARK SMILES CCCCCCCCCCCC(=O)[O-]
REMARK SMILES IDX 7 1 8 2 9 3 10 4 11 5 12 6 13 7 14 8 6 9 5 10 4 11 3 12 2 13
REMARK SMILES IDX 1 14
REMARK H PARENT
REMARK Flexibility Score: inf
ROOT
ATOM      1  C   UNL     1      29.145  -3.749  19.132  1.00  0.00     0.000 C 
ENDROOT
BRANCH   1   2
ATOM      2  C   UNL     1      29.617  -2.301  19.332  1.00  0.00     0.000 C 
BRANCH   2   3
ATOM      3  C   UNL     1      28.614  -1.446  20.128  1.00  0.00     0.000 C 
BRANCH   3   4
ATOM      4  C   UNL     1      27.919  -0.332  19.318  1.00  0.00     0.006 C 
BRANCH   4   5
ATOM      5  C   UNL     1      26.866   0.466  20.102  1.00  0.00     0.053 C 
BRANCH   5   6
ATOM      6  C   UNL     1      25.472   0.039  19.763  1.00  0.00     0.041 C 
ATOM      7  O   UNL     1      24.675   0.850  19.223  1.00  0.00    -0.550 OA
ATOM      8  O   UNL     1      25.062  -1.264  20.012  1.00  0.00    -0.550 OA
ENDBRANCH   5   6
ENDBRANCH   4   5
ENDBRANCH   3   4
ENDBRANCH   2   3
ENDBRANCH   1   2
BRANCH   1   9
ATOM      9  C   UNL     1      27.776  -3.975  19.791  1.00  0.00     0.000 C 
BRANCH   9  10
ATOM     10  C   UNL     1      26.743  -4.570  18.821  1.00  0.00    -0.000 C 
BRANCH  10  11
ATOM     11  C   UNL     1      25.440  -4.990  19.525  1.00  0.00    -0.000 C 
BRANCH  11  12
ATOM     12  C   UNL     1      25.262  -6.523  19.553  1.00  0.00    -0.000 C 
BRANCH  12  13
ATOM     13  C   UNL     1      26.588  -7.298  19.462  1.00  0.00    -0.003 C 
ATOM     14  C   UNL     1      26.685  -8.441  20.469  1.00  0.00     0.004 C 
ENDBRANCH  12  13
ENDBRANCH  11  12
ENDBRANCH  10  11
ENDBRANCH   9  10
ENDBRANCH   1   9
TORSDOF 10
ENDMDL
MODEL 7
REMARK VINA RESULT:    -6.331      3.576      6.092
REMARK INTER + INTRA:         -10.995
REMARK INTER:                 -10.335
REMARK INTRA:                  -0.659
REMARK UNBOUND:                -0.963
REMARK SMILES CCCCCCCCCCCC(=O)[O-]
REMARK SMILES IDX 7 1 8 2 9 3 10 4 11 5 12 6 13 7 14 8 6 9 5 10 4 11 3 12 2 13
REMARK SMILES IDX 1 14
REMARK H PARENT
REMARK Flexibility Score: inf
ROOT
ATOM      1  C   UNL     1      29.261  -2.231  19.690  1.00  0.00     0.000 C 
ENDROOT
BRANCH   1   2
ATOM      2  C   UNL     1      28.515  -0.902  19.494  1.00  0.00     0.000 C 
BRANCH   2   3
ATOM      3  C   UNL     1      27.049  -0.962  19.961  1.00  0.00     0.000 C 
BRANCH   3   4
ATOM      4  C   UNL     1      26.250   0.345  19.770  1.00  0.00     0.006 C 
BRANCH   4   5
ATOM      5  C   UNL     1      24.725   0.161  19.731  1.00  0.00     0.053 C 
BRANCH   5   6
ATOM      6  C   UNL     1      24.042   1.286  19.018  1.00  0.00     0.041 C 
ATOM      7  O   UNL     1      22.786   1.370  19.025  1.00  0.00    -0.550 OA
ATOM      8  O   UNL     1      24.793   2.261  18.374  1.00  0.00    -0.550 OA
ENDBRANCH   5   6
ENDBRANCH   4   5
ENDBRANCH   3   4
ENDBRANCH   2   3
ENDBRANCH   1   2
BRANCH   1   9
ATOM      9  C   UNL     1      28.275  -3.406  19.773  1.00  0.00     0.000 C 
BRANCH   9  10
ATOM     10  C   UNL     1      28.457  -4.415  18.629  1.00  0.00    -0.000 C 
BRANCH  10  11
ATOM     11  C   UNL     1      27.164  -5.183  18.302  1.00  0.00    -0.000 C 
BRANCH  11  12
ATOM     12  C   UNL     1      26.098  -5.025  19.407  1.00  0.00    -0.000 C 
BRANCH  12  13
ATOM     13  C   UNL     1      25.645  -6.361  20.020  1.00  0.00    -0.003 C 
ATOM     14  C   UNL     1      26.629  -7.501  19.767  1.00  0.00     0.004 C 
ENDBRANCH  12  13
ENDBRANCH  11  12
ENDBRANCH  10  11
ENDBRANCH   9  10
ENDBRANCH   1   9
TORSDOF 10
ENDMDL
MODEL 8
REMARK VINA RESULT:    -6.252      3.420      6.020
REMARK INTER + INTRA:         -10.869
REMARK INTER:                 -10.000
REMARK INTRA:                  -0.870
REMARK UNBOUND:                -0.963
REMARK SMILES CCCCCCCCCCCC(=O)[O-]
REMARK SMILES IDX 7 1 8 2 9 3 10 4 11 5 12 6 13 7 14 8 6 9 5 10 4 11 3 12 2 13
REMARK SMILES IDX 1 14
REMARK H PARENT
REMARK Flexibility Score: inf
ROOT
ATOM      1  C   UNL     1      28.198  -4.516  18.620  1.00  0.00     0.000 C 
ENDROOT
BRANCH   1   2
ATOM      2  C   UNL     1      28.521  -3.533  19.756  1.00  0.00     0.000 C 
BRANCH   2   3
ATOM      3  C   UNL     1      29.250  -2.268  19.267  1.00  0.00     0.000 C 
BRANCH   3   4
ATOM      4  C   UNL     1      28.547  -0.937  19.609  1.00  0.00     0.006 C 
BRANCH   4   5
ATOM      5  C   UNL     1      27.029  -1.050  19.811  1.00  0.00     0.053 C 
BRANCH   5   6
ATOM      6  C   UNL     1      26.358   0.288  19.784  1.00  0.00     0.041 C 
ATOM      7  O   UNL     1      25.118   0.379  19.982  1.00  0.00    -0.550 OA
ATOM      8  O   UNL     1      27.106   1.439  19.573  1.00  0.00    -0.550 OA
ENDBRANCH   5   6
ENDBRANCH   4   5
ENDBRANCH   3   4
ENDBRANCH   2   3
ENDBRANCH   1   2
BRANCH   1   9
ATOM      9  C   UNL     1      26.698  -4.498  18.290  1.00  0.00     0.000 C 
BRANCH   9  10
ATOM     10  C   UNL     1      25.815  -4.552  19.547  1.00  0.00    -0.000 C 
BRANCH  10  11
ATOM     11  C   UNL     1      24.592  -5.472  19.375  1.00  0.00    -0.000 C 
BRANCH  11  12
ATOM     12  C   UNL     1      24.987  -6.964  19.345  1.00  0.00    -0.000 C 
BRANCH  12  13
ATOM     13  C   UNL     1      26.005  -7.352  20.431  1.00  0.00    -0.003 C 
ATOM     14  C   UNL     1      26.743  -8.653  20.123  1.00  0.00     0.004 C 
ENDBRANCH  12  13
ENDBRANCH  11  12
ENDBRANCH  10  11
ENDBRANCH   9  10
ENDBRANCH   1   9
TORSDOF 10
ENDMDL
MODEL 9
REMARK VINA RESULT:    -5.852      3.951      6.641
REMARK INTER + INTRA:         -10.235
REMARK INTER:                  -9.794
REMARK INTRA:                  -0.441
REMARK UNBOUND:                -0.963
REMARK SMILES CCCCCCCCCCCC(=O)[O-]
REMARK SMILES IDX 7 1 8 2 9 3 10 4 11 5 12 6 13 7 14 8 6 9 5 10 4 11 3 12 2 13
REMARK SMILES IDX 1 14
REMARK H PARENT
REMARK Flexibility Score: inf
ROOT
ATOM      1  C   UNL     1      27.561  -2.600  19.745  1.00  0.00     0.000 C 
ENDROOT
BRANCH   1   2
ATOM      2  C   UNL     1      26.754  -1.556  20.531  1.00  0.00     0.000 C 
BRANCH   2   3
ATOM      3  C   UNL     1      25.468  -1.120  19.806  1.00  0.00     0.000 C 
BRANCH   3   4
ATOM      4  C   UNL     1      25.201   0.400  19.809  1.00  0.00     0.006 C 
BRANCH   4   5
ATOM      5  C   UNL     1      23.828   0.808  19.253  1.00  0.00     0.053 C 
BRANCH   5   6
ATOM      6  C   UNL     1      23.939   1.875  18.209  1.00  0.00     0.041 C 
ATOM      7  O   UNL     1      23.154   1.882  17.224  1.00  0.00    -0.550 OA
ATOM      8  O   UNL     1      24.887   2.881  18.339  1.00  0.00    -0.550 OA
ENDBRANCH   5   6
ENDBRANCH   4   5
ENDBRANCH   3   4
ENDBRANCH   2   3
ENDBRANCH   1   2
BRANCH   1   9
ATOM      9  C   UNL     1      26.700  -3.830  19.424  1.00  0.00     0.000 C 
BRANCH   9  10
ATOM     10  C   UNL     1      27.535  -5.030  18.948  1.00  0.00    -0.000 C 
BRANCH  10  11
ATOM     11  C   UNL     1      26.682  -6.289  18.705  1.00  0.00    -0.000 C 
BRANCH  11  12
ATOM     12  C   UNL     1      26.657  -7.221  19.935  1.00  0.00    -0.000 C 
BRANCH  12  13
ATOM     13  C   UNL     1      25.237  -7.547  20.431  1.00  0.00    -0.003 C 
ATOM     14  C   UNL     1      24.152  -6.758  19.702  1.00  0.00     0.004 C 
ENDBRANCH  12  13
ENDBRANCH  11  12
ENDBRANCH  10  11
ENDBRANCH   9  10
ENDBRANCH   1   9
TORSDOF 10
ENDMDL
