MODEL 1
REMARK VINA RESULT:    -5.342      0.000      0.000
REMARK INTER + INTRA:          -5.342
REMARK INTER:                  -5.342
REMARK INTRA:                   0.000
REMARK UNBOUND:                 0.000
REMARK SMILES C[C@@H]1CCC=C2CC[C@H]3[C@@H](C3(C)C)[C@]21C
REMARK SMILES IDX 1 1 2 2 3 3 4 4 5 5 6 6 14 7 10 8 9 9 11 10 12 11 13 12 8 13
REMARK SMILES IDX 7 14 15 15
REMARK H PARENT
REMARK Flexibility Score: inf
ROOT
ATOM      1  C   UNL     1     137.716 140.620 132.653  1.00  0.00     0.008 C 
ATOM      2  C   UNL     1     136.477 140.230 133.481  1.00  0.00    -0.004 C 
ATOM      3  C   UNL     1     136.769 140.447 134.979  1.00  0.00     0.008 C 
ATOM      4  C   UNL     1     135.539 140.153 135.845  1.00  0.00     0.027 C 
ATOM      5  C   UNL     1     134.758 138.935 135.421  1.00  0.00    -0.027 C 
ATOM      6  C   UNL     1     134.858 138.379 134.196  1.00  0.00    -0.068 C 
ATOM      7  C   UNL     1     135.980 138.769 133.206  1.00  0.00    -0.005 C 
ATOM      8  C   UNL     1     135.448 138.541 131.738  1.00  0.00     0.009 C 
ATOM      9  C   UNL     1     133.963 139.070 131.780  1.00  0.00    -0.000 C 
ATOM     10  C   UNL     1     134.792 139.251 130.540  1.00  0.00    -0.028 C 
ATOM     11  C   UNL     1     135.220 140.685 130.210  1.00  0.00     0.012 C 
ATOM     12  C   UNL     1     134.390 138.382 129.341  1.00  0.00     0.012 C 
ATOM     13  C   UNL     1     133.167 137.876 132.332  1.00  0.00     0.009 C 
ATOM     14  C   UNL     1     133.763 137.426 133.703  1.00  0.00     0.031 C 
ATOM     15  C   UNL     1     137.130 137.749 133.429  1.00  0.00     0.017 C 
ENDROOT
TORSDOF 0
ENDMDL
MODEL 2
REMARK VINA RESULT:    -5.340      3.137      4.452
REMARK INTER + INTRA:          -5.340
REMARK INTER:                  -5.340
REMARK INTRA:                   0.000
REMARK UNBOUND:                 0.000
REMARK SMILES C[C@@H]1CCC=C2CC[C@H]3[C@@H](C3(C)C)[C@]21C
REMARK SMILES IDX 1 1 2 2 3 3 4 4 5 5 6 6 14 7 10 8 9 9 11 10 12 11 13 12 8 13
REMARK SMILES IDX 7 14 15 15
REMARK H PARENT
REMARK Flexibility Score: inf
ROOT
ATOM      1  C   UNL     1     133.232 137.793 132.741  1.00  0.00     0.008 C 
ATOM      2  C   UNL     1     133.550 136.514 133.538  1.00  0.00    -0.004 C 
ATOM      3  C   UNL     1     133.338 136.779 135.043  1.00  0.00     0.008 C 
ATOM      4  C   UNL     1     133.560 135.515 135.879  1.00  0.00     0.027 C 
ATOM      5  C   UNL     1     134.738 134.680 135.441  1.00  0.00    -0.027 C 
ATOM      6  C   UNL     1     135.308 134.782 134.223  1.00  0.00    -0.068 C 
ATOM      7  C   UNL     1     134.985 135.948 133.260  1.00  0.00    -0.005 C 
ATOM      8  C   UNL     1     135.195 135.441 131.780  1.00  0.00     0.009 C 
ATOM      9  C   UNL     1     134.588 133.986 131.781  1.00  0.00    -0.000 C 
ATOM     10  C   UNL     1     134.459 134.855 130.562  1.00  0.00    -0.028 C 
ATOM     11  C   UNL     1     133.052 135.366 130.234  1.00  0.00     0.012 C 
ATOM     12  C   UNL     1     135.315 134.437 129.358  1.00  0.00     0.012 C 
ATOM     13  C   UNL     1     135.734 133.114 132.320  1.00  0.00     0.009 C 
ATOM     14  C   UNL     1     136.205 133.651 133.707  1.00  0.00     0.031 C 
ATOM     15  C   UNL     1     136.062 137.035 133.518  1.00  0.00     0.017 C 
ENDROOT
TORSDOF 0
ENDMDL
MODEL 3
REMARK VINA RESULT:    -5.333      3.983      5.383
REMARK INTER + INTRA:          -5.333
REMARK INTER:                  -5.333
REMARK INTRA:                   0.000
REMARK UNBOUND:                 0.000
REMARK SMILES C[C@@H]1CCC=C2CC[C@H]3[C@@H](C3(C)C)[C@]21C
REMARK SMILES IDX 1 1 2 2 3 3 4 4 5 5 6 6 14 7 10 8 9 9 11 10 12 11 13 12 8 13
REMARK SMILES IDX 7 14 15 15
REMARK H PARENT
REMARK Flexibility Score: inf
ROOT
ATOM      1  C   UNL     1     139.162 138.519 129.303  1.00  0.00     0.008 C 
ATOM      2  C   UNL     1     138.920 138.343 130.814  1.00  0.00    -0.004 C 
ATOM      3  C   UNL     1     138.941 139.723 131.503  1.00  0.00     0.008 C 
ATOM      4  C   UNL     1     138.622 139.616 132.998  1.00  0.00     0.027 C 
ATOM      5  C   UNL     1     139.271 138.443 133.689  1.00  0.00    -0.027 C 
ATOM      6  C   UNL     1     139.750 137.367 133.031  1.00  0.00    -0.068 C 
ATOM      7  C   UNL     1     139.927 137.355 131.496  1.00  0.00    -0.005 C 
ATOM      8  C   UNL     1     139.797 135.864 130.993  1.00  0.00     0.009 C 
ATOM      9  C   UNL     1     138.603 135.276 131.837  1.00  0.00    -0.000 C 
ATOM     10  C   UNL     1     138.803 134.841 130.413  1.00  0.00    -0.028 C 
ATOM     11  C   UNL     1     137.759 135.321 129.400  1.00  0.00     0.012 C 
ATOM     12  C   UNL     1     139.305 133.403 130.225  1.00  0.00     0.012 C 
ATOM     13  C   UNL     1     139.265 134.850 133.158  1.00  0.00     0.009 C 
ATOM     14  C   UNL     1     140.011 136.063 133.796  1.00  0.00     0.031 C 
ATOM     15  C   UNL     1     141.392 137.792 131.223  1.00  0.00     0.017 C 
ENDROOT
TORSDOF 0
ENDMDL
MODEL 4
REMARK VINA RESULT:    -5.327      2.258      4.260
REMARK INTER + INTRA:          -5.327
REMARK INTER:                  -5.327
REMARK INTRA:                   0.000
REMARK UNBOUND:                 0.000
REMARK SMILES C[C@@H]1CCC=C2CC[C@H]3[C@@H](C3(C)C)[C@]21C
REMARK SMILES IDX 1 1 2 2 3 3 4 4 5 5 6 6 14 7 10 8 9 9 11 10 12 11 13 12 8 13
REMARK SMILES IDX 7 14 15 15
REMARK H PARENT
REMARK Flexibility Score: inf
ROOT
ATOM      1  C   UNL     1     134.622 135.104 129.401  1.00  0.00     0.008 C 
ATOM      2  C   UNL     1     134.848 135.310 130.910  1.00  0.00    -0.004 C 
ATOM      3  C   UNL     1     134.811 133.946 131.628  1.00  0.00     0.008 C 
ATOM      4  C   UNL     1     135.113 134.084 133.124  1.00  0.00     0.027 C 
ATOM      5  C   UNL     1     134.464 135.275 133.782  1.00  0.00    -0.027 C 
ATOM      6  C   UNL     1     133.998 136.340 133.096  1.00  0.00    -0.068 C 
ATOM      7  C   UNL     1     133.839 136.320 131.558  1.00  0.00    -0.005 C 
ATOM      8  C   UNL     1     133.984 137.798 131.026  1.00  0.00     0.009 C 
ATOM      9  C   UNL     1     135.171 138.397 131.871  1.00  0.00    -0.000 C 
ATOM     10  C   UNL     1     134.989 138.803 130.435  1.00  0.00    -0.028 C 
ATOM     11  C   UNL     1     136.042 138.295 129.444  1.00  0.00     0.012 C 
ATOM     12  C   UNL     1     134.498 140.240 130.210  1.00  0.00     0.012 C 
ATOM     13  C   UNL     1     134.497 138.855 133.174  1.00  0.00     0.009 C 
ATOM     14  C   UNL     1     133.737 137.660 133.829  1.00  0.00     0.031 C 
ATOM     15  C   UNL     1     132.375 135.885 131.279  1.00  0.00     0.017 C 
ENDROOT
TORSDOF 0
ENDMDL
MODEL 5
REMARK VINA RESULT:    -5.317      4.667      5.343
REMARK INTER + INTRA:          -5.317
REMARK INTER:                  -5.317
REMARK INTRA:                   0.000
REMARK UNBOUND:                 0.000
REMARK SMILES C[C@@H]1CCC=C2CC[C@H]3[C@@H](C3(C)C)[C@]21C
REMARK SMILES IDX 1 1 2 2 3 3 4 4 5 5 6 6 14 7 10 8 9 9 11 10 12 11 13 12 8 13
REMARK SMILES IDX 7 14 15 15
REMARK H PARENT
REMARK Flexibility Score: inf
ROOT
ATOM      1  C   UNL     1     139.236 135.642 129.576  1.00  0.00     0.008 C 
ATOM      2  C   UNL     1     138.645 135.365 130.972  1.00  0.00    -0.004 C 
ATOM      3  C   UNL     1     139.786 135.276 132.006  1.00  0.00     0.008 C 
ATOM      4  C   UNL     1     139.250 135.084 133.428  1.00  0.00     0.027 C 
ATOM      5  C   UNL     1     138.092 134.123 133.531  1.00  0.00    -0.027 C 
ATOM      6  C   UNL     1     137.329 133.766 132.478  1.00  0.00    -0.068 C 
ATOM      7  C   UNL     1     137.735 134.090 131.021  1.00  0.00    -0.005 C 
ATOM      8  C   UNL     1     136.420 134.211 130.156  1.00  0.00     0.009 C 
ATOM      9  C   UNL     1     135.419 134.998 131.083  1.00  0.00    -0.000 C 
ATOM     10  C   UNL     1     135.400 135.219 129.597  1.00  0.00    -0.028 C 
ATOM     11  C   UNL     1     135.904 136.579 129.102  1.00  0.00     0.012 C 
ATOM     12  C   UNL     1     134.181 134.649 128.858  1.00  0.00     0.012 C 
ATOM     13  C   UNL     1     134.815 133.905 131.979  1.00  0.00     0.009 C 
ATOM     14  C   UNL     1     135.953 133.132 132.716  1.00  0.00     0.031 C 
ATOM     15  C   UNL     1     138.504 132.848 130.497  1.00  0.00     0.017 C 
ENDROOT
TORSDOF 0
ENDMDL
MODEL 6
REMARK VINA RESULT:    -5.317      2.003      4.107
REMARK INTER + INTRA:          -5.317
REMARK INTER:                  -5.317
REMARK INTRA:                   0.000
REMARK UNBOUND:                 0.000
REMARK SMILES C[C@@H]1CCC=C2CC[C@H]3[C@@H](C3(C)C)[C@]21C
REMARK SMILES IDX 1 1 2 2 3 3 4 4 5 5 6 6 14 7 10 8 9 9 11 10 12 11 13 12 8 13
REMARK SMILES IDX 7 14 15 15
REMARK H PARENT
REMARK Flexibility Score: inf
ROOT
ATOM      1  C   UNL     1     135.200 139.014 129.404  1.00  0.00     0.008 C 
ATOM      2  C   UNL     1     135.378 138.825 130.923  1.00  0.00    -0.004 C 
ATOM      3  C   UNL     1     133.998 138.847 131.610  1.00  0.00     0.008 C 
ATOM      4  C   UNL     1     134.109 138.580 133.115  1.00  0.00     0.027 C 
ATOM      5  C   UNL     1     135.270 139.271 133.784  1.00  0.00    -0.027 C 
ATOM      6  C   UNL     1     136.339 139.746 133.111  1.00  0.00    -0.068 C 
ATOM      7  C   UNL     1     136.349 139.872 131.570  1.00  0.00    -0.005 C 
ATOM      8  C   UNL     1     137.842 139.750 131.073  1.00  0.00     0.009 C 
ATOM      9  C   UNL     1     138.450 138.595 131.957  1.00  0.00    -0.000 C 
ATOM     10  C   UNL     1     138.882 138.755 130.527  1.00  0.00    -0.028 C 
ATOM     11  C   UNL     1     138.421 137.669 129.549  1.00  0.00     0.012 C 
ATOM     12  C   UNL     1     140.312 139.274 130.323  1.00  0.00     0.012 C 
ATOM     13  C   UNL     1     138.863 139.308 133.255  1.00  0.00     0.009 C 
ATOM     14  C   UNL     1     137.637 140.054 133.867  1.00  0.00     0.031 C 
ATOM     15  C   UNL     1     135.888 141.319 131.249  1.00  0.00     0.017 C 
ENDROOT
TORSDOF 0
ENDMDL
MODEL 7
REMARK VINA RESULT:    -5.278      3.155      4.540
REMARK INTER + INTRA:          -5.278
REMARK INTER:                  -5.278
REMARK INTRA:                   0.000
REMARK UNBOUND:                 0.000
REMARK SMILES C[C@@H]1CCC=C2CC[C@H]3[C@@H](C3(C)C)[C@]21C
REMARK SMILES IDX 1 1 2 2 3 3 4 4 5 5 6 6 14 7 10 8 9 9 11 10 12 11 13 12 8 13
REMARK SMILES IDX 7 14 15 15
REMARK H PARENT
REMARK Flexibility Score: inf
ROOT
ATOM      1  C   UNL     1     140.466 135.800 132.526  1.00  0.00     0.008 C 
ATOM      2  C   UNL     1     140.175 137.059 133.364  1.00  0.00    -0.004 C 
ATOM      3  C   UNL     1     140.411 136.750 134.857  1.00  0.00     0.008 C 
ATOM      4  C   UNL     1     140.216 137.993 135.731  1.00  0.00     0.027 C 
ATOM      5  C   UNL     1     139.040 138.851 135.338  1.00  0.00    -0.027 C 
ATOM      6  C   UNL     1     138.448 138.789 134.128  1.00  0.00    -0.068 C 
ATOM      7  C   UNL     1     138.742 137.648 133.127  1.00  0.00    -0.005 C 
ATOM      8  C   UNL     1     138.512 138.198 131.666  1.00  0.00     0.009 C 
ATOM      9  C   UNL     1     139.134 139.646 131.697  1.00  0.00    -0.000 C 
ATOM     10  C   UNL     1     139.232 138.811 130.452  1.00  0.00    -0.028 C 
ATOM     11  C   UNL     1     140.628 138.294 130.085  1.00  0.00     0.012 C 
ATOM     12  C   UNL     1     138.360 139.271 129.275  1.00  0.00     0.012 C 
ATOM     13  C   UNL     1     138.007 140.514 132.280  1.00  0.00     0.009 C 
ATOM     14  C   UNL     1     137.554 139.944 133.660  1.00  0.00     0.031 C 
ATOM     15  C   UNL     1     137.658 136.564 133.373  1.00  0.00     0.017 C 
ENDROOT
TORSDOF 0
ENDMDL
MODEL 8
REMARK VINA RESULT:    -5.273      4.186      6.298
REMARK INTER + INTRA:          -5.273
REMARK INTER:                  -5.273
REMARK INTRA:                   0.000
REMARK UNBOUND:                 0.000
REMARK SMILES C[C@@H]1CCC=C2CC[C@H]3[C@@H](C3(C)C)[C@]21C
REMARK SMILES IDX 1 1 2 2 3 3 4 4 5 5 6 6 14 7 10 8 9 9 11 10 12 11 13 12 8 13
REMARK SMILES IDX 7 14 15 15
REMARK H PARENT
REMARK Flexibility Score: inf
ROOT
ATOM      1  C   UNL     1     135.931 133.270 132.632  1.00  0.00     0.008 C 
ATOM      2  C   UNL     1     137.199 133.597 133.443  1.00  0.00    -0.004 C 
ATOM      3  C   UNL     1     136.917 133.391 134.946  1.00  0.00     0.008 C 
ATOM      4  C   UNL     1     138.171 133.622 135.795  1.00  0.00     0.027 C 
ATOM      5  C   UNL     1     139.005 134.801 135.362  1.00  0.00    -0.027 C 
ATOM      6  C   UNL     1     138.916 135.365 134.140  1.00  0.00    -0.068 C 
ATOM      7  C   UNL     1     137.763 135.033 133.165  1.00  0.00    -0.005 C 
ATOM      8  C   UNL     1     138.286 135.238 131.690  1.00  0.00     0.009 C 
ATOM      9  C   UNL     1     139.743 134.637 131.711  1.00  0.00    -0.000 C 
ATOM     10  C   UNL     1     138.889 134.499 130.482  1.00  0.00    -0.028 C 
ATOM     11  C   UNL     1     138.387 133.089 130.155  1.00  0.00     0.012 C 
ATOM     12  C   UNL     1     139.317 135.351 129.279  1.00  0.00     0.012 C 
ATOM     13  C   UNL     1     140.604 135.789 132.254  1.00  0.00     0.009 C 
ATOM     14  C   UNL     1     140.049 136.265 133.633  1.00  0.00     0.031 C 
ATOM     15  C   UNL     1     136.667 136.107 133.405  1.00  0.00     0.017 C 
ENDROOT
TORSDOF 0
ENDMDL
MODEL 9
REMARK VINA RESULT:    -5.251      4.293      6.649
REMARK INTER + INTRA:          -5.251
REMARK INTER:                  -5.251
REMARK INTRA:                   0.000
REMARK UNBOUND:                 0.000
REMARK SMILES C[C@@H]1CCC=C2CC[C@H]3[C@@H](C3(C)C)[C@]21C
REMARK SMILES IDX 1 1 2 2 3 3 4 4 5 5 6 6 14 7 10 8 9 9 11 10 12 11 13 12 8 13
REMARK SMILES IDX 7 14 15 15
REMARK H PARENT
REMARK Flexibility Score: inf
ROOT
ATOM      1  C   UNL     1     137.399 134.004 128.424  1.00  0.00     0.008 C 
ATOM      2  C   UNL     1     135.972 134.046 129.001  1.00  0.00    -0.004 C 
ATOM      3  C   UNL     1     134.971 134.376 127.875  1.00  0.00     0.008 C 
ATOM      4  C   UNL     1     133.523 134.348 128.377  1.00  0.00     0.027 C 
ATOM      5  C   UNL     1     133.326 134.969 129.737  1.00  0.00    -0.027 C 
ATOM      6  C   UNL     1     134.331 135.170 130.614  1.00  0.00    -0.068 C 
ATOM      7  C   UNL     1     135.816 135.037 130.206  1.00  0.00    -0.005 C 
ATOM      8  C   UNL     1     136.646 134.625 131.483  1.00  0.00     0.009 C 
ATOM      9  C   UNL     1     135.738 133.558 132.205  1.00  0.00    -0.000 C 
ATOM     10  C   UNL     1     137.233 133.417 132.234  1.00  0.00    -0.028 C 
ATOM     11  C   UNL     1     137.826 132.261 131.421  1.00  0.00     0.012 C 
ATOM     12  C   UNL     1     137.897 133.688 133.591  1.00  0.00     0.012 C 
ATOM     13  C   UNL     1     134.758 134.410 133.027  1.00  0.00     0.009 C 
ATOM     14  C   UNL     1     134.010 135.413 132.094  1.00  0.00     0.031 C 
ATOM     15  C   UNL     1     136.287 136.462 129.807  1.00  0.00     0.017 C 
ENDROOT
TORSDOF 0
ENDMDL
