MODEL 1
REMARK VINA RESULT:    -0.510      0.000      0.000
REMARK INTER + INTRA:          -1.154
REMARK INTER:                  -0.928
REMARK INTRA:                  -0.227
REMARK UNBOUND:                -0.227
REMARK SMILES CCCCCCCCCCCCCC[C@@H](C)C(=O)[O-]
REMARK SMILES IDX 9 1 10 2 11 3 12 4 13 5 14 6 15 7 16 8 17 9 18 10 19 11 8 12
REMARK SMILES IDX 7 13 6 14 5 15 4 16 3 17 2 18 1 19
REMARK H PARENT
REMARK Flexibility Score: inf
ROOT
ATOM      1  C   UNL     1       6.424  21.160  13.507  1.00  0.00     0.000 C 
ENDROOT
BRANCH   1   2
ATOM      2  C   UNL     1       6.985  19.899  12.819  1.00  0.00     0.000 C 
BRANCH   2   3
ATOM      3  C   UNL     1       8.513  19.878  12.638  1.00  0.00     0.000 C 
BRANCH   3   4
ATOM      4  C   UNL     1       9.214  21.054  13.335  1.00  0.00     0.000 C 
BRANCH   4   5
ATOM      5  C   UNL     1      10.574  21.345  12.684  1.00  0.00     0.001 C 
BRANCH   5   6
ATOM      6  C   UNL     1      10.561  21.165  11.154  1.00  0.00     0.009 C 
BRANCH   6   7
ATOM      7  C   UNL     1      11.124  22.359  10.348  1.00  0.00     0.032 C 
ATOM      8  C   UNL     1      10.652  22.358   8.888  1.00  0.00     0.014 C 
BRANCH   7   9
ATOM      9  C   UNL     1      10.716  23.646  11.011  1.00  0.00     0.044 C 
ATOM     10  O   UNL     1      10.866  23.794  12.252  1.00  0.00    -0.550 OA
ATOM     11  O   UNL     1      10.157  24.675  10.261  1.00  0.00    -0.550 OA
ENDBRANCH   7   9
ENDBRANCH   6   7
ENDBRANCH   5   6
ENDBRANCH   4   5
ENDBRANCH   3   4
ENDBRANCH   2   3
ENDBRANCH   1   2
BRANCH   1  12
ATOM     12  C   UNL     1       5.222  20.921  14.439  1.00  0.00     0.000 C 
BRANCH  12  13
ATOM     13  C   UNL     1       5.550  19.974  15.605  1.00  0.00    -0.000 C 
BRANCH  13  14
ATOM     14  C   UNL     1       7.029  20.035  16.027  1.00  0.00    -0.000 C 
BRANCH  14  15
ATOM     15  C   UNL     1       7.380  21.136  17.049  1.00  0.00    -0.000 C 
BRANCH  15  16
ATOM     16  C   UNL     1       8.544  22.060  16.646  1.00  0.00    -0.000 C 
BRANCH  16  17
ATOM     17  C   UNL     1       9.385  22.517  17.851  1.00  0.00    -0.000 C 
BRANCH  17  18
ATOM     18  C   UNL     1      10.771  23.036  17.436  1.00  0.00    -0.003 C 
ATOM     19  C   UNL     1      11.031  22.903  15.935  1.00  0.00     0.004 C 
ENDBRANCH  17  18
ENDBRANCH  16  17
ENDBRANCH  15  16
ENDBRANCH  14  15
ENDBRANCH  13  14
ENDBRANCH  12  13
ENDBRANCH   1  12
TORSDOF 14
ENDMDL
MODEL 2
REMARK VINA RESULT:    -0.498      6.447      9.249
REMARK INTER + INTRA:          -1.133
REMARK INTER:                  -0.728
REMARK INTRA:                  -0.405
REMARK UNBOUND:                -0.227
REMARK SMILES CCCCCCCCCCCCCC[C@@H](C)C(=O)[O-]
REMARK SMILES IDX 9 1 10 2 11 3 12 4 13 5 14 6 15 7 16 8 17 9 18 10 19 11 8 12
REMARK SMILES IDX 7 13 6 14 5 15 4 16 3 17 2 18 1 19
REMARK H PARENT
REMARK Flexibility Score: inf
ROOT
ATOM      1  C   UNL     1       1.536  20.971  15.758  1.00  0.00     0.000 C 
ENDROOT
BRANCH   1   2
ATOM      2  C   UNL     1       2.814  20.166  16.071  1.00  0.00     0.000 C 
BRANCH   2   3
ATOM      3  C   UNL     1       3.974  20.368  15.080  1.00  0.00     0.000 C 
BRANCH   3   4
ATOM      4  C   UNL     1       5.317  20.630  15.779  1.00  0.00     0.000 C 
BRANCH   4   5
ATOM      5  C   UNL     1       6.443  20.809  14.750  1.00  0.00     0.001 C 
BRANCH   5   6
ATOM      6  C   UNL     1       7.777  20.182  15.201  1.00  0.00     0.009 C 
BRANCH   6   7
ATOM      7  C   UNL     1       8.899  20.190  14.136  1.00  0.00     0.032 C 
ATOM      8  C   UNL     1       8.353  20.333  12.709  1.00  0.00     0.014 C 
BRANCH   7   9
ATOM      9  C   UNL     1       9.855  21.313  14.427  1.00  0.00     0.044 C 
ATOM     10  O   UNL     1      10.716  21.651  13.572  1.00  0.00    -0.550 OA
ATOM     11  O   UNL     1       9.808  21.977  15.648  1.00  0.00    -0.550 OA
ENDBRANCH   7   9
ENDBRANCH   6   7
ENDBRANCH   5   6
ENDBRANCH   4   5
ENDBRANCH   3   4
ENDBRANCH   2   3
ENDBRANCH   1   2
BRANCH   1  12
ATOM     12  C   UNL     1       0.272  20.520  16.513  1.00  0.00     0.000 C 
BRANCH  12  13
ATOM     13  C   UNL     1      -1.015  21.146  15.950  1.00  0.00    -0.000 C 
BRANCH  13  14
ATOM     14  C   UNL     1      -2.285  20.637  16.656  1.00  0.00    -0.000 C 
BRANCH  14  15
ATOM     15  C   UNL     1      -3.282  19.877  15.755  1.00  0.00    -0.000 C 
BRANCH  15  16
ATOM     16  C   UNL     1      -4.760  20.267  15.936  1.00  0.00    -0.000 C 
BRANCH  16  17
ATOM     17  C   UNL     1      -5.437  20.663  14.612  1.00  0.00    -0.000 C 
BRANCH  17  18
ATOM     18  C   UNL     1      -6.838  21.259  14.825  1.00  0.00    -0.003 C 
ATOM     19  C   UNL     1      -7.600  20.592  15.970  1.00  0.00     0.004 C 
ENDBRANCH  17  18
ENDBRANCH  16  17
ENDBRANCH  15  16
ENDBRANCH  14  15
ENDBRANCH  13  14
ENDBRANCH  12  13
ENDBRANCH   1  12
TORSDOF 14
ENDMDL
MODEL 3
REMARK VINA RESULT:    -0.485      5.824      8.956
REMARK INTER + INTRA:          -1.108
REMARK INTER:                  -0.530
REMARK INTRA:                  -0.578
REMARK UNBOUND:                -0.227
REMARK SMILES CCCCCCCCCCCCCC[C@@H](C)C(=O)[O-]
REMARK SMILES IDX 9 1 10 2 11 3 12 4 13 5 14 6 15 7 16 8 17 9 18 10 19 11 8 12
REMARK SMILES IDX 7 13 6 14 5 15 4 16 3 17 2 18 1 19
REMARK H PARENT
REMARK Flexibility Score: inf
ROOT
ATOM      1  C   UNL     1       6.205  21.290  15.388  1.00  0.00     0.000 C 
ENDROOT
BRANCH   1   2
ATOM      2  C   UNL     1       5.108  20.451  14.701  1.00  0.00     0.000 C 
BRANCH   2   3
ATOM      3  C   UNL     1       4.034  19.880  15.644  1.00  0.00     0.000 C 
BRANCH   3   4
ATOM      4  C   UNL     1       2.780  20.762  15.726  1.00  0.00     0.000 C 
BRANCH   4   5
ATOM      5  C   UNL     1       1.541  19.922  16.074  1.00  0.00     0.001 C 
BRANCH   5   6
ATOM      6  C   UNL     1       0.220  20.694  15.894  1.00  0.00     0.009 C 
BRANCH   6   7
ATOM      7  C   UNL     1      -0.980  20.136  16.695  1.00  0.00     0.032 C 
ATOM      8  C   UNL     1      -0.958  20.569  18.166  1.00  0.00     0.014 C 
BRANCH   7   9
ATOM      9  C   UNL     1      -2.263  20.589  16.053  1.00  0.00     0.044 C 
ATOM     10  O   UNL     1      -2.264  21.570  15.264  1.00  0.00    -0.550 OA
ATOM     11  O   UNL     1      -3.458  19.939  16.339  1.00  0.00    -0.550 OA
ENDBRANCH   7   9
ENDBRANCH   6   7
ENDBRANCH   5   6
ENDBRANCH   4   5
ENDBRANCH   3   4
ENDBRANCH   2   3
ENDBRANCH   1   2
BRANCH   1  12
ATOM     12  C   UNL     1       7.520  20.543  15.676  1.00  0.00     0.000 C 
BRANCH  12  13
ATOM     13  C   UNL     1       8.116  19.879  14.423  1.00  0.00    -0.000 C 
BRANCH  13  14
ATOM     14  C   UNL     1       9.609  20.201  14.229  1.00  0.00    -0.000 C 
BRANCH  14  15
ATOM     15  C   UNL     1       9.937  21.689  13.982  1.00  0.00    -0.000 C 
BRANCH  15  16
ATOM     16  C   UNL     1       9.851  22.147  12.515  1.00  0.00    -0.000 C 
BRANCH  16  17
ATOM     17  C   UNL     1      11.124  22.867  12.040  1.00  0.00    -0.000 C 
BRANCH  17  18
ATOM     18  C   UNL     1      10.820  24.018  11.067  1.00  0.00    -0.003 C 
ATOM     19  C   UNL     1      10.692  25.370  11.768  1.00  0.00     0.004 C 
ENDBRANCH  17  18
ENDBRANCH  16  17
ENDBRANCH  15  16
ENDBRANCH  14  15
ENDBRANCH  13  14
ENDBRANCH  12  13
ENDBRANCH   1  12
TORSDOF 14
ENDMDL
MODEL 4
REMARK VINA RESULT:    -0.402      5.814      9.184
REMARK INTER + INTRA:          -0.958
REMARK INTER:                  -0.516
REMARK INTRA:                  -0.442
REMARK UNBOUND:                -0.227
REMARK SMILES CCCCCCCCCCCCCC[C@@H](C)C(=O)[O-]
REMARK SMILES IDX 9 1 10 2 11 3 12 4 13 5 14 6 15 7 16 8 17 9 18 10 19 11 8 12
REMARK SMILES IDX 7 13 6 14 5 15 4 16 3 17 2 18 1 19
REMARK H PARENT
REMARK Flexibility Score: inf
ROOT
ATOM      1  C   UNL     1       5.453  21.149  16.013  1.00  0.00     0.000 C 
ENDROOT
BRANCH   1   2
ATOM      2  C   UNL     1       4.473  20.164  15.344  1.00  0.00     0.000 C 
BRANCH   2   3
ATOM      3  C   UNL     1       3.186  19.879  16.138  1.00  0.00     0.000 C 
BRANCH   3   4
ATOM      4  C   UNL     1       2.054  20.864  15.813  1.00  0.00     0.000 C 
BRANCH   4   5
ATOM      5  C   UNL     1       0.681  20.201  15.998  1.00  0.00     0.001 C 
BRANCH   5   6
ATOM      6  C   UNL     1      -0.492  21.127  15.621  1.00  0.00     0.009 C 
BRANCH   6   7
ATOM      7  C   UNL     1      -1.694  21.093  16.594  1.00  0.00     0.032 C 
ATOM      8  C   UNL     1      -2.640  19.917  16.319  1.00  0.00     0.014 C 
BRANCH   7   9
ATOM      9  C   UNL     1      -1.189  21.017  18.008  1.00  0.00     0.044 C 
ATOM     10  O   UNL     1      -1.144  19.910  18.606  1.00  0.00    -0.550 OA
ATOM     11  O   UNL     1      -0.784  22.170  18.672  1.00  0.00    -0.550 OA
ENDBRANCH   7   9
ENDBRANCH   6   7
ENDBRANCH   5   6
ENDBRANCH   4   5
ENDBRANCH   3   4
ENDBRANCH   2   3
ENDBRANCH   1   2
BRANCH   1  12
ATOM     12  C   UNL     1       6.926  20.699  16.035  1.00  0.00     0.000 C 
BRANCH  12  13
ATOM     13  C   UNL     1       7.526  20.553  14.627  1.00  0.00    -0.000 C 
BRANCH  13  14
ATOM     14  C   UNL     1       8.934  19.930  14.640  1.00  0.00    -0.000 C 
BRANCH  14  15
ATOM     15  C   UNL     1       9.645  19.875  13.271  1.00  0.00    -0.000 C 
BRANCH  15  16
ATOM     16  C   UNL     1       9.187  20.933  12.250  1.00  0.00    -0.000 C 
BRANCH  16  17
ATOM     17  C   UNL     1      10.342  21.819  11.753  1.00  0.00    -0.000 C 
BRANCH  17  18
ATOM     18  C   UNL     1      11.066  21.214  10.540  1.00  0.00    -0.003 C 
ATOM     19  C   UNL     1      10.104  20.694   9.472  1.00  0.00     0.004 C 
ENDBRANCH  17  18
ENDBRANCH  16  17
ENDBRANCH  15  16
ENDBRANCH  14  15
ENDBRANCH  13  14
ENDBRANCH  12  13
ENDBRANCH   1  12
TORSDOF 14
ENDMDL
MODEL 5
REMARK VINA RESULT:    -0.287      7.950     10.922
REMARK INTER + INTRA:          -0.748
REMARK INTER:                  -0.148
REMARK INTRA:                  -0.600
REMARK UNBOUND:                -0.227
REMARK SMILES CCCCCCCCCCCCCC[C@@H](C)C(=O)[O-]
REMARK SMILES IDX 9 1 10 2 11 3 12 4 13 5 14 6 15 7 16 8 17 9 18 10 19 11 8 12
REMARK SMILES IDX 7 13 6 14 5 15 4 16 3 17 2 18 1 19
REMARK H PARENT
REMARK Flexibility Score: inf
ROOT
ATOM      1  C   UNL     1      -1.002  20.855  16.510  1.00  0.00     0.000 C 
ENDROOT
BRANCH   1   2
ATOM      2  C   UNL     1       0.195  20.680  15.553  1.00  0.00     0.000 C 
BRANCH   2   3
ATOM      3  C   UNL     1       1.498  20.199  16.215  1.00  0.00     0.000 C 
BRANCH   3   4
ATOM      4  C   UNL     1       2.756  20.767  15.539  1.00  0.00     0.000 C 
BRANCH   4   5
ATOM      5  C   UNL     1       3.986  19.904  15.858  1.00  0.00     0.001 C 
BRANCH   5   6
ATOM      6  C   UNL     1       5.316  20.657  15.666  1.00  0.00     0.009 C 
BRANCH   6   7
ATOM      7  C   UNL     1       6.407  19.875  14.896  1.00  0.00     0.032 C 
ATOM      8  C   UNL     1       6.260  20.008  13.374  1.00  0.00     0.014 C 
BRANCH   7   9
ATOM      9  C   UNL     1       7.765  20.364  15.318  1.00  0.00     0.044 C 
ATOM     10  O   UNL     1       8.774  20.131  14.602  1.00  0.00    -0.550 OA
ATOM     11  O   UNL     1       7.919  21.064  16.510  1.00  0.00    -0.550 OA
ENDBRANCH   7   9
ENDBRANCH   6   7
ENDBRANCH   5   6
ENDBRANCH   4   5
ENDBRANCH   3   4
ENDBRANCH   2   3
ENDBRANCH   1   2
BRANCH   1  12
ATOM     12  C   UNL     1      -2.388  20.639  15.876  1.00  0.00     0.000 C 
BRANCH  12  13
ATOM     13  C   UNL     1      -3.359  19.891  16.804  1.00  0.00    -0.000 C 
BRANCH  13  14
ATOM     14  C   UNL     1      -4.821  19.965  16.326  1.00  0.00    -0.000 C 
BRANCH  14  15
ATOM     15  C   UNL     1      -5.107  21.021  15.237  1.00  0.00    -0.000 C 
BRANCH  15  16
ATOM     16  C   UNL     1      -6.544  21.023  14.685  1.00  0.00    -0.000 C 
BRANCH  16  17
ATOM     17  C   UNL     1      -7.562  20.429  15.673  1.00  0.00    -0.000 C 
BRANCH  17  18
ATOM     18  C   UNL     1      -8.460  21.503  16.307  1.00  0.00    -0.003 C 
ATOM     19  C   UNL     1      -8.328  21.566  17.829  1.00  0.00     0.004 C 
ENDBRANCH  17  18
ENDBRANCH  16  17
ENDBRANCH  15  16
ENDBRANCH  14  15
ENDBRANCH  13  14
ENDBRANCH  12  13
ENDBRANCH   1  12
TORSDOF 14
ENDMDL
MODEL 6
REMARK VINA RESULT:    -0.223      5.899      8.870
REMARK INTER + INTRA:          -0.633
REMARK INTER:                   0.155
REMARK INTRA:                  -0.788
REMARK UNBOUND:                -0.227
REMARK SMILES CCCCCCCCCCCCCC[C@@H](C)C(=O)[O-]
REMARK SMILES IDX 9 1 10 2 11 3 12 4 13 5 14 6 15 7 16 8 17 9 18 10 19 11 8 12
REMARK SMILES IDX 7 13 6 14 5 15 4 16 3 17 2 18 1 19
REMARK H PARENT
REMARK Flexibility Score: inf
ROOT
ATOM      1  C   UNL     1       5.855  20.107  14.147  1.00  0.00     0.000 C 
ENDROOT
BRANCH   1   2
ATOM      2  C   UNL     1       4.934  20.728  15.216  1.00  0.00     0.000 C 
BRANCH   2   3
ATOM      3  C   UNL     1       3.679  19.906  15.557  1.00  0.00     0.000 C 
BRANCH   3   4
ATOM      4  C   UNL     1       2.482  20.782  15.959  1.00  0.00     0.000 C 
BRANCH   4   5
ATOM      5  C   UNL     1       1.210  19.935  16.111  1.00  0.00     0.001 C 
BRANCH   5   6
ATOM      6  C   UNL     1       0.017  20.734  16.670  1.00  0.00     0.009 C 
BRANCH   6   7
ATOM      7  C   UNL     1      -1.284  19.920  16.865  1.00  0.00     0.032 C 
ATOM      8  C   UNL     1      -1.742  19.887  18.329  1.00  0.00     0.014 C 
BRANCH   7   9
ATOM      9  C   UNL     1      -2.372  20.504  16.007  1.00  0.00     0.044 C 
ATOM     10  O   UNL     1      -3.544  20.047  16.071  1.00  0.00    -0.550 OA
ATOM     11  O   UNL     1      -2.090  21.542  15.126  1.00  0.00    -0.550 OA
ENDBRANCH   7   9
ENDBRANCH   6   7
ENDBRANCH   5   6
ENDBRANCH   4   5
ENDBRANCH   3   4
ENDBRANCH   2   3
ENDBRANCH   1   2
BRANCH   1  12
ATOM     12  C   UNL     1       7.326  19.931  14.566  1.00  0.00     0.000 C 
BRANCH  12  13
ATOM     13  C   UNL     1       8.302  20.047  13.384  1.00  0.00    -0.000 C 
BRANCH  13  14
ATOM     14  C   UNL     1       8.970  21.431  13.293  1.00  0.00    -0.000 C 
BRANCH  14  15
ATOM     15  C   UNL     1      10.506  21.434  13.440  1.00  0.00    -0.000 C 
BRANCH  15  16
ATOM     16  C   UNL     1      11.028  21.426  14.888  1.00  0.00    -0.000 C 
BRANCH  16  17
ATOM     17  C   UNL     1      11.125  22.837  15.494  1.00  0.00    -0.000 C 
BRANCH  17  18
ATOM     18  C   UNL     1      10.458  22.929  16.876  1.00  0.00    -0.003 C 
ATOM     19  C   UNL     1       9.153  22.137  16.960  1.00  0.00     0.004 C 
ENDBRANCH  17  18
ENDBRANCH  16  17
ENDBRANCH  15  16
ENDBRANCH  14  15
ENDBRANCH  13  14
ENDBRANCH  12  13
ENDBRANCH   1  12
TORSDOF 14
ENDMDL
MODEL 7
REMARK VINA RESULT:    -0.187      7.654     10.672
REMARK INTER + INTRA:          -0.566
REMARK INTER:                  -0.082
REMARK INTRA:                  -0.484
REMARK UNBOUND:                -0.227
REMARK SMILES CCCCCCCCCCCCCC[C@@H](C)C(=O)[O-]
REMARK SMILES IDX 9 1 10 2 11 3 12 4 13 5 14 6 15 7 16 8 17 9 18 10 19 11 8 12
REMARK SMILES IDX 7 13 6 14 5 15 4 16 3 17 2 18 1 19
REMARK H PARENT
REMARK Flexibility Score: inf
ROOT
ATOM      1  C   UNL     1       3.343  19.990  16.029  1.00  0.00     0.000 C 
ENDROOT
BRANCH   1   2
ATOM      2  C   UNL     1       2.123  20.892  15.749  1.00  0.00     0.000 C 
BRANCH   2   3
ATOM      3  C   UNL     1       0.755  20.259  16.060  1.00  0.00     0.000 C 
BRANCH   3   4
ATOM      4  C   UNL     1      -0.415  21.231  15.844  1.00  0.00     0.000 C 
BRANCH   4   5
ATOM      5  C   UNL     1      -1.676  20.739  16.569  1.00  0.00     0.001 C 
BRANCH   5   6
ATOM      6  C   UNL     1      -2.915  20.688  15.654  1.00  0.00     0.009 C 
BRANCH   6   7
ATOM      7  C   UNL     1      -4.108  19.875  16.210  1.00  0.00     0.032 C 
ATOM      8  C   UNL     1      -4.156  19.876  17.744  1.00  0.00     0.014 C 
BRANCH   7   9
ATOM      9  C   UNL     1      -5.393  20.435  15.664  1.00  0.00     0.044 C 
ATOM     10  O   UNL     1      -5.409  21.000  14.538  1.00  0.00    -0.550 OA
ATOM     11  O   UNL     1      -6.567  20.347  16.402  1.00  0.00    -0.550 OA
ENDBRANCH   7   9
ENDBRANCH   6   7
ENDBRANCH   5   6
ENDBRANCH   4   5
ENDBRANCH   3   4
ENDBRANCH   2   3
ENDBRANCH   1   2
BRANCH   1  12
ATOM     12  C   UNL     1       4.715  20.659  15.832  1.00  0.00     0.000 C 
BRANCH  12  13
ATOM     13  C   UNL     1       5.344  20.339  14.466  1.00  0.00    -0.000 C 
BRANCH  13  14
ATOM     14  C   UNL     1       6.857  20.623  14.422  1.00  0.00    -0.000 C 
BRANCH  14  15
ATOM     15  C   UNL     1       7.597  20.075  13.184  1.00  0.00    -0.000 C 
BRANCH  15  16
ATOM     16  C   UNL     1       9.117  19.900  13.351  1.00  0.00    -0.000 C 
BRANCH  16  17
ATOM     17  C   UNL     1       9.928  20.861  12.464  1.00  0.00    -0.000 C 
BRANCH  17  18
ATOM     18  C   UNL     1      10.928  21.702  13.272  1.00  0.00    -0.003 C 
ATOM     19  C   UNL     1      10.557  21.809  14.751  1.00  0.00     0.004 C 
ENDBRANCH  17  18
ENDBRANCH  16  17
ENDBRANCH  15  16
ENDBRANCH  14  15
ENDBRANCH  13  14
ENDBRANCH  12  13
ENDBRANCH   1  12
TORSDOF 14
ENDMDL
MODEL 8
REMARK VINA RESULT:    -0.032     10.404     13.549
REMARK INTER + INTRA:          -0.285
REMARK INTER:                   0.053
REMARK INTRA:                  -0.337
REMARK UNBOUND:                -0.227
REMARK SMILES CCCCCCCCCCCCCC[C@@H](C)C(=O)[O-]
REMARK SMILES IDX 9 1 10 2 11 3 12 4 13 5 14 6 15 7 16 8 17 9 18 10 19 11 8 12
REMARK SMILES IDX 7 13 6 14 5 15 4 16 3 17 2 18 1 19
REMARK H PARENT
REMARK Flexibility Score: inf
ROOT
ATOM      1  C   UNL     1      -0.502  21.013  16.906  1.00  0.00     0.000 C 
ENDROOT
BRANCH   1   2
ATOM      2  C   UNL     1      -1.424  19.888  17.418  1.00  0.00     0.000 C 
BRANCH   2   3
ATOM      3  C   UNL     1      -2.923  20.090  17.137  1.00  0.00     0.000 C 
BRANCH   3   4
ATOM      4  C   UNL     1      -3.797  19.889  18.384  1.00  0.00     0.000 C 
BRANCH   4   5
ATOM      5  C   UNL     1      -5.287  19.875  18.013  1.00  0.00     0.001 C 
BRANCH   5   6
ATOM      6  C   UNL     1      -6.215  19.931  19.241  1.00  0.00     0.009 C 
BRANCH   6   7
ATOM      7  C   UNL     1      -7.513  20.751  19.047  1.00  0.00     0.032 C 
ATOM      8  C   UNL     1      -8.702  19.877  18.625  1.00  0.00     0.014 C 
BRANCH   7   9
ATOM      9  C   UNL     1      -7.843  21.474  20.323  1.00  0.00     0.044 C 
ATOM     10  O   UNL     1      -7.493  20.992  21.433  1.00  0.00    -0.550 OA
ATOM     11  O   UNL     1      -8.551  22.670  20.289  1.00  0.00    -0.550 OA
ENDBRANCH   7   9
ENDBRANCH   6   7
ENDBRANCH   5   6
ENDBRANCH   4   5
ENDBRANCH   3   4
ENDBRANCH   2   3
ENDBRANCH   1   2
BRANCH   1  12
ATOM     12  C   UNL     1       0.503  20.596  15.816  1.00  0.00     0.000 C 
BRANCH  12  13
ATOM     13  C   UNL     1       1.857  20.150  16.392  1.00  0.00    -0.000 C 
BRANCH  13  14
ATOM     14  C   UNL     1       2.988  20.175  15.348  1.00  0.00    -0.000 C 
BRANCH  14  15
ATOM     15  C   UNL     1       4.400  19.878  15.896  1.00  0.00    -0.000 C 
BRANCH  15  16
ATOM     16  C   UNL     1       5.447  20.979  15.647  1.00  0.00    -0.000 C 
BRANCH  16  17
ATOM     17  C   UNL     1       6.809  20.662  16.289  1.00  0.00    -0.000 C 
BRANCH  17  18
ATOM     18  C   UNL     1       7.901  20.388  15.243  1.00  0.00    -0.003 C 
ATOM     19  C   UNL     1       7.333  20.008  13.875  1.00  0.00     0.004 C 
ENDBRANCH  17  18
ENDBRANCH  16  17
ENDBRANCH  15  16
ENDBRANCH  14  15
ENDBRANCH  13  14
ENDBRANCH  12  13
ENDBRANCH   1  12
TORSDOF 14
ENDMDL
