MODEL 1
REMARK VINA RESULT:    -6.475      0.000      0.000
REMARK INTER + INTRA:          -8.576
REMARK INTER:                  -8.178
REMARK INTRA:                  -0.399
REMARK UNBOUND:                -0.399
REMARK SMILES Oc1cc(O)cc(CCc2ccccc2O)c1
REMARK SMILES IDX 9 1 10 2 12 3 13 4 11 5 14 6 15 7 16 8 8 10 7 11 6 12 17 13
REMARK SMILES IDX 4 14 2 15 3 16 5 17 1 19
REMARK H PARENT 16 9 5 18 1 20
REMARK Flexibility Score: inf
ROOT
ATOM      1  C   UNL     1     -31.310 -20.963 -33.851  1.00  0.00     0.044 C 
ENDROOT
BRANCH   1   2
ATOM      2  C   UNL     1     -30.439 -20.614 -32.670  1.00  0.00    -0.006 A 
ATOM      3  C   UNL     1     -30.201 -20.268 -30.275  1.00  0.00     0.001 A 
ATOM      4  C   UNL     1     -28.867 -19.899 -30.456  1.00  0.00     0.004 A 
ATOM      5  C   UNL     1     -30.986 -20.619 -31.376  1.00  0.00     0.007 A 
ATOM      6  C   UNL     1     -28.315 -19.875 -31.739  1.00  0.00     0.046 A 
ATOM      7  C   UNL     1     -29.096 -20.225 -32.851  1.00  0.00     0.118 A 
BRANCH   7   8
ATOM      8  O   UNL     1     -28.542 -20.185 -34.131  1.00  0.00    -0.508 OA
ATOM      9  H   UNL     1     -28.563 -19.341 -34.692  1.00  0.00     0.293 HD
ENDBRANCH   7   8
ENDBRANCH   1   2
BRANCH   1  10
ATOM     10  C   UNL     1     -31.523 -22.477 -33.935  1.00  0.00     0.040 C 
BRANCH  10  11
ATOM     11  C   UNL     1     -31.790 -22.896 -35.356  1.00  0.00    -0.040 A 
ATOM     12  C   UNL     1     -32.842 -22.314 -36.080  1.00  0.00     0.050 A 
ATOM     13  C   UNL     1     -30.951 -23.830 -35.988  1.00  0.00     0.050 A 
ATOM     14  C   UNL     1     -33.071 -22.677 -37.412  1.00  0.00     0.119 A 
ATOM     15  C   UNL     1     -31.178 -24.195 -37.322  1.00  0.00     0.119 A 
ATOM     16  C   UNL     1     -32.239 -23.621 -38.030  1.00  0.00     0.092 A 
BRANCH  14  17
ATOM     17  O   UNL     1     -34.125 -22.094 -38.111  1.00  0.00    -0.508 OA
ATOM     18  H   UNL     1     -35.015 -22.567 -38.219  1.00  0.00     0.293 HD
ENDBRANCH  14  17
BRANCH  15  19
ATOM     19  O   UNL     1     -30.356 -25.126 -37.953  1.00  0.00    -0.508 OA
ATOM     20  H   UNL     1     -30.741 -25.900 -38.481  1.00  0.00     0.293 HD
ENDBRANCH  15  19
ENDBRANCH  10  11
ENDBRANCH   1  10
TORSDOF 6
ENDMDL
MODEL 2
REMARK VINA RESULT:    -6.453      0.078      2.036
REMARK INTER + INTRA:          -8.550
REMARK INTER:                  -8.152
REMARK INTRA:                  -0.397
REMARK UNBOUND:                -0.399
REMARK SMILES Oc1cc(O)cc(CCc2ccccc2O)c1
REMARK SMILES IDX 9 1 10 2 12 3 13 4 11 5 14 6 15 7 16 8 8 10 7 11 6 12 17 13
REMARK SMILES IDX 4 14 2 15 3 16 5 17 1 19
REMARK H PARENT 16 9 5 18 1 20
REMARK Flexibility Score: inf
ROOT
ATOM      1  C   UNL     1     -31.418 -20.980 -33.789  1.00  0.00     0.044 C 
ENDROOT
BRANCH   1   2
ATOM      2  C   UNL     1     -30.539 -20.617 -32.619  1.00  0.00    -0.006 A 
ATOM      3  C   UNL     1     -30.286 -20.232 -30.231  1.00  0.00     0.001 A 
ATOM      4  C   UNL     1     -28.950 -19.876 -30.425  1.00  0.00     0.004 A 
ATOM      5  C   UNL     1     -31.079 -20.597 -31.322  1.00  0.00     0.007 A 
ATOM      6  C   UNL     1     -28.405 -19.877 -31.712  1.00  0.00     0.046 A 
ATOM      7  C   UNL     1     -29.194 -20.241 -32.813  1.00  0.00     0.118 A 
BRANCH   7   8
ATOM      8  O   UNL     1     -28.647 -20.225 -34.096  1.00  0.00    -0.508 OA
ATOM      9  H   UNL     1     -28.640 -21.053 -34.681  1.00  0.00     0.293 HD
ENDBRANCH   7   8
ENDBRANCH   1   2
BRANCH   1  10
ATOM     10  C   UNL     1     -31.500 -22.500 -33.951  1.00  0.00     0.040 C 
BRANCH  10  11
ATOM     11  C   UNL     1     -31.742 -22.867 -35.390  1.00  0.00    -0.040 A 
ATOM     12  C   UNL     1     -30.931 -23.822 -36.023  1.00  0.00     0.050 A 
ATOM     13  C   UNL     1     -32.818 -22.300 -36.095  1.00  0.00     0.050 A 
ATOM     14  C   UNL     1     -31.175 -24.190 -37.351  1.00  0.00     0.119 A 
ATOM     15  C   UNL     1     -33.064 -22.667 -37.425  1.00  0.00     0.119 A 
ATOM     16  C   UNL     1     -32.240 -23.608 -38.051  1.00  0.00     0.092 A 
BRANCH  14  17
ATOM     17  O   UNL     1     -30.354 -25.134 -37.964  1.00  0.00    -0.508 OA
ATOM     18  H   UNL     1     -30.087 -25.051 -38.938  1.00  0.00     0.293 HD
ENDBRANCH  14  17
BRANCH  15  19
ATOM     19  O   UNL     1     -34.125 -22.104 -38.132  1.00  0.00    -0.508 OA
ATOM     20  H   UNL     1     -34.390 -22.446 -39.048  1.00  0.00     0.293 HD
ENDBRANCH  15  19
ENDBRANCH  10  11
ENDBRANCH   1  10
TORSDOF 6
ENDMDL
MODEL 3
REMARK VINA RESULT:    -5.821      1.584      6.444
REMARK INTER + INTRA:          -7.751
REMARK INTER:                  -7.225
REMARK INTRA:                  -0.525
REMARK UNBOUND:                -0.399
REMARK SMILES Oc1cc(O)cc(CCc2ccccc2O)c1
REMARK SMILES IDX 9 1 10 2 12 3 13 4 11 5 14 6 15 7 16 8 8 10 7 11 6 12 17 13
REMARK SMILES IDX 4 14 2 15 3 16 5 17 1 19
REMARK H PARENT 16 9 5 18 1 20
REMARK Flexibility Score: inf
ROOT
ATOM      1  C   UNL     1     -31.485 -23.603 -35.322  1.00  0.00     0.044 C 
ENDROOT
BRANCH   1   2
ATOM      2  C   UNL     1     -31.982 -23.101 -36.654  1.00  0.00    -0.006 A 
ATOM      3  C   UNL     1     -33.536 -21.731 -37.927  1.00  0.00     0.001 A 
ATOM      4  C   UNL     1     -32.981 -22.200 -39.119  1.00  0.00     0.004 A 
ATOM      5  C   UNL     1     -33.043 -22.181 -36.700  1.00  0.00     0.007 A 
ATOM      6  C   UNL     1     -31.935 -23.126 -39.087  1.00  0.00     0.046 A 
ATOM      7  C   UNL     1     -31.435 -23.585 -37.860  1.00  0.00     0.118 A 
BRANCH   7   8
ATOM      8  O   UNL     1     -30.401 -24.521 -37.837  1.00  0.00    -0.508 OA
ATOM      9  H   UNL     1     -29.684 -24.540 -38.554  1.00  0.00     0.293 HD
ENDBRANCH   7   8
ENDBRANCH   1   2
BRANCH   1  10
ATOM     10  C   UNL     1     -32.091 -22.787 -34.178  1.00  0.00     0.040 C 
BRANCH  10  11
ATOM     11  C   UNL     1     -31.010 -22.121 -33.370  1.00  0.00    -0.040 A 
ATOM     12  C   UNL     1     -30.050 -21.314 -34.002  1.00  0.00     0.050 A 
ATOM     13  C   UNL     1     -30.986 -22.254 -31.972  1.00  0.00     0.050 A 
ATOM     14  C   UNL     1     -29.064 -20.666 -33.250  1.00  0.00     0.119 A 
ATOM     15  C   UNL     1     -29.999 -21.606 -31.216  1.00  0.00     0.119 A 
ATOM     16  C   UNL     1     -29.038 -20.817 -31.857  1.00  0.00     0.092 A 
BRANCH  14  17
ATOM     17  O   UNL     1     -28.116 -19.875 -33.896  1.00  0.00    -0.508 OA
ATOM     18  H   UNL     1     -28.372 -19.259 -34.659  1.00  0.00     0.293 HD
ENDBRANCH  14  17
BRANCH  15  19
ATOM     19  O   UNL     1     -29.965 -21.739 -29.830  1.00  0.00    -0.508 OA
ATOM     20  H   UNL     1     -29.784 -22.633 -29.389  1.00  0.00     0.293 HD
ENDBRANCH  15  19
ENDBRANCH  10  11
ENDBRANCH   1  10
TORSDOF 6
ENDMDL
MODEL 4
REMARK VINA RESULT:    -5.727      1.590      6.434
REMARK INTER + INTRA:          -7.632
REMARK INTER:                  -7.101
REMARK INTRA:                  -0.531
REMARK UNBOUND:                -0.399
REMARK SMILES Oc1cc(O)cc(CCc2ccccc2O)c1
REMARK SMILES IDX 9 1 10 2 12 3 13 4 11 5 14 6 15 7 16 8 8 10 7 11 6 12 17 13
REMARK SMILES IDX 4 14 2 15 3 16 5 17 1 19
REMARK H PARENT 16 9 5 18 1 20
REMARK Flexibility Score: inf
ROOT
ATOM      1  C   UNL     1     -31.489 -23.611 -35.363  1.00  0.00     0.044 C 
ENDROOT
BRANCH   1   2
ATOM      2  C   UNL     1     -32.009 -23.102 -36.683  1.00  0.00    -0.006 A 
ATOM      3  C   UNL     1     -33.583 -21.721 -37.920  1.00  0.00     0.001 A 
ATOM      4  C   UNL     1     -33.052 -22.187 -39.125  1.00  0.00     0.004 A 
ATOM      5  C   UNL     1     -33.068 -22.178 -36.705  1.00  0.00     0.007 A 
ATOM      6  C   UNL     1     -32.009 -23.116 -39.117  1.00  0.00     0.046 A 
ATOM      7  C   UNL     1     -31.487 -23.582 -37.901  1.00  0.00     0.118 A 
BRANCH   7   8
ATOM      8  O   UNL     1     -30.455 -24.521 -37.902  1.00  0.00    -0.508 OA
ATOM      9  H   UNL     1     -29.486 -24.246 -37.790  1.00  0.00     0.293 HD
ENDBRANCH   7   8
ENDBRANCH   1   2
BRANCH   1  10
ATOM     10  C   UNL     1     -32.119 -22.839 -34.201  1.00  0.00     0.040 C 
BRANCH  10  11
ATOM     11  C   UNL     1     -31.060 -22.134 -33.397  1.00  0.00    -0.040 A 
ATOM     12  C   UNL     1     -30.976 -22.331 -32.009  1.00  0.00     0.050 A 
ATOM     13  C   UNL     1     -30.111 -21.319 -34.036  1.00  0.00     0.050 A 
ATOM     14  C   UNL     1     -29.971 -21.704 -31.264  1.00  0.00     0.119 A 
ATOM     15  C   UNL     1     -29.103 -20.690 -33.292  1.00  0.00     0.119 A 
ATOM     16  C   UNL     1     -29.038 -20.881 -31.908  1.00  0.00     0.092 A 
BRANCH  14  17
ATOM     17  O   UNL     1     -29.909 -21.906 -29.887  1.00  0.00    -0.508 OA
ATOM     18  H   UNL     1     -29.684 -21.150 -29.251  1.00  0.00     0.293 HD
ENDBRANCH  14  17
BRANCH  15  19
ATOM     19  O   UNL     1     -28.162 -19.875 -33.918  1.00  0.00    -0.508 OA
ATOM     20  H   UNL     1     -28.411 -19.291 -34.708  1.00  0.00     0.293 HD
ENDBRANCH  15  19
ENDBRANCH  10  11
ENDBRANCH   1  10
TORSDOF 6
ENDMDL
MODEL 5
REMARK VINA RESULT:    -5.625      1.452      1.844
REMARK INTER + INTRA:          -7.504
REMARK INTER:                  -6.964
REMARK INTRA:                  -0.539
REMARK UNBOUND:                -0.399
REMARK SMILES Oc1cc(O)cc(CCc2ccccc2O)c1
REMARK SMILES IDX 9 1 10 2 12 3 13 4 11 5 14 6 15 7 16 8 8 10 7 11 6 12 17 13
REMARK SMILES IDX 4 14 2 15 3 16 5 17 1 19
REMARK H PARENT 16 9 5 18 1 20
REMARK Flexibility Score: inf
ROOT
ATOM      1  C   UNL     1     -31.149 -22.821 -33.505  1.00  0.00     0.044 C 
ENDROOT
BRANCH   1   2
ATOM      2  C   UNL     1     -30.297 -21.788 -32.810  1.00  0.00    -0.006 A 
ATOM      3  C   UNL     1     -28.803 -19.875 -32.944  1.00  0.00     0.001 A 
ATOM      4  C   UNL     1     -28.646 -19.895 -31.557  1.00  0.00     0.004 A 
ATOM      5  C   UNL     1     -29.620 -20.819 -33.570  1.00  0.00     0.007 A 
ATOM      6  C   UNL     1     -29.302 -20.863 -30.792  1.00  0.00     0.046 A 
ATOM      7  C   UNL     1     -30.124 -21.816 -31.412  1.00  0.00     0.118 A 
BRANCH   7   8
ATOM      8  O   UNL     1     -30.763 -22.788 -30.643  1.00  0.00    -0.508 OA
ATOM      9  H   UNL     1     -31.538 -23.331 -31.009  1.00  0.00     0.293 HD
ENDBRANCH   7   8
ENDBRANCH   1   2
BRANCH   1  10
ATOM     10  C   UNL     1     -32.244 -22.147 -34.336  1.00  0.00     0.040 C 
BRANCH  10  11
ATOM     11  C   UNL     1     -32.234 -22.669 -35.748  1.00  0.00    -0.040 A 
ATOM     12  C   UNL     1     -33.115 -22.139 -36.704  1.00  0.00     0.050 A 
ATOM     13  C   UNL     1     -31.305 -23.648 -36.135  1.00  0.00     0.050 A 
ATOM     14  C   UNL     1     -33.084 -22.597 -38.026  1.00  0.00     0.119 A 
ATOM     15  C   UNL     1     -31.272 -24.110 -37.458  1.00  0.00     0.119 A 
ATOM     16  C   UNL     1     -32.165 -23.586 -38.399  1.00  0.00     0.092 A 
BRANCH  14  17
ATOM     17  O   UNL     1     -33.971 -22.064 -38.958  1.00  0.00    -0.508 OA
ATOM     18  H   UNL     1     -33.663 -21.411 -39.669  1.00  0.00     0.293 HD
ENDBRANCH  14  17
BRANCH  15  19
ATOM     19  O   UNL     1     -30.358 -25.086 -37.847  1.00  0.00    -0.508 OA
ATOM     20  H   UNL     1     -29.967 -25.102 -38.782  1.00  0.00     0.293 HD
ENDBRANCH  15  19
ENDBRANCH  10  11
ENDBRANCH   1  10
TORSDOF 6
ENDMDL
MODEL 6
REMARK VINA RESULT:    -5.501      1.483      2.750
REMARK INTER + INTRA:          -7.347
REMARK INTER:                  -6.803
REMARK INTRA:                  -0.543
REMARK UNBOUND:                -0.399
REMARK SMILES Oc1cc(O)cc(CCc2ccccc2O)c1
REMARK SMILES IDX 9 1 10 2 12 3 13 4 11 5 14 6 15 7 16 8 8 10 7 11 6 12 17 13
REMARK SMILES IDX 4 14 2 15 3 16 5 17 1 19
REMARK H PARENT 16 9 5 18 1 20
REMARK Flexibility Score: inf
ROOT
ATOM      1  C   UNL     1     -31.215 -22.967 -33.509  1.00  0.00     0.044 C 
ENDROOT
BRANCH   1   2
ATOM      2  C   UNL     1     -30.441 -21.916 -32.752  1.00  0.00    -0.006 A 
ATOM      3  C   UNL     1     -29.119 -19.875 -32.767  1.00  0.00     0.001 A 
ATOM      4  C   UNL     1     -28.931 -19.981 -31.388  1.00  0.00     0.004 A 
ATOM      5  C   UNL     1     -29.866 -20.839 -33.449  1.00  0.00     0.007 A 
ATOM      6  C   UNL     1     -29.485 -21.055 -30.687  1.00  0.00     0.046 A 
ATOM      7  C   UNL     1     -30.236 -22.029 -31.362  1.00  0.00     0.118 A 
BRANCH   7   8
ATOM      8  O   UNL     1     -30.773 -23.106 -30.658  1.00  0.00    -0.508 OA
ATOM      9  H   UNL     1     -31.244 -23.869 -31.130  1.00  0.00     0.293 HD
ENDBRANCH   7   8
ENDBRANCH   1   2
BRANCH   1  10
ATOM     10  C   UNL     1     -32.331 -22.323 -34.336  1.00  0.00     0.040 C 
BRANCH  10  11
ATOM     11  C   UNL     1     -32.221 -22.729 -35.780  1.00  0.00    -0.040 A 
ATOM     12  C   UNL     1     -31.256 -23.666 -36.181  1.00  0.00     0.050 A 
ATOM     13  C   UNL     1     -33.122 -22.220 -36.730  1.00  0.00     0.050 A 
ATOM     14  C   UNL     1     -31.174 -24.072 -37.518  1.00  0.00     0.119 A 
ATOM     15  C   UNL     1     -33.043 -22.624 -38.070  1.00  0.00     0.119 A 
ATOM     16  C   UNL     1     -32.066 -23.546 -38.461  1.00  0.00     0.092 A 
BRANCH  14  17
ATOM     17  O   UNL     1     -30.203 -24.997 -37.897  1.00  0.00    -0.508 OA
ATOM     18  H   UNL     1     -29.882 -25.064 -38.856  1.00  0.00     0.293 HD
ENDBRANCH  14  17
BRANCH  15  19
ATOM     19  O   UNL     1     -33.928 -22.117 -39.018  1.00  0.00    -0.508 OA
ATOM     20  H   UNL     1     -34.657 -22.694 -39.423  1.00  0.00     0.293 HD
ENDBRANCH  15  19
ENDBRANCH  10  11
ENDBRANCH   1  10
TORSDOF 6
ENDMDL
MODEL 7
REMARK VINA RESULT:    -5.140      1.903      6.536
REMARK INTER + INTRA:          -6.891
REMARK INTER:                  -6.400
REMARK INTRA:                  -0.491
REMARK UNBOUND:                -0.399
REMARK SMILES Oc1cc(O)cc(CCc2ccccc2O)c1
REMARK SMILES IDX 9 1 10 2 12 3 13 4 11 5 14 6 15 7 16 8 8 10 7 11 6 12 17 13
REMARK SMILES IDX 4 14 2 15 3 16 5 17 1 19
REMARK H PARENT 16 9 5 18 1 20
REMARK Flexibility Score: inf
ROOT
ATOM      1  C   UNL     1     -32.120 -22.309 -35.942  1.00  0.00     0.044 C 
ENDROOT
BRANCH   1   2
ATOM      2  C   UNL     1     -32.108 -23.475 -36.899  1.00  0.00    -0.006 A 
ATOM      3  C   UNL     1     -32.606 -25.810 -37.359  1.00  0.00     0.001 A 
ATOM      4  C   UNL     1     -32.037 -25.686 -38.628  1.00  0.00     0.004 A 
ATOM      5  C   UNL     1     -32.639 -24.712 -36.496  1.00  0.00     0.007 A 
ATOM      6  C   UNL     1     -31.493 -24.466 -39.035  1.00  0.00     0.046 A 
ATOM      7  C   UNL     1     -31.519 -23.358 -38.175  1.00  0.00     0.118 A 
BRANCH   7   8
ATOM      8  O   UNL     1     -30.960 -22.147 -38.582  1.00  0.00    -0.508 OA
ATOM      9  H   UNL     1     -31.500 -21.289 -38.594  1.00  0.00     0.293 HD
ENDBRANCH   7   8
ENDBRANCH   1   2
BRANCH   1  10
ATOM     10  C   UNL     1     -32.305 -22.795 -34.502  1.00  0.00     0.040 C 
BRANCH  10  11
ATOM     11  C   UNL     1     -31.245 -22.213 -33.607  1.00  0.00    -0.040 A 
ATOM     12  C   UNL     1     -31.147 -22.622 -32.267  1.00  0.00     0.050 A 
ATOM     13  C   UNL     1     -30.307 -21.301 -34.119  1.00  0.00     0.050 A 
ATOM     14  C   UNL     1     -30.141 -22.108 -31.441  1.00  0.00     0.119 A 
ATOM     15  C   UNL     1     -29.298 -20.785 -33.294  1.00  0.00     0.119 A 
ATOM     16  C   UNL     1     -29.219 -21.187 -31.956  1.00  0.00     0.092 A 
BRANCH  14  17
ATOM     17  O   UNL     1     -30.066 -22.520 -30.113  1.00  0.00    -0.508 OA
ATOM     18  H   UNL     1     -29.357 -23.174 -29.800  1.00  0.00     0.293 HD
ENDBRANCH  14  17
BRANCH  15  19
ATOM     19  O   UNL     1     -28.369 -19.875 -33.793  1.00  0.00    -0.508 OA
ATOM     20  H   UNL     1     -27.445 -19.786 -33.387  1.00  0.00     0.293 HD
ENDBRANCH  15  19
ENDBRANCH  10  11
ENDBRANCH   1  10
TORSDOF 6
ENDMDL
MODEL 8
REMARK VINA RESULT:    -4.647      1.948      6.803
REMARK INTER + INTRA:          -6.269
REMARK INTER:                  -6.013
REMARK INTRA:                  -0.255
REMARK UNBOUND:                -0.399
REMARK SMILES Oc1cc(O)cc(CCc2ccccc2O)c1
REMARK SMILES IDX 9 1 10 2 12 3 13 4 11 5 14 6 15 7 16 8 8 10 7 11 6 12 17 13
REMARK SMILES IDX 4 14 2 15 3 16 5 17 1 19
REMARK H PARENT 16 9 5 18 1 20
REMARK Flexibility Score: inf
ROOT
ATOM      1  C   UNL     1     -31.522 -22.396 -33.825  1.00  0.00     0.044 C 
ENDROOT
BRANCH   1   2
ATOM      2  C   UNL     1     -31.958 -22.806 -35.209  1.00  0.00    -0.006 A 
ATOM      3  C   UNL     1     -31.548 -24.074 -37.243  1.00  0.00     0.001 A 
ATOM      4  C   UNL     1     -32.701 -23.536 -37.817  1.00  0.00     0.004 A 
ATOM      5  C   UNL     1     -31.174 -23.708 -35.948  1.00  0.00     0.007 A 
ATOM      6  C   UNL     1     -33.481 -22.627 -37.099  1.00  0.00     0.046 A 
ATOM      7  C   UNL     1     -33.113 -22.252 -35.798  1.00  0.00     0.118 A 
BRANCH   7   8
ATOM      8  O   UNL     1     -33.889 -21.332 -35.093  1.00  0.00    -0.508 OA
ATOM      9  H   UNL     1     -34.053 -20.396 -35.443  1.00  0.00     0.293 HD
ENDBRANCH   7   8
ENDBRANCH   1   2
BRANCH   1  10
ATOM     10  C   UNL     1     -30.936 -20.981 -33.841  1.00  0.00     0.040 C 
BRANCH  10  11
ATOM     11  C   UNL     1     -30.510 -20.569 -32.458  1.00  0.00    -0.040 A 
ATOM     12  C   UNL     1     -31.464 -20.405 -31.442  1.00  0.00     0.050 A 
ATOM     13  C   UNL     1     -29.147 -20.401 -32.158  1.00  0.00     0.050 A 
ATOM     14  C   UNL     1     -31.067 -20.056 -30.147  1.00  0.00     0.119 A 
ATOM     15  C   UNL     1     -28.747 -20.051 -30.861  1.00  0.00     0.119 A 
ATOM     16  C   UNL     1     -29.708 -19.875 -29.859  1.00  0.00     0.092 A 
BRANCH  14  17
ATOM     17  O   UNL     1     -32.031 -19.891 -29.154  1.00  0.00    -0.508 OA
ATOM     18  H   UNL     1     -31.987 -19.120 -28.497  1.00  0.00     0.293 HD
ENDBRANCH  14  17
BRANCH  15  19
ATOM     19  O   UNL     1     -27.399 -19.876 -30.557  1.00  0.00    -0.508 OA
ATOM     20  H   UNL     1     -26.680 -19.978 -31.264  1.00  0.00     0.293 HD
ENDBRANCH  15  19
ENDBRANCH  10  11
ENDBRANCH   1  10
TORSDOF 6
ENDMDL
