MODEL 1
REMARK VINA RESULT:    -4.529      0.000      0.000
REMARK INTER + INTRA:          -6.860
REMARK INTER:                  -6.515
REMARK INTRA:                  -0.345
REMARK UNBOUND:                -0.345
REMARK SMILES CCCCCCCCCO
REMARK SMILES IDX 6 1 5 2 4 3 3 4 2 5 1 6 7 7 8 8 9 9 10 10
REMARK H PARENT 10 11
REMARK Flexibility Score: inf
ROOT
ATOM      1  C   UNL     1      18.457  14.009  21.706  1.00  0.00     0.000 C 
ENDROOT
BRANCH   1   2
ATOM      2  C   UNL     1      19.294  12.724  21.829  1.00  0.00     0.000 C 
BRANCH   2   3
ATOM      3  C   UNL     1      19.906  12.546  23.227  1.00  0.00    -0.000 C 
BRANCH   3   4
ATOM      4  C   UNL     1      19.076  13.281  24.286  1.00  0.00    -0.000 C 
BRANCH   4   5
ATOM      5  C   UNL     1      19.979  13.914  25.351  1.00  0.00    -0.003 C 
ATOM      6  C   UNL     1      20.860  12.864  26.021  1.00  0.00     0.004 C 
ENDBRANCH   4   5
ENDBRANCH   3   4
ENDBRANCH   2   3
ENDBRANCH   1   2
BRANCH   1   7
ATOM      7  C   UNL     1      17.668  14.075  20.386  1.00  0.00     0.002 C 
BRANCH   7   8
ATOM      8  C   UNL     1      16.497  13.076  20.348  1.00  0.00     0.028 C 
BRANCH   8   9
ATOM      9  C   UNL     1      15.696  13.013  21.656  1.00  0.00     0.156 C 
BRANCH   9  10
ATOM     10  O   UNL     1      15.939  11.813  22.339  1.00  0.00    -0.396 OA
ATOM     11  H   UNL     1      15.566  11.926  23.253  1.00  0.00     0.210 HD
ENDBRANCH   9  10
ENDBRANCH   8   9
ENDBRANCH   7   8
ENDBRANCH   1   7
TORSDOF 8
ENDMDL
MODEL 2
REMARK VINA RESULT:    -4.481      8.894     10.138
REMARK INTER + INTRA:          -6.791
REMARK INTER:                  -6.021
REMARK INTRA:                  -0.771
REMARK UNBOUND:                -0.345
REMARK SMILES CCCCCCCCCO
REMARK SMILES IDX 6 1 5 2 4 3 3 4 2 5 1 6 7 7 8 8 9 9 10 10
REMARK H PARENT 10 11
REMARK Flexibility Score: inf
ROOT
ATOM      1  C   UNL     1      12.917  15.229  32.051  1.00  0.00     0.000 C 
ENDROOT
BRANCH   1   2
ATOM      2  C   UNL     1      13.828  14.137  31.466  1.00  0.00     0.000 C 
BRANCH   2   3
ATOM      3  C   UNL     1      13.106  13.251  30.438  1.00  0.00    -0.000 C 
BRANCH   3   4
ATOM      4  C   UNL     1      13.907  13.161  29.134  1.00  0.00    -0.000 C 
BRANCH   4   5
ATOM      5  C   UNL     1      13.921  14.508  28.403  1.00  0.00    -0.003 C 
ATOM      6  C   UNL     1      12.838  14.564  27.330  1.00  0.00     0.004 C 
ENDBRANCH   4   5
ENDBRANCH   3   4
ENDBRANCH   2   3
ENDBRANCH   1   2
BRANCH   1   7
ATOM      7  C   UNL     1      13.009  16.554  31.273  1.00  0.00     0.002 C 
BRANCH   7   8
ATOM      8  C   UNL     1      11.759  16.823  30.415  1.00  0.00     0.028 C 
BRANCH   8   9
ATOM      9  C   UNL     1      10.567  15.921  30.761  1.00  0.00     0.156 C 
BRANCH   9  10
ATOM     10  O   UNL     1      10.185  15.142  29.659  1.00  0.00    -0.396 OA
ATOM     11  H   UNL     1       9.297  14.755  29.879  1.00  0.00     0.210 HD
ENDBRANCH   9  10
ENDBRANCH   8   9
ENDBRANCH   7   8
ENDBRANCH   1   7
TORSDOF 8
ENDMDL
MODEL 3
REMARK VINA RESULT:    -4.464      9.179     10.522
REMARK INTER + INTRA:          -6.766
REMARK INTER:                  -5.963
REMARK INTRA:                  -0.803
REMARK UNBOUND:                -0.345
REMARK SMILES CCCCCCCCCO
REMARK SMILES IDX 6 1 5 2 4 3 3 4 2 5 1 6 7 7 8 8 9 9 10 10
REMARK H PARENT 10 11
REMARK Flexibility Score: inf
ROOT
ATOM      1  C   UNL     1      13.674  14.031  31.509  1.00  0.00     0.000 C 
ENDROOT
BRANCH   1   2
ATOM      2  C   UNL     1      12.527  14.771  32.217  1.00  0.00     0.000 C 
BRANCH   2   3
ATOM      3  C   UNL     1      12.417  16.242  31.790  1.00  0.00    -0.000 C 
BRANCH   3   4
ATOM      4  C   UNL     1      11.370  16.414  30.683  1.00  0.00    -0.000 C 
BRANCH   4   5
ATOM      5  C   UNL     1      10.184  15.467  30.896  1.00  0.00    -0.003 C 
ATOM      6  C   UNL     1       9.831  14.729  29.608  1.00  0.00     0.004 C 
ENDBRANCH   4   5
ENDBRANCH   3   4
ENDBRANCH   2   3
ENDBRANCH   1   2
BRANCH   1   7
ATOM      7  C   UNL     1      13.180  13.151  30.347  1.00  0.00     0.002 C 
BRANCH   7   8
ATOM      8  C   UNL     1      13.963  13.400  29.045  1.00  0.00     0.028 C 
BRANCH   8   9
ATOM      9  C   UNL     1      13.439  14.589  28.227  1.00  0.00     0.156 C 
BRANCH   9  10
ATOM     10  O   UNL     1      14.157  15.758  28.519  1.00  0.00    -0.396 OA
ATOM     11  H   UNL     1      14.367  15.727  29.489  1.00  0.00     0.210 HD
ENDBRANCH   9  10
ENDBRANCH   8   9
ENDBRANCH   7   8
ENDBRANCH   1   7
TORSDOF 8
ENDMDL
MODEL 4
REMARK VINA RESULT:    -4.418      8.266      9.856
REMARK INTER + INTRA:          -6.700
REMARK INTER:                  -6.127
REMARK INTRA:                  -0.573
REMARK UNBOUND:                -0.345
REMARK SMILES CCCCCCCCCO
REMARK SMILES IDX 6 1 5 2 4 3 3 4 2 5 1 6 7 7 8 8 9 9 10 10
REMARK H PARENT 10 11
REMARK Flexibility Score: inf
ROOT
ATOM      1  C   UNL     1      12.887  13.566  30.390  1.00  0.00     0.000 C 
ENDROOT
BRANCH   1   2
ATOM      2  C   UNL     1      13.868  13.243  29.250  1.00  0.00     0.000 C 
BRANCH   2   3
ATOM      3  C   UNL     1      13.984  14.384  28.227  1.00  0.00    -0.000 C 
BRANCH   3   4
ATOM      4  C   UNL     1      12.602  14.794  27.705  1.00  0.00    -0.000 C 
BRANCH   4   5
ATOM      5  C   UNL     1      12.570  16.283  27.344  1.00  0.00    -0.003 C 
ATOM      6  C   UNL     1      12.126  16.490  25.899  1.00  0.00     0.004 C 
ENDBRANCH   4   5
ENDBRANCH   3   4
ENDBRANCH   2   3
ENDBRANCH   1   2
BRANCH   1   7
ATOM      7  C   UNL     1      13.570  14.270  31.575  1.00  0.00     0.002 C 
BRANCH   7   8
ATOM      8  C   UNL     1      12.811  15.529  32.032  1.00  0.00     0.028 C 
BRANCH   8   9
ATOM      9  C   UNL     1      12.876  16.688  31.028  1.00  0.00     0.156 C 
BRANCH   9  10
ATOM     10  O   UNL     1      14.202  16.978  30.676  1.00  0.00    -0.396 OA
ATOM     11  H   UNL     1      14.171  17.403  29.779  1.00  0.00     0.210 HD
ENDBRANCH   9  10
ENDBRANCH   8   9
ENDBRANCH   7   8
ENDBRANCH   1   7
TORSDOF 8
ENDMDL
MODEL 5
REMARK VINA RESULT:    -4.413      7.597      8.034
REMARK INTER + INTRA:          -6.693
REMARK INTER:                  -6.344
REMARK INTRA:                  -0.349
REMARK UNBOUND:                -0.345
REMARK SMILES CCCCCCCCCO
REMARK SMILES IDX 6 1 5 2 4 3 3 4 2 5 1 6 7 7 8 8 9 9 10 10
REMARK H PARENT 10 11
REMARK Flexibility Score: inf
ROOT
ATOM      1  C   UNL     1      12.184  15.812  25.687  1.00  0.00     0.000 C 
ENDROOT
BRANCH   1   2
ATOM      2  C   UNL     1      12.021  15.189  27.083  1.00  0.00     0.000 C 
BRANCH   2   3
ATOM      3  C   UNL     1      12.573  16.087  28.201  1.00  0.00    -0.000 C 
BRANCH   3   4
ATOM      4  C   UNL     1      13.687  15.374  28.977  1.00  0.00    -0.000 C 
BRANCH   4   5
ATOM      5  C   UNL     1      13.698  13.873  28.667  1.00  0.00    -0.003 C 
ATOM      6  C   UNL     1      13.638  13.045  29.948  1.00  0.00     0.004 C 
ENDBRANCH   4   5
ENDBRANCH   3   4
ENDBRANCH   2   3
ENDBRANCH   1   2
BRANCH   1   7
ATOM      7  C   UNL     1      12.229  17.350  25.728  1.00  0.00     0.002 C 
BRANCH   7   8
ATOM      8  C   UNL     1      12.560  17.968  24.357  1.00  0.00     0.028 C 
BRANCH   8   9
ATOM      9  C   UNL     1      11.636  17.495  23.227  1.00  0.00     0.156 C 
BRANCH   9  10
ATOM     10  O   UNL     1      10.527  18.344  23.092  1.00  0.00    -0.396 OA
ATOM     11  H   UNL     1      10.115  18.135  22.213  1.00  0.00     0.210 HD
ENDBRANCH   9  10
ENDBRANCH   8   9
ENDBRANCH   7   8
ENDBRANCH   1   7
TORSDOF 8
ENDMDL
MODEL 6
REMARK VINA RESULT:    -4.409      8.225      9.226
REMARK INTER + INTRA:          -6.686
REMARK INTER:                  -6.017
REMARK INTRA:                  -0.669
REMARK UNBOUND:                -0.345
REMARK SMILES CCCCCCCCCO
REMARK SMILES IDX 6 1 5 2 4 3 3 4 2 5 1 6 7 7 8 8 9 9 10 10
REMARK H PARENT 10 11
REMARK Flexibility Score: inf
ROOT
ATOM      1  C   UNL     1      13.956  13.241  29.196  1.00  0.00     0.000 C 
ENDROOT
BRANCH   1   2
ATOM      2  C   UNL     1      12.959  13.473  30.343  1.00  0.00     0.000 C 
BRANCH   2   3
ATOM      3  C   UNL     1      13.640  13.960  31.631  1.00  0.00    -0.000 C 
BRANCH   3   4
ATOM      4  C   UNL     1      12.991  15.254  32.139  1.00  0.00    -0.000 C 
BRANCH   4   5
ATOM      5  C   UNL     1      13.307  16.429  31.207  1.00  0.00    -0.003 C 
ATOM      6  C   UNL     1      12.029  17.051  30.652  1.00  0.00     0.004 C 
ENDBRANCH   4   5
ENDBRANCH   3   4
ENDBRANCH   2   3
ENDBRANCH   1   2
BRANCH   1   7
ATOM      7  C   UNL     1      13.975  14.402  28.186  1.00  0.00     0.002 C 
BRANCH   7   8
ATOM      8  C   UNL     1      12.565  14.791  27.706  1.00  0.00     0.028 C 
BRANCH   8   9
ATOM      9  C   UNL     1      12.497  16.177  27.050  1.00  0.00     0.156 C 
BRANCH   9  10
ATOM     10  O   UNL     1      11.790  16.129  25.839  1.00  0.00    -0.396 OA
ATOM     11  H   UNL     1      12.338  16.618  25.171  1.00  0.00     0.210 HD
ENDBRANCH   9  10
ENDBRANCH   8   9
ENDBRANCH   7   8
ENDBRANCH   1   7
TORSDOF 8
ENDMDL
MODEL 7
REMARK VINA RESULT:    -4.297      8.056      8.926
REMARK INTER + INTRA:          -6.525
REMARK INTER:                  -5.952
REMARK INTRA:                  -0.574
REMARK UNBOUND:                -0.345
REMARK SMILES CCCCCCCCCO
REMARK SMILES IDX 6 1 5 2 4 3 3 4 2 5 1 6 7 7 8 8 9 9 10 10
REMARK H PARENT 10 11
REMARK Flexibility Score: inf
ROOT
ATOM      1  C   UNL     1      13.976  14.485  28.450  1.00  0.00     0.000 C 
ENDROOT
BRANCH   1   2
ATOM      2  C   UNL     1      13.687  13.241  29.308  1.00  0.00     0.000 C 
BRANCH   2   3
ATOM      3  C   UNL     1      13.511  13.575  30.797  1.00  0.00    -0.000 C 
BRANCH   3   4
ATOM      4  C   UNL     1      12.290  14.478  31.015  1.00  0.00    -0.000 C 
BRANCH   4   5
ATOM      5  C   UNL     1      12.672  15.739  31.797  1.00  0.00    -0.003 C 
ATOM      6  C   UNL     1      12.594  16.981  30.913  1.00  0.00     0.004 C 
ENDBRANCH   4   5
ENDBRANCH   3   4
ENDBRANCH   2   3
ENDBRANCH   1   2
BRANCH   1   7
ATOM      7  C   UNL     1      12.901  14.724  27.375  1.00  0.00     0.002 C 
BRANCH   7   8
ATOM      8  C   UNL     1      12.535  16.212  27.226  1.00  0.00     0.028 C 
BRANCH   8   9
ATOM      9  C   UNL     1      12.186  16.621  25.789  1.00  0.00     0.156 C 
BRANCH   9  10
ATOM     10  O   UNL     1      12.749  17.864  25.466  1.00  0.00    -0.396 OA
ATOM     11  H   UNL     1      13.523  17.679  24.872  1.00  0.00     0.210 HD
ENDBRANCH   9  10
ENDBRANCH   8   9
ENDBRANCH   7   8
ENDBRANCH   1   7
TORSDOF 8
ENDMDL
MODEL 8
REMARK VINA RESULT:    -4.267      6.422      7.922
REMARK INTER + INTRA:          -6.483
REMARK INTER:                  -5.919
REMARK INTRA:                  -0.565
REMARK UNBOUND:                -0.345
REMARK SMILES CCCCCCCCCO
REMARK SMILES IDX 6 1 5 2 4 3 3 4 2 5 1 6 7 7 8 8 9 9 10 10
REMARK H PARENT 10 11
REMARK Flexibility Score: inf
ROOT
ATOM      1  C   UNL     1      12.442  17.407  25.659  1.00  0.00     0.000 C 
ENDROOT
BRANCH   1   2
ATOM      2  C   UNL     1      11.586  16.355  24.934  1.00  0.00     0.000 C 
BRANCH   2   3
ATOM      3  C   UNL     1      11.835  14.929  25.450  1.00  0.00    -0.000 C 
BRANCH   3   4
ATOM      4  C   UNL     1      12.143  13.973  24.290  1.00  0.00    -0.000 C 
BRANCH   4   5
ATOM      5  C   UNL     1      13.148  14.597  23.316  1.00  0.00    -0.003 C 
ATOM      6  C   UNL     1      12.610  14.589  21.888  1.00  0.00     0.004 C 
ENDBRANCH   4   5
ENDBRANCH   3   4
ENDBRANCH   2   3
ENDBRANCH   1   2
BRANCH   1   7
ATOM      7  C   UNL     1      13.259  18.275  24.685  1.00  0.00     0.002 C 
BRANCH   7   8
ATOM      8  C   UNL     1      12.624  18.347  23.284  1.00  0.00     0.028 C 
BRANCH   8   9
ATOM      9  C   UNL     1      13.492  19.079  22.250  1.00  0.00     0.156 C 
BRANCH   9  10
ATOM     10  O   UNL     1      14.372  19.975  22.873  1.00  0.00    -0.396 OA
ATOM     11  H   UNL     1      15.278  19.778  22.515  1.00  0.00     0.210 HD
ENDBRANCH   9  10
ENDBRANCH   8   9
ENDBRANCH   7   8
ENDBRANCH   1   7
TORSDOF 8
ENDMDL
MODEL 9
REMARK VINA RESULT:    -4.252      9.580     11.298
REMARK INTER + INTRA:          -6.462
REMARK INTER:                  -5.989
REMARK INTRA:                  -0.473
REMARK UNBOUND:                -0.345
REMARK SMILES CCCCCCCCCO
REMARK SMILES IDX 6 1 5 2 4 3 3 4 2 5 1 6 7 7 8 8 9 9 10 10
REMARK H PARENT 10 11
REMARK Flexibility Score: inf
ROOT
ATOM      1  C   UNL     1      14.012  16.256  31.493  1.00  0.00     0.000 C 
ENDROOT
BRANCH   1   2
ATOM      2  C   UNL     1      12.560  16.439  31.018  1.00  0.00     0.000 C 
BRANCH   2   3
ATOM      3  C   UNL     1      12.430  16.417  29.488  1.00  0.00    -0.000 C 
BRANCH   3   4
ATOM      4  C   UNL     1      13.638  15.726  28.845  1.00  0.00    -0.000 C 
BRANCH   4   5
ATOM      5  C   UNL     1      13.264  14.333  28.328  1.00  0.00    -0.003 C 
ATOM      6  C   UNL     1      13.982  13.241  29.117  1.00  0.00     0.004 C 
ENDBRANCH   4   5
ENDBRANCH   3   4
ENDBRANCH   2   3
ENDBRANCH   1   2
BRANCH   1   7
ATOM      7  C   UNL     1      14.151  15.147  32.551  1.00  0.00     0.002 C 
BRANCH   7   8
ATOM      8  C   UNL     1      15.213  15.476  33.615  1.00  0.00     0.028 C 
BRANCH   8   9
ATOM      9  C   UNL     1      14.637  15.660  35.026  1.00  0.00     0.156 C 
BRANCH   9  10
ATOM     10  O   UNL     1      15.245  16.740  35.683  1.00  0.00    -0.396 OA
ATOM     11  H   UNL     1      14.551  17.446  35.769  1.00  0.00     0.210 HD
ENDBRANCH   9  10
ENDBRANCH   8   9
ENDBRANCH   7   8
ENDBRANCH   1   7
TORSDOF 8
ENDMDL
