MODEL 1
REMARK VINA RESULT:    -5.232      0.000      0.000
REMARK INTER + INTRA:          -9.011
REMARK INTER:                  -8.290
REMARK INTRA:                  -0.720
REMARK UNBOUND:                -0.720
REMARK SMILES CCCCCCCCCCCC(=O)[O-]
REMARK SMILES IDX 7 1 8 2 9 3 10 4 11 5 12 6 13 7 14 8 6 9 5 10 4 11 3 12 2 13
REMARK SMILES IDX 1 14
REMARK H PARENT
REMARK Flexibility Score: inf
ROOT
ATOM      1  C   UNL     1     -13.198  -0.924 -10.398  1.00  0.00     0.000 C 
ENDROOT
BRANCH   1   2
ATOM      2  C   UNL     1     -11.940  -0.107 -10.069  1.00  0.00     0.000 C 
BRANCH   2   3
ATOM      3  C   UNL     1     -10.677  -0.965 -10.212  1.00  0.00     0.000 C 
BRANCH   3   4
ATOM      4  C   UNL     1     -10.903  -2.376  -9.649  1.00  0.00     0.006 C 
BRANCH   4   5
ATOM      5  C   UNL     1      -9.687  -3.288  -9.860  1.00  0.00     0.053 C 
BRANCH   5   6
ATOM      6  C   UNL     1      -9.297  -3.993  -8.598  1.00  0.00     0.041 C 
ATOM      7  O   UNL     1      -8.775  -3.351  -7.648  1.00  0.00    -0.550 OA
ATOM      8  O   UNL     1      -9.479  -5.365  -8.483  1.00  0.00    -0.550 OA
ENDBRANCH   5   6
ENDBRANCH   4   5
ENDBRANCH   3   4
ENDBRANCH   2   3
ENDBRANCH   1   2
BRANCH   1   9
ATOM      9  C   UNL     1     -14.449  -0.045 -10.563  1.00  0.00     0.000 C 
BRANCH   9  10
ATOM     10  C   UNL     1     -14.753   0.792  -9.311  1.00  0.00    -0.000 C 
BRANCH  10  11
ATOM     11  C   UNL     1     -14.897   2.277  -9.666  1.00  0.00    -0.000 C 
BRANCH  11  12
ATOM     12  C   UNL     1     -14.216   3.163  -8.612  1.00  0.00    -0.000 C 
BRANCH  12  13
ATOM     13  C   UNL     1     -12.974   3.884  -9.159  1.00  0.00    -0.003 C 
ATOM     14  C   UNL     1     -11.675   3.390  -8.523  1.00  0.00     0.004 C 
ENDBRANCH  12  13
ENDBRANCH  11  12
ENDBRANCH  10  11
ENDBRANCH   9  10
ENDBRANCH   1   9
TORSDOF 10
ENDMDL
MODEL 2
REMARK VINA RESULT:    -5.104      1.240      1.771
REMARK INTER + INTRA:          -8.808
REMARK INTER:                  -8.247
REMARK INTRA:                  -0.562
REMARK UNBOUND:                -0.720
REMARK SMILES CCCCCCCCCCCC(=O)[O-]
REMARK SMILES IDX 7 1 8 2 9 3 10 4 11 5 12 6 13 7 14 8 6 9 5 10 4 11 3 12 2 13
REMARK SMILES IDX 1 14
REMARK H PARENT
REMARK Flexibility Score: inf
ROOT
ATOM      1  C   UNL     1     -11.697  -0.217 -10.001  1.00  0.00     0.000 C 
ENDROOT
BRANCH   1   2
ATOM      2  C   UNL     1     -10.583  -1.221 -10.335  1.00  0.00     0.000 C 
BRANCH   2   3
ATOM      3  C   UNL     1     -10.455  -2.283  -9.237  1.00  0.00     0.000 C 
BRANCH   3   4
ATOM      4  C   UNL     1     -10.255  -3.680  -9.843  1.00  0.00     0.006 C 
BRANCH   4   5
ATOM      5  C   UNL     1     -11.278  -4.695  -9.315  1.00  0.00     0.053 C 
BRANCH   5   6
ATOM      6  C   UNL     1     -10.839  -5.301  -8.017  1.00  0.00     0.041 C 
ATOM      7  O   UNL     1     -11.690  -5.618  -7.145  1.00  0.00    -0.550 OA
ATOM      8  O   UNL     1      -9.487  -5.486  -7.759  1.00  0.00    -0.550 OA
ENDBRANCH   5   6
ENDBRANCH   4   5
ENDBRANCH   3   4
ENDBRANCH   2   3
ENDBRANCH   1   2
BRANCH   1   9
ATOM      9  C   UNL     1     -13.092  -0.729 -10.396  1.00  0.00     0.000 C 
BRANCH   9  10
ATOM     10  C   UNL     1     -14.208   0.272 -10.062  1.00  0.00    -0.000 C 
BRANCH  10  11
ATOM     11  C   UNL     1     -13.622   1.630  -9.654  1.00  0.00    -0.000 C 
BRANCH  11  12
ATOM     12  C   UNL     1     -14.696   2.522  -9.015  1.00  0.00    -0.000 C 
BRANCH  12  13
ATOM     13  C   UNL     1     -14.115   3.818  -8.429  1.00  0.00    -0.003 C 
ATOM     14  C   UNL     1     -12.597   3.907  -8.580  1.00  0.00     0.004 C 
ENDBRANCH  12  13
ENDBRANCH  11  12
ENDBRANCH  10  11
ENDBRANCH   9  10
ENDBRANCH   1   9
TORSDOF 10
ENDMDL
MODEL 3
REMARK VINA RESULT:    -4.898      3.346      6.957
REMARK INTER + INTRA:          -8.482
REMARK INTER:                  -7.947
REMARK INTRA:                  -0.534
REMARK UNBOUND:                -0.720
REMARK SMILES CCCCCCCCCCCC(=O)[O-]
REMARK SMILES IDX 7 1 8 2 9 3 10 4 11 5 12 6 13 7 14 8 6 9 5 10 4 11 3 12 2 13
REMARK SMILES IDX 1 14
REMARK H PARENT
REMARK Flexibility Score: inf
ROOT
ATOM      1  C   UNL     1     -11.906  -0.209  -9.973  1.00  0.00     0.000 C 
ENDROOT
BRANCH   1   2
ATOM      2  C   UNL     1     -13.189  -0.686 -10.672  1.00  0.00     0.000 C 
BRANCH   2   3
ATOM      3  C   UNL     1     -14.434  -0.245  -9.893  1.00  0.00     0.000 C 
BRANCH   3   4
ATOM      4  C   UNL     1     -14.769   1.227 -10.179  1.00  0.00     0.006 C 
BRANCH   4   5
ATOM      5  C   UNL     1     -14.942   2.044  -8.892  1.00  0.00     0.053 C 
BRANCH   5   6
ATOM      6  C   UNL     1     -13.944   3.157  -8.803  1.00  0.00     0.041 C 
ATOM      7  O   UNL     1     -14.222   4.210  -8.172  1.00  0.00    -0.550 OA
ATOM      8  O   UNL     1     -12.718   3.043  -9.445  1.00  0.00    -0.550 OA
ENDBRANCH   5   6
ENDBRANCH   4   5
ENDBRANCH   3   4
ENDBRANCH   2   3
ENDBRANCH   1   2
BRANCH   1   9
ATOM      9  C   UNL     1     -10.698  -1.110 -10.275  1.00  0.00     0.000 C 
BRANCH   9  10
ATOM     10  C   UNL     1     -10.752  -2.446  -9.521  1.00  0.00    -0.000 C 
BRANCH  10  11
ATOM     11  C   UNL     1      -9.623  -3.379  -9.974  1.00  0.00    -0.000 C 
BRANCH  11  12
ATOM     12  C   UNL     1      -9.250  -4.373  -8.864  1.00  0.00    -0.000 C 
BRANCH  12  13
ATOM     13  C   UNL     1      -9.688  -3.894  -7.471  1.00  0.00    -0.003 C 
ATOM     14  C   UNL     1     -10.534  -4.928  -6.729  1.00  0.00     0.004 C 
ENDBRANCH  12  13
ENDBRANCH  11  12
ENDBRANCH  10  11
ENDBRANCH   9  10
ENDBRANCH   1   9
TORSDOF 10
ENDMDL
MODEL 4
REMARK VINA RESULT:    -4.712      1.490      2.618
REMARK INTER + INTRA:          -8.187
REMARK INTER:                  -7.664
REMARK INTRA:                  -0.522
REMARK UNBOUND:                -0.720
REMARK SMILES CCCCCCCCCCCC(=O)[O-]
REMARK SMILES IDX 7 1 8 2 9 3 10 4 11 5 12 6 13 7 14 8 6 9 5 10 4 11 3 12 2 13
REMARK SMILES IDX 1 14
REMARK H PARENT
REMARK Flexibility Score: inf
ROOT
ATOM      1  C   UNL     1     -10.677  -1.017 -10.235  1.00  0.00     0.000 C 
ENDROOT
BRANCH   1   2
ATOM      2  C   UNL     1     -10.835  -2.410  -9.607  1.00  0.00     0.000 C 
BRANCH   2   3
ATOM      3  C   UNL     1      -9.581  -3.261  -9.839  1.00  0.00     0.000 C 
BRANCH   3   4
ATOM      4  C   UNL     1      -9.588  -4.509  -8.943  1.00  0.00     0.006 C 
BRANCH   4   5
ATOM      5  C   UNL     1      -9.947  -4.178  -7.488  1.00  0.00     0.053 C 
BRANCH   5   6
ATOM      6  C   UNL     1     -10.914  -5.169  -6.917  1.00  0.00     0.041 C 
ATOM      7  O   UNL     1     -10.798  -5.552  -5.723  1.00  0.00    -0.550 OA
ATOM      8  O   UNL     1     -11.924  -5.693  -7.713  1.00  0.00    -0.550 OA
ENDBRANCH   5   6
ENDBRANCH   4   5
ENDBRANCH   3   4
ENDBRANCH   2   3
ENDBRANCH   1   2
BRANCH   1   9
ATOM      9  C   UNL     1     -11.921  -0.135 -10.038  1.00  0.00     0.000 C 
BRANCH   9  10
ATOM     10  C   UNL     1     -13.218  -0.837 -10.465  1.00  0.00    -0.000 C 
BRANCH  10  11
ATOM     11  C   UNL     1     -14.446   0.003 -10.092  1.00  0.00    -0.000 C 
BRANCH  11  12
ATOM     12  C   UNL     1     -14.090   1.495 -10.021  1.00  0.00    -0.000 C 
BRANCH  12  13
ATOM     13  C   UNL     1     -14.966   2.264  -9.019  1.00  0.00    -0.003 C 
ATOM     14  C   UNL     1     -14.280   3.514  -8.471  1.00  0.00     0.004 C 
ENDBRANCH  12  13
ENDBRANCH  11  12
ENDBRANCH  10  11
ENDBRANCH   9  10
ENDBRANCH   1   9
TORSDOF 10
ENDMDL
MODEL 5
REMARK VINA RESULT:    -4.554      4.912      6.967
REMARK INTER + INTRA:          -7.937
REMARK INTER:                  -6.461
REMARK INTRA:                  -1.476
REMARK UNBOUND:                -0.720
REMARK SMILES CCCCCCCCCCCC(=O)[O-]
REMARK SMILES IDX 7 1 8 2 9 3 10 4 11 5 12 6 13 7 14 8 6 9 5 10 4 11 3 12 2 13
REMARK SMILES IDX 1 14
REMARK H PARENT
REMARK Flexibility Score: inf
ROOT
ATOM      1  C   UNL     1     -11.661  -5.984  -5.126  1.00  0.00     0.000 C 
ENDROOT
BRANCH   1   2
ATOM      2  C   UNL     1     -11.010  -5.188  -6.268  1.00  0.00     0.000 C 
BRANCH   2   3
ATOM      3  C   UNL     1     -10.214  -6.113  -7.196  1.00  0.00     0.000 C 
BRANCH   3   4
ATOM      4  C   UNL     1      -9.527  -5.315  -8.314  1.00  0.00     0.006 C 
BRANCH   4   5
ATOM      5  C   UNL     1      -9.746  -3.803  -8.166  1.00  0.00     0.053 C 
BRANCH   5   6
ATOM      6  C   UNL     1     -10.042  -3.154  -9.483  1.00  0.00     0.041 C 
ATOM      7  O   UNL     1     -10.919  -2.254  -9.564  1.00  0.00    -0.550 OA
ATOM      8  O   UNL     1      -9.373  -3.568 -10.628  1.00  0.00    -0.550 OA
ENDBRANCH   5   6
ENDBRANCH   4   5
ENDBRANCH   3   4
ENDBRANCH   2   3
ENDBRANCH   1   2
BRANCH   1   9
ATOM      9  C   UNL     1     -12.399  -7.237  -5.624  1.00  0.00     0.000 C 
BRANCH   9  10
ATOM     10  C   UNL     1     -13.842  -6.942  -6.057  1.00  0.00    -0.000 C 
BRANCH  10  11
ATOM     11  C   UNL     1     -14.001  -7.084  -7.576  1.00  0.00    -0.000 C 
BRANCH  11  12
ATOM     12  C   UNL     1     -14.269  -5.722  -8.232  1.00  0.00    -0.000 C 
BRANCH  12  13
ATOM     13  C   UNL     1     -13.232  -5.371  -9.310  1.00  0.00    -0.003 C 
ATOM     14  C   UNL     1     -12.610  -6.607  -9.958  1.00  0.00     0.004 C 
ENDBRANCH  12  13
ENDBRANCH  11  12
ENDBRANCH  10  11
ENDBRANCH   9  10
ENDBRANCH   1   9
TORSDOF 10
ENDMDL
MODEL 6
REMARK VINA RESULT:    -4.480      3.668      7.250
REMARK INTER + INTRA:          -7.819
REMARK INTER:                  -7.432
REMARK INTRA:                  -0.387
REMARK UNBOUND:                -0.720
REMARK SMILES CCCCCCCCCCCC(=O)[O-]
REMARK SMILES IDX 7 1 8 2 9 3 10 4 11 5 12 6 13 7 14 8 6 9 5 10 4 11 3 12 2 13
REMARK SMILES IDX 1 14
REMARK H PARENT
REMARK Flexibility Score: inf
ROOT
ATOM      1  C   UNL     1     -11.134  -2.692  -9.625  1.00  0.00     0.000 C 
ENDROOT
BRANCH   1   2
ATOM      2  C   UNL     1     -10.588  -1.300  -9.980  1.00  0.00     0.000 C 
BRANCH   2   3
ATOM      3  C   UNL     1     -11.732  -0.300 -10.187  1.00  0.00     0.000 C 
BRANCH   3   4
ATOM      4  C   UNL     1     -11.590   0.902  -9.241  1.00  0.00     0.006 C 
BRANCH   4   5
ATOM      5  C   UNL     1     -12.706   1.936  -9.444  1.00  0.00     0.053 C 
BRANCH   5   6
ATOM      6  C   UNL     1     -12.364   3.251  -8.814  1.00  0.00     0.041 C 
ATOM      7  O   UNL     1     -11.187   3.485  -8.433  1.00  0.00    -0.550 OA
ATOM      8  O   UNL     1     -13.353   4.206  -8.619  1.00  0.00    -0.550 OA
ENDBRANCH   5   6
ENDBRANCH   4   5
ENDBRANCH   3   4
ENDBRANCH   2   3
ENDBRANCH   1   2
BRANCH   1   9
ATOM      9  C   UNL     1     -10.038  -3.770  -9.606  1.00  0.00     0.000 C 
BRANCH   9  10
ATOM     10  C   UNL     1      -9.167  -3.706  -8.342  1.00  0.00    -0.000 C 
BRANCH  10  11
ATOM     11  C   UNL     1     -10.027  -3.821  -7.077  1.00  0.00    -0.000 C 
BRANCH  11  12
ATOM     12  C   UNL     1     -10.725  -5.187  -7.008  1.00  0.00    -0.000 C 
BRANCH  12  13
ATOM     13  C   UNL     1     -11.095  -5.590  -5.572  1.00  0.00    -0.003 C 
ATOM     14  C   UNL     1     -12.270  -6.565  -5.515  1.00  0.00     0.004 C 
ENDBRANCH  12  13
ENDBRANCH  11  12
ENDBRANCH  10  11
ENDBRANCH   9  10
ENDBRANCH   1   9
TORSDOF 10
ENDMDL
MODEL 7
REMARK VINA RESULT:    -4.449      4.621      7.587
REMARK INTER + INTRA:          -7.769
REMARK INTER:                  -6.410
REMARK INTRA:                  -1.359
REMARK UNBOUND:                -0.720
REMARK SMILES CCCCCCCCCCCC(=O)[O-]
REMARK SMILES IDX 7 1 8 2 9 3 10 4 11 5 12 6 13 7 14 8 6 9 5 10 4 11 3 12 2 13
REMARK SMILES IDX 1 14
REMARK H PARENT
REMARK Flexibility Score: inf
ROOT
ATOM      1  C   UNL     1     -10.840  -5.539  -6.174  1.00  0.00     0.000 C 
ENDROOT
BRANCH   1   2
ATOM      2  C   UNL     1     -10.290  -6.687  -7.034  1.00  0.00     0.000 C 
BRANCH   2   3
ATOM      3  C   UNL     1     -10.663  -6.494  -8.509  1.00  0.00     0.000 C 
BRANCH   3   4
ATOM      4  C   UNL     1     -11.267  -5.102  -8.746  1.00  0.00     0.006 C 
BRANCH   4   5
ATOM      5  C   UNL     1     -10.351  -4.207  -9.591  1.00  0.00     0.053 C 
BRANCH   5   6
ATOM      6  C   UNL     1     -10.248  -2.825  -9.023  1.00  0.00     0.041 C 
ATOM      7  O   UNL     1      -9.852  -2.654  -7.840  1.00  0.00    -0.550 OA
ATOM      8  O   UNL     1     -10.622  -1.729  -9.790  1.00  0.00    -0.550 OA
ENDBRANCH   5   6
ENDBRANCH   4   5
ENDBRANCH   3   4
ENDBRANCH   2   3
ENDBRANCH   1   2
BRANCH   1   9
ATOM      9  C   UNL     1     -11.841  -6.022  -5.112  1.00  0.00     0.000 C 
BRANCH   9  10
ATOM     10  C   UNL     1     -12.080  -7.538  -5.170  1.00  0.00    -0.000 C 
BRANCH  10  11
ATOM     11  C   UNL     1     -13.543  -7.852  -5.506  1.00  0.00    -0.000 C 
BRANCH  11  12
ATOM     12  C   UNL     1     -14.266  -6.603  -6.030  1.00  0.00    -0.000 C 
BRANCH  12  13
ATOM     13  C   UNL     1     -14.781  -6.778  -7.468  1.00  0.00    -0.003 C 
ATOM     14  C   UNL     1     -14.050  -7.884  -8.228  1.00  0.00     0.004 C 
ENDBRANCH  12  13
ENDBRANCH  11  12
ENDBRANCH  10  11
ENDBRANCH   9  10
ENDBRANCH   1   9
TORSDOF 10
ENDMDL
MODEL 8
REMARK VINA RESULT:    -4.402     15.416     17.393
REMARK INTER + INTRA:          -7.696
REMARK INTER:                  -6.572
REMARK INTRA:                  -1.124
REMARK UNBOUND:                -0.720
REMARK SMILES CCCCCCCCCCCC(=O)[O-]
REMARK SMILES IDX 7 1 8 2 9 3 10 4 11 5 12 6 13 7 14 8 6 9 5 10 4 11 3 12 2 13
REMARK SMILES IDX 1 14
REMARK H PARENT
REMARK Flexibility Score: inf
ROOT
ATOM      1  C   UNL     1     -13.927   5.008   7.642  1.00  0.00     0.000 C 
ENDROOT
BRANCH   1   2
ATOM      2  C   UNL     1     -13.527   5.669   6.314  1.00  0.00     0.000 C 
BRANCH   2   3
ATOM      3  C   UNL     1     -12.924   4.641   5.350  1.00  0.00     0.000 C 
BRANCH   3   4
ATOM      4  C   UNL     1     -13.347   4.928   3.902  1.00  0.00     0.006 C 
BRANCH   4   5
ATOM      5  C   UNL     1     -14.624   5.776   3.827  1.00  0.00     0.053 C 
BRANCH   5   6
ATOM      6  C   UNL     1     -14.426   7.006   2.996  1.00  0.00     0.041 C 
ATOM      7  O   UNL     1     -14.400   6.925   1.740  1.00  0.00    -0.550 OA
ATOM      8  O   UNL     1     -14.237   8.237   3.611  1.00  0.00    -0.550 OA
ENDBRANCH   5   6
ENDBRANCH   4   5
ENDBRANCH   3   4
ENDBRANCH   2   3
ENDBRANCH   1   2
BRANCH   1   9
ATOM      9  C   UNL     1     -12.857   5.179   8.734  1.00  0.00     0.000 C 
BRANCH   9  10
ATOM     10  C   UNL     1     -12.100   3.876   9.029  1.00  0.00    -0.000 C 
BRANCH  10  11
ATOM     11  C   UNL     1     -10.781   3.818   8.250  1.00  0.00    -0.000 C 
BRANCH  11  12
ATOM     12  C   UNL     1     -10.201   5.225   8.044  1.00  0.00    -0.000 C 
BRANCH  12  13
ATOM     13  C   UNL     1      -9.495   5.380   6.688  1.00  0.00    -0.003 C 
ATOM     14  C   UNL     1      -9.399   6.836   6.234  1.00  0.00     0.004 C 
ENDBRANCH  12  13
ENDBRANCH  11  12
ENDBRANCH  10  11
ENDBRANCH   9  10
ENDBRANCH   1   9
TORSDOF 10
ENDMDL
MODEL 9
REMARK VINA RESULT:    -4.252      5.583      7.633
REMARK INTER + INTRA:          -7.458
REMARK INTER:                  -6.208
REMARK INTRA:                  -1.249
REMARK UNBOUND:                -0.720
REMARK SMILES CCCCCCCCCCCC(=O)[O-]
REMARK SMILES IDX 7 1 8 2 9 3 10 4 11 5 12 6 13 7 14 8 6 9 5 10 4 11 3 12 2 13
REMARK SMILES IDX 1 14
REMARK H PARENT
REMARK Flexibility Score: inf
ROOT
ATOM      1  C   UNL     1     -10.732  -6.019  -5.981  1.00  0.00     0.000 C 
ENDROOT
BRANCH   1   2
ATOM      2  C   UNL     1     -11.985  -6.247  -5.121  1.00  0.00     0.000 C 
BRANCH   2   3
ATOM      3  C   UNL     1     -12.336  -7.738  -5.049  1.00  0.00     0.000 C 
BRANCH   3   4
ATOM      4  C   UNL     1     -13.801  -7.979  -5.444  1.00  0.00     0.006 C 
BRANCH   4   5
ATOM      5  C   UNL     1     -14.436  -6.746  -6.101  1.00  0.00     0.053 C 
BRANCH   5   6
ATOM      6  C   UNL     1     -14.499  -6.883  -7.591  1.00  0.00     0.041 C 
ATOM      7  O   UNL     1     -14.877  -5.914  -8.301  1.00  0.00    -0.550 OA
ATOM      8  O   UNL     1     -14.173  -8.091  -8.193  1.00  0.00    -0.550 OA
ENDBRANCH   5   6
ENDBRANCH   4   5
ENDBRANCH   3   4
ENDBRANCH   2   3
ENDBRANCH   1   2
BRANCH   1   9
ATOM      9  C   UNL     1     -10.511  -7.139  -7.011  1.00  0.00     0.000 C 
BRANCH   9  10
ATOM     10  C   UNL     1     -10.746  -6.671  -8.455  1.00  0.00    -0.000 C 
BRANCH  10  11
ATOM     11  C   UNL     1     -11.368  -5.269  -8.483  1.00  0.00    -0.000 C 
BRANCH  11  12
ATOM     12  C   UNL     1     -10.549  -4.321  -9.370  1.00  0.00    -0.000 C 
BRANCH  12  13
ATOM     13  C   UNL     1      -9.272  -3.820  -8.678  1.00  0.00    -0.003 C 
ATOM     14  C   UNL     1      -9.563  -2.919  -7.479  1.00  0.00     0.004 C 
ENDBRANCH  12  13
ENDBRANCH  11  12
ENDBRANCH  10  11
ENDBRANCH   9  10
ENDBRANCH   1   9
TORSDOF 10
ENDMDL
