MODEL 1
REMARK VINA RESULT:    -5.075      0.000      0.000
REMARK INTER + INTRA:          -5.075
REMARK INTER:                  -5.075
REMARK INTRA:                   0.000
REMARK UNBOUND:                 0.000
REMARK SMILES CC1(C)O[C@]2(C)CC[C@H]1CC2
REMARK SMILES IDX 1 1 2 2 9 3 8 4 7 5 5 6 4 7 11 8 10 9 6 10 3 11
REMARK H PARENT
REMARK Flexibility Score: inf
ROOT
ATOM      1  C   UNL     1      70.460   0.881   0.524  1.00  0.00     0.042 C 
ATOM      2  C   UNL     1      71.532   1.036  -0.578  1.00  0.00     0.066 C 
ATOM      3  C   UNL     1      71.417   2.446  -1.275  1.00  0.00     0.021 C 
ATOM      4  C   UNL     1      70.040   2.533  -1.977  1.00  0.00     0.009 C 
ATOM      5  C   UNL     1      69.850   1.289  -2.879  1.00  0.00     0.035 C 
ATOM      6  C   UNL     1      71.136   0.415  -2.851  1.00  0.00     0.066 C 
ATOM      7  O   UNL     1      71.366  -0.038  -1.516  1.00  0.00    -0.369 OA
ATOM      8  C   UNL     1      72.344   1.280  -3.311  1.00  0.00     0.035 C 
ATOM      9  C   UNL     1      72.476   2.525  -2.399  1.00  0.00     0.009 C 
ATOM     10  C   UNL     1      70.974  -0.803  -3.765  1.00  0.00     0.042 C 
ATOM     11  C   UNL     1      72.911   0.873   0.098  1.00  0.00     0.042 C 
ENDROOT
TORSDOF 0
ENDMDL
MODEL 2
REMARK VINA RESULT:    -4.673      1.021      3.342
REMARK INTER + INTRA:          -4.673
REMARK INTER:                  -4.673
REMARK INTRA:                   0.000
REMARK UNBOUND:                 0.000
REMARK SMILES CC1(C)O[C@]2(C)CC[C@H]1CC2
REMARK SMILES IDX 1 1 2 2 9 3 8 4 7 5 5 6 4 7 11 8 10 9 6 10 3 11
REMARK H PARENT
REMARK Flexibility Score: inf
ROOT
ATOM      1  C   UNL     1      71.706   0.128  -3.968  1.00  0.00     0.042 C 
ATOM      2  C   UNL     1      70.807   1.085  -3.155  1.00  0.00     0.066 C 
ATOM      3  C   UNL     1      71.483   2.504  -3.018  1.00  0.00     0.021 C 
ATOM      4  C   UNL     1      72.799   2.342  -2.219  1.00  0.00     0.009 C 
ATOM      5  C   UNL     1      72.506   1.576  -0.906  1.00  0.00     0.035 C 
ATOM      6  C   UNL     1      70.980   1.305  -0.783  1.00  0.00     0.066 C 
ATOM      7  O   UNL     1      70.560   0.485  -1.874  1.00  0.00    -0.369 OA
ATOM      8  C   UNL     1      70.219   2.661  -0.840  1.00  0.00     0.035 C 
ATOM      9  C   UNL     1      70.566   3.402  -2.154  1.00  0.00     0.009 C 
ATOM     10  C   UNL     1      70.672   0.576   0.529  1.00  0.00     0.042 C 
ATOM     11  C   UNL     1      69.460   1.194  -3.902  1.00  0.00     0.042 C 
ENDROOT
TORSDOF 0
ENDMDL
MODEL 3
REMARK VINA RESULT:    -4.559     12.870     14.344
REMARK INTER + INTRA:          -4.559
REMARK INTER:                  -4.559
REMARK INTRA:                   0.000
REMARK UNBOUND:                 0.000
REMARK SMILES CC1(C)O[C@]2(C)CC[C@H]1CC2
REMARK SMILES IDX 1 1 2 2 9 3 8 4 7 5 5 6 4 7 11 8 10 9 6 10 3 11
REMARK H PARENT
REMARK Flexibility Score: inf
ROOT
ATOM      1  C   UNL     1      83.004  -3.633  -9.619  1.00  0.00     0.042 C 
ATOM      2  C   UNL     1      83.739  -2.592  -8.747  1.00  0.00     0.066 C 
ATOM      3  C   UNL     1      82.826  -2.123  -7.549  1.00  0.00     0.021 C 
ATOM      4  C   UNL     1      81.579  -1.416  -8.133  1.00  0.00     0.009 C 
ATOM      5  C   UNL     1      82.035  -0.326  -9.134  1.00  0.00     0.035 C 
ATOM      6  C   UNL     1      83.588  -0.243  -9.151  1.00  0.00     0.066 C 
ATOM      7  O   UNL     1      84.120  -1.494  -9.589  1.00  0.00    -0.369 OA
ATOM      8  C   UNL     1      84.094   0.052  -7.710  1.00  0.00     0.035 C 
ATOM      9  C   UNL     1      83.590  -1.047  -6.742  1.00  0.00     0.009 C 
ATOM     10  C   UNL     1      84.052   0.855 -10.114  1.00  0.00     0.042 C 
ATOM     11  C   UNL     1      85.027  -3.262  -8.220  1.00  0.00     0.042 C 
ENDROOT
TORSDOF 0
ENDMDL
MODEL 4
REMARK VINA RESULT:    -4.335     14.798     16.234
REMARK INTER + INTRA:          -4.335
REMARK INTER:                  -4.335
REMARK INTRA:                   0.000
REMARK UNBOUND:                 0.000
REMARK SMILES CC1(C)O[C@]2(C)CC[C@H]1CC2
REMARK SMILES IDX 1 1 2 2 9 3 8 4 7 5 5 6 4 7 11 8 10 9 6 10 3 11
REMARK H PARENT
REMARK Flexibility Score: inf
ROOT
ATOM      1  C   UNL     1      83.777   5.495   8.845  1.00  0.00     0.042 C 
ATOM      2  C   UNL     1      83.007   4.228   8.412  1.00  0.00     0.066 C 
ATOM      3  C   UNL     1      82.802   3.254   9.636  1.00  0.00     0.021 C 
ATOM      4  C   UNL     1      84.193   2.784  10.125  1.00  0.00     0.009 C 
ATOM      5  C   UNL     1      84.997   2.235   8.921  1.00  0.00     0.035 C 
ATOM      6  C   UNL     1      84.110   2.254   7.642  1.00  0.00     0.066 C 
ATOM      7  O   UNL     1      83.740   3.601   7.349  1.00  0.00    -0.369 OA
ATOM      8  C   UNL     1      82.826   1.417   7.907  1.00  0.00     0.035 C 
ATOM      9  C   UNL     1      82.073   1.985   9.135  1.00  0.00     0.009 C 
ATOM     10  C   UNL     1      84.883   1.683   6.450  1.00  0.00     0.042 C 
ATOM     11  C   UNL     1      81.645   4.690   7.849  1.00  0.00     0.042 C 
ENDROOT
TORSDOF 0
ENDMDL
MODEL 5
REMARK VINA RESULT:    -4.284      1.077      2.393
REMARK INTER + INTRA:          -4.284
REMARK INTER:                  -4.284
REMARK INTRA:                   0.000
REMARK UNBOUND:                 0.000
REMARK SMILES CC1(C)O[C@]2(C)CC[C@H]1CC2
REMARK SMILES IDX 1 1 2 2 9 3 8 4 7 5 5 6 4 7 11 8 10 9 6 10 3 11
REMARK H PARENT
REMARK Flexibility Score: inf
ROOT
ATOM      1  C   UNL     1      73.515   2.099  -1.108  1.00  0.00     0.042 C 
ATOM      2  C   UNL     1      72.263   2.325  -1.983  1.00  0.00     0.066 C 
ATOM      3  C   UNL     1      70.964   2.394  -1.090  1.00  0.00     0.021 C 
ATOM      4  C   UNL     1      70.778   1.027  -0.389  1.00  0.00     0.009 C 
ATOM      5  C   UNL     1      70.839  -0.100  -1.450  1.00  0.00     0.035 C 
ATOM      6  C   UNL     1      70.975   0.519  -2.871  1.00  0.00     0.066 C 
ATOM      7  O   UNL     1      72.193   1.261  -2.944  1.00  0.00    -0.369 OA
ATOM      8  C   UNL     1      69.776   1.479  -3.119  1.00  0.00     0.035 C 
ATOM      9  C   UNL     1      69.740   2.569  -2.020  1.00  0.00     0.009 C 
ATOM     10  C   UNL     1      71.003  -0.584  -3.932  1.00  0.00     0.042 C 
ATOM     11  C   UNL     1      72.471   3.650  -2.748  1.00  0.00     0.042 C 
ENDROOT
TORSDOF 0
ENDMDL
MODEL 6
REMARK VINA RESULT:    -4.105      1.396      2.808
REMARK INTER + INTRA:          -4.105
REMARK INTER:                  -4.105
REMARK INTRA:                   0.000
REMARK UNBOUND:                 0.000
REMARK SMILES CC1(C)O[C@]2(C)CC[C@H]1CC2
REMARK SMILES IDX 1 1 2 2 9 3 8 4 7 5 5 6 4 7 11 8 10 9 6 10 3 11
REMARK H PARENT
REMARK Flexibility Score: inf
ROOT
ATOM      1  C   UNL     1      73.384   0.668   0.050  1.00  0.00     0.042 C 
ATOM      2  C   UNL     1      72.123   1.537  -0.145  1.00  0.00     0.066 C 
ATOM      3  C   UNL     1      70.933   0.674  -0.719  1.00  0.00     0.021 C 
ATOM      4  C   UNL     1      71.338   0.154  -2.120  1.00  0.00     0.009 C 
ATOM      5  C   UNL     1      71.819   1.345  -2.984  1.00  0.00     0.035 C 
ATOM      6  C   UNL     1      71.651   2.674  -2.193  1.00  0.00     0.066 C 
ATOM      7  O   UNL     1      72.462   2.625  -1.018  1.00  0.00    -0.369 OA
ATOM      8  C   UNL     1      70.159   2.829  -1.778  1.00  0.00     0.035 C 
ATOM      9  C   UNL     1      69.717   1.603  -0.942  1.00  0.00     0.009 C 
ATOM     10  C   UNL     1      72.092   3.864  -3.049  1.00  0.00     0.042 C 
ATOM     11  C   UNL     1      71.754   2.125   1.234  1.00  0.00     0.042 C 
ENDROOT
TORSDOF 0
ENDMDL
MODEL 7
REMARK VINA RESULT:    -4.038     15.459     16.699
REMARK INTER + INTRA:          -4.038
REMARK INTER:                  -4.038
REMARK INTRA:                   0.000
REMARK UNBOUND:                 0.000
REMARK SMILES CC1(C)O[C@]2(C)CC[C@H]1CC2
REMARK SMILES IDX 1 1 2 2 9 3 8 4 7 5 5 6 4 7 11 8 10 9 6 10 3 11
REMARK H PARENT
REMARK Flexibility Score: inf
ROOT
ATOM      1  C   UNL     1      84.918   2.346   5.640  1.00  0.00     0.042 C 
ATOM      2  C   UNL     1      85.087   2.718   7.129  1.00  0.00     0.066 C 
ATOM      3  C   UNL     1      85.398   1.436   7.993  1.00  0.00     0.021 C 
ATOM      4  C   UNL     1      84.182   0.482   7.907  1.00  0.00     0.009 C 
ATOM      5  C   UNL     1      82.895   1.267   8.259  1.00  0.00     0.035 C 
ATOM      6  C   UNL     1      83.259   2.723   8.668  1.00  0.00     0.066 C 
ATOM      7  O   UNL     1      83.887   3.376   7.564  1.00  0.00    -0.369 OA
ATOM      8  C   UNL     1      84.251   2.678   9.866  1.00  0.00     0.035 C 
ATOM      9  C   UNL     1      85.507   1.859   9.477  1.00  0.00     0.009 C 
ATOM     10  C   UNL     1      81.997   3.502   9.049  1.00  0.00     0.042 C 
ATOM     11  C   UNL     1      86.249   3.731   7.219  1.00  0.00     0.042 C 
ENDROOT
TORSDOF 0
ENDMDL
