MODEL 1
REMARK VINA RESULT:    -6.598      0.000      0.000
REMARK INTER + INTRA:         -16.334
REMARK INTER:                 -14.312
REMARK INTRA:                  -2.022
REMARK UNBOUND:                -2.022
REMARK SMILES CCCCCCCCCCCCCCCCCCCCCC(=O)[O-]
REMARK SMILES IDX 12 1 11 2 10 3 9 4 8 5 7 6 6 7 5 8 4 9 3 10 2 11 1 12 13 13
REMARK SMILES IDX 14 14 15 15 16 16 17 17 18 18 19 19 20 20 21 21 22 22 23 23
REMARK SMILES IDX 24 24
REMARK H PARENT
REMARK Flexibility Score: inf
ROOT
ATOM      1  C   UNL     1      35.638 -10.047  20.640  1.00  0.00     0.000 C 
ENDROOT
BRANCH   1   2
ATOM      2  C   UNL     1      34.388  -9.218  21.008  1.00  0.00     0.000 C 
BRANCH   2   3
ATOM      3  C   UNL     1      33.262  -9.371  19.970  1.00  0.00     0.000 C 
BRANCH   3   4
ATOM      4  C   UNL     1      31.921  -8.801  20.459  1.00  0.00    -0.000 C 
BRANCH   4   5
ATOM      5  C   UNL     1      31.615  -9.184  21.918  1.00  0.00    -0.000 C 
BRANCH   5   6
ATOM      6  C   UNL     1      30.106  -9.276  22.199  1.00  0.00    -0.000 C 
BRANCH   6   7
ATOM      7  C   UNL     1      29.318  -9.875  21.020  1.00  0.00    -0.000 C 
BRANCH   7   8
ATOM      8  C   UNL     1      28.209 -10.838  21.478  1.00  0.00    -0.000 C 
BRANCH   8   9
ATOM      9  C   UNL     1      27.894 -11.917  20.429  1.00  0.00    -0.000 C 
BRANCH   9  10
ATOM     10  C   UNL     1      26.605 -11.623  19.638  1.00  0.00    -0.000 C 
BRANCH  10  11
ATOM     11  C   UNL     1      26.367 -12.539  18.423  1.00  0.00    -0.003 C 
ATOM     12  C   UNL     1      27.397 -13.661  18.309  1.00  0.00     0.004 C 
ENDBRANCH  10  11
ENDBRANCH   9  10
ENDBRANCH   8   9
ENDBRANCH   7   8
ENDBRANCH   6   7
ENDBRANCH   5   6
ENDBRANCH   4   5
ENDBRANCH   3   4
ENDBRANCH   2   3
ENDBRANCH   1   2
BRANCH   1  13
ATOM     13  C   UNL     1      36.512 -10.429  21.851  1.00  0.00     0.000 C 
BRANCH  13  14
ATOM     14  C   UNL     1      37.981  -9.986  21.762  1.00  0.00     0.000 C 
BRANCH  14  15
ATOM     15  C   UNL     1      38.418  -9.128  22.961  1.00  0.00     0.000 C 
BRANCH  15  16
ATOM     16  C   UNL     1      37.435  -9.210  24.142  1.00  0.00     0.000 C 
BRANCH  16  17
ATOM     17  C   UNL     1      36.659  -7.912  24.445  1.00  0.00     0.000 C 
BRANCH  17  18
ATOM     18  C   UNL     1      36.368  -7.017  23.226  1.00  0.00     0.000 C 
BRANCH  18  19
ATOM     19  C   UNL     1      35.112  -6.149  23.409  1.00  0.00     0.000 C 
BRANCH  19  20
ATOM     20  C   UNL     1      34.542  -5.637  22.072  1.00  0.00     0.006 C 
BRANCH  20  21
ATOM     21  C   UNL     1      33.008  -5.660  21.982  1.00  0.00     0.053 C 
BRANCH  21  22
ATOM     22  C   UNL     1      32.372  -4.766  23.001  1.00  0.00     0.041 C 
ATOM     23  O   UNL     1      32.694  -3.549  23.065  1.00  0.00    -0.550 OA
ATOM     24  O   UNL     1      31.444  -5.282  23.898  1.00  0.00    -0.550 OA
ENDBRANCH  21  22
ENDBRANCH  20  21
ENDBRANCH  19  20
ENDBRANCH  18  19
ENDBRANCH  17  18
ENDBRANCH  16  17
ENDBRANCH  15  16
ENDBRANCH  14  15
ENDBRANCH  13  14
ENDBRANCH   1  13
TORSDOF 20
ENDMDL
MODEL 2
REMARK VINA RESULT:    -6.471      3.714      5.394
REMARK INTER + INTRA:         -16.060
REMARK INTER:                 -14.440
REMARK INTRA:                  -1.619
REMARK UNBOUND:                -2.022
REMARK SMILES CCCCCCCCCCCCCCCCCCCCCC(=O)[O-]
REMARK SMILES IDX 12 1 11 2 10 3 9 4 8 5 7 6 6 7 5 8 4 9 3 10 2 11 1 12 13 13
REMARK SMILES IDX 14 14 15 15 16 16 17 17 18 18 19 19 20 20 21 21 22 22 23 23
REMARK SMILES IDX 24 24
REMARK H PARENT
REMARK Flexibility Score: inf
ROOT
ATOM      1  C   UNL     1      33.982  -5.934  21.744  1.00  0.00     0.000 C 
ENDROOT
BRANCH   1   2
ATOM      2  C   UNL     1      33.689  -7.268  21.024  1.00  0.00     0.000 C 
BRANCH   2   3
ATOM      3  C   UNL     1      32.821  -8.211  21.876  1.00  0.00     0.000 C 
BRANCH   3   4
ATOM      4  C   UNL     1      31.691  -8.870  21.070  1.00  0.00    -0.000 C 
BRANCH   4   5
ATOM      5  C   UNL     1      30.313  -8.683  21.727  1.00  0.00    -0.000 C 
BRANCH   5   6
ATOM      6  C   UNL     1      29.178  -8.569  20.696  1.00  0.00    -0.000 C 
BRANCH   6   7
ATOM      7  C   UNL     1      27.893  -9.291  21.144  1.00  0.00    -0.000 C 
BRANCH   7   8
ATOM      8  C   UNL     1      28.179 -10.644  21.817  1.00  0.00    -0.000 C 
BRANCH   8   9
ATOM      9  C   UNL     1      27.837 -11.837  20.909  1.00  0.00    -0.000 C 
BRANCH   9  10
ATOM     10  C   UNL     1      26.871 -11.464  19.769  1.00  0.00    -0.000 C 
BRANCH  10  11
ATOM     11  C   UNL     1      26.194 -12.659  19.074  1.00  0.00    -0.003 C 
ATOM     12  C   UNL     1      27.115 -13.378  18.090  1.00  0.00     0.004 C 
ENDBRANCH  10  11
ENDBRANCH   9  10
ENDBRANCH   8   9
ENDBRANCH   7   8
ENDBRANCH   6   7
ENDBRANCH   5   6
ENDBRANCH   4   5
ENDBRANCH   3   4
ENDBRANCH   2   3
ENDBRANCH   1   2
BRANCH   1  13
ATOM     13  C   UNL     1      33.635  -5.945  23.246  1.00  0.00     0.000 C 
BRANCH  13  14
ATOM     14  C   UNL     1      34.828  -5.736  24.193  1.00  0.00     0.000 C 
BRANCH  14  15
ATOM     15  C   UNL     1      36.149  -6.272  23.615  1.00  0.00     0.000 C 
BRANCH  15  16
ATOM     16  C   UNL     1      36.371  -7.763  23.921  1.00  0.00     0.000 C 
BRANCH  16  17
ATOM     17  C   UNL     1      37.215  -8.530  22.882  1.00  0.00     0.000 C 
BRANCH  17  18
ATOM     18  C   UNL     1      36.428  -9.115  21.695  1.00  0.00     0.000 C 
BRANCH  18  19
ATOM     19  C   UNL     1      36.871 -10.543  21.331  1.00  0.00     0.000 C 
BRANCH  19  20
ATOM     20  C   UNL     1      38.283 -10.878  21.847  1.00  0.00     0.006 C 
BRANCH  20  21
ATOM     21  C   UNL     1      38.532 -12.374  22.098  1.00  0.00     0.053 C 
BRANCH  21  22
ATOM     22  C   UNL     1      39.425 -12.977  21.058  1.00  0.00     0.041 C 
ATOM     23  O   UNL     1      39.393 -14.217  20.837  1.00  0.00    -0.550 OA
ATOM     24  O   UNL     1      40.314 -12.173  20.354  1.00  0.00    -0.550 OA
ENDBRANCH  21  22
ENDBRANCH  20  21
ENDBRANCH  19  20
ENDBRANCH  18  19
ENDBRANCH  17  18
ENDBRANCH  16  17
ENDBRANCH  15  16
ENDBRANCH  14  15
ENDBRANCH  13  14
ENDBRANCH   1  13
TORSDOF 20
ENDMDL
MODEL 3
REMARK VINA RESULT:    -6.461      5.646      8.597
REMARK INTER + INTRA:         -16.037
REMARK INTER:                 -13.813
REMARK INTRA:                  -2.224
REMARK UNBOUND:                -2.022
REMARK SMILES CCCCCCCCCCCCCCCCCCCCCC(=O)[O-]
REMARK SMILES IDX 12 1 11 2 10 3 9 4 8 5 7 6 6 7 5 8 4 9 3 10 2 11 1 12 13 13
REMARK SMILES IDX 14 14 15 15 16 16 17 17 18 18 19 19 20 20 21 21 22 22 23 23
REMARK SMILES IDX 24 24
REMARK H PARENT
REMARK Flexibility Score: inf
ROOT
ATOM      1  C   UNL     1      25.599  -5.552  23.726  1.00  0.00     0.000 C 
ENDROOT
BRANCH   1   2
ATOM      2  C   UNL     1      26.865  -5.023  24.434  1.00  0.00     0.000 C 
BRANCH   2   3
ATOM      3  C   UNL     1      28.103  -5.887  24.136  1.00  0.00     0.000 C 
BRANCH   3   4
ATOM      4  C   UNL     1      27.831  -6.974  23.084  1.00  0.00    -0.000 C 
BRANCH   4   5
ATOM      5  C   UNL     1      29.123  -7.507  22.441  1.00  0.00    -0.000 C 
BRANCH   5   6
ATOM      6  C   UNL     1      28.848  -8.422  21.236  1.00  0.00    -0.000 C 
BRANCH   6   7
ATOM      7  C   UNL     1      29.239  -9.887  21.502  1.00  0.00    -0.000 C 
BRANCH   7   8
ATOM      8  C   UNL     1      28.017 -10.809  21.645  1.00  0.00    -0.000 C 
BRANCH   8   9
ATOM      9  C   UNL     1      27.545 -11.377  20.296  1.00  0.00    -0.000 C 
BRANCH   9  10
ATOM     10  C   UNL     1      27.951 -12.849  20.093  1.00  0.00    -0.000 C 
BRANCH  10  11
ATOM     11  C   UNL     1      27.167 -13.593  18.996  1.00  0.00    -0.003 C 
ATOM     12  C   UNL     1      26.360 -12.657  18.099  1.00  0.00     0.004 C 
ENDBRANCH  10  11
ENDBRANCH   9  10
ENDBRANCH   8   9
ENDBRANCH   7   8
ENDBRANCH   6   7
ENDBRANCH   5   6
ENDBRANCH   4   5
ENDBRANCH   3   4
ENDBRANCH   2   3
ENDBRANCH   1   2
BRANCH   1  13
ATOM     13  C   UNL     1      25.081  -4.631  22.604  1.00  0.00     0.000 C 
BRANCH  13  14
ATOM     14  C   UNL     1      24.840  -3.170  23.017  1.00  0.00     0.000 C 
BRANCH  14  15
ATOM     15  C   UNL     1      25.467  -2.163  22.037  1.00  0.00     0.000 C 
BRANCH  15  16
ATOM     16  C   UNL     1      26.522  -2.803  21.119  1.00  0.00     0.000 C 
BRANCH  16  17
ATOM     17  C   UNL     1      26.624  -2.194  19.706  1.00  0.00     0.000 C 
BRANCH  17  18
ATOM     18  C   UNL     1      26.983  -3.186  18.584  1.00  0.00     0.000 C 
BRANCH  18  19
ATOM     19  C   UNL     1      27.978  -4.267  19.039  1.00  0.00     0.000 C 
BRANCH  19  20
ATOM     20  C   UNL     1      27.472  -5.696  18.763  1.00  0.00     0.006 C 
BRANCH  20  21
ATOM     21  C   UNL     1      26.028  -5.960  19.221  1.00  0.00     0.053 C 
BRANCH  21  22
ATOM     22  C   UNL     1      25.766  -7.417  19.444  1.00  0.00     0.041 C 
ATOM     23  O   UNL     1      25.000  -7.789  20.372  1.00  0.00    -0.550 OA
ATOM     24  O   UNL     1      26.391  -8.366  18.643  1.00  0.00    -0.550 OA
ENDBRANCH  21  22
ENDBRANCH  20  21
ENDBRANCH  19  20
ENDBRANCH  18  19
ENDBRANCH  17  18
ENDBRANCH  16  17
ENDBRANCH  15  16
ENDBRANCH  14  15
ENDBRANCH  13  14
ENDBRANCH   1  13
TORSDOF 20
ENDMDL
MODEL 4
REMARK VINA RESULT:    -6.390      3.468      8.795
REMARK INTER + INTRA:         -15.882
REMARK INTER:                 -14.477
REMARK INTRA:                  -1.405
REMARK UNBOUND:                -2.022
REMARK SMILES CCCCCCCCCCCCCCCCCCCCCC(=O)[O-]
REMARK SMILES IDX 12 1 11 2 10 3 9 4 8 5 7 6 6 7 5 8 4 9 3 10 2 11 1 12 13 13
REMARK SMILES IDX 14 14 15 15 16 16 17 17 18 18 19 19 20 20 21 21 22 22 23 23
REMARK SMILES IDX 24 24
REMARK H PARENT
REMARK Flexibility Score: inf
ROOT
ATOM      1  C   UNL     1      30.216  -9.100  21.163  1.00  0.00     0.000 C 
ENDROOT
BRANCH   1   2
ATOM      2  C   UNL     1      31.574  -8.909  21.871  1.00  0.00     0.000 C 
BRANCH   2   3
ATOM      3  C   UNL     1      32.672  -8.428  20.907  1.00  0.00     0.000 C 
BRANCH   3   4
ATOM      4  C   UNL     1      32.739  -9.262  19.618  1.00  0.00    -0.000 C 
BRANCH   4   5
ATOM      5  C   UNL     1      34.046 -10.066  19.504  1.00  0.00    -0.000 C 
BRANCH   5   6
ATOM      6  C   UNL     1      35.009  -9.793  20.671  1.00  0.00    -0.000 C 
BRANCH   6   7
ATOM      7  C   UNL     1      36.273 -10.673  20.616  1.00  0.00    -0.000 C 
BRANCH   7   8
ATOM      8  C   UNL     1      37.255 -10.369  21.759  1.00  0.00    -0.000 C 
BRANCH   8   9
ATOM      9  C   UNL     1      38.137 -11.578  22.115  1.00  0.00    -0.000 C 
BRANCH   9  10
ATOM     10  C   UNL     1      39.433 -11.638  21.283  1.00  0.00    -0.000 C 
BRANCH  10  11
ATOM     11  C   UNL     1      40.009 -13.050  21.079  1.00  0.00    -0.003 C 
ATOM     12  C   UNL     1      39.226 -14.128  21.826  1.00  0.00     0.004 C 
ENDBRANCH  10  11
ENDBRANCH   9  10
ENDBRANCH   8   9
ENDBRANCH   7   8
ENDBRANCH   6   7
ENDBRANCH   5   6
ENDBRANCH   4   5
ENDBRANCH   3   4
ENDBRANCH   2   3
ENDBRANCH   1   2
BRANCH   1  13
ATOM     13  C   UNL     1      29.003  -9.051  22.114  1.00  0.00     0.000 C 
BRANCH  13  14
ATOM     14  C   UNL     1      28.225 -10.370  22.247  1.00  0.00     0.000 C 
BRANCH  14  15
ATOM     15  C   UNL     1      28.134 -11.145  20.921  1.00  0.00     0.000 C 
BRANCH  15  16
ATOM     16  C   UNL     1      26.736 -11.072  20.284  1.00  0.00     0.000 C 
BRANCH  16  17
ATOM     17  C   UNL     1      26.536  -9.936  19.260  1.00  0.00     0.000 C 
BRANCH  17  18
ATOM     18  C   UNL     1      26.025  -8.604  19.842  1.00  0.00     0.000 C 
BRANCH  18  19
ATOM     19  C   UNL     1      26.697  -7.377  19.203  1.00  0.00     0.000 C 
BRANCH  19  20
ATOM     20  C   UNL     1      25.908  -6.075  19.443  1.00  0.00     0.006 C 
BRANCH  20  21
ATOM     21  C   UNL     1      26.768  -4.881  19.885  1.00  0.00     0.053 C 
BRANCH  21  22
ATOM     22  C   UNL     1      27.198  -4.038  18.724  1.00  0.00     0.041 C 
ATOM     23  O   UNL     1      26.645  -2.926  18.509  1.00  0.00    -0.550 OA
ATOM     24  O   UNL     1      28.189  -4.493  17.863  1.00  0.00    -0.550 OA
ENDBRANCH  21  22
ENDBRANCH  20  21
ENDBRANCH  19  20
ENDBRANCH  18  19
ENDBRANCH  17  18
ENDBRANCH  16  17
ENDBRANCH  15  16
ENDBRANCH  14  15
ENDBRANCH  13  14
ENDBRANCH   1  13
TORSDOF 20
ENDMDL
MODEL 5
REMARK VINA RESULT:    -6.365      4.284      7.346
REMARK INTER + INTRA:         -15.830
REMARK INTER:                 -12.982
REMARK INTRA:                  -2.848
REMARK UNBOUND:                -2.022
REMARK SMILES CCCCCCCCCCCCCCCCCCCCCC(=O)[O-]
REMARK SMILES IDX 12 1 11 2 10 3 9 4 8 5 7 6 6 7 5 8 4 9 3 10 2 11 1 12 13 13
REMARK SMILES IDX 14 14 15 15 16 16 17 17 18 18 19 19 20 20 21 21 22 22 23 23
REMARK SMILES IDX 24 24
REMARK H PARENT
REMARK Flexibility Score: inf
ROOT
ATOM      1  C   UNL     1      29.326  -5.056  23.429  1.00  0.00     0.000 C 
ENDROOT
BRANCH   1   2
ATOM      2  C   UNL     1      30.801  -5.496  23.318  1.00  0.00     0.000 C 
BRANCH   2   3
ATOM      3  C   UNL     1      31.074  -6.302  22.036  1.00  0.00     0.000 C 
BRANCH   3   4
ATOM      4  C   UNL     1      30.766  -7.799  22.196  1.00  0.00    -0.000 C 
BRANCH   4   5
ATOM      5  C   UNL     1      29.812  -8.324  21.109  1.00  0.00    -0.000 C 
BRANCH   5   6
ATOM      6  C   UNL     1      28.491  -8.855  21.689  1.00  0.00    -0.000 C 
BRANCH   6   7
ATOM      7  C   UNL     1      28.572 -10.340  22.088  1.00  0.00    -0.000 C 
BRANCH   7   8
ATOM      8  C   UNL     1      28.166 -11.283  20.943  1.00  0.00    -0.000 C 
BRANCH   8   9
ATOM      9  C   UNL     1      26.930 -10.782  20.177  1.00  0.00    -0.000 C 
BRANCH   9  10
ATOM     10  C   UNL     1      26.034 -11.929  19.673  1.00  0.00    -0.000 C 
BRANCH  10  11
ATOM     11  C   UNL     1      26.382 -12.456  18.269  1.00  0.00    -0.003 C 
ATOM     12  C   UNL     1      27.193 -13.750  18.300  1.00  0.00     0.004 C 
ENDBRANCH  10  11
ENDBRANCH   9  10
ENDBRANCH   8   9
ENDBRANCH   7   8
ENDBRANCH   6   7
ENDBRANCH   5   6
ENDBRANCH   4   5
ENDBRANCH   3   4
ENDBRANCH   2   3
ENDBRANCH   1   2
BRANCH   1  13
ATOM     13  C   UNL     1      28.463  -5.981  24.309  1.00  0.00     0.000 C 
BRANCH  13  14
ATOM     14  C   UNL     1      27.022  -6.194  23.816  1.00  0.00     0.000 C 
BRANCH  14  15
ATOM     15  C   UNL     1      26.676  -5.325  22.594  1.00  0.00     0.000 C 
BRANCH  15  16
ATOM     16  C   UNL     1      25.477  -5.868  21.798  1.00  0.00     0.000 C 
BRANCH  16  17
ATOM     17  C   UNL     1      25.628  -7.315  21.284  1.00  0.00     0.000 C 
BRANCH  17  18
ATOM     18  C   UNL     1      24.895  -7.627  19.966  1.00  0.00     0.000 C 
BRANCH  18  19
ATOM     19  C   UNL     1      25.525  -6.923  18.752  1.00  0.00     0.000 C 
BRANCH  19  20
ATOM     20  C   UNL     1      27.065  -6.974  18.768  1.00  0.00     0.006 C 
BRANCH  20  21
ATOM     21  C   UNL     1      27.749  -5.732  18.174  1.00  0.00     0.053 C 
BRANCH  21  22
ATOM     22  C   UNL     1      27.700  -4.563  19.107  1.00  0.00     0.041 C 
ATOM     23  O   UNL     1      26.672  -3.837  19.160  1.00  0.00    -0.550 OA
ATOM     24  O   UNL     1      28.801  -4.258  19.898  1.00  0.00    -0.550 OA
ENDBRANCH  21  22
ENDBRANCH  20  21
ENDBRANCH  19  20
ENDBRANCH  18  19
ENDBRANCH  17  18
ENDBRANCH  16  17
ENDBRANCH  15  16
ENDBRANCH  14  15
ENDBRANCH  13  14
ENDBRANCH   1  13
TORSDOF 20
ENDMDL
MODEL 6
REMARK VINA RESULT:    -6.357      2.735      8.753
REMARK INTER + INTRA:         -15.811
REMARK INTER:                 -14.004
REMARK INTRA:                  -1.807
REMARK UNBOUND:                -2.022
REMARK SMILES CCCCCCCCCCCCCCCCCCCCCC(=O)[O-]
REMARK SMILES IDX 12 1 11 2 10 3 9 4 8 5 7 6 6 7 5 8 4 9 3 10 2 11 1 12 13 13
REMARK SMILES IDX 14 14 15 15 16 16 17 17 18 18 19 19 20 20 21 21 22 22 23 23
REMARK SMILES IDX 24 24
REMARK H PARENT
REMARK Flexibility Score: inf
ROOT
ATOM      1  C   UNL     1      34.124  -8.925  20.756  1.00  0.00     0.000 C 
ENDROOT
BRANCH   1   2
ATOM      2  C   UNL     1      35.150  -9.967  20.262  1.00  0.00     0.000 C 
BRANCH   2   3
ATOM      3  C   UNL     1      36.033 -10.501  21.404  1.00  0.00     0.000 C 
BRANCH   3   4
ATOM      4  C   UNL     1      37.381 -11.048  20.907  1.00  0.00    -0.000 C 
BRANCH   4   5
ATOM      5  C   UNL     1      38.299 -11.487  22.061  1.00  0.00    -0.000 C 
BRANCH   5   6
ATOM      6  C   UNL     1      39.143 -10.327  22.617  1.00  0.00    -0.000 C 
BRANCH   6   7
ATOM      7  C   UNL     1      39.202 -10.321  24.156  1.00  0.00    -0.000 C 
BRANCH   7   8
ATOM      8  C   UNL     1      38.918  -8.933  24.754  1.00  0.00    -0.000 C 
BRANCH   8   9
ATOM      9  C   UNL     1      37.509  -8.829  25.361  1.00  0.00    -0.000 C 
BRANCH   9  10
ATOM     10  C   UNL     1      36.431  -8.485  24.315  1.00  0.00    -0.000 C 
BRANCH  10  11
ATOM     11  C   UNL     1      36.797  -7.334  23.360  1.00  0.00    -0.003 C 
ATOM     12  C   UNL     1      36.807  -5.969  24.046  1.00  0.00     0.004 C 
ENDBRANCH  10  11
ENDBRANCH   9  10
ENDBRANCH   8   9
ENDBRANCH   7   8
ENDBRANCH   6   7
ENDBRANCH   5   6
ENDBRANCH   4   5
ENDBRANCH   3   4
ENDBRANCH   2   3
ENDBRANCH   1   2
BRANCH   1  13
ATOM     13  C   UNL     1      32.670  -9.242  20.355  1.00  0.00     0.000 C 
BRANCH  13  14
ATOM     14  C   UNL     1      31.598  -8.742  21.337  1.00  0.00     0.000 C 
BRANCH  14  15
ATOM     15  C   UNL     1      30.178  -9.191  20.948  1.00  0.00     0.000 C 
BRANCH  15  16
ATOM     16  C   UNL     1      29.196  -9.148  22.131  1.00  0.00     0.000 C 
BRANCH  16  17
ATOM     17  C   UNL     1      28.259 -10.368  22.254  1.00  0.00     0.000 C 
BRANCH  17  18
ATOM     18  C   UNL     1      28.135 -11.235  20.986  1.00  0.00     0.000 C 
BRANCH  18  19
ATOM     19  C   UNL     1      26.736 -11.167  20.351  1.00  0.00     0.000 C 
BRANCH  19  20
ATOM     20  C   UNL     1      26.615 -10.049  19.298  1.00  0.00     0.006 C 
BRANCH  20  21
ATOM     21  C   UNL     1      25.890  -8.786  19.790  1.00  0.00     0.053 C 
BRANCH  21  22
ATOM     22  C   UNL     1      26.339  -7.559  19.057  1.00  0.00     0.041 C 
ATOM     23  O   UNL     1      25.511  -6.653  18.772  1.00  0.00    -0.550 OA
ATOM     24  O   UNL     1      27.665  -7.430  18.663  1.00  0.00    -0.550 OA
ENDBRANCH  21  22
ENDBRANCH  20  21
ENDBRANCH  19  20
ENDBRANCH  18  19
ENDBRANCH  17  18
ENDBRANCH  16  17
ENDBRANCH  15  16
ENDBRANCH  14  15
ENDBRANCH  13  14
ENDBRANCH   1  13
TORSDOF 20
ENDMDL
MODEL 7
REMARK VINA RESULT:    -6.348      4.855      8.034
REMARK INTER + INTRA:         -15.791
REMARK INTER:                 -13.080
REMARK INTRA:                  -2.711
REMARK UNBOUND:                -2.022
REMARK SMILES CCCCCCCCCCCCCCCCCCCCCC(=O)[O-]
REMARK SMILES IDX 12 1 11 2 10 3 9 4 8 5 7 6 6 7 5 8 4 9 3 10 2 11 1 12 13 13
REMARK SMILES IDX 14 14 15 15 16 16 17 17 18 18 19 19 20 20 21 21 22 22 23 23
REMARK SMILES IDX 24 24
REMARK H PARENT
REMARK Flexibility Score: inf
ROOT
ATOM      1  C   UNL     1      26.915  -2.133  19.294  1.00  0.00     0.000 C 
ENDROOT
BRANCH   1   2
ATOM      2  C   UNL     1      26.627  -3.574  18.822  1.00  0.00     0.000 C 
BRANCH   2   3
ATOM      3  C   UNL     1      27.914  -4.404  18.668  1.00  0.00     0.000 C 
BRANCH   3   4
ATOM      4  C   UNL     1      27.720  -5.880  19.052  1.00  0.00    -0.000 C 
BRANCH   4   5
ATOM      5  C   UNL     1      26.281  -6.368  18.807  1.00  0.00    -0.000 C 
BRANCH   5   6
ATOM      6  C   UNL     1      25.653  -7.006  20.057  1.00  0.00    -0.000 C 
BRANCH   6   7
ATOM      7  C   UNL     1      25.304  -8.492  19.852  1.00  0.00    -0.000 C 
BRANCH   7   8
ATOM      8  C   UNL     1      26.553  -9.383  19.744  1.00  0.00    -0.000 C 
BRANCH   8   9
ATOM      9  C   UNL     1      26.285 -10.831  20.186  1.00  0.00    -0.000 C 
BRANCH   9  10
ATOM     10  C   UNL     1      27.574 -11.665  20.317  1.00  0.00    -0.000 C 
BRANCH  10  11
ATOM     11  C   UNL     1      27.578 -12.982  19.520  1.00  0.00    -0.003 C 
ATOM     12  C   UNL     1      26.553 -12.999  18.388  1.00  0.00     0.004 C 
ENDBRANCH  10  11
ENDBRANCH   9  10
ENDBRANCH   8   9
ENDBRANCH   7   8
ENDBRANCH   6   7
ENDBRANCH   5   6
ENDBRANCH   4   5
ENDBRANCH   3   4
ENDBRANCH   2   3
ENDBRANCH   1   2
BRANCH   1  13
ATOM     13  C   UNL     1      26.873  -1.958  20.825  1.00  0.00     0.000 C 
BRANCH  13  14
ATOM     14  C   UNL     1      25.724  -2.691  21.535  1.00  0.00     0.000 C 
BRANCH  14  15
ATOM     15  C   UNL     1      26.209  -3.579  22.694  1.00  0.00     0.000 C 
BRANCH  15  16
ATOM     16  C   UNL     1      25.287  -4.784  22.947  1.00  0.00     0.000 C 
BRANCH  16  17
ATOM     17  C   UNL     1      25.887  -5.900  23.828  1.00  0.00     0.000 C 
BRANCH  17  18
ATOM     18  C   UNL     1      27.242  -5.568  24.480  1.00  0.00     0.000 C 
BRANCH  18  19
ATOM     19  C   UNL     1      28.386  -6.461  23.968  1.00  0.00     0.000 C 
BRANCH  19  20
ATOM     20  C   UNL     1      28.029  -7.192  22.659  1.00  0.00     0.006 C 
BRANCH  20  21
ATOM     21  C   UNL     1      28.725  -8.550  22.478  1.00  0.00     0.053 C 
BRANCH  21  22
ATOM     22  C   UNL     1      29.973  -8.438  21.659  1.00  0.00     0.041 C 
ATOM     23  O   UNL     1      30.079  -9.071  20.575  1.00  0.00    -0.550 OA
ATOM     24  O   UNL     1      31.031  -7.656  22.107  1.00  0.00    -0.550 OA
ENDBRANCH  21  22
ENDBRANCH  20  21
ENDBRANCH  19  20
ENDBRANCH  18  19
ENDBRANCH  17  18
ENDBRANCH  16  17
ENDBRANCH  15  16
ENDBRANCH  14  15
ENDBRANCH  13  14
ENDBRANCH   1  13
TORSDOF 20
ENDMDL
MODEL 8
REMARK VINA RESULT:    -6.347      2.634      8.312
REMARK INTER + INTRA:         -15.789
REMARK INTER:                 -14.096
REMARK INTRA:                  -1.694
REMARK UNBOUND:                -2.022
REMARK SMILES CCCCCCCCCCCCCCCCCCCCCC(=O)[O-]
REMARK SMILES IDX 12 1 11 2 10 3 9 4 8 5 7 6 6 7 5 8 4 9 3 10 2 11 1 12 13 13
REMARK SMILES IDX 14 14 15 15 16 16 17 17 18 18 19 19 20 20 21 21 22 22 23 23
REMARK SMILES IDX 24 24
REMARK H PARENT
REMARK Flexibility Score: inf
ROOT
ATOM      1  C   UNL     1      32.466  -8.899  20.968  1.00  0.00     0.000 C 
ENDROOT
BRANCH   1   2
ATOM      2  C   UNL     1      32.990  -9.453  19.626  1.00  0.00     0.000 C 
BRANCH   2   3
ATOM      3  C   UNL     1      34.395 -10.069  19.758  1.00  0.00     0.000 C 
BRANCH   3   4
ATOM      4  C   UNL     1      35.230  -9.412  20.869  1.00  0.00    -0.000 C 
BRANCH   4   5
ATOM      5  C   UNL     1      36.542 -10.168  21.144  1.00  0.00    -0.000 C 
BRANCH   5   6
ATOM      6  C   UNL     1      37.500  -9.378  22.050  1.00  0.00    -0.000 C 
BRANCH   6   7
ATOM      7  C   UNL     1      36.787  -8.751  23.263  1.00  0.00    -0.000 C 
BRANCH   7   8
ATOM      8  C   UNL     1      37.358  -7.373  23.638  1.00  0.00    -0.000 C 
BRANCH   8   9
ATOM      9  C   UNL     1      36.290  -6.267  23.620  1.00  0.00    -0.000 C 
BRANCH   9  10
ATOM     10  C   UNL     1      34.913  -6.773  23.151  1.00  0.00    -0.000 C 
BRANCH  10  11
ATOM     11  C   UNL     1      34.316  -6.013  21.953  1.00  0.00    -0.003 C 
ATOM     12  C   UNL     1      34.111  -4.525  22.231  1.00  0.00     0.004 C 
ENDBRANCH  10  11
ENDBRANCH   9  10
ENDBRANCH   8   9
ENDBRANCH   7   8
ENDBRANCH   6   7
ENDBRANCH   5   6
ENDBRANCH   4   5
ENDBRANCH   3   4
ENDBRANCH   2   3
ENDBRANCH   1   2
BRANCH   1  13
ATOM     13  C   UNL     1      30.936  -8.718  21.013  1.00  0.00     0.000 C 
BRANCH  13  14
ATOM     14  C   UNL     1      30.249  -9.280  22.268  1.00  0.00     0.000 C 
BRANCH  14  15
ATOM     15  C   UNL     1      28.716  -9.310  22.144  1.00  0.00     0.000 C 
BRANCH  15  16
ATOM     16  C   UNL     1      28.150 -10.740  22.108  1.00  0.00     0.000 C 
BRANCH  16  17
ATOM     17  C   UNL     1      27.645 -11.214  20.729  1.00  0.00     0.000 C 
BRANCH  17  18
ATOM     18  C   UNL     1      26.262 -10.677  20.313  1.00  0.00     0.000 C 
BRANCH  18  19
ATOM     19  C   UNL     1      26.342  -9.624  19.194  1.00  0.00     0.000 C 
BRANCH  19  20
ATOM     20  C   UNL     1      26.126  -8.189  19.712  1.00  0.00     0.006 C 
BRANCH  20  21
ATOM     21  C   UNL     1      25.979  -7.129  18.609  1.00  0.00     0.053 C 
BRANCH  21  22
ATOM     22  C   UNL     1      26.808  -5.913  18.884  1.00  0.00     0.041 C 
ATOM     23  O   UNL     1      27.758  -5.607  18.115  1.00  0.00    -0.550 OA
ATOM     24  O   UNL     1      26.550  -5.134  20.005  1.00  0.00    -0.550 OA
ENDBRANCH  21  22
ENDBRANCH  20  21
ENDBRANCH  19  20
ENDBRANCH  18  19
ENDBRANCH  17  18
ENDBRANCH  16  17
ENDBRANCH  15  16
ENDBRANCH  14  15
ENDBRANCH  13  14
ENDBRANCH   1  13
TORSDOF 20
ENDMDL
MODEL 9
REMARK VINA RESULT:    -6.345      4.409      6.917
REMARK INTER + INTRA:         -15.786
REMARK INTER:                 -14.294
REMARK INTRA:                  -1.492
REMARK UNBOUND:                -2.022
REMARK SMILES CCCCCCCCCCCCCCCCCCCCCC(=O)[O-]
REMARK SMILES IDX 12 1 11 2 10 3 9 4 8 5 7 6 6 7 5 8 4 9 3 10 2 11 1 12 13 13
REMARK SMILES IDX 14 14 15 15 16 16 17 17 18 18 19 19 20 20 21 21 22 22 23 23
REMARK SMILES IDX 24 24
REMARK H PARENT
REMARK Flexibility Score: inf
ROOT
ATOM      1  C   UNL     1      29.898  -8.988  21.133  1.00  0.00     0.000 C 
ENDROOT
BRANCH   1   2
ATOM      2  C   UNL     1      28.730  -9.205  22.119  1.00  0.00     0.000 C 
BRANCH   2   3
ATOM      3  C   UNL     1      28.199 -10.649  22.085  1.00  0.00     0.000 C 
BRANCH   3   4
ATOM      4  C   UNL     1      27.761 -11.089  20.679  1.00  0.00    -0.000 C 
BRANCH   4   5
ATOM      5  C   UNL     1      26.409 -10.482  20.267  1.00  0.00    -0.000 C 
BRANCH   5   6
ATOM      6  C   UNL     1      26.565  -9.281  19.320  1.00  0.00    -0.000 C 
BRANCH   6   7
ATOM      7  C   UNL     1      25.439  -8.244  19.486  1.00  0.00    -0.000 C 
BRANCH   7   8
ATOM      8  C   UNL     1      25.971  -6.805  19.597  1.00  0.00    -0.000 C 
BRANCH   8   9
ATOM      9  C   UNL     1      27.319  -6.619  18.880  1.00  0.00    -0.000 C 
BRANCH   9  10
ATOM     10  C   UNL     1      27.584  -5.156  18.475  1.00  0.00    -0.000 C 
BRANCH  10  11
ATOM     11  C   UNL     1      26.728  -4.113  19.214  1.00  0.00    -0.003 C 
ATOM     12  C   UNL     1      26.891  -2.701  18.654  1.00  0.00     0.004 C 
ENDBRANCH  10  11
ENDBRANCH   9  10
ENDBRANCH   8   9
ENDBRANCH   7   8
ENDBRANCH   6   7
ENDBRANCH   5   6
ENDBRANCH   4   5
ENDBRANCH   3   4
ENDBRANCH   2   3
ENDBRANCH   1   2
BRANCH   1  13
ATOM     13  C   UNL     1      31.290  -9.040  21.793  1.00  0.00     0.000 C 
BRANCH  13  14
ATOM     14  C   UNL     1      32.073  -7.717  21.770  1.00  0.00     0.000 C 
BRANCH  14  15
ATOM     15  C   UNL     1      33.371  -7.807  20.950  1.00  0.00     0.000 C 
BRANCH  15  16
ATOM     16  C   UNL     1      33.508  -9.141  20.197  1.00  0.00     0.000 C 
BRANCH  16  17
ATOM     17  C   UNL     1      34.847  -9.879  20.401  1.00  0.00     0.000 C 
BRANCH  17  18
ATOM     18  C   UNL     1      35.585  -9.556  21.714  1.00  0.00     0.000 C 
BRANCH  18  19
ATOM     19  C   UNL     1      37.066  -9.971  21.684  1.00  0.00     0.000 C 
BRANCH  19  20
ATOM     20  C   UNL     1      37.364 -11.035  20.610  1.00  0.00     0.006 C 
BRANCH  20  21
ATOM     21  C   UNL     1      38.846 -11.425  20.493  1.00  0.00     0.053 C 
BRANCH  21  22
ATOM     22  C   UNL     1      39.259 -12.389  21.562  1.00  0.00     0.041 C 
ATOM     23  O   UNL     1      39.280 -13.627  21.326  1.00  0.00    -0.550 OA
ATOM     24  O   UNL     1      39.594 -11.923  22.828  1.00  0.00    -0.550 OA
ENDBRANCH  21  22
ENDBRANCH  20  21
ENDBRANCH  19  20
ENDBRANCH  18  19
ENDBRANCH  17  18
ENDBRANCH  16  17
ENDBRANCH  15  16
ENDBRANCH  14  15
ENDBRANCH  13  14
ENDBRANCH   1  13
TORSDOF 20
ENDMDL
