MODEL 1
REMARK VINA RESULT:    -4.162      0.000      0.000
REMARK INTER + INTRA:          -5.313
REMARK INTER:                  -4.892
REMARK INTRA:                  -0.422
REMARK UNBOUND:                -0.422
REMARK SMILES C=C[C@@]1(C)CC[C@@H](C(=C)C)C[C@H]1C(=C)C
REMARK SMILES IDX 7 1 6 2 5 3 3 4 12 5 11 6 4 7 8 8 10 9 9 10 13 11 14 12
REMARK SMILES IDX 15 13 2 14 1 15
REMARK H PARENT
REMARK Flexibility Score: inf
ROOT
ATOM      1  C   UNL     1      13.351   3.356  19.941  1.00  0.00     0.015 C 
ATOM      2  C   UNL     1      14.795   3.202  19.428  1.00  0.00     0.009 C 
ATOM      3  C   UNL     1      14.858   3.362  17.901  1.00  0.00     0.012 C 
ATOM      4  C   UNL     1      14.297   4.733  17.424  1.00  0.00    -0.008 C 
ATOM      5  C   UNL     1      12.829   4.880  17.972  1.00  0.00     0.024 C 
ATOM      6  C   UNL     1      12.756   4.711  19.509  1.00  0.00     0.017 C 
ATOM      7  C   UNL     1      14.269   4.736  15.876  1.00  0.00     0.016 C 
ENDROOT
BRANCH   1   8
ATOM      8  C   UNL     1      13.275   3.172  21.452  1.00  0.00    -0.077 C 
ATOM      9  C   UNL     1      13.637   1.846  22.070  1.00  0.00     0.039 C 
ATOM     10  C   UNL     1      12.888   4.174  22.260  1.00  0.00     0.008 C 
ENDBRANCH   1   8
BRANCH   5  11
ATOM     11  C   UNL     1      12.092   6.132  17.478  1.00  0.00    -0.077 C 
ATOM     12  C   UNL     1      12.320   7.357  17.984  1.00  0.00     0.008 C 
ATOM     13  C   UNL     1      11.037   6.000  16.408  1.00  0.00     0.039 C 
ENDBRANCH   5  11
BRANCH   4  14
ATOM     14  C   UNL     1      15.207   5.862  17.913  1.00  0.00    -0.028 C 
ATOM     15  C   UNL     1      16.081   6.495  17.119  1.00  0.00     0.004 C 
ENDBRANCH   4  14
TORSDOF 3
ENDMDL
MODEL 2
REMARK VINA RESULT:    -4.024      1.169      3.233
REMARK INTER + INTRA:          -5.152
REMARK INTER:                  -4.769
REMARK INTRA:                  -0.382
REMARK UNBOUND:                -0.422
REMARK SMILES C=C[C@@]1(C)CC[C@@H](C(=C)C)C[C@H]1C(=C)C
REMARK SMILES IDX 7 1 6 2 5 3 3 4 12 5 11 6 4 7 8 8 10 9 9 10 13 11 14 12
REMARK SMILES IDX 15 13 2 14 1 15
REMARK H PARENT
REMARK Flexibility Score: inf
ROOT
ATOM      1  C   UNL     1      13.245   5.114  20.531  1.00  0.00     0.015 C 
ATOM      2  C   UNL     1      11.931   5.908  20.401  1.00  0.00     0.009 C 
ATOM      3  C   UNL     1      12.098   7.096  19.441  1.00  0.00     0.012 C 
ATOM      4  C   UNL     1      12.561   6.653  18.022  1.00  0.00    -0.008 C 
ATOM      5  C   UNL     1      13.893   5.829  18.177  1.00  0.00     0.024 C 
ATOM      6  C   UNL     1      13.736   4.635  19.151  1.00  0.00     0.017 C 
ATOM      7  C   UNL     1      12.838   7.923  17.182  1.00  0.00     0.016 C 
ENDROOT
BRANCH   1   8
ATOM      8  C   UNL     1      13.097   3.950  21.503  1.00  0.00    -0.077 C 
ATOM      9  C   UNL     1      12.341   4.135  22.794  1.00  0.00     0.039 C 
ATOM     10  C   UNL     1      13.630   2.745  21.238  1.00  0.00     0.008 C 
ENDBRANCH   1   8
BRANCH   5  11
ATOM     11  C   UNL     1      14.546   5.427  16.848  1.00  0.00    -0.077 C 
ATOM     12  C   UNL     1      15.371   6.242  16.167  1.00  0.00     0.008 C 
ATOM     13  C   UNL     1      14.233   4.080  16.245  1.00  0.00     0.039 C 
ENDBRANCH   5  11
BRANCH   4  14
ATOM     14  C   UNL     1      11.456   5.835  17.350  1.00  0.00    -0.028 C 
ATOM     15  C   UNL     1      10.876   6.195  16.197  1.00  0.00     0.004 C 
ENDBRANCH   4  14
TORSDOF 3
ENDMDL
MODEL 3
REMARK VINA RESULT:    -4.011      1.151      3.206
REMARK INTER + INTRA:          -5.136
REMARK INTER:                  -4.705
REMARK INTRA:                  -0.431
REMARK UNBOUND:                -0.422
REMARK SMILES C=C[C@@]1(C)CC[C@@H](C(=C)C)C[C@H]1C(=C)C
REMARK SMILES IDX 7 1 6 2 5 3 3 4 12 5 11 6 4 7 8 8 10 9 9 10 13 11 14 12
REMARK SMILES IDX 15 13 2 14 1 15
REMARK H PARENT
REMARK Flexibility Score: inf
ROOT
ATOM      1  C   UNL     1      14.481   3.525  20.480  1.00  0.00     0.015 C 
ATOM      2  C   UNL     1      13.087   4.069  20.846  1.00  0.00     0.009 C 
ATOM      3  C   UNL     1      12.861   5.461  20.233  1.00  0.00     0.012 C 
ATOM      4  C   UNL     1      13.011   5.459  18.684  1.00  0.00    -0.008 C 
ATOM      5  C   UNL     1      14.432   4.884  18.329  1.00  0.00     0.024 C 
ATOM      6  C   UNL     1      14.670   3.485  18.950  1.00  0.00     0.017 C 
ATOM      7  C   UNL     1      12.910   6.921  18.185  1.00  0.00     0.016 C 
ENDROOT
BRANCH   1   8
ATOM      8  C   UNL     1      14.724   2.156  21.105  1.00  0.00    -0.077 C 
ATOM      9  C   UNL     1      15.975   1.384  20.768  1.00  0.00     0.039 C 
ATOM     10  C   UNL     1      13.843   1.610  21.960  1.00  0.00     0.008 C 
ENDBRANCH   1   8
BRANCH   5  11
ATOM     11  C   UNL     1      14.780   4.935  16.836  1.00  0.00    -0.077 C 
ATOM     12  C   UNL     1      14.419   3.970  15.971  1.00  0.00     0.008 C 
ATOM     13  C   UNL     1      15.592   6.089  16.302  1.00  0.00     0.039 C 
ENDBRANCH   5  11
BRANCH   4  14
ATOM     14  C   UNL     1      11.884   4.635  18.057  1.00  0.00    -0.028 C 
ATOM     15  C   UNL     1      10.896   5.175  17.333  1.00  0.00     0.004 C 
ENDBRANCH   4  14
TORSDOF 3
ENDMDL
MODEL 4
REMARK VINA RESULT:    -4.009      2.268      4.523
REMARK INTER + INTRA:          -5.134
REMARK INTER:                  -4.691
REMARK INTRA:                  -0.442
REMARK UNBOUND:                -0.422
REMARK SMILES C=C[C@@]1(C)CC[C@@H](C(=C)C)C[C@H]1C(=C)C
REMARK SMILES IDX 7 1 6 2 5 3 3 4 12 5 11 6 4 7 8 8 10 9 9 10 13 11 14 12
REMARK SMILES IDX 15 13 2 14 1 15
REMARK H PARENT
REMARK Flexibility Score: inf
ROOT
ATOM      1  C   UNL     1      15.753   5.932  17.359  1.00  0.00     0.015 C 
ATOM      2  C   UNL     1      15.083   5.172  16.199  1.00  0.00     0.009 C 
ATOM      3  C   UNL     1      13.856   4.388  16.690  1.00  0.00     0.012 C 
ATOM      4  C   UNL     1      12.797   5.305  17.369  1.00  0.00    -0.008 C 
ATOM      5  C   UNL     1      13.504   6.086  18.539  1.00  0.00     0.024 C 
ATOM      6  C   UNL     1      14.746   6.872  18.054  1.00  0.00     0.017 C 
ATOM      7  C   UNL     1      11.679   4.407  17.953  1.00  0.00     0.016 C 
ENDROOT
BRANCH   1   8
ATOM      8  C   UNL     1      16.986   6.692  16.887  1.00  0.00    -0.077 C 
ATOM      9  C   UNL     1      18.206   5.937  16.423  1.00  0.00     0.039 C 
ATOM     10  C   UNL     1      17.019   8.036  16.873  1.00  0.00     0.008 C 
ENDBRANCH   1   8
BRANCH   5  11
ATOM     11  C   UNL     1      12.557   6.942  19.389  1.00  0.00    -0.077 C 
ATOM     12  C   UNL     1      12.211   8.198  19.053  1.00  0.00     0.008 C 
ATOM     13  C   UNL     1      12.008   6.385  20.679  1.00  0.00     0.039 C 
ENDBRANCH   5  11
BRANCH   4  14
ATOM     14  C   UNL     1      12.191   6.252  16.331  1.00  0.00    -0.028 C 
ATOM     15  C   UNL     1      10.876   6.331  16.090  1.00  0.00     0.004 C 
ENDBRANCH   4  14
TORSDOF 3
ENDMDL
MODEL 5
REMARK VINA RESULT:    -3.855      1.507      5.176
REMARK INTER + INTRA:          -4.953
REMARK INTER:                  -4.579
REMARK INTRA:                  -0.374
REMARK UNBOUND:                -0.422
REMARK SMILES C=C[C@@]1(C)CC[C@@H](C(=C)C)C[C@H]1C(=C)C
REMARK SMILES IDX 7 1 6 2 5 3 3 4 12 5 11 6 4 7 8 8 10 9 9 10 13 11 14 12
REMARK SMILES IDX 15 13 2 14 1 15
REMARK H PARENT
REMARK Flexibility Score: inf
ROOT
ATOM      1  C   UNL     1      12.015   5.297  18.439  1.00  0.00     0.015 C 
ATOM      2  C   UNL     1      12.069   6.551  19.333  1.00  0.00     0.009 C 
ATOM      3  C   UNL     1      11.954   6.174  20.818  1.00  0.00     0.012 C 
ATOM      4  C   UNL     1      13.069   5.186  21.269  1.00  0.00    -0.008 C 
ATOM      5  C   UNL     1      13.010   3.922  20.334  1.00  0.00     0.024 C 
ATOM      6  C   UNL     1      13.116   4.294  18.835  1.00  0.00     0.017 C 
ATOM      7  C   UNL     1      12.780   4.759  22.728  1.00  0.00     0.016 C 
ENDROOT
BRANCH   1   8
ATOM      8  C   UNL     1      12.101   5.663  16.963  1.00  0.00    -0.077 C 
ATOM      9  C   UNL     1      10.876   6.151  16.232  1.00  0.00     0.039 C 
ATOM     10  C   UNL     1      13.256   5.562  16.283  1.00  0.00     0.008 C 
ENDBRANCH   1   8
BRANCH   5  11
ATOM     11  C   UNL     1      13.971   2.795  20.733  1.00  0.00    -0.077 C 
ATOM     12  C   UNL     1      13.694   1.914  21.712  1.00  0.00     0.008 C 
ATOM     13  C   UNL     1      15.304   2.674  20.037  1.00  0.00     0.039 C 
ENDBRANCH   5  11
BRANCH   4  14
ATOM     14  C   UNL     1      14.430   5.881  21.208  1.00  0.00    -0.028 C 
ATOM     15  C   UNL     1      15.269   5.944  22.250  1.00  0.00     0.004 C 
ENDBRANCH   4  14
TORSDOF 3
ENDMDL
MODEL 6
REMARK VINA RESULT:    -3.816      1.680      4.825
REMARK INTER + INTRA:          -4.907
REMARK INTER:                  -4.463
REMARK INTRA:                  -0.444
REMARK UNBOUND:                -0.422
REMARK SMILES C=C[C@@]1(C)CC[C@@H](C(=C)C)C[C@H]1C(=C)C
REMARK SMILES IDX 7 1 6 2 5 3 3 4 12 5 11 6 4 7 8 8 10 9 9 10 13 11 14 12
REMARK SMILES IDX 15 13 2 14 1 15
REMARK H PARENT
REMARK Flexibility Score: inf
ROOT
ATOM      1  C   UNL     1      16.265   4.629  16.787  1.00  0.00     0.015 C 
ATOM      2  C   UNL     1      15.227   5.412  15.961  1.00  0.00     0.009 C 
ATOM      3  C   UNL     1      13.800   4.936  16.276  1.00  0.00     0.012 C 
ATOM      4  C   UNL     1      13.448   5.071  17.786  1.00  0.00    -0.008 C 
ATOM      5  C   UNL     1      14.529   4.281  18.614  1.00  0.00     0.024 C 
ATOM      6  C   UNL     1      15.970   4.749  18.295  1.00  0.00     0.017 C 
ATOM      7  C   UNL     1      12.056   4.434  18.020  1.00  0.00     0.016 C 
ENDROOT
BRANCH   1   8
ATOM      8  C   UNL     1      17.685   5.076  16.462  1.00  0.00    -0.077 C 
ATOM      9  C   UNL     1      18.090   6.514  16.667  1.00  0.00     0.039 C 
ATOM     10  C   UNL     1      18.601   4.213  15.991  1.00  0.00     0.008 C 
ENDBRANCH   1   8
BRANCH   5  11
ATOM     11  C   UNL     1      14.247   4.215  20.120  1.00  0.00    -0.077 C 
ATOM     12  C   UNL     1      14.541   5.223  20.961  1.00  0.00     0.008 C 
ATOM     13  C   UNL     1      13.651   2.961  20.710  1.00  0.00     0.039 C 
ENDBRANCH   5  11
BRANCH   4  14
ATOM     14  C   UNL     1      13.396   6.550  18.174  1.00  0.00    -0.028 C 
ATOM     15  C   UNL     1      12.287   7.152  18.622  1.00  0.00     0.004 C 
ENDBRANCH   4  14
TORSDOF 3
ENDMDL
MODEL 7
REMARK VINA RESULT:    -3.816      1.520      5.316
REMARK INTER + INTRA:          -4.907
REMARK INTER:                  -4.500
REMARK INTRA:                  -0.407
REMARK UNBOUND:                -0.422
REMARK SMILES C=C[C@@]1(C)CC[C@@H](C(=C)C)C[C@H]1C(=C)C
REMARK SMILES IDX 7 1 6 2 5 3 3 4 12 5 11 6 4 7 8 8 10 9 9 10 13 11 14 12
REMARK SMILES IDX 15 13 2 14 1 15
REMARK H PARENT
REMARK Flexibility Score: inf
ROOT
ATOM      1  C   UNL     1      12.630   4.795  18.591  1.00  0.00     0.015 C 
ATOM      2  C   UNL     1      12.608   6.183  19.259  1.00  0.00     0.009 C 
ATOM      3  C   UNL     1      12.005   6.106  20.670  1.00  0.00     0.012 C 
ATOM      4  C   UNL     1      12.773   5.115  21.592  1.00  0.00    -0.008 C 
ATOM      5  C   UNL     1      12.801   3.709  20.886  1.00  0.00     0.024 C 
ATOM      6  C   UNL     1      13.400   3.780  19.459  1.00  0.00     0.017 C 
ATOM      7  C   UNL     1      12.006   5.002  22.931  1.00  0.00     0.016 C 
ENDROOT
BRANCH   1   8
ATOM      8  C   UNL     1      13.203   4.865  17.181  1.00  0.00    -0.077 C 
ATOM      9  C   UNL     1      12.716   5.921  16.220  1.00  0.00     0.039 C 
ATOM     10  C   UNL     1      14.143   4.001  16.762  1.00  0.00     0.008 C 
ENDBRANCH   1   8
BRANCH   5  11
ATOM     11  C   UNL     1      13.419   2.589  21.732  1.00  0.00    -0.077 C 
ATOM     12  C   UNL     1      14.708   2.222  21.624  1.00  0.00     0.008 C 
ATOM     13  C   UNL     1      12.552   1.829  22.705  1.00  0.00     0.039 C 
ENDBRANCH   5  11
BRANCH   4  14
ATOM     14  C   UNL     1      14.182   5.649  21.863  1.00  0.00    -0.028 C 
ATOM     15  C   UNL     1      14.660   5.862  23.096  1.00  0.00     0.004 C 
ENDBRANCH   4  14
TORSDOF 3
ENDMDL
MODEL 8
REMARK VINA RESULT:    -3.791      2.015      2.797
REMARK INTER + INTRA:          -4.877
REMARK INTER:                  -4.463
REMARK INTRA:                  -0.414
REMARK UNBOUND:                -0.422
REMARK SMILES C=C[C@@]1(C)CC[C@@H](C(=C)C)C[C@H]1C(=C)C
REMARK SMILES IDX 7 1 6 2 5 3 3 4 12 5 11 6 4 7 8 8 10 9 9 10 13 11 14 12
REMARK SMILES IDX 15 13 2 14 1 15
REMARK H PARENT
REMARK Flexibility Score: inf
ROOT
ATOM      1  C   UNL     1      12.033   5.953  20.235  1.00  0.00     0.015 C 
ATOM      2  C   UNL     1      12.475   4.760  19.367  1.00  0.00     0.009 C 
ATOM      3  C   UNL     1      11.934   4.892  17.934  1.00  0.00     0.012 C 
ATOM      4  C   UNL     1      12.389   6.212  17.246  1.00  0.00    -0.008 C 
ATOM      5  C   UNL     1      11.945   7.417  18.156  1.00  0.00     0.024 C 
ATOM      6  C   UNL     1      12.479   7.287  19.604  1.00  0.00     0.017 C 
ATOM      7  C   UNL     1      11.678   6.316  15.875  1.00  0.00     0.016 C 
ENDROOT
BRANCH   1   8
ATOM      8  C   UNL     1      12.543   5.818  21.665  1.00  0.00    -0.077 C 
ATOM      9  C   UNL     1      14.017   5.944  21.957  1.00  0.00     0.039 C 
ATOM     10  C   UNL     1      11.703   5.587  22.689  1.00  0.00     0.008 C 
ENDBRANCH   1   8
BRANCH   5  11
ATOM     11  C   UNL     1      12.213   8.800  17.549  1.00  0.00    -0.077 C 
ATOM     12  C   UNL     1      13.427   9.379  17.563  1.00  0.00     0.008 C 
ATOM     13  C   UNL     1      11.072   9.576  16.937  1.00  0.00     0.039 C 
ENDBRANCH   5  11
BRANCH   4  14
ATOM     14  C   UNL     1      13.903   6.186  17.027  1.00  0.00    -0.028 C 
ATOM     15  C   UNL     1      14.472   5.755  15.894  1.00  0.00     0.004 C 
ENDBRANCH   4  14
TORSDOF 3
ENDMDL
MODEL 9
REMARK VINA RESULT:    -1.458      2.206      5.092
REMARK INTER + INTRA:          -2.136
REMARK INTER:                  -1.751
REMARK INTRA:                  -0.384
REMARK UNBOUND:                -0.422
REMARK SMILES C=C[C@@]1(C)CC[C@@H](C(=C)C)C[C@H]1C(=C)C
REMARK SMILES IDX 7 1 6 2 5 3 3 4 12 5 11 6 4 7 8 8 10 9 9 10 13 11 14 12
REMARK SMILES IDX 15 13 2 14 1 15
REMARK H PARENT
REMARK Flexibility Score: inf
ROOT
ATOM      1  C   UNL     1      13.188   6.170  16.262  1.00  0.00     0.015 C 
ATOM      2  C   UNL     1      12.655   5.411  17.492  1.00  0.00     0.009 C 
ATOM      3  C   UNL     1      13.455   4.121  17.733  1.00  0.00     0.012 C 
ATOM      4  C   UNL     1      14.975   4.392  17.927  1.00  0.00    -0.008 C 
ATOM      5  C   UNL     1      15.497   5.183  16.671  1.00  0.00     0.024 C 
ATOM      6  C   UNL     1      14.690   6.480  16.417  1.00  0.00     0.017 C 
ATOM      7  C   UNL     1      15.704   3.029  18.016  1.00  0.00     0.016 C 
ENDROOT
BRANCH   1   8
ATOM      8  C   UNL     1      12.384   7.437  16.000  1.00  0.00    -0.077 C 
ATOM      9  C   UNL     1      13.086   8.765  15.875  1.00  0.00     0.039 C 
ATOM     10  C   UNL     1      11.046   7.405  15.875  1.00  0.00     0.008 C 
ENDBRANCH   1   8
BRANCH   5  11
ATOM     11  C   UNL     1      17.013   5.416  16.656  1.00  0.00    -0.077 C 
ATOM     12  C   UNL     1      17.886   4.498  16.204  1.00  0.00     0.008 C 
ATOM     13  C   UNL     1      17.571   6.708  17.200  1.00  0.00     0.039 C 
ENDBRANCH   5  11
BRANCH   4  14
ATOM     14  C   UNL     1      15.199   5.168  19.227  1.00  0.00    -0.028 C 
ATOM     15  C   UNL     1      16.059   4.775  20.176  1.00  0.00     0.004 C 
ENDBRANCH   4  14
TORSDOF 3
ENDMDL
