MODEL 1
REMARK VINA RESULT:    -3.943      0.000      0.000
REMARK INTER + INTRA:          -4.663
REMARK INTER:                  -4.520
REMARK INTRA:                  -0.143
REMARK UNBOUND:                -0.143
REMARK SMILES CC=Cc1ccc(O)c(OC)c1
REMARK SMILES IDX 4 1 12 2 9 3 7 4 6 5 5 6 3 7 1 8 2 9 10 10 11 11 8 12
REMARK H PARENT 8 13
REMARK Flexibility Score: inf
ROOT
ATOM      1  C   UNL     1     114.506 116.880 113.708  1.00  0.00    -0.022 A 
ATOM      2  C   UNL     1     114.459 117.055 115.102  1.00  0.00     0.058 A 
ATOM      3  C   UNL     1     113.826 116.106 115.929  1.00  0.00     0.161 A 
ATOM      4  C   UNL     1     113.245 114.967 115.347  1.00  0.00     0.157 A 
ATOM      5  C   UNL     1     113.302 114.781 113.964  1.00  0.00     0.051 A 
ATOM      6  C   UNL     1     113.931 115.724 113.148  1.00  0.00     0.012 A 
ENDROOT
BRANCH   1   7
ATOM      7  C   UNL     1     115.195 117.906 112.886  1.00  0.00     0.003 C 
ATOM      8  C   UNL     1     115.499 120.133 111.876  1.00  0.00     0.035 C 
ATOM      9  C   UNL     1     114.739 119.151 112.709  1.00  0.00    -0.030 C 
ENDBRANCH   1   7
BRANCH   3  10
ATOM     10  O   UNL     1     113.758 116.263 117.324  1.00  0.00    -0.493 OA
ATOM     11  C   UNL     1     114.028 117.479 118.015  1.00  0.00     0.278 C 
ENDBRANCH   3  10
BRANCH   4  12
ATOM     12  O   UNL     1     112.607 114.002 116.129  1.00  0.00    -0.504 OA
ATOM     13  H   UNL     1     112.803 113.893 117.117  1.00  0.00     0.293 HD
ENDBRANCH   4  12
TORSDOF 3
ENDMDL
MODEL 2
REMARK VINA RESULT:    -3.924      3.870      4.456
REMARK INTER + INTRA:          -4.640
REMARK INTER:                  -4.493
REMARK INTRA:                  -0.147
REMARK UNBOUND:                -0.143
REMARK SMILES CC=Cc1ccc(O)c(OC)c1
REMARK SMILES IDX 4 1 12 2 9 3 7 4 6 5 5 6 3 7 1 8 2 9 10 10 11 11 8 12
REMARK H PARENT 8 13
REMARK Flexibility Score: inf
ROOT
ATOM      1  C   UNL     1     116.293 114.402 113.546  1.00  0.00    -0.022 A 
ATOM      2  C   UNL     1     116.091 114.375 114.936  1.00  0.00     0.058 A 
ATOM      3  C   UNL     1     117.039 113.781 115.794  1.00  0.00     0.161 A 
ATOM      4  C   UNL     1     118.205 113.220 115.246  1.00  0.00     0.157 A 
ATOM      5  C   UNL     1     118.417 113.258 113.865  1.00  0.00     0.051 A 
ATOM      6  C   UNL     1     117.475 113.847 113.019  1.00  0.00     0.012 A 
ENDROOT
BRANCH   1   7
ATOM      7  C   UNL     1     115.267 115.049 112.691  1.00  0.00     0.003 C 
ATOM      8  C   UNL     1     112.984 115.492 111.878  1.00  0.00     0.035 C 
ATOM      9  C   UNL     1     113.958 114.786 112.766  1.00  0.00    -0.030 C 
ENDBRANCH   1   7
BRANCH   3  10
ATOM     10  O   UNL     1     116.855 113.734 117.186  1.00  0.00    -0.493 OA
ATOM     11  C   UNL     1     115.641 114.065 117.853  1.00  0.00     0.278 C 
ENDBRANCH   3  10
BRANCH   4  12
ATOM     12  O   UNL     1     119.169 112.622 116.058  1.00  0.00    -0.504 OA
ATOM     13  H   UNL     1     118.955 111.833 116.657  1.00  0.00     0.293 HD
ENDBRANCH   4  12
TORSDOF 3
ENDMDL
MODEL 3
REMARK VINA RESULT:    -3.922      3.921      4.474
REMARK INTER + INTRA:          -4.638
REMARK INTER:                  -4.493
REMARK INTRA:                  -0.145
REMARK UNBOUND:                -0.143
REMARK SMILES CC=Cc1ccc(O)c(OC)c1
REMARK SMILES IDX 4 1 12 2 9 3 7 4 6 5 5 6 3 7 1 8 2 9 10 10 11 11 8 12
REMARK H PARENT 8 13
REMARK Flexibility Score: inf
ROOT
ATOM      1  C   UNL     1     116.857 118.760 113.713  1.00  0.00    -0.022 A 
ATOM      2  C   UNL     1     117.089 118.813 115.099  1.00  0.00     0.058 A 
ATOM      3  C   UNL     1     116.159 119.423 115.964  1.00  0.00     0.161 A 
ATOM      4  C   UNL     1     114.982 119.974 115.430  1.00  0.00     0.157 A 
ATOM      5  C   UNL     1     114.741 119.910 114.056  1.00  0.00     0.051 A 
ATOM      6  C   UNL     1     115.665 119.305 113.201  1.00  0.00     0.012 A 
ENDROOT
BRANCH   1   7
ATOM      7  C   UNL     1     117.865 118.096 112.849  1.00  0.00     0.003 C 
ATOM      8  C   UNL     1     120.102 117.753 111.875  1.00  0.00     0.035 C 
ATOM      9  C   UNL     1     119.142 118.484 112.759  1.00  0.00    -0.030 C 
ENDBRANCH   1   7
BRANCH   3  10
ATOM     10  O   UNL     1     116.372 119.496 117.351  1.00  0.00    -0.493 OA
ATOM     11  C   UNL     1     117.611 119.216 117.995  1.00  0.00     0.278 C 
ENDBRANCH   3  10
BRANCH   4  12
ATOM     12  O   UNL     1     114.035 120.588 116.251  1.00  0.00    -0.504 OA
ATOM     13  H   UNL     1     113.819 120.241 117.178  1.00  0.00     0.293 HD
ENDBRANCH   4  12
TORSDOF 3
ENDMDL
MODEL 4
REMARK VINA RESULT:    -3.812      2.946      4.115
REMARK INTER + INTRA:          -4.512
REMARK INTER:                  -4.360
REMARK INTRA:                  -0.152
REMARK UNBOUND:                -0.143
REMARK SMILES CC=Cc1ccc(O)c(OC)c1
REMARK SMILES IDX 4 1 12 2 9 3 7 4 6 5 5 6 3 7 1 8 2 9 10 10 11 11 8 12
REMARK H PARENT 8 13
REMARK Flexibility Score: inf
ROOT
ATOM      1  C   UNL     1     115.093 119.494 115.039  1.00  0.00    -0.022 A 
ATOM      2  C   UNL     1     115.097 118.102 115.233  1.00  0.00     0.058 A 
ATOM      3  C   UNL     1     114.742 117.225 114.189  1.00  0.00     0.161 A 
ATOM      4  C   UNL     1     114.391 117.755 112.936  1.00  0.00     0.157 A 
ATOM      5  C   UNL     1     114.400 119.138 112.734  1.00  0.00     0.051 A 
ATOM      6  C   UNL     1     114.752 120.003 113.771  1.00  0.00     0.012 A 
ENDROOT
BRANCH   1   7
ATOM      7  C   UNL     1     115.486 120.371 116.170  1.00  0.00     0.003 C 
ATOM      8  C   UNL     1     115.202 122.219 117.775  1.00  0.00     0.035 C 
ATOM      9  C   UNL     1     114.744 121.389 116.618  1.00  0.00    -0.030 C 
ENDBRANCH   1   7
BRANCH   3  10
ATOM     10  O   UNL     1     114.729 115.831 114.362  1.00  0.00    -0.493 OA
ATOM     11  C   UNL     1     113.587 115.074 114.750  1.00  0.00     0.278 C 
ENDBRANCH   3  10
BRANCH   4  12
ATOM     12  O   UNL     1     114.031 116.923 111.875  1.00  0.00    -0.504 OA
ATOM     13  H   UNL     1     113.172 117.052 111.354  1.00  0.00     0.293 HD
ENDBRANCH   4  12
TORSDOF 3
ENDMDL
MODEL 5
REMARK VINA RESULT:    -3.786      4.197      5.654
REMARK INTER + INTRA:          -4.483
REMARK INTER:                  -4.335
REMARK INTRA:                  -0.148
REMARK UNBOUND:                -0.143
REMARK SMILES CC=Cc1ccc(O)c(OC)c1
REMARK SMILES IDX 4 1 12 2 9 3 7 4 6 5 5 6 3 7 1 8 2 9 10 10 11 11 8 12
REMARK H PARENT 8 13
REMARK Flexibility Score: inf
ROOT
ATOM      1  C   UNL     1     117.416 116.773 112.588  1.00  0.00    -0.022 A 
ATOM      2  C   UNL     1     117.913 116.440 113.861  1.00  0.00     0.058 A 
ATOM      3  C   UNL     1     118.989 117.153 114.426  1.00  0.00     0.161 A 
ATOM      4  C   UNL     1     119.562 118.217 113.707  1.00  0.00     0.157 A 
ATOM      5  C   UNL     1     119.061 118.560 112.449  1.00  0.00     0.051 A 
ATOM      6  C   UNL     1     117.995 117.851 111.892  1.00  0.00     0.012 A 
ENDROOT
BRANCH   1   7
ATOM      7  C   UNL     1     116.275 115.995 112.046  1.00  0.00     0.003 C 
ATOM      8  C   UNL     1     114.046 114.948 112.110  1.00  0.00     0.035 C 
ATOM      9  C   UNL     1     115.159 115.727 112.733  1.00  0.00    -0.030 C 
ENDBRANCH   1   7
BRANCH   3  10
ATOM     10  O   UNL     1     119.509 116.834 115.692  1.00  0.00    -0.493 OA
ATOM     11  C   UNL     1     118.994 115.816 116.544  1.00  0.00     0.278 C 
ENDBRANCH   3  10
BRANCH   4  12
ATOM     12  O   UNL     1     120.629 118.948 114.229  1.00  0.00    -0.504 OA
ATOM     13  H   UNL     1     121.569 118.873 113.857  1.00  0.00     0.293 HD
ENDBRANCH   4  12
TORSDOF 3
ENDMDL
MODEL 6
REMARK VINA RESULT:    -3.768      2.188      2.468
REMARK INTER + INTRA:          -4.461
REMARK INTER:                  -4.311
REMARK INTRA:                  -0.151
REMARK UNBOUND:                -0.143
REMARK SMILES CC=Cc1ccc(O)c(OC)c1
REMARK SMILES IDX 4 1 12 2 9 3 7 4 6 5 5 6 3 7 1 8 2 9 10 10 11 11 8 12
REMARK H PARENT 8 13
REMARK Flexibility Score: inf
ROOT
ATOM      1  C   UNL     1     116.122 116.112 112.527  1.00  0.00    -0.022 A 
ATOM      2  C   UNL     1     115.621 116.655 113.723  1.00  0.00     0.058 A 
ATOM      3  C   UNL     1     114.500 116.087 114.361  1.00  0.00     0.161 A 
ATOM      4  C   UNL     1     113.887 114.956 113.796  1.00  0.00     0.157 A 
ATOM      5  C   UNL     1     114.391 114.404 112.615  1.00  0.00     0.051 A 
ATOM      6  C   UNL     1     115.502 114.970 111.985  1.00  0.00     0.012 A 
ENDROOT
BRANCH   1   7
ATOM      7  C   UNL     1     117.311 116.744 111.903  1.00  0.00     0.003 C 
ATOM      8  C   UNL     1     119.432 117.996 111.886  1.00  0.00     0.035 C 
ATOM      9  C   UNL     1     118.255 117.398 112.587  1.00  0.00    -0.030 C 
ENDBRANCH   1   7
BRANCH   3  10
ATOM     10  O   UNL     1     113.976 116.617 115.552  1.00  0.00    -0.493 OA
ATOM     11  C   UNL     1     114.648 117.557 116.384  1.00  0.00     0.278 C 
ENDBRANCH   3  10
BRANCH   4  12
ATOM     12  O   UNL     1     112.775 114.362 114.394  1.00  0.00    -0.504 OA
ATOM     13  H   UNL     1     111.830 114.548 114.081  1.00  0.00     0.293 HD
ENDBRANCH   4  12
TORSDOF 3
ENDMDL
MODEL 7
REMARK VINA RESULT:    -3.759      3.771      4.123
REMARK INTER + INTRA:          -4.452
REMARK INTER:                  -4.301
REMARK INTRA:                  -0.151
REMARK UNBOUND:                -0.143
REMARK SMILES CC=Cc1ccc(O)c(OC)c1
REMARK SMILES IDX 4 1 12 2 9 3 7 4 6 5 5 6 3 7 1 8 2 9 10 10 11 11 8 12
REMARK H PARENT 8 13
REMARK Flexibility Score: inf
ROOT
ATOM      1  C   UNL     1     117.166 115.873 112.527  1.00  0.00    -0.022 A 
ATOM      2  C   UNL     1     116.635 115.392 113.736  1.00  0.00     0.058 A 
ATOM      3  C   UNL     1     117.193 114.266 114.374  1.00  0.00     0.161 A 
ATOM      4  C   UNL     1     118.302 113.627 113.793  1.00  0.00     0.157 A 
ATOM      5  C   UNL     1     118.842 114.111 112.599  1.00  0.00     0.051 A 
ATOM      6  C   UNL     1     118.286 115.227 111.970  1.00  0.00     0.012 A 
ENDROOT
BRANCH   1   7
ATOM      7  C   UNL     1     116.544 117.068 111.904  1.00  0.00     0.003 C 
ATOM      8  C   UNL     1     115.226 119.149 111.875  1.00  0.00     0.035 C 
ATOM      9  C   UNL     1     115.807 117.961 112.573  1.00  0.00    -0.030 C 
ENDBRANCH   1   7
BRANCH   3  10
ATOM     10  O   UNL     1     116.675 113.761 115.578  1.00  0.00    -0.493 OA
ATOM     11  C   UNL     1     115.651 114.388 116.344  1.00  0.00     0.278 C 
ENDBRANCH   3  10
BRANCH   4  12
ATOM     12  O   UNL     1     118.885 112.509 114.391  1.00  0.00    -0.504 OA
ATOM     13  H   UNL     1     118.332 111.748 114.768  1.00  0.00     0.293 HD
ENDBRANCH   4  12
TORSDOF 3
ENDMDL
MODEL 8
REMARK VINA RESULT:    -3.707      3.556      4.571
REMARK INTER + INTRA:          -4.392
REMARK INTER:                  -4.241
REMARK INTRA:                  -0.151
REMARK UNBOUND:                -0.143
REMARK SMILES CC=Cc1ccc(O)c(OC)c1
REMARK SMILES IDX 4 1 12 2 9 3 7 4 6 5 5 6 3 7 1 8 2 9 10 10 11 11 8 12
REMARK H PARENT 8 13
REMARK Flexibility Score: inf
ROOT
ATOM      1  C   UNL     1     116.467 116.894 112.681  1.00  0.00    -0.022 A 
ATOM      2  C   UNL     1     116.781 117.557 113.880  1.00  0.00     0.058 A 
ATOM      3  C   UNL     1     116.090 118.724 114.264  1.00  0.00     0.161 A 
ATOM      4  C   UNL     1     115.068 119.220 113.437  1.00  0.00     0.157 A 
ATOM      5  C   UNL     1     114.743 118.556 112.252  1.00  0.00     0.051 A 
ATOM      6  C   UNL     1     115.430 117.400 111.875  1.00  0.00     0.012 A 
ENDROOT
BRANCH   1   7
ATOM      7  C   UNL     1     117.220 115.664 112.332  1.00  0.00     0.003 C 
ATOM      8  C   UNL     1     118.505 113.615 112.801  1.00  0.00     0.035 C 
ATOM      9  C   UNL     1     117.773 114.845 113.233  1.00  0.00    -0.030 C 
ENDBRANCH   1   7
BRANCH   3  10
ATOM     10  O   UNL     1     116.392 119.409 115.453  1.00  0.00    -0.493 OA
ATOM     11  C   UNL     1     117.114 118.852 116.546  1.00  0.00     0.278 C 
ENDBRANCH   3  10
BRANCH   4  12
ATOM     12  O   UNL     1     114.360 120.373 113.778  1.00  0.00    -0.504 OA
ATOM     13  H   UNL     1     113.417 120.545 113.448  1.00  0.00     0.293 HD
ENDBRANCH   4  12
TORSDOF 3
ENDMDL
