MODEL 1
REMARK VINA RESULT:    -2.695      0.000      0.000
REMARK INTER + INTRA:          -4.702
REMARK INTER:                  -4.900
REMARK INTRA:                   0.199
REMARK UNBOUND:                 0.199
REMARK SMILES CCCCCCCCCCCCCC[C@H](C)C(=O)[O-]
REMARK SMILES IDX 9 1 10 2 11 3 12 4 13 5 14 6 15 7 16 8 17 9 18 10 19 11 8 12
REMARK SMILES IDX 7 13 6 14 5 15 4 16 3 17 2 18 1 19
REMARK H PARENT
REMARK Flexibility Score: inf
ROOT
ATOM      1  C   UNL     1      -5.916  14.839 -14.850  1.00  0.00     0.000 C 
ENDROOT
BRANCH   1   2
ATOM      2  C   UNL     1      -5.360  13.584 -14.151  1.00  0.00     0.000 C 
BRANCH   2   3
ATOM      3  C   UNL     1      -6.294  12.371 -14.281  1.00  0.00     0.000 C 
BRANCH   3   4
ATOM      4  C   UNL     1      -7.549  12.676 -15.118  1.00  0.00     0.000 C 
BRANCH   4   5
ATOM      5  C   UNL     1      -8.703  13.236 -14.268  1.00  0.00     0.001 C 
BRANCH   5   6
ATOM      6  C   UNL     1      -8.595  14.757 -14.055  1.00  0.00     0.009 C 
BRANCH   6   7
ATOM      7  C   UNL     1      -8.892  15.175 -12.598  1.00  0.00     0.032 C 
ATOM      8  C   UNL     1      -9.655  16.505 -12.514  1.00  0.00     0.014 C 
BRANCH   7   9
ATOM      9  C   UNL     1      -7.607  15.280 -11.822  1.00  0.00     0.044 C 
ATOM     10  O   UNL     1      -7.341  14.452 -10.910  1.00  0.00    -0.550 OA
ATOM     11  O   UNL     1      -6.703  16.294 -12.111  1.00  0.00    -0.550 OA
ENDBRANCH   7   9
ENDBRANCH   6   7
ENDBRANCH   5   6
ENDBRANCH   4   5
ENDBRANCH   3   4
ENDBRANCH   2   3
ENDBRANCH   1   2
BRANCH   1  12
ATOM     12  C   UNL     1      -4.879  15.970 -14.939  1.00  0.00     0.000 C 
BRANCH  12  13
ATOM     13  C   UNL     1      -5.529  17.353 -15.116  1.00  0.00    -0.000 C 
BRANCH  13  14
ATOM     14  C   UNL     1      -4.880  18.438 -14.238  1.00  0.00    -0.000 C 
BRANCH  14  15
ATOM     15  C   UNL     1      -5.056  19.881 -14.747  1.00  0.00    -0.000 C 
BRANCH  15  16
ATOM     16  C   UNL     1      -5.434  20.869 -13.633  1.00  0.00    -0.000 C 
BRANCH  16  17
ATOM     17  C   UNL     1      -6.951  21.112 -13.608  1.00  0.00    -0.000 C 
BRANCH  17  18
ATOM     18  C   UNL     1      -7.724  19.953 -12.961  1.00  0.00    -0.003 C 
ATOM     19  C   UNL     1      -8.332  19.000 -13.989  1.00  0.00     0.004 C 
ENDBRANCH  17  18
ENDBRANCH  16  17
ENDBRANCH  15  16
ENDBRANCH  14  15
ENDBRANCH  13  14
ENDBRANCH  12  13
ENDBRANCH   1  12
TORSDOF 14
ENDMDL
MODEL 2
REMARK VINA RESULT:    -1.427      2.166      5.916
REMARK INTER + INTRA:          -2.396
REMARK INTER:                  -2.687
REMARK INTRA:                   0.292
REMARK UNBOUND:                 0.199
REMARK SMILES CCCCCCCCCCCCCC[C@H](C)C(=O)[O-]
REMARK SMILES IDX 9 1 10 2 11 3 12 4 13 5 14 6 15 7 16 8 17 9 18 10 19 11 8 12
REMARK SMILES IDX 7 13 6 14 5 15 4 16 3 17 2 18 1 19
REMARK H PARENT
REMARK Flexibility Score: inf
ROOT
ATOM      1  C   UNL     1      -7.912  15.870 -11.501  1.00  0.00     0.000 C 
ENDROOT
BRANCH   1   2
ATOM      2  C   UNL     1      -9.067  16.487 -12.310  1.00  0.00     0.000 C 
BRANCH   2   3
ATOM      3  C   UNL     1      -8.607  17.646 -13.210  1.00  0.00     0.000 C 
BRANCH   3   4
ATOM      4  C   UNL     1      -8.144  17.171 -14.598  1.00  0.00     0.000 C 
BRANCH   4   5
ATOM      5  C   UNL     1      -6.884  17.909 -15.084  1.00  0.00     0.001 C 
BRANCH   5   6
ATOM      6  C   UNL     1      -6.022  18.433 -13.921  1.00  0.00     0.009 C 
BRANCH   6   7
ATOM      7  C   UNL     1      -5.866  19.970 -13.943  1.00  0.00     0.032 C 
ATOM      8  C   UNL     1      -4.897  20.476 -12.865  1.00  0.00     0.014 C 
BRANCH   7   9
ATOM      9  C   UNL     1      -7.210  20.624 -13.763  1.00  0.00     0.044 C 
ATOM     10  O   UNL     1      -7.714  20.744 -12.614  1.00  0.00    -0.550 OA
ATOM     11  O   UNL     1      -7.902  21.103 -14.868  1.00  0.00    -0.550 OA
ENDBRANCH   7   9
ENDBRANCH   6   7
ENDBRANCH   5   6
ENDBRANCH   4   5
ENDBRANCH   3   4
ENDBRANCH   2   3
ENDBRANCH   1   2
BRANCH   1  12
ATOM     12  C   UNL     1      -7.115  14.834 -12.310  1.00  0.00     0.000 C 
BRANCH  12  13
ATOM     13  C   UNL     1      -6.949  13.500 -11.561  1.00  0.00    -0.000 C 
BRANCH  13  14
ATOM     14  C   UNL     1      -6.065  12.493 -12.319  1.00  0.00    -0.000 C 
BRANCH  14  15
ATOM     15  C   UNL     1      -5.274  13.080 -13.502  1.00  0.00    -0.000 C 
BRANCH  15  16
ATOM     16  C   UNL     1      -6.148  13.908 -14.457  1.00  0.00    -0.000 C 
BRANCH  16  17
ATOM     17  C   UNL     1      -7.216  13.027 -15.125  1.00  0.00    -0.000 C 
BRANCH  17  18
ATOM     18  C   UNL     1      -8.643  13.410 -14.706  1.00  0.00    -0.003 C 
ATOM     19  C   UNL     1      -9.677  12.353 -15.092  1.00  0.00     0.004 C 
ENDBRANCH  17  18
ENDBRANCH  16  17
ENDBRANCH  15  16
ENDBRANCH  14  15
ENDBRANCH  13  14
ENDBRANCH  12  13
ENDBRANCH   1  12
TORSDOF 14
ENDMDL
MODEL 3
REMARK VINA RESULT:    -1.302      1.817      3.617
REMARK INTER + INTRA:          -2.169
REMARK INTER:                  -3.228
REMARK INTRA:                   1.059
REMARK UNBOUND:                 0.199
REMARK SMILES CCCCCCCCCCCCCC[C@H](C)C(=O)[O-]
REMARK SMILES IDX 9 1 10 2 11 3 12 4 13 5 14 6 15 7 16 8 17 9 18 10 19 11 8 12
REMARK SMILES IDX 7 13 6 14 5 15 4 16 3 17 2 18 1 19
REMARK H PARENT
REMARK Flexibility Score: inf
ROOT
ATOM      1  C   UNL     1      -8.857  16.412 -13.434  1.00  0.00     0.000 C 
ENDROOT
BRANCH   1   2
ATOM      2  C   UNL     1      -8.850  16.127 -11.921  1.00  0.00     0.000 C 
BRANCH   2   3
ATOM      3  C   UNL     1      -7.518  15.530 -11.437  1.00  0.00     0.000 C 
BRANCH   3   4
ATOM      4  C   UNL     1      -6.856  14.626 -12.492  1.00  0.00     0.000 C 
BRANCH   4   5
ATOM      5  C   UNL     1      -6.157  15.430 -13.603  1.00  0.00     0.001 C 
BRANCH   5   6
ATOM      6  C   UNL     1      -5.133  14.588 -14.386  1.00  0.00     0.009 C 
BRANCH   6   7
ATOM      7  C   UNL     1      -5.696  13.216 -14.817  1.00  0.00     0.032 C 
ATOM      8  C   UNL     1      -7.231  13.186 -14.814  1.00  0.00     0.014 C 
BRANCH   7   9
ATOM      9  C   UNL     1      -5.166  12.137 -13.912  1.00  0.00     0.044 C 
ATOM     10  O   UNL     1      -4.965  10.974 -14.353  1.00  0.00    -0.550 OA
ATOM     11  O   UNL     1      -4.894  12.420 -12.580  1.00  0.00    -0.550 OA
ENDBRANCH   7   9
ENDBRANCH   6   7
ENDBRANCH   5   6
ENDBRANCH   4   5
ENDBRANCH   3   4
ENDBRANCH   2   3
ENDBRANCH   1   2
BRANCH   1  12
ATOM     12  C   UNL     1      -8.712  17.909 -13.750  1.00  0.00     0.000 C 
BRANCH  12  13
ATOM     13  C   UNL     1      -8.012  18.163 -15.097  1.00  0.00    -0.000 C 
BRANCH  13  14
ATOM     14  C   UNL     1      -6.493  17.922 -15.038  1.00  0.00    -0.000 C 
BRANCH  14  15
ATOM     15  C   UNL     1      -5.628  19.194 -15.110  1.00  0.00    -0.000 C 
BRANCH  15  16
ATOM     16  C   UNL     1      -4.876  19.483 -13.802  1.00  0.00    -0.000 C 
BRANCH  16  17
ATOM     17  C   UNL     1      -5.082  20.941 -13.362  1.00  0.00    -0.000 C 
BRANCH  17  18
ATOM     18  C   UNL     1      -6.121  21.077 -12.239  1.00  0.00    -0.003 C 
ATOM     19  C   UNL     1      -7.558  21.073 -12.758  1.00  0.00     0.004 C 
ENDBRANCH  17  18
ENDBRANCH  16  17
ENDBRANCH  15  16
ENDBRANCH  14  15
ENDBRANCH  13  14
ENDBRANCH  12  13
ENDBRANCH   1  12
TORSDOF 14
ENDMDL
MODEL 4
REMARK VINA RESULT:    -0.994      1.952      5.900
REMARK INTER + INTRA:          -1.609
REMARK INTER:                  -0.485
REMARK INTRA:                  -1.124
REMARK UNBOUND:                 0.199
REMARK SMILES CCCCCCCCCCCCCC[C@H](C)C(=O)[O-]
REMARK SMILES IDX 9 1 10 2 11 3 12 4 13 5 14 6 15 7 16 8 17 9 18 10 19 11 8 12
REMARK SMILES IDX 7 13 6 14 5 15 4 16 3 17 2 18 1 19
REMARK H PARENT
REMARK Flexibility Score: inf
ROOT
ATOM      1  C   UNL     1      -8.522  16.133 -11.610  1.00  0.00     0.000 C 
ENDROOT
BRANCH   1   2
ATOM      2  C   UNL     1      -9.381  16.748 -12.730  1.00  0.00     0.000 C 
BRANCH   2   3
ATOM      3  C   UNL     1      -8.886  18.138 -13.161  1.00  0.00     0.000 C 
BRANCH   3   4
ATOM      4  C   UNL     1      -8.652  18.240 -14.679  1.00  0.00     0.000 C 
BRANCH   4   5
ATOM      5  C   UNL     1      -7.346  18.974 -15.027  1.00  0.00     0.001 C 
BRANCH   5   6
ATOM      6  C   UNL     1      -7.446  20.494 -14.805  1.00  0.00     0.009 C 
BRANCH   6   7
ATOM      7  C   UNL     1      -6.172  21.086 -14.161  1.00  0.00     0.032 C 
ATOM      8  C   UNL     1      -4.969  21.061 -15.114  1.00  0.00     0.014 C 
BRANCH   7   9
ATOM      9  C   UNL     1      -5.837  20.333 -12.902  1.00  0.00     0.044 C 
ATOM     10  O   UNL     1      -6.266  20.730 -11.785  1.00  0.00    -0.550 OA
ATOM     11  O   UNL     1      -5.050  19.190 -12.966  1.00  0.00    -0.550 OA
ENDBRANCH   7   9
ENDBRANCH   6   7
ENDBRANCH   5   6
ENDBRANCH   4   5
ENDBRANCH   3   4
ENDBRANCH   2   3
ENDBRANCH   1   2
BRANCH   1  12
ATOM     12  C   UNL     1      -7.494  15.124 -12.146  1.00  0.00     0.000 C 
BRANCH  12  13
ATOM     13  C   UNL     1      -6.166  15.790 -12.546  1.00  0.00    -0.000 C 
BRANCH  13  14
ATOM     14  C   UNL     1      -6.062  16.061 -14.058  1.00  0.00    -0.000 C 
BRANCH  14  15
ATOM     15  C   UNL     1      -6.645  14.957 -14.960  1.00  0.00    -0.000 C 
BRANCH  15  16
ATOM     16  C   UNL     1      -5.940  13.603 -14.784  1.00  0.00    -0.000 C 
BRANCH  16  17
ATOM     17  C   UNL     1      -6.946  12.508 -14.399  1.00  0.00    -0.000 C 
BRANCH  17  18
ATOM     18  C   UNL     1      -8.404  12.955 -14.584  1.00  0.00    -0.003 C 
ATOM     19  C   UNL     1      -9.300  11.841 -15.125  1.00  0.00     0.004 C 
ENDBRANCH  17  18
ENDBRANCH  16  17
ENDBRANCH  15  16
ENDBRANCH  14  15
ENDBRANCH  13  14
ENDBRANCH  12  13
ENDBRANCH   1  12
TORSDOF 14
ENDMDL
MODEL 5
REMARK VINA RESULT:    -0.620      1.620      2.325
REMARK INTER + INTRA:          -0.929
REMARK INTER:                  -2.351
REMARK INTRA:                   1.422
REMARK UNBOUND:                 0.199
REMARK SMILES CCCCCCCCCCCCCC[C@H](C)C(=O)[O-]
REMARK SMILES IDX 9 1 10 2 11 3 12 4 13 5 14 6 15 7 16 8 17 9 18 10 19 11 8 12
REMARK SMILES IDX 7 13 6 14 5 15 4 16 3 17 2 18 1 19
REMARK H PARENT
REMARK Flexibility Score: inf
ROOT
ATOM      1  C   UNL     1      -5.738  15.941 -15.120  1.00  0.00     0.000 C 
ENDROOT
BRANCH   1   2
ATOM      2  C   UNL     1      -4.875  14.666 -15.090  1.00  0.00     0.000 C 
BRANCH   2   3
ATOM      3  C   UNL     1      -4.875  13.983 -13.713  1.00  0.00     0.000 C 
BRANCH   3   4
ATOM      4  C   UNL     1      -4.902  12.448 -13.812  1.00  0.00     0.000 C 
BRANCH   4   5
ATOM      5  C   UNL     1      -5.873  11.808 -12.804  1.00  0.00     0.001 C 
BRANCH   5   6
ATOM      6  C   UNL     1      -7.312  12.333 -12.956  1.00  0.00     0.009 C 
BRANCH   6   7
ATOM      7  C   UNL     1      -7.400  13.870 -12.842  1.00  0.00     0.032 C 
ATOM      8  C   UNL     1      -7.778  14.332 -11.427  1.00  0.00     0.014 C 
BRANCH   7   9
ATOM      9  C   UNL     1      -8.401  14.402 -13.832  1.00  0.00     0.044 C 
ATOM     10  O   UNL     1      -8.621  13.788 -14.911  1.00  0.00    -0.550 OA
ATOM     11  O   UNL     1      -9.092  15.576 -13.559  1.00  0.00    -0.550 OA
ENDBRANCH   7   9
ENDBRANCH   6   7
ENDBRANCH   5   6
ENDBRANCH   4   5
ENDBRANCH   3   4
ENDBRANCH   2   3
ENDBRANCH   1   2
BRANCH   1  12
ATOM     12  C   UNL     1      -4.892  17.224 -15.108  1.00  0.00     0.000 C 
BRANCH  12  13
ATOM     13  C   UNL     1      -5.753  18.498 -15.042  1.00  0.00    -0.000 C 
BRANCH  13  14
ATOM     14  C   UNL     1      -4.914  19.788 -15.022  1.00  0.00    -0.000 C 
BRANCH  14  15
ATOM     15  C   UNL     1      -5.721  21.089 -14.858  1.00  0.00    -0.000 C 
BRANCH  15  16
ATOM     16  C   UNL     1      -7.199  20.839 -14.516  1.00  0.00    -0.000 C 
BRANCH  16  17
ATOM     17  C   UNL     1      -7.333  20.070 -13.193  1.00  0.00    -0.000 C 
BRANCH  17  18
ATOM     18  C   UNL     1      -8.096  18.746 -13.355  1.00  0.00    -0.003 C 
ATOM     19  C   UNL     1      -8.119  17.916 -12.073  1.00  0.00     0.004 C 
ENDBRANCH  17  18
ENDBRANCH  16  17
ENDBRANCH  15  16
ENDBRANCH  14  15
ENDBRANCH  13  14
ENDBRANCH  12  13
ENDBRANCH   1  12
TORSDOF 14
ENDMDL
MODEL 6
REMARK VINA RESULT:    -0.103      1.859      5.467
REMARK INTER + INTRA:           0.011
REMARK INTER:                   0.156
REMARK INTRA:                  -0.145
REMARK UNBOUND:                 0.199
REMARK SMILES CCCCCCCCCCCCCC[C@H](C)C(=O)[O-]
REMARK SMILES IDX 9 1 10 2 11 3 12 4 13 5 14 6 15 7 16 8 17 9 18 10 19 11 8 12
REMARK SMILES IDX 7 13 6 14 5 15 4 16 3 17 2 18 1 19
REMARK H PARENT
REMARK Flexibility Score: inf
ROOT
ATOM      1  C   UNL     1      -8.567  14.840 -13.256  1.00  0.00     0.000 C 
ENDROOT
BRANCH   1   2
ATOM      2  C   UNL     1      -7.920  14.995 -11.867  1.00  0.00     0.000 C 
BRANCH   2   3
ATOM      3  C   UNL     1      -7.437  16.429 -11.595  1.00  0.00     0.000 C 
BRANCH   3   4
ATOM      4  C   UNL     1      -8.377  17.494 -12.188  1.00  0.00     0.000 C 
BRANCH   4   5
ATOM      5  C   UNL     1      -8.590  17.315 -13.702  1.00  0.00     0.001 C 
BRANCH   5   6
ATOM      6  C   UNL     1      -8.388  18.626 -14.485  1.00  0.00     0.009 C 
BRANCH   6   7
ATOM      7  C   UNL     1      -7.669  19.710 -13.654  1.00  0.00     0.032 C 
ATOM      8  C   UNL     1      -8.234  21.115 -13.909  1.00  0.00     0.014 C 
BRANCH   7   9
ATOM      9  C   UNL     1      -6.195  19.695 -13.956  1.00  0.00     0.044 C 
ATOM     10  O   UNL     1      -5.777  19.965 -15.114  1.00  0.00    -0.550 OA
ATOM     11  O   UNL     1      -5.284  19.383 -12.956  1.00  0.00    -0.550 OA
ENDBRANCH   7   9
ENDBRANCH   6   7
ENDBRANCH   5   6
ENDBRANCH   4   5
ENDBRANCH   3   4
ENDBRANCH   2   3
ENDBRANCH   1   2
BRANCH   1  12
ATOM     12  C   UNL     1      -8.699  13.369 -13.681  1.00  0.00     0.000 C 
BRANCH  12  13
ATOM     13  C   UNL     1      -7.869  12.422 -12.797  1.00  0.00    -0.000 C 
BRANCH  13  14
ATOM     14  C   UNL     1      -6.361  12.491 -13.095  1.00  0.00    -0.000 C 
BRANCH  14  15
ATOM     15  C   UNL     1      -5.960  12.096 -14.529  1.00  0.00    -0.000 C 
BRANCH  15  16
ATOM     16  C   UNL     1      -4.880  13.012 -15.124  1.00  0.00    -0.000 C 
BRANCH  16  17
ATOM     17  C   UNL     1      -4.876  14.381 -14.425  1.00  0.00    -0.000 C 
BRANCH  17  18
ATOM     18  C   UNL     1      -5.801  15.397 -15.111  1.00  0.00    -0.003 C 
ATOM     19  C   UNL     1      -5.229  16.814 -15.109  1.00  0.00     0.004 C 
ENDBRANCH  17  18
ENDBRANCH  16  17
ENDBRANCH  15  16
ENDBRANCH  14  15
ENDBRANCH  13  14
ENDBRANCH  12  13
ENDBRANCH   1  12
TORSDOF 14
ENDMDL
