MODEL 1
REMARK VINA RESULT:    -5.591      0.000      0.000
REMARK INTER + INTRA:         -10.679
REMARK INTER:                  -9.676
REMARK INTRA:                  -1.003
REMARK UNBOUND:                -1.003
REMARK SMILES OC[C@@H]1O[C@@H](O[C@H]2[C@@H](O)[C@@H](O)[C@H](O[C@H]3[C@H](O)[C@H](O)[C@H](O)O[C@@H]3CO)O[C@@H]2CO)[C@@H](O)[C@@H](O)[C@H]1O
REMARK SMILES IDX 7 1 26 2 25 3 12 4 10 5 8 6 6 7 5 8 3 9 33 10 4 11 31 12
REMARK SMILES IDX 29 13 2 14 1 15 34 17 32 19 30 21 27 23 28 24 9 26 11 28
REMARK SMILES IDX 13 30 14 31 22 32 15 33 21 34 17 35 19 36 23 37 24 38 16 40
REMARK SMILES IDX 18 42 20 44
REMARK H PARENT 1 16 34 18 32 20 30 22 28 25 9 27 11 29 24 39 16 41 18 43
REMARK H PARENT 20 45
REMARK Flexibility Score: inf
ROOT
ATOM      1  C   UNL     1      50.980  27.899  16.958  1.00  0.00     0.184 C 
ATOM      2  C   UNL     1      52.120  28.360  16.040  1.00  0.00     0.178 C 
ATOM      3  O   UNL     1      51.796  28.096  14.694  1.00  0.00    -0.341 OA
ATOM      4  C   UNL     1      51.596  26.725  14.375  1.00  0.00     0.282 C 
ATOM      5  C   UNL     1      51.194  25.744  15.539  1.00  0.00     0.202 C 
ATOM      6  C   UNL     1      50.891  26.374  16.936  1.00  0.00     0.180 C 
ENDROOT
BRANCH   1   7
ATOM      7  O   UNL     1      49.750  28.433  16.485  1.00  0.00    -0.341 OA
BRANCH   7   8
ATOM      8  C   UNL     1      49.904  29.728  15.927  1.00  0.00     0.282 C 
ATOM      9  C   UNL     1      49.004  31.285  17.547  1.00  0.00     0.178 C 
ATOM     10  C   UNL     1      47.677  30.492  17.397  1.00  0.00     0.177 C 
ATOM     11  O   UNL     1      50.158  30.667  16.969  1.00  0.00    -0.341 OA
ATOM     12  C   UNL     1      47.385  30.130  15.920  1.00  0.00     0.179 C 
ATOM     13  C   UNL     1      48.674  30.071  15.064  1.00  0.00     0.202 C 
BRANCH   9  14
ATOM     14  C   UNL     1      48.864  32.741  17.057  1.00  0.00     0.191 C 
BRANCH  14  15
ATOM     15  O   UNL     1      49.716  33.587  17.780  1.00  0.00    -0.394 OA
ATOM     16  H   UNL     1      49.369  33.609  18.715  1.00  0.00     0.210 HD
ENDBRANCH  14  15
ENDBRANCH   9  14
BRANCH  10  17
ATOM     17  O   UNL     1      47.762  29.327  18.186  1.00  0.00    -0.387 OA
ATOM     18  H   UNL     1      46.851  28.945  18.263  1.00  0.00     0.211 HD
ENDBRANCH  10  17
BRANCH  12  19
ATOM     19  O   UNL     1      46.698  28.900  15.859  1.00  0.00    -0.387 OA
ATOM     20  H   UNL     1      47.109  28.360  15.132  1.00  0.00     0.211 HD
ENDBRANCH  12  19
BRANCH  13  21
ATOM     21  O   UNL     1      48.524  29.121  14.040  1.00  0.00    -0.385 OA
ATOM     22  H   UNL     1      49.402  28.689  13.910  1.00  0.00     0.211 HD
ENDBRANCH  13  21
ENDBRANCH   7   8
ENDBRANCH   1   7
BRANCH   2  23
ATOM     23  C   UNL     1      53.536  27.868  16.424  1.00  0.00     0.191 C 
BRANCH  23  24
ATOM     24  O   UNL     1      54.283  28.898  17.021  1.00  0.00    -0.394 OA
ATOM     25  H   UNL     1      54.409  28.642  17.975  1.00  0.00     0.210 HD
ENDBRANCH  23  24
ENDBRANCH   2  23
BRANCH   6  26
ATOM     26  O   UNL     1      49.624  25.973  17.399  1.00  0.00    -0.387 OA
ATOM     27  H   UNL     1      48.957  26.605  17.019  1.00  0.00     0.211 HD
ENDBRANCH   6  26
BRANCH   5  28
ATOM     28  O   UNL     1      50.113  24.949  15.105  1.00  0.00    -0.385 OA
ATOM     29  H   UNL     1      49.544  24.777  15.901  1.00  0.00     0.211 HD
ENDBRANCH   5  28
BRANCH   4  30
ATOM     30  O   UNL     1      52.775  26.255  13.732  1.00  0.00    -0.341 OA
BRANCH  30  31
ATOM     31  C   UNL     1      52.902  26.758  12.408  1.00  0.00     0.184 C 
ATOM     32  C   UNL     1      53.059  25.532  11.452  1.00  0.00     0.178 C 
ATOM     33  C   UNL     1      54.111  27.743  12.336  1.00  0.00     0.180 C 
ATOM     34  O   UNL     1      54.331  24.877  11.460  1.00  0.00    -0.342 OA
ATOM     35  C   UNL     1      55.397  27.090  11.789  1.00  0.00     0.201 C 
ATOM     36  C   UNL     1      55.382  25.582  12.109  1.00  0.00     0.279 C 
BRANCH  32  37
ATOM     37  C   UNL     1      52.655  25.862   9.993  1.00  0.00     0.191 C 
BRANCH  37  38
ATOM     38  O   UNL     1      51.956  27.079   9.905  1.00  0.00    -0.394 OA
ATOM     39  H   UNL     1      52.510  27.786  10.340  1.00  0.00     0.210 HD
ENDBRANCH  37  38
ENDBRANCH  32  37
BRANCH  33  40
ATOM     40  O   UNL     1      53.795  28.915  11.625  1.00  0.00    -0.387 OA
ATOM     41  H   UNL     1      54.117  28.801  10.695  1.00  0.00     0.211 HD
ENDBRANCH  33  40
BRANCH  35  42
ATOM     42  O   UNL     1      55.514  27.300  10.407  1.00  0.00    -0.385 OA
ATOM     43  H   UNL     1      54.700  26.919   9.983  1.00  0.00     0.211 HD
ENDBRANCH  35  42
BRANCH  36  44
ATOM     44  O   UNL     1      56.616  25.004  11.750  1.00  0.00    -0.366 OA
ATOM     45  H   UNL     1      57.160  25.715  11.325  1.00  0.00     0.213 HD
ENDBRANCH  36  44
ENDBRANCH  30  31
ENDBRANCH   4  30
TORSDOF 18
ENDMDL
MODEL 2
REMARK VINA RESULT:    -5.516     17.617     21.551
REMARK INTER + INTRA:         -10.550
REMARK INTER:                  -8.813
REMARK INTRA:                  -1.737
REMARK UNBOUND:                -1.003
REMARK SMILES OC[C@@H]1O[C@@H](O[C@H]2[C@@H](O)[C@@H](O)[C@H](O[C@H]3[C@H](O)[C@H](O)[C@H](O)O[C@@H]3CO)O[C@@H]2CO)[C@@H](O)[C@@H](O)[C@H]1O
REMARK SMILES IDX 7 1 26 2 25 3 12 4 10 5 8 6 6 7 5 8 3 9 33 10 4 11 31 12
REMARK SMILES IDX 29 13 2 14 1 15 34 17 32 19 30 21 27 23 28 24 9 26 11 28
REMARK SMILES IDX 13 30 14 31 22 32 15 33 21 34 17 35 19 36 23 37 24 38 16 40
REMARK SMILES IDX 18 42 20 44
REMARK H PARENT 1 16 34 18 32 20 30 22 28 25 9 27 11 29 24 39 16 41 18 43
REMARK H PARENT 20 45
REMARK Flexibility Score: inf
ROOT
ATOM      1  C   UNL     1      38.876  43.125  27.539  1.00  0.00     0.184 C 
ATOM      2  C   UNL     1      38.636  41.652  27.902  1.00  0.00     0.178 C 
ATOM      3  O   UNL     1      39.273  40.813  26.967  1.00  0.00    -0.341 OA
ATOM      4  C   UNL     1      38.819  40.943  25.626  1.00  0.00     0.282 C 
ATOM      5  C   UNL     1      38.133  42.295  25.202  1.00  0.00     0.202 C 
ATOM      6  C   UNL     1      38.138  43.459  26.244  1.00  0.00     0.180 C 
ENDROOT
BRANCH   1   7
ATOM      7  O   UNL     1      40.267  43.340  27.340  1.00  0.00    -0.341 OA
BRANCH   7   8
ATOM      8  C   UNL     1      40.933  43.706  28.537  1.00  0.00     0.282 C 
ATOM      9  C   UNL     1      42.970  44.832  27.872  1.00  0.00     0.178 C 
ATOM     10  C   UNL     1      43.316  43.514  27.125  1.00  0.00     0.177 C 
ATOM     11  O   UNL     1      41.622  44.938  28.339  1.00  0.00    -0.341 OA
ATOM     12  C   UNL     1      42.958  42.263  27.965  1.00  0.00     0.179 C 
ATOM     13  C   UNL     1      41.842  42.550  29.000  1.00  0.00     0.202 C 
BRANCH   9  14
ATOM     14  C   UNL     1      43.966  45.124  29.013  1.00  0.00     0.191 C 
BRANCH  14  15
ATOM     15  O   UNL     1      45.279  44.866  28.597  1.00  0.00    -0.394 OA
ATOM     16  H   UNL     1      45.880  45.265  29.287  1.00  0.00     0.210 HD
ENDBRANCH  14  15
ENDBRANCH   9  14
BRANCH  10  17
ATOM     17  O   UNL     1      42.621  43.502  25.899  1.00  0.00    -0.387 OA
ATOM     18  H   UNL     1      41.925  42.799  25.950  1.00  0.00     0.211 HD
ENDBRANCH  10  17
BRANCH  12  19
ATOM     19  O   UNL     1      42.576  41.210  27.110  1.00  0.00    -0.387 OA
ATOM     20  H   UNL     1      42.865  41.448  26.189  1.00  0.00     0.211 HD
ENDBRANCH  12  19
BRANCH  13  21
ATOM     21  O   UNL     1      41.078  41.391  29.211  1.00  0.00    -0.385 OA
ATOM     22  H   UNL     1      40.787  41.399  30.154  1.00  0.00     0.211 HD
ENDBRANCH  13  21
ENDBRANCH   7   8
ENDBRANCH   1   7
BRANCH   2  23
ATOM     23  C   UNL     1      37.164  41.254  28.162  1.00  0.00     0.191 C 
BRANCH  23  24
ATOM     24  O   UNL     1      37.025  39.858  28.239  1.00  0.00    -0.394 OA
ATOM     25  H   UNL     1      37.943  39.485  28.336  1.00  0.00     0.210 HD
ENDBRANCH  23  24
ENDBRANCH   2  23
BRANCH   6  26
ATOM     26  O   UNL     1      38.687  44.627  25.682  1.00  0.00    -0.387 OA
ATOM     27  H   UNL     1      38.260  44.757  24.794  1.00  0.00     0.211 HD
ENDBRANCH   6  26
BRANCH   5  28
ATOM     28  O   UNL     1      38.689  42.718  23.978  1.00  0.00    -0.385 OA
ATOM     29  H   UNL     1      39.439  43.331  24.198  1.00  0.00     0.211 HD
ENDBRANCH   5  28
BRANCH   4  30
ATOM     30  O   UNL     1      37.944  39.852  25.359  1.00  0.00    -0.341 OA
BRANCH  30  31
ATOM     31  C   UNL     1      38.608  38.777  24.708  1.00  0.00     0.184 C 
ATOM     32  C   UNL     1      39.754  39.389  23.839  1.00  0.00     0.178 C 
ATOM     33  C   UNL     1      37.578  37.959  23.866  1.00  0.00     0.180 C 
ATOM     34  O   UNL     1      39.356  40.042  22.629  1.00  0.00    -0.342 OA
ATOM     35  C   UNL     1      37.572  38.342  22.372  1.00  0.00     0.201 C 
ATOM     36  C   UNL     1      38.016  39.810  22.216  1.00  0.00     0.279 C 
BRANCH  32  37
ATOM     37  C   UNL     1      40.875  38.366  23.530  1.00  0.00     0.191 C 
BRANCH  37  38
ATOM     38  O   UNL     1      40.553  37.078  23.997  1.00  0.00    -0.394 OA
ATOM     39  H   UNL     1      39.708  36.791  23.550  1.00  0.00     0.210 HD
ENDBRANCH  37  38
ENDBRANCH  32  37
BRANCH  33  40
ATOM     40  O   UNL     1      37.742  36.572  24.035  1.00  0.00    -0.387 OA
ATOM     41  H   UNL     1      37.347  36.123  23.245  1.00  0.00     0.211 HD
ENDBRANCH  33  40
BRANCH  35  42
ATOM     42  O   UNL     1      38.412  37.492  21.637  1.00  0.00    -0.385 OA
ATOM     43  H   UNL     1      38.113  37.530  20.691  1.00  0.00     0.211 HD
ENDBRANCH  35  42
BRANCH  36  44
ATOM     44  O   UNL     1      37.868  40.215  20.875  1.00  0.00    -0.366 OA
ATOM     45  H   UNL     1      37.596  39.417  20.356  1.00  0.00     0.213 HD
ENDBRANCH  36  44
ENDBRANCH  30  31
ENDBRANCH   4  30
TORSDOF 18
ENDMDL
MODEL 3
REMARK VINA RESULT:    -5.431      1.742      2.722
REMARK INTER + INTRA:         -10.402
REMARK INTER:                  -8.618
REMARK INTRA:                  -1.784
REMARK UNBOUND:                -1.003
REMARK SMILES OC[C@@H]1O[C@@H](O[C@H]2[C@@H](O)[C@@H](O)[C@H](O[C@H]3[C@H](O)[C@H](O)[C@H](O)O[C@@H]3CO)O[C@@H]2CO)[C@@H](O)[C@@H](O)[C@H]1O
REMARK SMILES IDX 7 1 26 2 25 3 12 4 10 5 8 6 6 7 5 8 3 9 33 10 4 11 31 12
REMARK SMILES IDX 29 13 2 14 1 15 34 17 32 19 30 21 27 23 28 24 9 26 11 28
REMARK SMILES IDX 13 30 14 31 22 32 15 33 21 34 17 35 19 36 23 37 24 38 16 40
REMARK SMILES IDX 18 42 20 44
REMARK H PARENT 1 16 34 18 32 20 30 22 28 25 9 27 11 29 24 39 16 41 18 43
REMARK H PARENT 20 45
REMARK Flexibility Score: inf
ROOT
ATOM      1  C   UNL     1      49.206  26.437  16.663  1.00  0.00     0.184 C 
ATOM      2  C   UNL     1      50.715  26.297  16.903  1.00  0.00     0.178 C 
ATOM      3  O   UNL     1      51.431  26.814  15.805  1.00  0.00    -0.341 OA
ATOM      4  C   UNL     1      51.191  26.164  14.563  1.00  0.00     0.282 C 
ATOM      5  C   UNL     1      49.836  25.383  14.384  1.00  0.00     0.202 C 
ATOM      6  C   UNL     1      48.780  25.507  15.528  1.00  0.00     0.180 C 
ENDROOT
BRANCH   1   7
ATOM      7  O   UNL     1      48.911  27.777  16.289  1.00  0.00    -0.341 OA
BRANCH   7   8
ATOM      8  C   UNL     1      49.318  28.713  17.273  1.00  0.00     0.282 C 
ATOM      9  C   UNL     1      47.384  30.085  17.756  1.00  0.00     0.178 C 
ATOM     10  C   UNL     1      47.405  30.441  16.244  1.00  0.00     0.177 C 
ATOM     11  O   UNL     1      48.224  28.994  18.142  1.00  0.00    -0.341 OA
ATOM     12  C   UNL     1      48.844  30.687  15.729  1.00  0.00     0.179 C 
ATOM     13  C   UNL     1      49.909  29.962  16.589  1.00  0.00     0.202 C 
BRANCH   9  14
ATOM     14  C   UNL     1      47.654  31.319  18.641  1.00  0.00     0.191 C 
BRANCH  14  15
ATOM     15  O   UNL     1      46.953  31.220  19.850  1.00  0.00    -0.394 OA
ATOM     16  H   UNL     1      46.483  32.091  19.980  1.00  0.00     0.210 HD
ENDBRANCH  14  15
ENDBRANCH   9  14
BRANCH  10  17
ATOM     17  O   UNL     1      46.797  29.389  15.530  1.00  0.00    -0.387 OA
ATOM     18  H   UNL     1      45.922  29.713  15.197  1.00  0.00     0.211 HD
ENDBRANCH  10  17
BRANCH  12  19
ATOM     19  O   UNL     1      48.943  30.283  14.382  1.00  0.00    -0.387 OA
ATOM     20  H   UNL     1      48.042  30.379  13.971  1.00  0.00     0.211 HD
ENDBRANCH  12  19
BRANCH  13  21
ATOM     21  O   UNL     1      51.004  29.600  15.788  1.00  0.00    -0.385 OA
ATOM     22  H   UNL     1      50.737  28.806  15.267  1.00  0.00     0.211 HD
ENDBRANCH  13  21
ENDBRANCH   7   8
ENDBRANCH   1   7
BRANCH   2  23
ATOM     23  C   UNL     1      51.202  24.892  17.329  1.00  0.00     0.191 C 
BRANCH  23  24
ATOM     24  O   UNL     1      52.366  24.976  18.112  1.00  0.00    -0.394 OA
ATOM     25  H   UNL     1      52.148  25.567  18.884  1.00  0.00     0.210 HD
ENDBRANCH  23  24
ENDBRANCH   2  23
BRANCH   6  26
ATOM     26  O   UNL     1      47.539  25.932  15.016  1.00  0.00    -0.387 OA
ATOM     27  H   UNL     1      46.916  25.160  15.073  1.00  0.00     0.211 HD
ENDBRANCH   6  26
BRANCH   5  28
ATOM     28  O   UNL     1      49.271  25.740  13.142  1.00  0.00    -0.385 OA
ATOM     29  H   UNL     1      48.505  26.342  13.336  1.00  0.00     0.211 HD
ENDBRANCH   5  28
BRANCH   4  30
ATOM     30  O   UNL     1      52.289  25.293  14.314  1.00  0.00    -0.341 OA
BRANCH  30  31
ATOM     31  C   UNL     1      53.458  25.999  13.923  1.00  0.00     0.184 C 
ATOM     32  C   UNL     1      53.036  27.051  12.848  1.00  0.00     0.178 C 
ATOM     33  C   UNL     1      54.528  24.990  13.398  1.00  0.00     0.180 C 
ATOM     34  O   UNL     1      52.751  26.546  11.540  1.00  0.00    -0.342 OA
ATOM     35  C   UNL     1      54.557  24.880  11.860  1.00  0.00     0.201 C 
ATOM     36  C   UNL     1      53.160  25.206  11.295  1.00  0.00     0.279 C 
BRANCH  32  37
ATOM     37  C   UNL     1      54.038  28.227  12.741  1.00  0.00     0.191 C 
BRANCH  37  38
ATOM     38  O   UNL     1      53.908  28.918  11.523  1.00  0.00    -0.394 OA
ATOM     39  H   UNL     1      53.629  28.262  10.824  1.00  0.00     0.210 HD
ENDBRANCH  37  38
ENDBRANCH  32  37
BRANCH  33  40
ATOM     40  O   UNL     1      55.809  25.264  13.912  1.00  0.00    -0.387 OA
ATOM     41  H   UNL     1      55.760  26.123  14.402  1.00  0.00     0.211 HD
ENDBRANCH  33  40
BRANCH  35  42
ATOM     42  O   UNL     1      55.522  25.741  11.317  1.00  0.00    -0.385 OA
ATOM     43  H   UNL     1      56.354  25.621  11.846  1.00  0.00     0.211 HD
ENDBRANCH  35  42
BRANCH  36  44
ATOM     44  O   UNL     1      53.135  24.961   9.908  1.00  0.00    -0.366 OA
ATOM     45  H   UNL     1      54.036  24.642   9.650  1.00  0.00     0.213 HD
ENDBRANCH  36  44
ENDBRANCH  30  31
ENDBRANCH   4  30
TORSDOF 18
ENDMDL
MODEL 4
REMARK VINA RESULT:    -5.201     17.553     21.202
REMARK INTER + INTRA:         -10.004
REMARK INTER:                  -9.095
REMARK INTRA:                  -0.909
REMARK UNBOUND:                -1.003
REMARK SMILES OC[C@@H]1O[C@@H](O[C@H]2[C@@H](O)[C@@H](O)[C@H](O[C@H]3[C@H](O)[C@H](O)[C@H](O)O[C@@H]3CO)O[C@@H]2CO)[C@@H](O)[C@@H](O)[C@H]1O
REMARK SMILES IDX 7 1 26 2 25 3 12 4 10 5 8 6 6 7 5 8 3 9 33 10 4 11 31 12
REMARK SMILES IDX 29 13 2 14 1 15 34 17 32 19 30 21 27 23 28 24 9 26 11 28
REMARK SMILES IDX 13 30 14 31 22 32 15 33 21 34 17 35 19 36 23 37 24 38 16 40
REMARK SMILES IDX 18 42 20 44
REMARK H PARENT 1 16 34 18 32 20 30 22 28 25 9 27 11 29 24 39 16 41 18 43
REMARK H PARENT 20 45
REMARK Flexibility Score: inf
ROOT
ATOM      1  C   UNL     1      38.852  42.839  27.618  1.00  0.00     0.184 C 
ATOM      2  C   UNL     1      38.800  41.323  27.849  1.00  0.00     0.178 C 
ATOM      3  O   UNL     1      39.456  40.650  26.800  1.00  0.00    -0.341 OA
ATOM      4  C   UNL     1      38.897  40.848  25.507  1.00  0.00     0.282 C 
ATOM      5  C   UNL     1      38.041  42.145  25.260  1.00  0.00     0.202 C 
ATOM      6  C   UNL     1      37.993  43.203  26.409  1.00  0.00     0.180 C 
ENDROOT
BRANCH   1   7
ATOM      7  O   UNL     1      40.195  43.229  27.357  1.00  0.00    -0.341 OA
BRANCH   7   8
ATOM      8  C   UNL     1      40.881  43.618  28.536  1.00  0.00     0.282 C 
ATOM      9  C   UNL     1      42.871  44.792  27.814  1.00  0.00     0.178 C 
ATOM     10  C   UNL     1      43.231  43.481  27.063  1.00  0.00     0.177 C 
ATOM     11  O   UNL     1      41.533  44.866  28.315  1.00  0.00    -0.341 OA
ATOM     12  C   UNL     1      42.928  42.225  27.918  1.00  0.00     0.179 C 
ATOM     13  C   UNL     1      41.831  42.489  28.980  1.00  0.00     0.202 C 
BRANCH   9  14
ATOM     14  C   UNL     1      43.888  45.116  28.927  1.00  0.00     0.191 C 
BRANCH  14  15
ATOM     15  O   UNL     1      45.186  44.780  28.520  1.00  0.00    -0.394 OA
ATOM     16  H   UNL     1      45.574  45.597  28.099  1.00  0.00     0.210 HD
ENDBRANCH  14  15
ENDBRANCH   9  14
BRANCH  10  17
ATOM     17  O   UNL     1      42.506  43.445  25.855  1.00  0.00    -0.387 OA
ATOM     18  H   UNL     1      42.255  42.503  25.680  1.00  0.00     0.211 HD
ENDBRANCH  10  17
BRANCH  12  19
ATOM     19  O   UNL     1      42.551  41.158  27.078  1.00  0.00    -0.387 OA
ATOM     20  H   UNL     1      43.315  40.521  27.038  1.00  0.00     0.211 HD
ENDBRANCH  12  19
BRANCH  13  21
ATOM     21  O   UNL     1      41.103  41.311  29.216  1.00  0.00    -0.385 OA
ATOM     22  H   UNL     1      40.613  41.434  30.064  1.00  0.00     0.211 HD
ENDBRANCH  13  21
ENDBRANCH   7   8
ENDBRANCH   1   7
BRANCH   2  23
ATOM     23  C   UNL     1      37.401  40.737  28.157  1.00  0.00     0.191 C 
BRANCH  23  24
ATOM     24  O   UNL     1      37.492  39.653  29.047  1.00  0.00    -0.394 OA
ATOM     25  H   UNL     1      36.821  39.816  29.764  1.00  0.00     0.210 HD
ENDBRANCH  23  24
ENDBRANCH   2  23
BRANCH   6  26
ATOM     26  O   UNL     1      38.371  44.472  25.932  1.00  0.00    -0.387 OA
ATOM     27  H   UNL     1      37.538  44.995  25.789  1.00  0.00     0.211 HD
ENDBRANCH   6  26
BRANCH   5  28
ATOM     28  O   UNL     1      38.460  42.738  24.052  1.00  0.00    -0.385 OA
ATOM     29  H   UNL     1      37.641  42.925  23.522  1.00  0.00     0.211 HD
ENDBRANCH   5  28
BRANCH   4  30
ATOM     30  O   UNL     1      38.129  39.693  25.189  1.00  0.00    -0.341 OA
BRANCH  30  31
ATOM     31  C   UNL     1      38.391  39.218  23.875  1.00  0.00     0.184 C 
ATOM     32  C   UNL     1      38.582  37.670  23.962  1.00  0.00     0.178 C 
ATOM     33  C   UNL     1      39.641  39.952  23.293  1.00  0.00     0.180 C 
ATOM     34  O   UNL     1      39.821  37.211  24.511  1.00  0.00    -0.342 OA
ATOM     35  C   UNL     1      40.942  39.135  23.423  1.00  0.00     0.201 C 
ATOM     36  C   UNL     1      40.839  38.195  24.641  1.00  0.00     0.279 C 
BRANCH  32  37
ATOM     37  C   UNL     1      38.321  36.962  22.609  1.00  0.00     0.191 C 
BRANCH  37  38
ATOM     38  O   UNL     1      38.285  37.874  21.539  1.00  0.00    -0.394 OA
ATOM     39  H   UNL     1      38.872  38.647  21.772  1.00  0.00     0.210 HD
ENDBRANCH  37  38
ENDBRANCH  32  37
BRANCH  33  40
ATOM     40  O   UNL     1      39.435  40.373  21.966  1.00  0.00    -0.387 OA
ATOM     41  H   UNL     1      39.892  41.244  21.852  1.00  0.00     0.211 HD
ENDBRANCH  33  40
BRANCH  35  42
ATOM     42  O   UNL     1      41.188  38.400  22.253  1.00  0.00    -0.385 OA
ATOM     43  H   UNL     1      41.073  37.440  22.480  1.00  0.00     0.211 HD
ENDBRANCH  35  42
BRANCH  36  44
ATOM     44  O   UNL     1      42.076  37.557  24.859  1.00  0.00    -0.366 OA
ATOM     45  H   UNL     1      42.421  37.877  25.730  1.00  0.00     0.213 HD
ENDBRANCH  36  44
ENDBRANCH  30  31
ENDBRANCH   4  30
TORSDOF 18
ENDMDL
MODEL 5
REMARK VINA RESULT:    -5.162      1.456      7.685
REMARK INTER + INTRA:          -9.938
REMARK INTER:                  -7.698
REMARK INTRA:                  -2.240
REMARK UNBOUND:                -1.003
REMARK SMILES OC[C@@H]1O[C@@H](O[C@H]2[C@@H](O)[C@@H](O)[C@H](O[C@H]3[C@H](O)[C@H](O)[C@H](O)O[C@@H]3CO)O[C@@H]2CO)[C@@H](O)[C@@H](O)[C@H]1O
REMARK SMILES IDX 7 1 26 2 25 3 12 4 10 5 8 6 6 7 5 8 3 9 33 10 4 11 31 12
REMARK SMILES IDX 29 13 2 14 1 15 34 17 32 19 30 21 27 23 28 24 9 26 11 28
REMARK SMILES IDX 13 30 14 31 22 32 15 33 21 34 17 35 19 36 23 37 24 38 16 40
REMARK SMILES IDX 18 42 20 44
REMARK H PARENT 1 16 34 18 32 20 30 22 28 25 9 27 11 29 24 39 16 41 18 43
REMARK H PARENT 20 45
REMARK Flexibility Score: inf
ROOT
ATOM      1  C   UNL     1      51.942  25.486  14.906  1.00  0.00     0.184 C 
ATOM      2  C   UNL     1      50.456  25.786  15.147  1.00  0.00     0.178 C 
ATOM      3  O   UNL     1      50.181  27.137  14.857  1.00  0.00    -0.341 OA
ATOM      4  C   UNL     1      50.884  28.084  15.650  1.00  0.00     0.282 C 
ATOM      5  C   UNL     1      52.234  27.634  16.322  1.00  0.00     0.202 C 
ATOM      6  C   UNL     1      52.788  26.223  15.944  1.00  0.00     0.180 C 
ENDROOT
BRANCH   1   7
ATOM      7  O   UNL     1      52.311  25.944  13.611  1.00  0.00    -0.341 OA
BRANCH   7   8
ATOM      8  C   UNL     1      52.951  24.935  12.846  1.00  0.00     0.282 C 
ATOM      9  C   UNL     1      55.206  25.713  12.437  1.00  0.00     0.178 C 
ATOM     10  C   UNL     1      54.536  26.940  11.760  1.00  0.00     0.177 C 
ATOM     11  O   UNL     1      54.330  24.876  13.199  1.00  0.00    -0.341 OA
ATOM     12  C   UNL     1      53.325  26.527  10.886  1.00  0.00     0.179 C 
ATOM     13  C   UNL     1      52.700  25.185  11.345  1.00  0.00     0.202 C 
BRANCH   9  14
ATOM     14  C   UNL     1      56.022  24.875  11.432  1.00  0.00     0.191 C 
BRANCH  14  15
ATOM     15  O   UNL     1      56.683  25.709  10.520  1.00  0.00    -0.394 OA
ATOM     16  H   UNL     1      56.845  25.163   9.700  1.00  0.00     0.210 HD
ENDBRANCH  14  15
ENDBRANCH   9  14
BRANCH  10  17
ATOM     17  O   UNL     1      54.135  27.841  12.766  1.00  0.00    -0.387 OA
ATOM     18  H   UNL     1      53.190  28.084  12.598  1.00  0.00     0.211 HD
ENDBRANCH  10  17
BRANCH  12  19
ATOM     19  O   UNL     1      52.356  27.550  10.902  1.00  0.00    -0.387 OA
ATOM     20  H   UNL     1      52.364  27.987  10.008  1.00  0.00     0.211 HD
ENDBRANCH  12  19
BRANCH  13  21
ATOM     21  O   UNL     1      51.321  25.186  11.080  1.00  0.00    -0.385 OA
ATOM     22  H   UNL     1      50.912  25.873  11.659  1.00  0.00     0.211 HD
ENDBRANCH  13  21
ENDBRANCH   7   8
ENDBRANCH   1   7
BRANCH   2  23
ATOM     23  C   UNL     1      49.893  25.339  16.517  1.00  0.00     0.191 C 
BRANCH  23  24
ATOM     24  O   UNL     1      48.548  25.721  16.658  1.00  0.00    -0.394 OA
ATOM     25  H   UNL     1      48.435  26.026  17.600  1.00  0.00     0.210 HD
ENDBRANCH  23  24
ENDBRANCH   2  23
BRANCH   6  26
ATOM     26  O   UNL     1      54.115  26.316  15.484  1.00  0.00    -0.387 OA
ATOM     27  H   UNL     1      54.192  25.732  14.684  1.00  0.00     0.211 HD
ENDBRANCH   6  26
BRANCH   5  28
ATOM     28  O   UNL     1      53.206  28.630  16.093  1.00  0.00    -0.385 OA
ATOM     29  H   UNL     1      53.563  28.479  15.179  1.00  0.00     0.211 HD
ENDBRANCH   5  28
BRANCH   4  30
ATOM     30  O   UNL     1      49.985  28.565  16.644  1.00  0.00    -0.341 OA
BRANCH  30  31
ATOM     31  C   UNL     1      48.916  29.316  16.084  1.00  0.00     0.184 C 
ATOM     32  C   UNL     1      49.540  30.528  15.320  1.00  0.00     0.178 C 
ATOM     33  C   UNL     1      47.933  29.752  17.216  1.00  0.00     0.180 C 
ATOM     34  O   UNL     1      50.037  31.600  16.127  1.00  0.00    -0.342 OA
ATOM     35  C   UNL     1      48.169  31.196  17.704  1.00  0.00     0.201 C 
ATOM     36  C   UNL     1      49.650  31.573  17.495  1.00  0.00     0.279 C 
BRANCH  32  37
ATOM     37  C   UNL     1      48.595  31.094  14.232  1.00  0.00     0.191 C 
BRANCH  37  38
ATOM     38  O   UNL     1      48.483  32.494  14.311  1.00  0.00    -0.394 OA
ATOM     39  H   UNL     1      49.098  32.892  13.632  1.00  0.00     0.210 HD
ENDBRANCH  37  38
ENDBRANCH  32  37
BRANCH  33  40
ATOM     40  O   UNL     1      46.588  29.551  16.855  1.00  0.00    -0.387 OA
ATOM     41  H   UNL     1      46.187  28.933  17.516  1.00  0.00     0.211 HD
ENDBRANCH  33  40
BRANCH  35  42
ATOM     42  O   UNL     1      47.331  32.094  17.027  1.00  0.00    -0.385 OA
ATOM     43  H   UNL     1      46.397  31.786  17.167  1.00  0.00     0.211 HD
ENDBRANCH  35  42
BRANCH  36  44
ATOM     44  O   UNL     1      49.910  32.831  18.074  1.00  0.00    -0.366 OA
ATOM     45  H   UNL     1      50.033  33.475  17.333  1.00  0.00     0.213 HD
ENDBRANCH  36  44
ENDBRANCH  30  31
ENDBRANCH   4  30
TORSDOF 18
ENDMDL
MODEL 6
REMARK VINA RESULT:    -5.117     16.566     21.512
REMARK INTER + INTRA:          -9.859
REMARK INTER:                  -8.485
REMARK INTRA:                  -1.374
REMARK UNBOUND:                -1.003
REMARK SMILES OC[C@@H]1O[C@@H](O[C@H]2[C@@H](O)[C@@H](O)[C@H](O[C@H]3[C@H](O)[C@H](O)[C@H](O)O[C@@H]3CO)O[C@@H]2CO)[C@@H](O)[C@@H](O)[C@H]1O
REMARK SMILES IDX 7 1 26 2 25 3 12 4 10 5 8 6 6 7 5 8 3 9 33 10 4 11 31 12
REMARK SMILES IDX 29 13 2 14 1 15 34 17 32 19 30 21 27 23 28 24 9 26 11 28
REMARK SMILES IDX 13 30 14 31 22 32 15 33 21 34 17 35 19 36 23 37 24 38 16 40
REMARK SMILES IDX 18 42 20 44
REMARK H PARENT 1 16 34 18 32 20 30 22 28 25 9 27 11 29 24 39 16 41 18 43
REMARK H PARENT 20 45
REMARK Flexibility Score: inf
ROOT
ATOM      1  C   UNL     1      38.333  40.880  24.602  1.00  0.00     0.184 C 
ATOM      2  C   UNL     1      39.160  42.154  24.822  1.00  0.00     0.178 C 
ATOM      3  O   UNL     1      40.092  41.954  25.859  1.00  0.00    -0.341 OA
ATOM      4  C   UNL     1      39.532  41.652  27.130  1.00  0.00     0.282 C 
ATOM      5  C   UNL     1      38.087  41.028  27.175  1.00  0.00     0.202 C 
ATOM      6  C   UNL     1      37.431  40.640  25.812  1.00  0.00     0.180 C 
ENDROOT
BRANCH   1   7
ATOM      7  O   UNL     1      39.210  39.768  24.461  1.00  0.00    -0.341 OA
BRANCH   7   8
ATOM      8  C   UNL     1      40.354  40.081  23.684  1.00  0.00     0.282 C 
ATOM      9  C   UNL     1      40.292  38.621  21.754  1.00  0.00     0.178 C 
ATOM     10  C   UNL     1      40.305  37.456  22.781  1.00  0.00     0.177 C 
ATOM     11  O   UNL     1      40.047  39.920  22.301  1.00  0.00    -0.341 OA
ATOM     12  C   UNL     1      41.293  37.723  23.944  1.00  0.00     0.179 C 
ATOM     13  C   UNL     1      41.551  39.235  24.160  1.00  0.00     0.202 C 
BRANCH   9  14
ATOM     14  C   UNL     1      41.561  38.630  20.878  1.00  0.00     0.191 C 
BRANCH  14  15
ATOM     15  O   UNL     1      41.720  39.875  20.256  1.00  0.00    -0.394 OA
ATOM     16  H   UNL     1      42.542  39.811  19.694  1.00  0.00     0.210 HD
ENDBRANCH  14  15
ENDBRANCH   9  14
BRANCH  10  17
ATOM     17  O   UNL     1      38.996  37.281  23.274  1.00  0.00    -0.387 OA
ATOM     18  H   UNL     1      38.364  37.517  22.548  1.00  0.00     0.211 HD
ENDBRANCH  10  17
BRANCH  12  19
ATOM     19  O   UNL     1      40.803  37.135  25.128  1.00  0.00    -0.387 OA
ATOM     20  H   UNL     1      40.997  37.760  25.878  1.00  0.00     0.211 HD
ENDBRANCH  12  19
BRANCH  13  21
ATOM     21  O   UNL     1      41.810  39.486  25.517  1.00  0.00    -0.385 OA
ATOM     22  H   UNL     1      42.483  40.207  25.559  1.00  0.00     0.211 HD
ENDBRANCH  13  21
ENDBRANCH   7   8
ENDBRANCH   1   7
BRANCH   2  23
ATOM     23  C   UNL     1      38.350  43.462  24.986  1.00  0.00     0.191 C 
BRANCH  23  24
ATOM     24  O   UNL     1      39.193  44.542  25.296  1.00  0.00    -0.394 OA
ATOM     25  H   UNL     1      38.631  45.217  25.766  1.00  0.00     0.210 HD
ENDBRANCH  23  24
ENDBRANCH   2  23
BRANCH   6  26
ATOM     26  O   UNL     1      37.014  39.295  25.825  1.00  0.00    -0.387 OA
ATOM     27  H   UNL     1      36.230  39.223  25.219  1.00  0.00     0.211 HD
ENDBRANCH   6  26
BRANCH   5  28
ATOM     28  O   UNL     1      38.099  39.927  28.055  1.00  0.00    -0.385 OA
ATOM     29  H   UNL     1      38.777  40.123  28.754  1.00  0.00     0.211 HD
ENDBRANCH   5  28
BRANCH   4  30
ATOM     30  O   UNL     1      39.570  42.841  27.911  1.00  0.00    -0.341 OA
BRANCH  30  31
ATOM     31  C   UNL     1      40.703  42.885  28.769  1.00  0.00     0.184 C 
ATOM     32  C   UNL     1      41.203  44.365  28.814  1.00  0.00     0.178 C 
ATOM     33  C   UNL     1      41.791  41.893  28.250  1.00  0.00     0.180 C 
ATOM     34  O   UNL     1      41.902  44.837  27.657  1.00  0.00    -0.342 OA
ATOM     35  C   UNL     1      42.891  42.578  27.413  1.00  0.00     0.201 C 
ATOM     36  C   UNL     1      42.311  43.836  26.734  1.00  0.00     0.279 C 
BRANCH  32  37
ATOM     37  C   UNL     1      42.035  44.672  30.083  1.00  0.00     0.191 C 
BRANCH  37  38
ATOM     38  O   UNL     1      43.332  45.117  29.765  1.00  0.00    -0.394 OA
ATOM     39  H   UNL     1      43.288  45.591  28.888  1.00  0.00     0.210 HD
ENDBRANCH  37  38
ENDBRANCH  32  37
BRANCH  33  40
ATOM     40  O   UNL     1      42.348  41.128  29.291  1.00  0.00    -0.387 OA
ATOM     41  H   UNL     1      42.797  40.345  28.884  1.00  0.00     0.211 HD
ENDBRANCH  33  40
BRANCH  35  42
ATOM     42  O   UNL     1      43.991  42.913  28.215  1.00  0.00    -0.385 OA
ATOM     43  H   UNL     1      44.639  42.163  28.153  1.00  0.00     0.211 HD
ENDBRANCH  35  42
BRANCH  36  44
ATOM     44  O   UNL     1      43.260  44.383  25.849  1.00  0.00    -0.366 OA
ATOM     45  H   UNL     1      44.134  43.971  26.065  1.00  0.00     0.213 HD
ENDBRANCH  36  44
ENDBRANCH  30  31
ENDBRANCH   4  30
TORSDOF 18
ENDMDL
MODEL 7
REMARK VINA RESULT:    -5.052      1.710      2.470
REMARK INTER + INTRA:          -9.746
REMARK INTER:                  -7.812
REMARK INTRA:                  -1.934
REMARK UNBOUND:                -1.003
REMARK SMILES OC[C@@H]1O[C@@H](O[C@H]2[C@@H](O)[C@@H](O)[C@H](O[C@H]3[C@H](O)[C@H](O)[C@H](O)O[C@@H]3CO)O[C@@H]2CO)[C@@H](O)[C@@H](O)[C@H]1O
REMARK SMILES IDX 7 1 26 2 25 3 12 4 10 5 8 6 6 7 5 8 3 9 33 10 4 11 31 12
REMARK SMILES IDX 29 13 2 14 1 15 34 17 32 19 30 21 27 23 28 24 9 26 11 28
REMARK SMILES IDX 13 30 14 31 22 32 15 33 21 34 17 35 19 36 23 37 24 38 16 40
REMARK SMILES IDX 18 42 20 44
REMARK H PARENT 1 16 34 18 32 20 30 22 28 25 9 27 11 29 24 39 16 41 18 43
REMARK H PARENT 20 45
REMARK Flexibility Score: inf
ROOT
ATOM      1  C   UNL     1      49.780  26.407  16.398  1.00  0.00     0.184 C 
ATOM      2  C   UNL     1      51.312  26.501  16.391  1.00  0.00     0.178 C 
ATOM      3  O   UNL     1      51.763  26.968  15.141  1.00  0.00    -0.341 OA
ATOM      4  C   UNL     1      51.437  26.143  14.030  1.00  0.00     0.282 C 
ATOM      5  C   UNL     1      50.205  25.173  14.163  1.00  0.00     0.202 C 
ATOM      6  C   UNL     1      49.330  25.295  15.452  1.00  0.00     0.180 C 
ENDROOT
BRANCH   1   7
ATOM      7  O   UNL     1      49.231  27.639  15.947  1.00  0.00    -0.341 OA
BRANCH   7   8
ATOM      8  C   UNL     1      49.664  28.740  16.729  1.00  0.00     0.282 C 
ATOM      9  C   UNL     1      47.668  29.757  17.645  1.00  0.00     0.178 C 
ATOM     10  C   UNL     1      47.223  29.939  16.168  1.00  0.00     0.177 C 
ATOM     11  O   UNL     1      48.794  28.899  17.847  1.00  0.00    -0.341 OA
ATOM     12  C   UNL     1      48.395  30.401  15.266  1.00  0.00     0.179 C 
ATOM     13  C   UNL     1      49.775  29.996  15.842  1.00  0.00     0.202 C 
BRANCH   9  14
ATOM     14  C   UNL     1      47.881  31.111  18.353  1.00  0.00     0.191 C 
BRANCH  14  15
ATOM     15  O   UNL     1      47.074  31.201  19.495  1.00  0.00    -0.394 OA
ATOM     16  H   UNL     1      47.456  31.931  20.058  1.00  0.00     0.210 HD
ENDBRANCH  14  15
ENDBRANCH   9  14
BRANCH  10  17
ATOM     17  O   UNL     1      46.696  28.716  15.707  1.00  0.00    -0.387 OA
ATOM     18  H   UNL     1      47.145  27.985  16.202  1.00  0.00     0.211 HD
ENDBRANCH  10  17
BRANCH  12  19
ATOM     19  O   UNL     1      48.231  29.876  13.968  1.00  0.00    -0.387 OA
ATOM     20  H   UNL     1      49.032  29.324  13.762  1.00  0.00     0.211 HD
ENDBRANCH  12  19
BRANCH  13  21
ATOM     21  O   UNL     1      50.680  29.766  14.793  1.00  0.00    -0.385 OA
ATOM     22  H   UNL     1      50.479  30.421  14.083  1.00  0.00     0.211 HD
ENDBRANCH  13  21
ENDBRANCH   7   8
ENDBRANCH   1   7
BRANCH   2  23
ATOM     23  C   UNL     1      52.066  25.237  16.867  1.00  0.00     0.191 C 
BRANCH  23  24
ATOM     24  O   UNL     1      53.442  25.340  16.604  1.00  0.00    -0.394 OA
ATOM     25  H   UNL     1      53.804  26.016  17.240  1.00  0.00     0.210 HD
ENDBRANCH  23  24
ENDBRANCH   2  23
BRANCH   6  26
ATOM     26  O   UNL     1      47.976  25.485  15.119  1.00  0.00    -0.387 OA
ATOM     27  H   UNL     1      47.950  25.996  14.267  1.00  0.00     0.211 HD
ENDBRANCH   6  26
BRANCH   5  28
ATOM     28  O   UNL     1      49.408  25.295  13.006  1.00  0.00    -0.385 OA
ATOM     29  H   UNL     1      48.762  26.029  13.177  1.00  0.00     0.211 HD
ENDBRANCH   5  28
BRANCH   4  30
ATOM     30  O   UNL     1      52.602  25.402  13.687  1.00  0.00    -0.341 OA
BRANCH  30  31
ATOM     31  C   UNL     1      52.806  25.339  12.282  1.00  0.00     0.184 C 
ATOM     32  C   UNL     1      54.340  25.481  12.021  1.00  0.00     0.178 C 
ATOM     33  C   UNL     1      51.966  26.453  11.581  1.00  0.00     0.180 C 
ATOM     34  O   UNL     1      54.892  26.793  12.170  1.00  0.00    -0.342 OA
ATOM     35  C   UNL     1      52.786  27.716  11.247  1.00  0.00     0.201 C 
ATOM     36  C   UNL     1      53.949  27.853  12.251  1.00  0.00     0.279 C 
BRANCH  32  37
ATOM     37  C   UNL     1      54.767  24.892  10.654  1.00  0.00     0.191 C 
BRANCH  37  38
ATOM     38  O   UNL     1      55.469  25.830   9.875  1.00  0.00    -0.394 OA
ATOM     39  H   UNL     1      56.046  25.328   9.233  1.00  0.00     0.210 HD
ENDBRANCH  37  38
ENDBRANCH  32  37
BRANCH  33  40
ATOM     40  O   UNL     1      51.292  25.970  10.444  1.00  0.00    -0.387 OA
ATOM     41  H   UNL     1      51.869  26.138   9.657  1.00  0.00     0.211 HD
ENDBRANCH  33  40
BRANCH  35  42
ATOM     42  O   UNL     1      53.274  27.659   9.932  1.00  0.00    -0.385 OA
ATOM     43  H   UNL     1      52.854  26.871   9.498  1.00  0.00     0.211 HD
ENDBRANCH  35  42
BRANCH  36  44
ATOM     44  O   UNL     1      54.612  29.080  12.050  1.00  0.00    -0.366 OA
ATOM     45  H   UNL     1      54.479  29.333  11.102  1.00  0.00     0.213 HD
ENDBRANCH  36  44
ENDBRANCH  30  31
ENDBRANCH   4  30
TORSDOF 18
ENDMDL
MODEL 8
REMARK VINA RESULT:    -4.854      3.103      4.697
REMARK INTER + INTRA:          -9.403
REMARK INTER:                  -8.228
REMARK INTRA:                  -1.175
REMARK UNBOUND:                -1.003
REMARK SMILES OC[C@@H]1O[C@@H](O[C@H]2[C@@H](O)[C@@H](O)[C@H](O[C@H]3[C@H](O)[C@H](O)[C@H](O)O[C@@H]3CO)O[C@@H]2CO)[C@@H](O)[C@@H](O)[C@H]1O
REMARK SMILES IDX 7 1 26 2 25 3 12 4 10 5 8 6 6 7 5 8 3 9 33 10 4 11 31 12
REMARK SMILES IDX 29 13 2 14 1 15 34 17 32 19 30 21 27 23 28 24 9 26 11 28
REMARK SMILES IDX 13 30 14 31 22 32 15 33 21 34 17 35 19 36 23 37 24 38 16 40
REMARK SMILES IDX 18 42 20 44
REMARK H PARENT 1 16 34 18 32 20 30 22 28 25 9 27 11 29 24 39 16 41 18 43
REMARK H PARENT 20 45
REMARK Flexibility Score: inf
ROOT
ATOM      1  C   UNL     1      48.640  26.508  16.922  1.00  0.00     0.184 C 
ATOM      2  C   UNL     1      49.617  26.386  18.100  1.00  0.00     0.178 C 
ATOM      3  O   UNL     1      50.893  26.850  17.721  1.00  0.00    -0.341 OA
ATOM      4  C   UNL     1      51.507  26.139  16.655  1.00  0.00     0.282 C 
ATOM      5  C   UNL     1      50.579  25.345  15.661  1.00  0.00     0.202 C 
ATOM      6  C   UNL     1      49.035  25.521  15.825  1.00  0.00     0.180 C 
ENDROOT
BRANCH   1   7
ATOM      7  O   UNL     1      48.703  27.827  16.393  1.00  0.00    -0.341 OA
BRANCH   7   8
ATOM      8  C   UNL     1      49.166  28.769  17.347  1.00  0.00     0.282 C 
ATOM      9  C   UNL     1      47.384  30.381  17.639  1.00  0.00     0.178 C 
ATOM     10  C   UNL     1      47.526  30.639  16.114  1.00  0.00     0.177 C 
ATOM     11  O   UNL     1      48.069  29.226  18.133  1.00  0.00    -0.341 OA
ATOM     12  C   UNL     1      49.009  30.687  15.672  1.00  0.00     0.179 C 
ATOM     13  C   UNL     1      49.934  29.898  16.632  1.00  0.00     0.202 C 
BRANCH   9  14
ATOM     14  C   UNL     1      47.751  31.627  18.470  1.00  0.00     0.191 C 
BRANCH  14  15
ATOM     15  O   UNL     1      47.528  32.795  17.728  1.00  0.00    -0.394 OA
ATOM     16  H   UNL     1      47.409  33.534  18.388  1.00  0.00     0.210 HD
ENDBRANCH  14  15
ENDBRANCH   9  14
BRANCH  10  17
ATOM     17  O   UNL     1      46.836  29.621  15.424  1.00  0.00    -0.387 OA
ATOM     18  H   UNL     1      47.487  28.907  15.205  1.00  0.00     0.211 HD
ENDBRANCH  10  17
BRANCH  12  19
ATOM     19  O   UNL     1      49.130  30.192  14.357  1.00  0.00    -0.387 OA
ATOM     20  H   UNL     1      48.766  29.267  14.348  1.00  0.00     0.211 HD
ENDBRANCH  12  19
BRANCH  13  21
ATOM     21  O   UNL     1      51.020  29.365  15.918  1.00  0.00    -0.385 OA
ATOM     22  H   UNL     1      50.749  29.307  14.971  1.00  0.00     0.211 HD
ENDBRANCH  13  21
ENDBRANCH   7   8
ENDBRANCH   1   7
BRANCH   2  23
ATOM     23  C   UNL     1      49.663  25.006  18.796  1.00  0.00     0.191 C 
BRANCH  23  24
ATOM     24  O   UNL     1      50.606  24.997  19.838  1.00  0.00    -0.394 OA
ATOM     25  H   UNL     1      51.164  25.814  19.724  1.00  0.00     0.210 HD
ENDBRANCH  23  24
ENDBRANCH   2  23
BRANCH   6  26
ATOM     26  O   UNL     1      48.448  25.916  14.608  1.00  0.00    -0.387 OA
ATOM     27  H   UNL     1      48.935  26.724  14.293  1.00  0.00     0.211 HD
ENDBRANCH   6  26
BRANCH   5  28
ATOM     28  O   UNL     1      50.978  25.638  14.341  1.00  0.00    -0.385 OA
ATOM     29  H   UNL     1      50.149  25.716  13.800  1.00  0.00     0.211 HD
ENDBRANCH   5  28
BRANCH   4  30
ATOM     30  O   UNL     1      52.472  25.260  17.223  1.00  0.00    -0.341 OA
BRANCH  30  31
ATOM     31  C   UNL     1      53.343  25.929  18.125  1.00  0.00     0.184 C 
ATOM     32  C   UNL     1      54.069  27.060  17.328  1.00  0.00     0.178 C 
ATOM     33  C   UNL     1      54.333  24.900  18.756  1.00  0.00     0.180 C 
ATOM     34  O   UNL     1      55.108  26.643  16.435  1.00  0.00    -0.342 OA
ATOM     35  C   UNL     1      55.711  24.875  18.063  1.00  0.00     0.201 C 
ATOM     36  C   UNL     1      55.551  25.301  16.590  1.00  0.00     0.279 C 
BRANCH  32  37
ATOM     37  C   UNL     1      54.598  28.189  18.247  1.00  0.00     0.191 C 
BRANCH  37  38
ATOM     38  O   UNL     1      55.952  28.477  17.996  1.00  0.00    -0.394 OA
ATOM     39  H   UNL     1      56.144  28.253  17.043  1.00  0.00     0.210 HD
ENDBRANCH  37  38
ENDBRANCH  32  37
BRANCH  33  40
ATOM     40  O   UNL     1      54.467  25.080  20.145  1.00  0.00    -0.387 OA
ATOM     41  H   UNL     1      53.759  25.707  20.438  1.00  0.00     0.211 HD
ENDBRANCH  33  40
BRANCH  35  42
ATOM     42  O   UNL     1      56.617  25.717  18.725  1.00  0.00    -0.385 OA
ATOM     43  H   UNL     1      57.445  25.192  18.880  1.00  0.00     0.211 HD
ENDBRANCH  35  42
BRANCH  36  44
ATOM     44  O   UNL     1      56.773  25.137  15.909  1.00  0.00    -0.366 OA
ATOM     45  H   UNL     1      57.345  25.911  16.142  1.00  0.00     0.213 HD
ENDBRANCH  36  44
ENDBRANCH  30  31
ENDBRANCH   4  30
TORSDOF 18
ENDMDL
MODEL 9
REMARK VINA RESULT:    -3.635     16.189     20.512
REMARK INTER + INTRA:          -7.295
REMARK INTER:                  -7.953
REMARK INTRA:                   0.659
REMARK UNBOUND:                -1.003
REMARK SMILES OC[C@@H]1O[C@@H](O[C@H]2[C@@H](O)[C@@H](O)[C@H](O[C@H]3[C@H](O)[C@H](O)[C@H](O)O[C@@H]3CO)O[C@@H]2CO)[C@@H](O)[C@@H](O)[C@H]1O
REMARK SMILES IDX 7 1 26 2 25 3 12 4 10 5 8 6 6 7 5 8 3 9 33 10 4 11 31 12
REMARK SMILES IDX 29 13 2 14 1 15 34 17 32 19 30 21 27 23 28 24 9 26 11 28
REMARK SMILES IDX 13 30 14 31 22 32 15 33 21 34 17 35 19 36 23 37 24 38 16 40
REMARK SMILES IDX 18 42 20 44
REMARK H PARENT 1 16 34 18 32 20 30 22 28 25 9 27 11 29 24 39 16 41 18 43
REMARK H PARENT 20 45
REMARK Flexibility Score: inf
ROOT
ATOM      1  C   UNL     1      39.042  42.466  26.921  1.00  0.00     0.184 C 
ATOM      2  C   UNL     1      38.892  40.988  26.536  1.00  0.00     0.178 C 
ATOM      3  O   UNL     1      39.968  40.589  25.720  1.00  0.00    -0.341 OA
ATOM      4  C   UNL     1      40.085  41.284  24.485  1.00  0.00     0.282 C 
ATOM      5  C   UNL     1      39.442  42.716  24.376  1.00  0.00     0.202 C 
ATOM      6  C   UNL     1      38.854  43.340  25.682  1.00  0.00     0.180 C 
ENDROOT
BRANCH   1   7
ATOM      7  O   UNL     1      40.347  42.687  27.441  1.00  0.00    -0.341 OA
BRANCH   7   8
ATOM      8  C   UNL     1      40.823  43.994  27.164  1.00  0.00     0.282 C 
ATOM      9  C   UNL     1      43.186  43.776  26.690  1.00  0.00     0.178 C 
ATOM     10  C   UNL     1      43.296  43.160  28.112  1.00  0.00     0.177 C 
ATOM     11  O   UNL     1      41.856  43.925  26.185  1.00  0.00    -0.341 OA
ATOM     12  C   UNL     1      42.433  43.931  29.142  1.00  0.00     0.179 C 
ATOM     13  C   UNL     1      41.252  44.680  28.476  1.00  0.00     0.202 C 
BRANCH   9  14
ATOM     14  C   UNL     1      43.963  45.104  26.577  1.00  0.00     0.191 C 
BRANCH  14  15
ATOM     15  O   UNL     1      44.733  45.125  25.407  1.00  0.00    -0.394 OA
ATOM     16  H   UNL     1      44.957  46.081  25.229  1.00  0.00     0.210 HD
ENDBRANCH  14  15
ENDBRANCH   9  14
BRANCH  10  17
ATOM     17  O   UNL     1      42.898  41.810  28.044  1.00  0.00    -0.387 OA
ATOM     18  H   UNL     1      42.296  41.631  28.810  1.00  0.00     0.211 HD
ENDBRANCH  10  17
BRANCH  12  19
ATOM     19  O   UNL     1      41.957  43.039  30.125  1.00  0.00    -0.387 OA
ATOM     20  H   UNL     1      41.122  43.425  30.504  1.00  0.00     0.211 HD
ENDBRANCH  12  19
BRANCH  13  21
ATOM     21  O   UNL     1      40.166  44.743  29.364  1.00  0.00    -0.385 OA
ATOM     22  H   UNL     1      40.348  45.476  29.999  1.00  0.00     0.211 HD
ENDBRANCH  13  21
ENDBRANCH   7   8
ENDBRANCH   1   7
BRANCH   2  23
ATOM     23  C   UNL     1      37.516  40.578  25.959  1.00  0.00     0.191 C 
BRANCH  23  24
ATOM     24  O   UNL     1      37.536  39.250  25.501  1.00  0.00    -0.394 OA
ATOM     25  H   UNL     1      36.593  38.931  25.510  1.00  0.00     0.210 HD
ENDBRANCH  23  24
ENDBRANCH   2  23
BRANCH   6  26
ATOM     26  O   UNL     1      39.407  44.612  25.919  1.00  0.00    -0.387 OA
ATOM     27  H   UNL     1      40.350  44.587  25.607  1.00  0.00     0.211 HD
ENDBRANCH   6  26
BRANCH   5  28
ATOM     28  O   UNL     1      40.380  43.588  23.785  1.00  0.00    -0.385 OA
ATOM     29  H   UNL     1      39.883  44.145  23.130  1.00  0.00     0.211 HD
ENDBRANCH   5  28
BRANCH   4  30
ATOM     30  O   UNL     1      39.563  40.440  23.465  1.00  0.00    -0.341 OA
BRANCH  30  31
ATOM     31  C   UNL     1      40.470  40.281  22.381  1.00  0.00     0.184 C 
ATOM     32  C   UNL     1      39.932  39.123  21.482  1.00  0.00     0.178 C 
ATOM     33  C   UNL     1      41.904  40.004  22.935  1.00  0.00     0.180 C 
ATOM     34  O   UNL     1      40.104  37.794  21.984  1.00  0.00    -0.342 OA
ATOM     35  C   UNL     1      42.273  38.507  22.947  1.00  0.00     0.201 C 
ATOM     36  C   UNL     1      40.990  37.663  23.088  1.00  0.00     0.279 C 
BRANCH  32  37
ATOM     37  C   UNL     1      40.467  39.201  20.030  1.00  0.00     0.191 C 
BRANCH  37  38
ATOM     38  O   UNL     1      41.729  39.819  19.969  1.00  0.00    -0.394 OA
ATOM     39  H   UNL     1      41.598  40.800  20.100  1.00  0.00     0.210 HD
ENDBRANCH  37  38
ENDBRANCH  32  37
BRANCH  33  40
ATOM     40  O   UNL     1      42.883  40.763  22.268  1.00  0.00    -0.387 OA
ATOM     41  H   UNL     1      42.488  41.085  21.418  1.00  0.00     0.211 HD
ENDBRANCH  33  40
BRANCH  35  42
ATOM     42  O   UNL     1      42.968  38.156  21.780  1.00  0.00    -0.385 OA
ATOM     43  H   UNL     1      43.915  38.001  22.038  1.00  0.00     0.211 HD
ENDBRANCH  35  42
BRANCH  36  44
ATOM     44  O   UNL     1      41.326  36.305  23.253  1.00  0.00    -0.366 OA
ATOM     45  H   UNL     1      40.739  35.782  22.651  1.00  0.00     0.213 HD
ENDBRANCH  36  44
ENDBRANCH  30  31
ENDBRANCH   4  30
TORSDOF 18
ENDMDL
