MODEL 1
REMARK VINA RESULT:    -2.500      0.000      0.000
REMARK INTER + INTRA:          -2.500
REMARK INTER:                  -2.500
REMARK INTRA:                   0.000
REMARK UNBOUND:                 0.000
REMARK SMILES CC(=O)[O-]
REMARK SMILES IDX 1 1 2 2 3 3 4 4
REMARK H PARENT
REMARK Flexibility Score: inf
ROOT
ATOM      1  C   UNL     1      28.701  -6.167  52.801  1.00  0.00     0.063 C 
ATOM      2  C   UNL     1      29.847  -7.071  52.495  1.00  0.00     0.038 C 
ATOM      3  O   UNL     1      30.794  -7.192  53.317  1.00  0.00    -0.550 OA
ATOM      4  O   UNL     1      29.900  -7.743  51.281  1.00  0.00    -0.550 OA
ENDROOT
TORSDOF 0
ENDMDL
MODEL 2
REMARK VINA RESULT:    -2.463     11.566     11.804
REMARK INTER + INTRA:          -2.463
REMARK INTER:                  -2.463
REMARK INTRA:                   0.000
REMARK UNBOUND:                 0.000
REMARK SMILES CC(=O)[O-]
REMARK SMILES IDX 1 1 2 2 3 3 4 4
REMARK H PARENT
REMARK Flexibility Score: inf
ROOT
ATOM      1  C   UNL     1      31.723   5.306  49.123  1.00  0.00     0.063 C 
ATOM      2  C   UNL     1      32.163   4.013  49.721  1.00  0.00     0.038 C 
ATOM      3  O   UNL     1      32.155   2.961  49.029  1.00  0.00    -0.550 OA
ATOM      4  O   UNL     1      32.534   3.954  51.058  1.00  0.00    -0.550 OA
ENDROOT
TORSDOF 0
ENDMDL
MODEL 3
REMARK VINA RESULT:    -2.407     12.293     12.509
REMARK INTER + INTRA:          -2.407
REMARK INTER:                  -2.407
REMARK INTRA:                   0.000
REMARK UNBOUND:                 0.000
REMARK SMILES CC(=O)[O-]
REMARK SMILES IDX 1 1 2 2 3 3 4 4
REMARK H PARENT
REMARK Flexibility Score: inf
ROOT
ATOM      1  C   UNL     1      32.241   3.145  49.151  1.00  0.00     0.063 C 
ATOM      2  C   UNL     1      31.877   4.478  48.591  1.00  0.00     0.038 C 
ATOM      3  O   UNL     1      31.642   4.605  47.361  1.00  0.00    -0.550 OA
ATOM      4  O   UNL     1      31.847   5.595  49.417  1.00  0.00    -0.550 OA
ENDROOT
TORSDOF 0
ENDMDL
MODEL 4
REMARK VINA RESULT:    -2.379     16.167     16.699
REMARK INTER + INTRA:          -2.379
REMARK INTER:                  -2.379
REMARK INTRA:                   0.000
REMARK UNBOUND:                 0.000
REMARK SMILES CC(=O)[O-]
REMARK SMILES IDX 1 1 2 2 3 3 4 4
REMARK H PARENT
REMARK Flexibility Score: inf
ROOT
ATOM      1  C   UNL     1      22.640   1.670  38.556  1.00  0.00     0.063 C 
ATOM      2  C   UNL     1      23.818   1.243  39.364  1.00  0.00     0.038 C 
ATOM      3  O   UNL     1      24.748   2.057  39.607  1.00  0.00    -0.550 OA
ATOM      4  O   UNL     1      23.919  -0.070  39.807  1.00  0.00    -0.550 OA
ENDROOT
TORSDOF 0
ENDMDL
MODEL 5
REMARK VINA RESULT:    -2.361     15.431     15.960
REMARK INTER + INTRA:          -2.361
REMARK INTER:                  -2.361
REMARK INTRA:                   0.000
REMARK UNBOUND:                 0.000
REMARK SMILES CC(=O)[O-]
REMARK SMILES IDX 1 1 2 2 3 3 4 4
REMARK H PARENT
REMARK Flexibility Score: inf
ROOT
ATOM      1  C   UNL     1      23.909  -1.059  39.686  1.00  0.00     0.063 C 
ATOM      2  C   UNL     1      23.586   0.378  39.918  1.00  0.00     0.038 C 
ATOM      3  O   UNL     1      23.576   0.843  41.088  1.00  0.00    -0.550 OA
ATOM      4  O   UNL     1      23.244   1.197  38.849  1.00  0.00    -0.550 OA
ENDROOT
TORSDOF 0
ENDMDL
MODEL 6
REMARK VINA RESULT:    -2.354     16.209     16.749
REMARK INTER + INTRA:          -2.354
REMARK INTER:                  -2.354
REMARK INTRA:                   0.000
REMARK UNBOUND:                 0.000
REMARK SMILES CC(=O)[O-]
REMARK SMILES IDX 1 1 2 2 3 3 4 4
REMARK H PARENT
REMARK Flexibility Score: inf
ROOT
ATOM      1  C   UNL     1      22.641   1.677  38.564  1.00  0.00     0.063 C 
ATOM      2  C   UNL     1      23.839   1.253  39.343  1.00  0.00     0.038 C 
ATOM      3  O   UNL     1      23.932   0.070  39.766  1.00  0.00    -0.550 OA
ATOM      4  O   UNL     1      24.833   2.174  39.649  1.00  0.00    -0.550 OA
ENDROOT
TORSDOF 0
ENDMDL
MODEL 7
REMARK VINA RESULT:    -2.344     15.363     15.962
REMARK INTER + INTRA:          -2.344
REMARK INTER:                  -2.344
REMARK INTRA:                   0.000
REMARK UNBOUND:                 0.000
REMARK SMILES CC(=O)[O-]
REMARK SMILES IDX 1 1 2 2 3 3 4 4
REMARK H PARENT
REMARK Flexibility Score: inf
ROOT
ATOM      1  C   UNL     1      23.904  -1.051  39.692  1.00  0.00     0.063 C 
ATOM      2  C   UNL     1      23.598   0.388  39.936  1.00  0.00     0.038 C 
ATOM      3  O   UNL     1      23.477   1.182  38.967  1.00  0.00    -0.550 OA
ATOM      4  O   UNL     1      23.497   0.868  41.236  1.00  0.00    -0.550 OA
ENDROOT
TORSDOF 0
ENDMDL
MODEL 8
REMARK VINA RESULT:    -2.105      7.857      8.324
REMARK INTER + INTRA:          -2.105
REMARK INTER:                  -2.105
REMARK INTRA:                   0.000
REMARK UNBOUND:                 0.000
REMARK SMILES CC(=O)[O-]
REMARK SMILES IDX 1 1 2 2 3 3 4 4
REMARK H PARENT
REMARK Flexibility Score: inf
ROOT
ATOM      1  C   UNL     1      24.005  -3.275  57.892  1.00  0.00     0.063 C 
ATOM      2  C   UNL     1      24.064  -2.923  56.444  1.00  0.00     0.038 C 
ATOM      3  O   UNL     1      24.621  -3.703  55.626  1.00  0.00    -0.550 OA
ATOM      4  O   UNL     1      23.552  -1.711  55.999  1.00  0.00    -0.550 OA
ENDROOT
TORSDOF 0
ENDMDL
MODEL 9
REMARK VINA RESULT:    -2.065     18.260     18.481
REMARK INTER + INTRA:          -2.065
REMARK INTER:                  -2.065
REMARK INTRA:                   0.000
REMARK UNBOUND:                 0.000
REMARK SMILES CC(=O)[O-]
REMARK SMILES IDX 1 1 2 2 3 3 4 4
REMARK H PARENT
REMARK Flexibility Score: inf
ROOT
ATOM      1  C   UNL     1      35.587   3.942  40.706  1.00  0.00     0.063 C 
ATOM      2  C   UNL     1      36.028   4.380  39.350  1.00  0.00     0.038 C 
ATOM      3  O   UNL     1      35.917   5.586  39.008  1.00  0.00    -0.550 OA
ATOM      4  O   UNL     1      36.513   3.448  38.442  1.00  0.00    -0.550 OA
ENDROOT
TORSDOF 0
ENDMDL
