MODEL 1
REMARK VINA RESULT:    -3.388      0.000      0.000
REMARK INTER + INTRA:          -4.845
REMARK INTER:                  -4.576
REMARK INTRA:                  -0.269
REMARK UNBOUND:                -0.269
REMARK SMILES CCCCCCC=CC(=O)[O-]
REMARK SMILES IDX 5 1 6 2 7 3 8 4 9 5 10 6 11 7 4 8 3 9 2 10 1 11
REMARK H PARENT
REMARK Flexibility Score: inf
ROOT
ATOM      1  C   UNL     1      18.819   1.397  25.955  1.00  0.00     0.004 C 
ENDROOT
BRANCH   1   2
ATOM      2  C   UNL     1      18.036   2.675  25.606  1.00  0.00     0.027 C 
BRANCH   2   3
ATOM      3  C   UNL     1      16.678   2.382  25.033  1.00  0.00    -0.025 C 
ATOM      4  C   UNL     1      15.601   3.094  25.385  1.00  0.00     0.020 C 
BRANCH   4   5
ATOM      5  C   UNL     1      14.263   2.820  24.841  1.00  0.00     0.064 C 
ATOM      6  O   UNL     1      13.437   2.104  25.470  1.00  0.00    -0.545 OA
ATOM      7  O   UNL     1      13.902   3.357  23.612  1.00  0.00    -0.545 OA
ENDBRANCH   4   5
ENDBRANCH   2   3
ENDBRANCH   1   2
BRANCH   1   8
ATOM      8  C   UNL     1      19.252   1.299  27.432  1.00  0.00     0.000 C 
BRANCH   8   9
ATOM      9  C   UNL     1      19.051   2.586  28.258  1.00  0.00    -0.000 C 
BRANCH   9  10
ATOM     10  C   UNL     1      19.367   2.449  29.758  1.00  0.00    -0.003 C 
ATOM     11  C   UNL     1      18.862   3.632  30.583  1.00  0.00     0.004 C 
ENDBRANCH   9  10
ENDBRANCH   8   9
ENDBRANCH   1   8
TORSDOF 6
ENDMDL
MODEL 2
REMARK VINA RESULT:    -2.730      3.372      5.934
REMARK INTER + INTRA:          -3.956
REMARK INTER:                  -3.707
REMARK INTRA:                  -0.249
REMARK UNBOUND:                -0.269
REMARK SMILES CCCCCCC=CC(=O)[O-]
REMARK SMILES IDX 5 1 6 2 7 3 8 4 9 5 10 6 11 7 4 8 3 9 2 10 1 11
REMARK H PARENT
REMARK Flexibility Score: inf
ROOT
ATOM      1  C   UNL     1      17.355   2.721  25.326  1.00  0.00     0.004 C 
ENDROOT
BRANCH   1   2
ATOM      2  C   UNL     1      18.496   1.700  25.480  1.00  0.00     0.027 C 
BRANCH   2   3
ATOM      3  C   UNL     1      19.051   1.660  26.876  1.00  0.00    -0.025 C 
ATOM      4  C   UNL     1      18.724   2.584  27.787  1.00  0.00     0.020 C 
BRANCH   4   5
ATOM      5  C   UNL     1      19.260   2.566  29.156  1.00  0.00     0.064 C 
ATOM      6  O   UNL     1      20.137   1.728  29.501  1.00  0.00    -0.545 OA
ATOM      7  O   UNL     1      18.792   3.485  30.084  1.00  0.00    -0.545 OA
ENDBRANCH   4   5
ENDBRANCH   2   3
ENDBRANCH   1   2
BRANCH   1   8
ATOM      8  C   UNL     1      15.942   2.104  25.351  1.00  0.00     0.000 C 
BRANCH   8   9
ATOM      9  C   UNL     1      14.785   3.122  25.426  1.00  0.00    -0.000 C 
BRANCH   9  10
ATOM     10  C   UNL     1      13.549   2.762  24.584  1.00  0.00    -0.003 C 
ATOM     11  C   UNL     1      13.512   3.489  23.240  1.00  0.00     0.004 C 
ENDBRANCH   9  10
ENDBRANCH   8   9
ENDBRANCH   1   8
TORSDOF 6
ENDMDL
MODEL 3
REMARK VINA RESULT:    -2.422      3.713      6.227
REMARK INTER + INTRA:          -3.541
REMARK INTER:                  -3.345
REMARK INTRA:                  -0.196
REMARK UNBOUND:                -0.269
REMARK SMILES CCCCCCC=CC(=O)[O-]
REMARK SMILES IDX 5 1 6 2 7 3 8 4 9 5 10 6 11 7 4 8 3 9 2 10 1 11
REMARK H PARENT
REMARK Flexibility Score: inf
ROOT
ATOM      1  C   UNL     1      15.459   3.119  25.767  1.00  0.00     0.004 C 
ENDROOT
BRANCH   1   2
ATOM      2  C   UNL     1      16.726   2.763  24.969  1.00  0.00     0.027 C 
BRANCH   2   3
ATOM      3  C   UNL     1      17.882   2.393  25.855  1.00  0.00    -0.025 C 
ATOM      4  C   UNL     1      18.859   1.583  25.432  1.00  0.00     0.020 C 
BRANCH   4   5
ATOM      5  C   UNL     1      19.995   1.205  26.286  1.00  0.00     0.064 C 
ATOM      6  O   UNL     1      19.832   0.939  27.507  1.00  0.00    -0.545 OA
ATOM      7  O   UNL     1      21.269   1.140  25.737  1.00  0.00    -0.545 OA
ENDBRANCH   4   5
ENDBRANCH   2   3
ENDBRANCH   1   2
BRANCH   1   8
ATOM      8  C   UNL     1      14.269   2.167  25.528  1.00  0.00     0.000 C 
BRANCH   8   9
ATOM      9  C   UNL     1      13.184   2.705  24.574  1.00  0.00    -0.000 C 
BRANCH   9  10
ATOM     10  C   UNL     1      13.715   3.318  23.267  1.00  0.00    -0.003 C 
ATOM     11  C   UNL     1      12.968   4.586  22.857  1.00  0.00     0.004 C 
ENDBRANCH   9  10
ENDBRANCH   8   9
ENDBRANCH   1   8
TORSDOF 6
ENDMDL
MODEL 4
REMARK VINA RESULT:    -2.420     14.074     15.970
REMARK INTER + INTRA:          -3.538
REMARK INTER:                  -3.076
REMARK INTRA:                  -0.462
REMARK UNBOUND:                -0.269
REMARK SMILES CCCCCCC=CC(=O)[O-]
REMARK SMILES IDX 5 1 6 2 7 3 8 4 9 5 10 6 11 7 4 8 3 9 2 10 1 11
REMARK H PARENT
REMARK Flexibility Score: inf
ROOT
ATOM      1  C   UNL     1      12.610  17.009  22.057  1.00  0.00     0.004 C 
ENDROOT
BRANCH   1   2
ATOM      2  C   UNL     1      11.687  18.125  22.577  1.00  0.00     0.027 C 
BRANCH   2   3
ATOM      3  C   UNL     1      11.314  17.939  24.021  1.00  0.00    -0.025 C 
ATOM      4  C   UNL     1      11.780  16.910  24.738  1.00  0.00     0.020 C 
BRANCH   4   5
ATOM      5  C   UNL     1      11.423  16.707  26.150  1.00  0.00     0.064 C 
ATOM      6  O   UNL     1      11.115  15.565  26.586  1.00  0.00    -0.545 OA
ATOM      7  O   UNL     1      11.422  17.791  27.017  1.00  0.00    -0.545 OA
ENDBRANCH   4   5
ENDBRANCH   2   3
ENDBRANCH   1   2
BRANCH   1   8
ATOM      8  C   UNL     1      12.251  16.492  20.649  1.00  0.00     0.000 C 
BRANCH   8   9
ATOM      9  C   UNL     1      11.138  15.425  20.609  1.00  0.00    -0.000 C 
BRANCH   9  10
ATOM     10  C   UNL     1      10.875  14.712  21.947  1.00  0.00    -0.003 C 
ATOM     11  C   UNL     1      10.956  13.191  21.837  1.00  0.00     0.004 C 
ENDBRANCH   9  10
ENDBRANCH   8   9
ENDBRANCH   1   8
TORSDOF 6
ENDMDL
MODEL 5
REMARK VINA RESULT:    -2.297     14.986     15.871
REMARK INTER + INTRA:          -3.372
REMARK INTER:                  -3.112
REMARK INTRA:                  -0.260
REMARK UNBOUND:                -0.269
REMARK SMILES CCCCCCC=CC(=O)[O-]
REMARK SMILES IDX 5 1 6 2 7 3 8 4 9 5 10 6 11 7 4 8 3 9 2 10 1 11
REMARK H PARENT
REMARK Flexibility Score: inf
ROOT
ATOM      1  C   UNL     1      11.186  15.912  23.650  1.00  0.00     0.004 C 
ENDROOT
BRANCH   1   2
ATOM      2  C   UNL     1      10.875  15.162  22.344  1.00  0.00     0.027 C 
BRANCH   2   3
ATOM      3  C   UNL     1      11.471  15.831  21.137  1.00  0.00    -0.025 C 
ATOM      4  C   UNL     1      12.259  16.906  21.250  1.00  0.00     0.020 C 
BRANCH   4   5
ATOM      5  C   UNL     1      12.847  17.579  20.082  1.00  0.00     0.064 C 
ATOM      6  O   UNL     1      12.164  17.803  19.047  1.00  0.00    -0.545 OA
ATOM      7  O   UNL     1      14.178  17.973  20.120  1.00  0.00    -0.545 OA
ENDBRANCH   4   5
ENDBRANCH   2   3
ENDBRANCH   1   2
BRANCH   1   8
ATOM      8  C   UNL     1      10.876  15.113  24.932  1.00  0.00     0.000 C 
BRANCH   8   9
ATOM      9  C   UNL     1      11.336  15.780  26.245  1.00  0.00    -0.000 C 
BRANCH   9  10
ATOM     10  C   UNL     1      11.527  17.305  26.166  1.00  0.00    -0.003 C 
ATOM     11  C   UNL     1      11.034  18.032  27.416  1.00  0.00     0.004 C 
ENDBRANCH   9  10
ENDBRANCH   8   9
ENDBRANCH   1   8
TORSDOF 6
ENDMDL
MODEL 6
REMARK VINA RESULT:    -2.236     14.814     16.276
REMARK INTER + INTRA:          -3.289
REMARK INTER:                  -2.956
REMARK INTRA:                  -0.333
REMARK UNBOUND:                -0.269
REMARK SMILES CCCCCCC=CC(=O)[O-]
REMARK SMILES IDX 5 1 6 2 7 3 8 4 9 5 10 6 11 7 4 8 3 9 2 10 1 11
REMARK H PARENT
REMARK Flexibility Score: inf
ROOT
ATOM      1  C   UNL     1      12.592  17.426  23.654  1.00  0.00     0.004 C 
ENDROOT
BRANCH   1   2
ATOM      2  C   UNL     1      11.404  18.115  22.961  1.00  0.00     0.027 C 
BRANCH   2   3
ATOM      3  C   UNL     1      11.421  17.934  21.469  1.00  0.00    -0.025 C 
ATOM      4  C   UNL     1      12.229  17.045  20.881  1.00  0.00     0.020 C 
BRANCH   4   5
ATOM      5  C   UNL     1      12.266  16.857  19.423  1.00  0.00     0.064 C 
ATOM      6  O   UNL     1      11.651  15.903  18.873  1.00  0.00    -0.545 OA
ATOM      7  O   UNL     1      12.991  17.744  18.638  1.00  0.00    -0.545 OA
ENDBRANCH   4   5
ENDBRANCH   2   3
ENDBRANCH   1   2
BRANCH   1   8
ATOM      8  C   UNL     1      12.708  17.723  25.163  1.00  0.00     0.000 C 
BRANCH   8   9
ATOM      9  C   UNL     1      11.364  17.835  25.912  1.00  0.00    -0.000 C 
BRANCH   9  10
ATOM     10  C   UNL     1      11.044  16.660  26.851  1.00  0.00    -0.003 C 
ATOM     11  C   UNL     1      10.875  15.334  26.110  1.00  0.00     0.004 C 
ENDBRANCH   9  10
ENDBRANCH   8   9
ENDBRANCH   1   8
TORSDOF 6
ENDMDL
MODEL 7
REMARK VINA RESULT:    -2.216     15.100     16.869
REMARK INTER + INTRA:          -3.263
REMARK INTER:                  -2.987
REMARK INTRA:                  -0.275
REMARK UNBOUND:                -0.269
REMARK SMILES CCCCCCC=CC(=O)[O-]
REMARK SMILES IDX 5 1 6 2 7 3 8 4 9 5 10 6 11 7 4 8 3 9 2 10 1 11
REMARK H PARENT
REMARK Flexibility Score: inf
ROOT
ATOM      1  C   UNL     1      12.024  16.738  21.135  1.00  0.00     0.004 C 
ENDROOT
BRANCH   1   2
ATOM      2  C   UNL     1      11.290  17.712  22.073  1.00  0.00     0.027 C 
BRANCH   2   3
ATOM      3  C   UNL     1      11.708  17.556  23.509  1.00  0.00    -0.025 C 
ATOM      4  C   UNL     1      11.289  16.526  24.252  1.00  0.00     0.020 C 
BRANCH   4   5
ATOM      5  C   UNL     1      11.682  16.358  25.660  1.00  0.00     0.064 C 
ATOM      6  O   UNL     1      12.738  16.879  26.108  1.00  0.00    -0.545 OA
ATOM      7  O   UNL     1      10.875  15.613  26.509  1.00  0.00    -0.545 OA
ENDBRANCH   4   5
ENDBRANCH   2   3
ENDBRANCH   1   2
BRANCH   1   8
ATOM      8  C   UNL     1      11.096  15.924  20.210  1.00  0.00     0.000 C 
BRANCH   8   9
ATOM      9  C   UNL     1      11.223  16.249  18.708  1.00  0.00    -0.000 C 
BRANCH   9  10
ATOM     10  C   UNL     1      11.373  17.744  18.378  1.00  0.00    -0.003 C 
ATOM     11  C   UNL     1      12.783  18.114  17.919  1.00  0.00     0.004 C 
ENDBRANCH   9  10
ENDBRANCH   8   9
ENDBRANCH   1   8
TORSDOF 6
ENDMDL
MODEL 8
REMARK VINA RESULT:    -1.422      1.097      2.010
REMARK INTER + INTRA:          -2.190
REMARK INTER:                  -2.285
REMARK INTRA:                   0.094
REMARK UNBOUND:                -0.269
REMARK SMILES CCCCCCC=CC(=O)[O-]
REMARK SMILES IDX 5 1 6 2 7 3 8 4 9 5 10 6 11 7 4 8 3 9 2 10 1 11
REMARK H PARENT
REMARK Flexibility Score: inf
ROOT
ATOM      1  C   UNL     1      17.557   2.706  25.178  1.00  0.00     0.004 C 
ENDROOT
BRANCH   1   2
ATOM      2  C   UNL     1      16.565   3.302  26.192  1.00  0.00     0.027 C 
BRANCH   2   3
ATOM      3  C   UNL     1      15.147   3.280  25.695  1.00  0.00    -0.025 C 
ATOM      4  C   UNL     1      14.858   3.035  24.412  1.00  0.00     0.020 C 
BRANCH   4   5
ATOM      5  C   UNL     1      13.478   3.014  23.905  1.00  0.00     0.064 C 
ATOM      6  O   UNL     1      13.056   3.913  23.127  1.00  0.00    -0.545 OA
ATOM      7  O   UNL     1      12.624   1.989  24.289  1.00  0.00    -0.545 OA
ENDBRANCH   4   5
ENDBRANCH   2   3
ENDBRANCH   1   2
BRANCH   1   8
ATOM      8  C   UNL     1      18.151   1.345  25.593  1.00  0.00     0.000 C 
BRANCH   8   9
ATOM      9  C   UNL     1      19.287   1.419  26.634  1.00  0.00    -0.000 C 
BRANCH   9  10
ATOM     10  C   UNL     1      19.061   2.431  27.770  1.00  0.00    -0.003 C 
ATOM     11  C   UNL     1      19.379   1.858  29.150  1.00  0.00     0.004 C 
ENDBRANCH   9  10
ENDBRANCH   8   9
ENDBRANCH   1   8
TORSDOF 6
ENDMDL
MODEL 9
REMARK VINA RESULT:    -1.281     14.197     15.724
REMARK INTER + INTRA:          -1.999
REMARK INTER:                  -2.125
REMARK INTRA:                   0.126
REMARK UNBOUND:                -0.269
REMARK SMILES CCCCCCC=CC(=O)[O-]
REMARK SMILES IDX 5 1 6 2 7 3 8 4 9 5 10 6 11 7 4 8 3 9 2 10 1 11
REMARK H PARENT
REMARK Flexibility Score: inf
ROOT
ATOM      1  C   UNL     1      11.284  13.972  21.984  1.00  0.00     0.004 C 
ENDROOT
BRANCH   1   2
ATOM      2  C   UNL     1      10.875  13.928  23.467  1.00  0.00     0.027 C 
BRANCH   2   3
ATOM      3  C   UNL     1      10.896  15.285  24.112  1.00  0.00    -0.025 C 
ATOM      4  C   UNL     1      11.476  15.488  25.300  1.00  0.00     0.020 C 
BRANCH   4   5
ATOM      5  C   UNL     1      11.501  16.807  25.950  1.00  0.00     0.064 C 
ATOM      6  O   UNL     1      11.300  16.926  27.189  1.00  0.00    -0.545 OA
ATOM      7  O   UNL     1      11.751  17.939  25.187  1.00  0.00    -0.545 OA
ENDBRANCH   4   5
ENDBRANCH   2   3
ENDBRANCH   1   2
BRANCH   1   8
ATOM      8  C   UNL     1      10.877  15.265  21.250  1.00  0.00     0.000 C 
BRANCH   8   9
ATOM      9  C   UNL     1      11.835  16.458  21.448  1.00  0.00    -0.000 C 
BRANCH   9  10
ATOM     10  C   UNL     1      12.213  17.207  20.159  1.00  0.00    -0.003 C 
ATOM     11  C   UNL     1      13.720  17.410  20.008  1.00  0.00     0.004 C 
ENDBRANCH   9  10
ENDBRANCH   8   9
ENDBRANCH   1   8
TORSDOF 6
ENDMDL
