MODEL 1
REMARK VINA RESULT:    -4.105      0.000      0.000
REMARK INTER + INTRA:          -8.899
REMARK INTER:                  -7.465
REMARK INTRA:                  -1.434
REMARK UNBOUND:                -1.434
REMARK SMILES CCCCCCCCCCCCCCCC(=O)[O-]
REMARK SMILES IDX 9 1 10 2 11 3 12 4 13 5 14 6 15 7 16 8 17 9 18 10 8 11 7 12
REMARK SMILES IDX 6 13 5 14 4 15 3 16 2 17 1 18
REMARK H PARENT
REMARK Flexibility Score: inf
ROOT
ATOM      1  C   UNL     1     128.346 121.931 120.955  1.00  0.00     0.000 C 
ENDROOT
BRANCH   1   2
ATOM      2  C   UNL     1     127.286 121.059 120.261  1.00  0.00     0.000 C 
BRANCH   2   3
ATOM      3  C   UNL     1     127.822 120.377 118.991  1.00  0.00     0.000 C 
BRANCH   3   4
ATOM      4  C   UNL     1     126.927 120.618 117.766  1.00  0.00     0.000 C 
BRANCH   4   5
ATOM      5  C   UNL     1     125.490 120.941 118.191  1.00  0.00     0.000 C 
BRANCH   5   6
ATOM      6  C   UNL     1     124.746 121.706 117.087  1.00  0.00     0.006 C 
BRANCH   6   7
ATOM      7  C   UNL     1     123.605 122.568 117.643  1.00  0.00     0.053 C 
BRANCH   7   8
ATOM      8  C   UNL     1     122.557 121.736 118.316  1.00  0.00     0.041 C 
ATOM      9  O   UNL     1     121.991 120.802 117.689  1.00  0.00    -0.550 OA
ATOM     10  O   UNL     1     122.230 121.970 119.646  1.00  0.00    -0.550 OA
ENDBRANCH   7   8
ENDBRANCH   6   7
ENDBRANCH   5   6
ENDBRANCH   4   5
ENDBRANCH   3   4
ENDBRANCH   2   3
ENDBRANCH   1   2
BRANCH   1  11
ATOM     11  C   UNL     1     129.732 121.824 120.295  1.00  0.00     0.000 C 
BRANCH  11  12
ATOM     12  C   UNL     1     130.751 122.902 120.723  1.00  0.00    -0.000 C 
BRANCH  12  13
ATOM     13  C   UNL     1     132.224 122.451 120.729  1.00  0.00    -0.000 C 
BRANCH  13  14
ATOM     14  C   UNL     1     132.382 120.930 120.893  1.00  0.00    -0.000 C 
BRANCH  14  15
ATOM     15  C   UNL     1     133.027 120.259 119.666  1.00  0.00    -0.000 C 
BRANCH  15  16
ATOM     16  C   UNL     1     132.432 118.894 119.276  1.00  0.00    -0.000 C 
BRANCH  16  17
ATOM     17  C   UNL     1     131.186 119.015 118.388  1.00  0.00    -0.003 C 
ATOM     18  C   UNL     1     131.341 120.142 117.371  1.00  0.00     0.004 C 
ENDBRANCH  16  17
ENDBRANCH  15  16
ENDBRANCH  14  15
ENDBRANCH  13  14
ENDBRANCH  12  13
ENDBRANCH  11  12
ENDBRANCH   1  11
TORSDOF 14
ENDMDL
MODEL 2
REMARK VINA RESULT:    -3.951      9.559     11.369
REMARK INTER + INTRA:          -8.618
REMARK INTER:                  -6.015
REMARK INTRA:                  -2.603
REMARK UNBOUND:                -1.434
REMARK SMILES CCCCCCCCCCCCCCCC(=O)[O-]
REMARK SMILES IDX 9 1 10 2 11 3 12 4 13 5 14 6 15 7 16 8 17 9 18 10 8 11 7 12
REMARK SMILES IDX 6 13 5 14 4 15 3 16 2 17 1 18
REMARK H PARENT
REMARK Flexibility Score: inf
ROOT
ATOM      1  C   UNL     1     124.108 131.234 126.542  1.00  0.00     0.000 C 
ENDROOT
BRANCH   1   2
ATOM      2  C   UNL     1     122.755 130.505 126.587  1.00  0.00     0.000 C 
BRANCH   2   3
ATOM      3  C   UNL     1     122.041 130.502 125.225  1.00  0.00     0.000 C 
BRANCH   3   4
ATOM      4  C   UNL     1     122.150 129.151 124.502  1.00  0.00     0.000 C 
BRANCH   4   5
ATOM      5  C   UNL     1     123.102 129.246 123.303  1.00  0.00     0.000 C 
BRANCH   5   6
ATOM      6  C   UNL     1     123.350 130.709 122.910  1.00  0.00     0.006 C 
BRANCH   6   7
ATOM      7  C   UNL     1     124.534 130.859 121.945  1.00  0.00     0.053 C 
BRANCH   7   8
ATOM      8  C   UNL     1     124.087 130.875 120.516  1.00  0.00     0.041 C 
ATOM      9  O   UNL     1     123.105 131.582 120.167  1.00  0.00    -0.550 OA
ATOM     10  O   UNL     1     124.777 130.137 119.562  1.00  0.00    -0.550 OA
ENDBRANCH   7   8
ENDBRANCH   6   7
ENDBRANCH   5   6
ENDBRANCH   4   5
ENDBRANCH   3   4
ENDBRANCH   2   3
ENDBRANCH   1   2
BRANCH   1  11
ATOM     11  C   UNL     1     125.306 130.274 126.650  1.00  0.00     0.000 C 
BRANCH  11  12
ATOM     12  C   UNL     1     126.353 130.397 125.522  1.00  0.00    -0.000 C 
BRANCH  12  13
ATOM     13  C   UNL     1     126.697 129.082 124.796  1.00  0.00    -0.000 C 
BRANCH  13  14
ATOM     14  C   UNL     1     126.442 127.837 125.662  1.00  0.00    -0.000 C 
BRANCH  14  15
ATOM     15  C   UNL     1     125.460 126.846 125.013  1.00  0.00    -0.000 C 
BRANCH  15  16
ATOM     16  C   UNL     1     124.346 126.325 125.938  1.00  0.00    -0.000 C 
BRANCH  16  17
ATOM     17  C   UNL     1     124.616 126.609 127.422  1.00  0.00    -0.003 C 
ATOM     18  C   UNL     1     123.419 127.288 128.080  1.00  0.00     0.004 C 
ENDBRANCH  16  17
ENDBRANCH  15  16
ENDBRANCH  14  15
ENDBRANCH  13  14
ENDBRANCH  12  13
ENDBRANCH  11  12
ENDBRANCH   1  11
TORSDOF 14
ENDMDL
MODEL 3
REMARK VINA RESULT:    -3.932      1.662      3.597
REMARK INTER + INTRA:          -8.584
REMARK INTER:                  -7.545
REMARK INTRA:                  -1.039
REMARK UNBOUND:                -1.434
REMARK SMILES CCCCCCCCCCCCCCCC(=O)[O-]
REMARK SMILES IDX 9 1 10 2 11 3 12 4 13 5 14 6 15 7 16 8 17 9 18 10 8 11 7 12
REMARK SMILES IDX 6 13 5 14 4 15 3 16 2 17 1 18
REMARK H PARENT
REMARK Flexibility Score: inf
ROOT
ATOM      1  C   UNL     1     126.207 120.650 118.574  1.00  0.00     0.000 C 
ENDROOT
BRANCH   1   2
ATOM      2  C   UNL     1     125.089 119.820 117.923  1.00  0.00     0.000 C 
BRANCH   2   3
ATOM      3  C   UNL     1     124.127 120.679 117.085  1.00  0.00     0.000 C 
BRANCH   3   4
ATOM      4  C   UNL     1     124.326 122.185 117.311  1.00  0.00     0.000 C 
BRANCH   4   5
ATOM      5  C   UNL     1     123.076 122.816 117.935  1.00  0.00     0.000 C 
BRANCH   5   6
ATOM      6  C   UNL     1     122.589 122.002 119.143  1.00  0.00     0.006 C 
BRANCH   6   7
ATOM      7  C   UNL     1     123.426 122.271 120.401  1.00  0.00     0.053 C 
BRANCH   7   8
ATOM      8  C   UNL     1     122.574 122.342 121.630  1.00  0.00     0.041 C 
ATOM      9  O   UNL     1     123.007 122.905 122.670  1.00  0.00    -0.550 OA
ATOM     10  O   UNL     1     121.288 121.815 121.618  1.00  0.00    -0.550 OA
ENDBRANCH   7   8
ENDBRANCH   6   7
ENDBRANCH   5   6
ENDBRANCH   4   5
ENDBRANCH   3   4
ENDBRANCH   2   3
ENDBRANCH   1   2
BRANCH   1  11
ATOM     11  C   UNL     1     127.536 120.571 117.802  1.00  0.00     0.000 C 
BRANCH  11  12
ATOM     12  C   UNL     1     128.780 120.254 118.659  1.00  0.00    -0.000 C 
BRANCH  12  13
ATOM     13  C   UNL     1     130.111 120.815 118.124  1.00  0.00    -0.000 C 
BRANCH  13  14
ATOM     14  C   UNL     1     131.334 120.280 118.888  1.00  0.00    -0.000 C 
BRANCH  14  15
ATOM     15  C   UNL     1     131.397 120.781 120.343  1.00  0.00    -0.000 C 
BRANCH  15  16
ATOM     16  C   UNL     1     132.373 121.944 120.594  1.00  0.00    -0.000 C 
BRANCH  16  17
ATOM     17  C   UNL     1     131.664 123.292 120.789  1.00  0.00    -0.003 C 
ATOM     18  C   UNL     1     130.181 123.095 121.088  1.00  0.00     0.004 C 
ENDBRANCH  16  17
ENDBRANCH  15  16
ENDBRANCH  14  15
ENDBRANCH  13  14
ENDBRANCH  12  13
ENDBRANCH  11  12
ENDBRANCH   1  11
TORSDOF 14
ENDMDL
MODEL 4
REMARK VINA RESULT:    -3.928      2.440      4.411
REMARK INTER + INTRA:          -8.578
REMARK INTER:                  -6.653
REMARK INTRA:                  -1.924
REMARK UNBOUND:                -1.434
REMARK SMILES CCCCCCCCCCCCCCCC(=O)[O-]
REMARK SMILES IDX 9 1 10 2 11 3 12 4 13 5 14 6 15 7 16 8 17 9 18 10 8 11 7 12
REMARK SMILES IDX 6 13 5 14 4 15 3 16 2 17 1 18
REMARK H PARENT
REMARK Flexibility Score: inf
ROOT
ATOM      1  C   UNL     1     125.857 120.636 118.094  1.00  0.00     0.000 C 
ENDROOT
BRANCH   1   2
ATOM      2  C   UNL     1     124.578 120.792 117.254  1.00  0.00     0.000 C 
BRANCH   2   3
ATOM      3  C   UNL     1     124.251 122.262 116.944  1.00  0.00     0.000 C 
BRANCH   3   4
ATOM      4  C   UNL     1     123.136 122.824 117.839  1.00  0.00     0.000 C 
BRANCH   4   5
ATOM      5  C   UNL     1     122.437 121.701 118.615  1.00  0.00     0.000 C 
BRANCH   5   6
ATOM      6  C   UNL     1     122.333 122.043 120.109  1.00  0.00     0.006 C 
BRANCH   6   7
ATOM      7  C   UNL     1     123.710 122.184 120.770  1.00  0.00     0.053 C 
BRANCH   7   8
ATOM      8  C   UNL     1     123.636 121.995 122.254  1.00  0.00     0.041 C 
ATOM      9  O   UNL     1     123.938 120.885 122.767  1.00  0.00    -0.550 OA
ATOM     10  O   UNL     1     123.267 123.054 123.073  1.00  0.00    -0.550 OA
ENDBRANCH   7   8
ENDBRANCH   6   7
ENDBRANCH   5   6
ENDBRANCH   4   5
ENDBRANCH   3   4
ENDBRANCH   2   3
ENDBRANCH   1   2
BRANCH   1  11
ATOM     11  C   UNL     1     126.627 119.342 117.774  1.00  0.00     0.000 C 
BRANCH  11  12
ATOM     12  C   UNL     1     128.162 119.442 117.891  1.00  0.00    -0.000 C 
BRANCH  12  13
ATOM     13  C   UNL     1     128.733 120.872 117.882  1.00  0.00    -0.000 C 
BRANCH  13  14
ATOM     14  C   UNL     1     129.934 121.042 118.828  1.00  0.00    -0.000 C 
BRANCH  14  15
ATOM     15  C   UNL     1     129.569 120.815 120.306  1.00  0.00    -0.000 C 
BRANCH  15  16
ATOM     16  C   UNL     1     128.567 121.823 120.896  1.00  0.00    -0.000 C 
BRANCH  16  17
ATOM     17  C   UNL     1     127.244 121.172 121.326  1.00  0.00    -0.003 C 
ATOM     18  C   UNL     1     127.410 119.669 121.529  1.00  0.00     0.004 C 
ENDBRANCH  16  17
ENDBRANCH  15  16
ENDBRANCH  14  15
ENDBRANCH  13  14
ENDBRANCH  12  13
ENDBRANCH  11  12
ENDBRANCH   1  11
TORSDOF 14
ENDMDL
MODEL 5
REMARK VINA RESULT:    -3.885      1.212      2.242
REMARK INTER + INTRA:          -8.498
REMARK INTER:                  -6.737
REMARK INTRA:                  -1.762
REMARK UNBOUND:                -1.434
REMARK SMILES CCCCCCCCCCCCCCCC(=O)[O-]
REMARK SMILES IDX 9 1 10 2 11 3 12 4 13 5 14 6 15 7 16 8 17 9 18 10 8 11 7 12
REMARK SMILES IDX 6 13 5 14 4 15 3 16 2 17 1 18
REMARK H PARENT
REMARK Flexibility Score: inf
ROOT
ATOM      1  C   UNL     1     128.155 118.924 120.008  1.00  0.00     0.000 C 
ENDROOT
BRANCH   1   2
ATOM      2  C   UNL     1     128.307 119.444 118.569  1.00  0.00     0.000 C 
BRANCH   2   3
ATOM      3  C   UNL     1     127.143 119.017 117.660  1.00  0.00     0.000 C 
BRANCH   3   4
ATOM      4  C   UNL     1     125.850 119.795 117.946  1.00  0.00     0.000 C 
BRANCH   4   5
ATOM      5  C   UNL     1     126.026 121.286 117.634  1.00  0.00     0.000 C 
BRANCH   5   6
ATOM      6  C   UNL     1     124.794 121.848 116.909  1.00  0.00     0.006 C 
BRANCH   6   7
ATOM      7  C   UNL     1     123.482 121.288 117.474  1.00  0.00     0.053 C 
BRANCH   7   8
ATOM      8  C   UNL     1     122.812 122.263 118.393  1.00  0.00     0.041 C 
ATOM      9  O   UNL     1     122.641 123.457 118.033  1.00  0.00    -0.550 OA
ATOM     10  O   UNL     1     122.345 121.844 119.632  1.00  0.00    -0.550 OA
ENDBRANCH   7   8
ENDBRANCH   6   7
ENDBRANCH   5   6
ENDBRANCH   4   5
ENDBRANCH   3   4
ENDBRANCH   2   3
ENDBRANCH   1   2
BRANCH   1  11
ATOM     11  C   UNL     1     128.472 119.994 121.067  1.00  0.00     0.000 C 
BRANCH  11  12
ATOM     12  C   UNL     1     128.176 121.449 120.644  1.00  0.00    -0.000 C 
BRANCH  12  13
ATOM     13  C   UNL     1     129.337 122.442 120.838  1.00  0.00    -0.000 C 
BRANCH  13  14
ATOM     14  C   UNL     1     130.564 122.101 119.976  1.00  0.00    -0.000 C 
BRANCH  14  15
ATOM     15  C   UNL     1     131.876 122.080 120.782  1.00  0.00    -0.000 C 
BRANCH  15  16
ATOM     16  C   UNL     1     132.811 120.895 120.480  1.00  0.00    -0.000 C 
BRANCH  16  17
ATOM     17  C   UNL     1     132.087 119.710 119.826  1.00  0.00    -0.003 C 
ATOM     18  C   UNL     1     131.848 118.588 120.831  1.00  0.00     0.004 C 
ENDBRANCH  16  17
ENDBRANCH  15  16
ENDBRANCH  14  15
ENDBRANCH  13  14
ENDBRANCH  12  13
ENDBRANCH  11  12
ENDBRANCH   1  11
TORSDOF 14
ENDMDL
MODEL 6
REMARK VINA RESULT:    -3.878      3.625      7.206
REMARK INTER + INTRA:          -8.486
REMARK INTER:                  -6.437
REMARK INTRA:                  -2.049
REMARK UNBOUND:                -1.434
REMARK SMILES CCCCCCCCCCCCCCCC(=O)[O-]
REMARK SMILES IDX 9 1 10 2 11 3 12 4 13 5 14 6 15 7 16 8 17 9 18 10 8 11 7 12
REMARK SMILES IDX 6 13 5 14 4 15 3 16 2 17 1 18
REMARK H PARENT
REMARK Flexibility Score: inf
ROOT
ATOM      1  C   UNL     1     124.627 121.941 116.885  1.00  0.00     0.000 C 
ENDROOT
BRANCH   1   2
ATOM      2  C   UNL     1     125.272 120.713 117.548  1.00  0.00     0.000 C 
BRANCH   2   3
ATOM      3  C   UNL     1     126.788 120.876 117.747  1.00  0.00     0.000 C 
BRANCH   3   4
ATOM      4  C   UNL     1     127.518 119.531 117.875  1.00  0.00     0.000 C 
BRANCH   4   5
ATOM      5  C   UNL     1     128.751 119.659 118.778  1.00  0.00     0.000 C 
BRANCH   5   6
ATOM      6  C   UNL     1     129.363 121.064 118.680  1.00  0.00     0.006 C 
BRANCH   6   7
ATOM      7  C   UNL     1     129.615 121.687 120.059  1.00  0.00     0.053 C 
BRANCH   7   8
ATOM      8  C   UNL     1     131.050 122.074 120.241  1.00  0.00     0.041 C 
ATOM      9  O   UNL     1     131.349 123.236 120.623  1.00  0.00    -0.550 OA
ATOM     10  O   UNL     1     132.056 121.141 120.023  1.00  0.00    -0.550 OA
ENDBRANCH   7   8
ENDBRANCH   6   7
ENDBRANCH   5   6
ENDBRANCH   4   5
ENDBRANCH   3   4
ENDBRANCH   2   3
ENDBRANCH   1   2
BRANCH   1  11
ATOM     11  C   UNL     1     123.360 122.418 117.616  1.00  0.00     0.000 C 
BRANCH  11  12
ATOM     12  C   UNL     1     122.545 121.309 118.316  1.00  0.00    -0.000 C 
BRANCH  12  13
ATOM     13  C   UNL     1     122.292 121.527 119.820  1.00  0.00    -0.000 C 
BRANCH  13  14
ATOM     14  C   UNL     1     123.277 122.524 120.453  1.00  0.00    -0.000 C 
BRANCH  14  15
ATOM     15  C   UNL     1     124.119 121.899 121.581  1.00  0.00    -0.000 C 
BRANCH  15  16
ATOM     16  C   UNL     1     125.528 121.436 121.168  1.00  0.00    -0.000 C 
BRANCH  16  17
ATOM     17  C   UNL     1     125.670 119.907 121.131  1.00  0.00    -0.003 C 
ATOM     18  C   UNL     1     126.871 119.446 121.952  1.00  0.00     0.004 C 
ENDBRANCH  16  17
ENDBRANCH  15  16
ENDBRANCH  14  15
ENDBRANCH  13  14
ENDBRANCH  12  13
ENDBRANCH  11  12
ENDBRANCH   1  11
TORSDOF 14
ENDMDL
MODEL 7
REMARK VINA RESULT:    -3.871      2.483      4.862
REMARK INTER + INTRA:          -8.473
REMARK INTER:                  -6.275
REMARK INTRA:                  -2.198
REMARK UNBOUND:                -1.434
REMARK SMILES CCCCCCCCCCCCCCCC(=O)[O-]
REMARK SMILES IDX 9 1 10 2 11 3 12 4 13 5 14 6 15 7 16 8 17 9 18 10 8 11 7 12
REMARK SMILES IDX 6 13 5 14 4 15 3 16 2 17 1 18
REMARK H PARENT
REMARK Flexibility Score: inf
ROOT
ATOM      1  C   UNL     1     125.106 121.505 117.143  1.00  0.00     0.000 C 
ENDROOT
BRANCH   1   2
ATOM      2  C   UNL     1     123.858 120.606 117.126  1.00  0.00     0.000 C 
BRANCH   2   3
ATOM      3  C   UNL     1     122.642 121.271 117.792  1.00  0.00     0.000 C 
BRANCH   3   4
ATOM      4  C   UNL     1     122.945 122.689 118.299  1.00  0.00     0.000 C 
BRANCH   4   5
ATOM      5  C   UNL     1     123.125 122.700 119.822  1.00  0.00     0.000 C 
BRANCH   5   6
ATOM      6  C   UNL     1     122.286 121.597 120.485  1.00  0.00     0.006 C 
BRANCH   6   7
ATOM      7  C   UNL     1     121.803 121.997 121.886  1.00  0.00     0.053 C 
BRANCH   7   8
ATOM      8  C   UNL     1     122.924 122.008 122.878  1.00  0.00     0.041 C 
ATOM      9  O   UNL     1     123.591 120.961 123.092  1.00  0.00    -0.550 OA
ATOM     10  O   UNL     1     123.256 123.183 123.541  1.00  0.00    -0.550 OA
ENDBRANCH   7   8
ENDBRANCH   6   7
ENDBRANCH   5   6
ENDBRANCH   4   5
ENDBRANCH   3   4
ENDBRANCH   2   3
ENDBRANCH   1   2
BRANCH   1  11
ATOM     11  C   UNL     1     126.293 120.865 117.885  1.00  0.00     0.000 C 
BRANCH  11  12
ATOM     12  C   UNL     1     125.942 119.646 118.764  1.00  0.00    -0.000 C 
BRANCH  12  13
ATOM     13  C   UNL     1     125.671 119.959 120.248  1.00  0.00    -0.000 C 
BRANCH  13  14
ATOM     14  C   UNL     1     126.297 121.289 120.701  1.00  0.00    -0.000 C 
BRANCH  14  15
ATOM     15  C   UNL     1     127.662 121.105 121.390  1.00  0.00    -0.000 C 
BRANCH  15  16
ATOM     16  C   UNL     1     128.869 121.659 120.613  1.00  0.00    -0.000 C 
BRANCH  16  17
ATOM     17  C   UNL     1     129.680 120.565 119.904  1.00  0.00    -0.003 C 
ATOM     18  C   UNL     1     129.936 120.928 118.445  1.00  0.00     0.004 C 
ENDBRANCH  16  17
ENDBRANCH  15  16
ENDBRANCH  14  15
ENDBRANCH  13  14
ENDBRANCH  12  13
ENDBRANCH  11  12
ENDBRANCH   1  11
TORSDOF 14
ENDMDL
MODEL 8
REMARK VINA RESULT:    -3.841      1.375      2.147
REMARK INTER + INTRA:          -8.418
REMARK INTER:                  -6.836
REMARK INTRA:                  -1.582
REMARK UNBOUND:                -1.434
REMARK SMILES CCCCCCCCCCCCCCCC(=O)[O-]
REMARK SMILES IDX 9 1 10 2 11 3 12 4 13 5 14 6 15 7 16 8 17 9 18 10 8 11 7 12
REMARK SMILES IDX 6 13 5 14 4 15 3 16 2 17 1 18
REMARK H PARENT
REMARK Flexibility Score: inf
ROOT
ATOM      1  C   UNL     1     129.585 122.203 120.754  1.00  0.00     0.000 C 
ENDROOT
BRANCH   1   2
ATOM      2  C   UNL     1     128.565 121.269 120.083  1.00  0.00     0.000 C 
BRANCH   2   3
ATOM      3  C   UNL     1     128.845 121.068 118.584  1.00  0.00     0.000 C 
BRANCH   3   4
ATOM      4  C   UNL     1     127.667 120.418 117.843  1.00  0.00     0.000 C 
BRANCH   4   5
ATOM      5  C   UNL     1     126.334 120.770 118.514  1.00  0.00     0.000 C 
BRANCH   5   6
ATOM      6  C   UNL     1     125.157 120.557 117.551  1.00  0.00     0.006 C 
BRANCH   6   7
ATOM      7  C   UNL     1     124.617 121.880 116.991  1.00  0.00     0.053 C 
BRANCH   7   8
ATOM      8  C   UNL     1     123.311 122.258 117.619  1.00  0.00     0.041 C 
ATOM      9  O   UNL     1     123.134 123.425 118.058  1.00  0.00    -0.550 OA
ATOM     10  O   UNL     1     122.278 121.332 117.688  1.00  0.00    -0.550 OA
ENDBRANCH   7   8
ENDBRANCH   6   7
ENDBRANCH   5   6
ENDBRANCH   4   5
ENDBRANCH   3   4
ENDBRANCH   2   3
ENDBRANCH   1   2
BRANCH   1  11
ATOM     11  C   UNL     1     130.930 122.254 120.008  1.00  0.00     0.000 C 
BRANCH  11  12
ATOM     12  C   UNL     1     132.153 121.776 120.819  1.00  0.00    -0.000 C 
BRANCH  12  13
ATOM     13  C   UNL     1     132.890 120.553 120.242  1.00  0.00    -0.000 C 
BRANCH  13  14
ATOM     14  C   UNL     1     132.248 120.025 118.947  1.00  0.00    -0.000 C 
BRANCH  14  15
ATOM     15  C   UNL     1     131.611 118.634 119.119  1.00  0.00    -0.000 C 
BRANCH  15  16
ATOM     16  C   UNL     1     130.778 118.446 120.399  1.00  0.00    -0.000 C 
BRANCH  16  17
ATOM     17  C   UNL     1     131.351 117.373 121.336  1.00  0.00    -0.003 C 
ATOM     18  C   UNL     1     132.604 116.736 120.743  1.00  0.00     0.004 C 
ENDBRANCH  16  17
ENDBRANCH  15  16
ENDBRANCH  14  15
ENDBRANCH  13  14
ENDBRANCH  12  13
ENDBRANCH  11  12
ENDBRANCH   1  11
TORSDOF 14
ENDMDL
MODEL 9
REMARK VINA RESULT:    -3.835      1.995      4.289
REMARK INTER + INTRA:          -8.407
REMARK INTER:                  -6.947
REMARK INTRA:                  -1.460
REMARK UNBOUND:                -1.434
REMARK SMILES CCCCCCCCCCCCCCCC(=O)[O-]
REMARK SMILES IDX 9 1 10 2 11 3 12 4 13 5 14 6 15 7 16 8 17 9 18 10 8 11 7 12
REMARK SMILES IDX 6 13 5 14 4 15 3 16 2 17 1 18
REMARK H PARENT
REMARK Flexibility Score: inf
ROOT
ATOM      1  C   UNL     1     125.039 119.887 117.498  1.00  0.00     0.000 C 
ENDROOT
BRANCH   1   2
ATOM      2  C   UNL     1     123.712 120.655 117.382  1.00  0.00     0.000 C 
BRANCH   2   3
ATOM      3  C   UNL     1     123.908 122.180 117.398  1.00  0.00     0.000 C 
BRANCH   3   4
ATOM      4  C   UNL     1     122.826 122.909 118.208  1.00  0.00     0.000 C 
BRANCH   4   5
ATOM      5  C   UNL     1     122.436 122.103 119.452  1.00  0.00     0.000 C 
BRANCH   5   6
ATOM      6  C   UNL     1     123.283 122.515 120.666  1.00  0.00     0.006 C 
BRANCH   6   7
ATOM      7  C   UNL     1     124.360 121.475 121.003  1.00  0.00     0.053 C 
BRANCH   7   8
ATOM      8  C   UNL     1     123.762 120.142 121.333  1.00  0.00     0.041 C 
ATOM      9  O   UNL     1     124.151 119.108 120.731  1.00  0.00    -0.550 OA
ATOM     10  O   UNL     1     122.800 120.038 122.330  1.00  0.00    -0.550 OA
ENDBRANCH   7   8
ENDBRANCH   6   7
ENDBRANCH   5   6
ENDBRANCH   4   5
ENDBRANCH   3   4
ENDBRANCH   2   3
ENDBRANCH   1   2
BRANCH   1  11
ATOM     11  C   UNL     1     126.249 120.814 117.708  1.00  0.00     0.000 C 
BRANCH  11  12
ATOM     12  C   UNL     1     127.184 120.425 118.872  1.00  0.00    -0.000 C 
BRANCH  12  13
ATOM     13  C   UNL     1     128.561 119.874 118.456  1.00  0.00    -0.000 C 
BRANCH  13  14
ATOM     14  C   UNL     1     129.627 120.974 118.317  1.00  0.00    -0.000 C 
BRANCH  14  15
ATOM     15  C   UNL     1     130.355 121.274 119.640  1.00  0.00    -0.000 C 
BRANCH  15  16
ATOM     16  C   UNL     1     129.665 122.307 120.549  1.00  0.00    -0.000 C 
BRANCH  16  17
ATOM     17  C   UNL     1     130.631 123.370 121.092  1.00  0.00    -0.003 C 
ATOM     18  C   UNL     1     132.075 123.038 120.728  1.00  0.00     0.004 C 
ENDBRANCH  16  17
ENDBRANCH  15  16
ENDBRANCH  14  15
ENDBRANCH  13  14
ENDBRANCH  12  13
ENDBRANCH  11  12
ENDBRANCH   1  11
TORSDOF 14
ENDMDL
