MODEL 1
REMARK VINA RESULT:    -3.549      0.000      0.000
REMARK INTER + INTRA:          -3.991
REMARK INTER:                  -3.964
REMARK INTRA:                  -0.027
REMARK UNBOUND:                -0.027
REMARK SMILES CCCC(=O)[O-]
REMARK SMILES IDX 3 1 4 2 5 3 6 4 2 5 1 6
REMARK H PARENT
REMARK Flexibility Score: inf
ROOT
ATOM      1  C   UNL     1      15.942   0.211 -25.471  1.00  0.00     0.052 C 
ENDROOT
BRANCH   1   2
ATOM      2  C   UNL     1      16.424  -0.517 -24.254  1.00  0.00     0.041 C 
ATOM      3  O   UNL     1      16.375   0.036 -23.124  1.00  0.00    -0.550 OA
ATOM      4  O   UNL     1      16.894  -1.820 -24.362  1.00  0.00    -0.550 OA
ENDBRANCH   1   2
BRANCH   1   5
ATOM      5  C   UNL     1      15.937   1.730 -25.262  1.00  0.00     0.003 C 
ATOM      6  C   UNL     1      16.944   2.444 -26.163  1.00  0.00     0.004 C 
ENDBRANCH   1   5
TORSDOF 2
ENDMDL
MODEL 2
REMARK VINA RESULT:    -3.528      8.916      9.563
REMARK INTER + INTRA:          -3.967
REMARK INTER:                  -3.960
REMARK INTRA:                  -0.008
REMARK UNBOUND:                -0.027
REMARK SMILES CCCC(=O)[O-]
REMARK SMILES IDX 3 1 4 2 5 3 6 4 2 5 1 6
REMARK H PARENT
REMARK Flexibility Score: inf
ROOT
ATOM      1  C   UNL     1      19.273  -0.174 -16.797  1.00  0.00     0.052 C 
ENDROOT
BRANCH   1   2
ATOM      2  C   UNL     1      18.898   0.300 -15.427  1.00  0.00     0.041 C 
ATOM      3  O   UNL     1      19.749   0.291 -14.499  1.00  0.00    -0.550 OA
ATOM      4  O   UNL     1      17.620   0.786 -15.183  1.00  0.00    -0.550 OA
ENDBRANCH   1   2
BRANCH   1   5
ATOM      5  C   UNL     1      20.078  -1.479 -16.748  1.00  0.00     0.003 C 
ATOM      6  C   UNL     1      19.689  -2.444 -17.868  1.00  0.00     0.004 C 
ENDBRANCH   1   5
TORSDOF 2
ENDMDL
MODEL 3
REMARK VINA RESULT:    -3.482      8.957      9.787
REMARK INTER + INTRA:          -3.916
REMARK INTER:                  -3.879
REMARK INTRA:                  -0.037
REMARK UNBOUND:                -0.027
REMARK SMILES CCCC(=O)[O-]
REMARK SMILES IDX 3 1 4 2 5 3 6 4 2 5 1 6
REMARK H PARENT
REMARK Flexibility Score: inf
ROOT
ATOM      1  C   UNL     1      19.370   0.865 -16.288  1.00  0.00     0.052 C 
ENDROOT
BRANCH   1   2
ATOM      2  C   UNL     1      17.951   1.209 -15.954  1.00  0.00     0.041 C 
ATOM      3  O   UNL     1      17.453   0.846 -14.856  1.00  0.00    -0.550 OA
ATOM      4  O   UNL     1      17.190   1.962 -16.839  1.00  0.00    -0.550 OA
ENDBRANCH   1   2
BRANCH   1   5
ATOM      5  C   UNL     1      20.061   0.120 -15.140  1.00  0.00     0.003 C 
ATOM      6  C   UNL     1      20.172  -1.382 -15.406  1.00  0.00     0.004 C 
ENDBRANCH   1   5
TORSDOF 2
ENDMDL
MODEL 4
REMARK VINA RESULT:    -3.437      0.689      1.612
REMARK INTER + INTRA:          -3.866
REMARK INTER:                  -3.827
REMARK INTRA:                  -0.038
REMARK UNBOUND:                -0.027
REMARK SMILES CCCC(=O)[O-]
REMARK SMILES IDX 3 1 4 2 5 3 6 4 2 5 1 6
REMARK H PARENT
REMARK Flexibility Score: inf
ROOT
ATOM      1  C   UNL     1      17.128  -0.017 -25.413  1.00  0.00     0.052 C 
ENDROOT
BRANCH   1   2
ATOM      2  C   UNL     1      16.875  -0.852 -24.195  1.00  0.00     0.041 C 
ATOM      3  O   UNL     1      17.027  -2.101 -24.240  1.00  0.00    -0.550 OA
ATOM      4  O   UNL     1      16.506  -0.246 -23.000  1.00  0.00    -0.550 OA
ENDBRANCH   1   2
BRANCH   1   5
ATOM      5  C   UNL     1      15.851   0.674 -25.905  1.00  0.00     0.003 C 
ATOM      6  C   UNL     1      15.854   2.175 -25.615  1.00  0.00     0.004 C 
ENDBRANCH   1   5
TORSDOF 2
ENDMDL
MODEL 5
REMARK VINA RESULT:    -3.406      9.392     10.164
REMARK INTER + INTRA:          -3.831
REMARK INTER:                  -3.816
REMARK INTRA:                  -0.014
REMARK UNBOUND:                -0.027
REMARK SMILES CCCC(=O)[O-]
REMARK SMILES IDX 3 1 4 2 5 3 6 4 2 5 1 6
REMARK H PARENT
REMARK Flexibility Score: inf
ROOT
ATOM      1  C   UNL     1      18.901   2.705 -15.550  1.00  0.00     0.052 C 
ENDROOT
BRANCH   1   2
ATOM      2  C   UNL     1      17.805   1.720 -15.819  1.00  0.00     0.041 C 
ATOM      3  O   UNL     1      17.535   0.827 -14.975  1.00  0.00    -0.550 OA
ATOM      4  O   UNL     1      17.059   1.811 -16.988  1.00  0.00    -0.550 OA
ENDBRANCH   1   2
BRANCH   1   5
ATOM      5  C   UNL     1      20.041   2.081 -14.736  1.00  0.00     0.003 C 
ATOM      6  C   UNL     1      20.836   3.125 -13.952  1.00  0.00     0.004 C 
ENDBRANCH   1   5
TORSDOF 2
ENDMDL
MODEL 6
REMARK VINA RESULT:    -3.355      2.362      3.308
REMARK INTER + INTRA:          -3.775
REMARK INTER:                  -3.720
REMARK INTRA:                  -0.055
REMARK UNBOUND:                -0.027
REMARK SMILES CCCC(=O)[O-]
REMARK SMILES IDX 3 1 4 2 5 3 6 4 2 5 1 6
REMARK H PARENT
REMARK Flexibility Score: inf
ROOT
ATOM      1  C   UNL     1      15.813   0.083 -25.234  1.00  0.00     0.052 C 
ENDROOT
BRANCH   1   2
ATOM      2  C   UNL     1      16.074   1.382 -25.933  1.00  0.00     0.041 C 
ATOM      3  O   UNL     1      17.029   1.482 -26.747  1.00  0.00    -0.550 OA
ATOM      4  O   UNL     1      15.242   2.472 -25.711  1.00  0.00    -0.550 OA
ENDBRANCH   1   2
BRANCH   1   5
ATOM      5  C   UNL     1      16.931  -0.266 -24.244  1.00  0.00     0.003 C 
ATOM      6  C   UNL     1      16.790   0.484 -22.920  1.00  0.00     0.004 C 
ENDBRANCH   1   5
TORSDOF 2
ENDMDL
MODEL 7
REMARK VINA RESULT:    -3.335      2.134      2.410
REMARK INTER + INTRA:          -3.752
REMARK INTER:                  -3.716
REMARK INTRA:                  -0.036
REMARK UNBOUND:                -0.027
REMARK SMILES CCCC(=O)[O-]
REMARK SMILES IDX 3 1 4 2 5 3 6 4 2 5 1 6
REMARK H PARENT
REMARK Flexibility Score: inf
ROOT
ATOM      1  C   UNL     1      16.566  -0.332 -24.165  1.00  0.00     0.052 C 
ENDROOT
BRANCH   1   2
ATOM      2  C   UNL     1      17.525  -1.481 -24.198  1.00  0.00     0.041 C 
ATOM      3  O   UNL     1      17.097  -2.664 -24.212  1.00  0.00    -0.550 OA
ATOM      4  O   UNL     1      18.894  -1.244 -24.250  1.00  0.00    -0.550 OA
ENDBRANCH   1   2
BRANCH   1   5
ATOM      5  C   UNL     1      16.723   0.505 -22.889  1.00  0.00     0.003 C 
ATOM      6  C   UNL     1      17.215   1.923 -23.181  1.00  0.00     0.004 C 
ENDBRANCH   1   5
TORSDOF 2
ENDMDL
MODEL 8
REMARK VINA RESULT:    -3.319     16.338     16.880
REMARK INTER + INTRA:          -3.734
REMARK INTER:                  -3.723
REMARK INTRA:                  -0.011
REMARK UNBOUND:                -0.027
REMARK SMILES CCCC(=O)[O-]
REMARK SMILES IDX 3 1 4 2 5 3 6 4 2 5 1 6
REMARK H PARENT
REMARK Flexibility Score: inf
ROOT
ATOM      1  C   UNL     1      26.448 -12.807 -25.093  1.00  0.00     0.052 C 
ENDROOT
BRANCH   1   2
ATOM      2  C   UNL     1      25.534 -13.803 -24.448  1.00  0.00     0.041 C 
ATOM      3  O   UNL     1      25.682 -15.034 -24.666  1.00  0.00    -0.550 OA
ATOM      4  O   UNL     1      24.541 -13.373 -23.576  1.00  0.00    -0.550 OA
ENDBRANCH   1   2
BRANCH   1   5
ATOM      5  C   UNL     1      26.912 -13.275 -26.478  1.00  0.00     0.003 C 
ATOM      6  C   UNL     1      26.938 -12.137 -27.498  1.00  0.00     0.004 C 
ENDBRANCH   1   5
TORSDOF 2
ENDMDL
MODEL 9
REMARK VINA RESULT:    -3.294     15.402     16.546
REMARK INTER + INTRA:          -3.706
REMARK INTER:                  -3.680
REMARK INTRA:                  -0.027
REMARK UNBOUND:                -0.027
REMARK SMILES CCCC(=O)[O-]
REMARK SMILES IDX 3 1 4 2 5 3 6 4 2 5 1 6
REMARK H PARENT
REMARK Flexibility Score: inf
ROOT
ATOM      1  C   UNL     1      26.482 -13.200 -25.328  1.00  0.00     0.052 C 
ENDROOT
BRANCH   1   2
ATOM      2  C   UNL     1      25.424 -14.235 -25.102  1.00  0.00     0.041 C 
ATOM      3  O   UNL     1      25.741 -15.446 -24.967  1.00  0.00    -0.550 OA
ATOM      4  O   UNL     1      24.090 -13.859 -25.005  1.00  0.00    -0.550 OA
ENDBRANCH   1   2
BRANCH   1   5
ATOM      5  C   UNL     1      26.221 -11.930 -24.508  1.00  0.00     0.003 C 
ATOM      6  C   UNL     1      26.344 -10.659 -25.348  1.00  0.00     0.004 C 
ENDBRANCH   1   5
TORSDOF 2
ENDMDL
