MODEL 1
REMARK VINA RESULT:    -5.777      0.000      0.000
REMARK INTER + INTRA:          -7.683
REMARK INTER:                  -7.297
REMARK INTRA:                  -0.387
REMARK UNBOUND:                -0.387
REMARK SMILES Oc1cc(O)cc(CCc2ccccc2O)c1
REMARK SMILES IDX 9 1 10 2 12 3 13 4 11 5 14 6 15 7 16 8 8 10 7 11 6 12 17 13
REMARK SMILES IDX 4 14 2 15 3 16 5 17 1 19
REMARK H PARENT 16 9 5 18 1 20
REMARK Flexibility Score: inf
ROOT
ATOM      1  C   UNL     1      27.691  -3.198  34.978  1.00  0.00     0.044 C 
ENDROOT
BRANCH   1   2
ATOM      2  C   UNL     1      28.920  -3.960  34.550  1.00  0.00    -0.006 A 
ATOM      3  C   UNL     1      29.935  -6.028  33.771  1.00  0.00     0.001 A 
ATOM      4  C   UNL     1      31.197  -5.431  33.813  1.00  0.00     0.004 A 
ATOM      5  C   UNL     1      28.802  -5.299  34.141  1.00  0.00     0.007 A 
ATOM      6  C   UNL     1      31.329  -4.105  34.232  1.00  0.00     0.046 A 
ATOM      7  C   UNL     1      30.198  -3.365  34.608  1.00  0.00     0.118 A 
BRANCH   7   8
ATOM      8  O   UNL     1      30.340  -2.046  35.038  1.00  0.00    -0.508 OA
ATOM      9  H   UNL     1      30.715  -1.327  34.431  1.00  0.00     0.293 HD
ENDBRANCH   7   8
ENDBRANCH   1   2
BRANCH   1  10
ATOM     10  C   UNL     1      26.626  -3.230  33.877  1.00  0.00     0.040 C 
BRANCH  10  11
ATOM     11  C   UNL     1      25.548  -2.218  34.155  1.00  0.00    -0.040 A 
ATOM     12  C   UNL     1      24.212  -2.628  34.297  1.00  0.00     0.050 A 
ATOM     13  C   UNL     1      25.876  -0.864  34.332  1.00  0.00     0.050 A 
ATOM     14  C   UNL     1      23.213  -1.695  34.588  1.00  0.00     0.119 A 
ATOM     15  C   UNL     1      24.876   0.073  34.624  1.00  0.00     0.119 A 
ATOM     16  C   UNL     1      23.547  -0.343  34.749  1.00  0.00     0.092 A 
BRANCH  14  17
ATOM     17  O   UNL     1      21.893  -2.120  34.718  1.00  0.00    -0.508 OA
ATOM     18  H   UNL     1      21.663  -3.095  34.876  1.00  0.00     0.293 HD
ENDBRANCH  14  17
BRANCH  15  19
ATOM     19  O   UNL     1      25.193   1.420  34.793  1.00  0.00    -0.508 OA
ATOM     20  H   UNL     1      25.797   1.908  34.142  1.00  0.00     0.293 HD
ENDBRANCH  15  19
ENDBRANCH  10  11
ENDBRANCH   1  10
TORSDOF 6
ENDMDL
MODEL 2
REMARK VINA RESULT:    -5.730      1.935      6.425
REMARK INTER + INTRA:          -7.624
REMARK INTER:                  -7.025
REMARK INTRA:                  -0.599
REMARK UNBOUND:                -0.387
REMARK SMILES Oc1cc(O)cc(CCc2ccccc2O)c1
REMARK SMILES IDX 9 1 10 2 12 3 13 4 11 5 14 6 15 7 16 8 8 10 7 11 6 12 17 13
REMARK SMILES IDX 4 14 2 15 3 16 5 17 1 19
REMARK H PARENT 16 9 5 18 1 20
REMARK Flexibility Score: inf
ROOT
ATOM      1  C   UNL     1      27.961  -1.487  35.904  1.00  0.00     0.044 C 
ENDROOT
BRANCH   1   2
ATOM      2  C   UNL     1      26.498  -1.604  35.556  1.00  0.00    -0.006 A 
ATOM      3  C   UNL     1      24.764  -2.369  34.033  1.00  0.00     0.001 A 
ATOM      4  C   UNL     1      23.788  -1.779  34.839  1.00  0.00     0.004 A 
ATOM      5  C   UNL     1      26.113  -2.278  34.385  1.00  0.00     0.007 A 
ATOM      6  C   UNL     1      24.160  -1.093  35.998  1.00  0.00     0.046 A 
ATOM      7  C   UNL     1      25.511  -0.995  36.360  1.00  0.00     0.118 A 
BRANCH   7   8
ATOM      8  O   UNL     1      25.875  -0.296  37.511  1.00  0.00    -0.508 OA
ATOM      9  H   UNL     1      26.797   0.108  37.617  1.00  0.00     0.293 HD
ENDBRANCH   7   8
ENDBRANCH   1   2
BRANCH   1  10
ATOM     10  C   UNL     1      28.491  -2.814  36.456  1.00  0.00     0.040 C 
BRANCH  10  11
ATOM     11  C   UNL     1      29.463  -3.438  35.491  1.00  0.00    -0.040 A 
ATOM     12  C   UNL     1      29.307  -4.776  35.096  1.00  0.00     0.050 A 
ATOM     13  C   UNL     1      30.500  -2.670  34.935  1.00  0.00     0.050 A 
ATOM     14  C   UNL     1      30.189  -5.349  34.174  1.00  0.00     0.119 A 
ATOM     15  C   UNL     1      31.384  -3.242  34.010  1.00  0.00     0.119 A 
ATOM     16  C   UNL     1      31.229  -4.580  33.634  1.00  0.00     0.092 A 
BRANCH  14  17
ATOM     17  O   UNL     1      30.022  -6.680  33.799  1.00  0.00    -0.508 OA
ATOM     18  H   UNL     1      30.034  -6.961  32.825  1.00  0.00     0.293 HD
ENDBRANCH  14  17
BRANCH  15  19
ATOM     19  O   UNL     1      32.419  -2.490  33.459  1.00  0.00    -0.508 OA
ATOM     20  H   UNL     1      33.120  -2.911  32.860  1.00  0.00     0.293 HD
ENDBRANCH  15  19
ENDBRANCH  10  11
ENDBRANCH   1  10
TORSDOF 6
ENDMDL
MODEL 3
REMARK VINA RESULT:    -5.675      0.181      2.039
REMARK INTER + INTRA:          -7.554
REMARK INTER:                  -7.168
REMARK INTRA:                  -0.386
REMARK UNBOUND:                -0.387
REMARK SMILES Oc1cc(O)cc(CCc2ccccc2O)c1
REMARK SMILES IDX 9 1 10 2 12 3 13 4 11 5 14 6 15 7 16 8 8 10 7 11 6 12 17 13
REMARK SMILES IDX 4 14 2 15 3 16 5 17 1 19
REMARK H PARENT 16 9 5 18 1 20
REMARK Flexibility Score: inf
ROOT
ATOM      1  C   UNL     1      27.818  -3.113  35.041  1.00  0.00     0.044 C 
ENDROOT
BRANCH   1   2
ATOM      2  C   UNL     1      28.998  -3.931  34.580  1.00  0.00    -0.006 A 
ATOM      3  C   UNL     1      29.895  -6.048  33.787  1.00  0.00     0.001 A 
ATOM      4  C   UNL     1      31.183  -5.507  33.785  1.00  0.00     0.004 A 
ATOM      5  C   UNL     1      28.808  -5.266  34.187  1.00  0.00     0.007 A 
ATOM      6  C   UNL     1      31.387  -4.185  34.188  1.00  0.00     0.046 A 
ATOM      7  C   UNL     1      30.302  -3.393  34.593  1.00  0.00     0.118 A 
BRANCH   7   8
ATOM      8  O   UNL     1      30.516  -2.079  35.007  1.00  0.00    -0.508 OA
ATOM      9  H   UNL     1      31.010  -1.413  34.427  1.00  0.00     0.293 HD
ENDBRANCH   7   8
ENDBRANCH   1   2
BRANCH   1  10
ATOM     10  C   UNL     1      26.687  -3.170  34.010  1.00  0.00     0.040 C 
BRANCH  10  11
ATOM     11  C   UNL     1      25.604  -2.184  34.358  1.00  0.00    -0.040 A 
ATOM     12  C   UNL     1      25.926  -0.843  34.621  1.00  0.00     0.050 A 
ATOM     13  C   UNL     1      24.258  -2.585  34.366  1.00  0.00     0.050 A 
ATOM     14  C   UNL     1      24.919   0.082  34.912  1.00  0.00     0.119 A 
ATOM     15  C   UNL     1      23.247  -1.659  34.656  1.00  0.00     0.119 A 
ATOM     16  C   UNL     1      23.579  -0.329  34.932  1.00  0.00     0.092 A 
BRANCH  14  17
ATOM     17  O   UNL     1      25.258   1.407  35.176  1.00  0.00    -0.508 OA
ATOM     18  H   UNL     1      24.552   2.101  35.394  1.00  0.00     0.293 HD
ENDBRANCH  14  17
BRANCH  15  19
ATOM     19  O   UNL     1      21.910  -2.051  34.674  1.00  0.00    -0.508 OA
ATOM     20  H   UNL     1      21.614  -2.908  35.128  1.00  0.00     0.293 HD
ENDBRANCH  15  19
ENDBRANCH  10  11
ENDBRANCH   1  10
TORSDOF 6
ENDMDL
MODEL 4
REMARK VINA RESULT:    -5.587      2.286      7.137
REMARK INTER + INTRA:          -7.443
REMARK INTER:                  -6.993
REMARK INTRA:                  -0.450
REMARK UNBOUND:                -0.387
REMARK SMILES Oc1cc(O)cc(CCc2ccccc2O)c1
REMARK SMILES IDX 9 1 10 2 12 3 13 4 11 5 14 6 15 7 16 8 8 10 7 11 6 12 17 13
REMARK SMILES IDX 4 14 2 15 3 16 5 17 1 19
REMARK H PARENT 16 9 5 18 1 20
REMARK Flexibility Score: inf
ROOT
ATOM      1  C   UNL     1      28.751  -3.076  35.573  1.00  0.00     0.044 C 
ENDROOT
BRANCH   1   2
ATOM      2  C   UNL     1      27.356  -2.598  35.258  1.00  0.00    -0.006 A 
ATOM      3  C   UNL     1      25.393  -2.667  33.823  1.00  0.00     0.001 A 
ATOM      4  C   UNL     1      24.784  -1.680  34.600  1.00  0.00     0.004 A 
ATOM      5  C   UNL     1      26.675  -3.121  34.146  1.00  0.00     0.007 A 
ATOM      6  C   UNL     1      25.457  -1.141  35.699  1.00  0.00     0.046 A 
ATOM      7  C   UNL     1      26.744  -1.589  36.031  1.00  0.00     0.118 A 
BRANCH   7   8
ATOM      8  O   UNL     1      27.414  -1.035  37.122  1.00  0.00    -0.508 OA
ATOM      9  H   UNL     1      28.257  -0.488  37.004  1.00  0.00     0.293 HD
ENDBRANCH   7   8
ENDBRANCH   1   2
BRANCH   1  10
ATOM     10  C   UNL     1      29.142  -4.239  34.656  1.00  0.00     0.040 C 
BRANCH  10  11
ATOM     11  C   UNL     1      30.613  -4.194  34.343  1.00  0.00    -0.040 A 
ATOM     12  C   UNL     1      31.532  -3.778  35.320  1.00  0.00     0.050 A 
ATOM     13  C   UNL     1      31.084  -4.622  33.091  1.00  0.00     0.050 A 
ATOM     14  C   UNL     1      32.903  -3.767  35.044  1.00  0.00     0.119 A 
ATOM     15  C   UNL     1      32.458  -4.613  32.812  1.00  0.00     0.119 A 
ATOM     16  C   UNL     1      33.363  -4.182  33.787  1.00  0.00     0.092 A 
BRANCH  14  17
ATOM     17  O   UNL     1      33.798  -3.344  36.024  1.00  0.00    -0.508 OA
ATOM     18  H   UNL     1      34.228  -2.426  35.988  1.00  0.00     0.293 HD
ENDBRANCH  14  17
BRANCH  15  19
ATOM     19  O   UNL     1      32.932  -5.029  31.570  1.00  0.00    -0.508 OA
ATOM     20  H   UNL     1      32.716  -5.949  31.201  1.00  0.00     0.293 HD
ENDBRANCH  15  19
ENDBRANCH  10  11
ENDBRANCH   1  10
TORSDOF 6
ENDMDL
MODEL 5
REMARK VINA RESULT:    -5.539      2.327      6.753
REMARK INTER + INTRA:          -7.383
REMARK INTER:                  -6.820
REMARK INTRA:                  -0.563
REMARK UNBOUND:                -0.387
REMARK SMILES Oc1cc(O)cc(CCc2ccccc2O)c1
REMARK SMILES IDX 9 1 10 2 12 3 13 4 11 5 14 6 15 7 16 8 8 10 7 11 6 12 17 13
REMARK SMILES IDX 4 14 2 15 3 16 5 17 1 19
REMARK H PARENT 16 9 5 18 1 20
REMARK Flexibility Score: inf
ROOT
ATOM      1  C   UNL     1      29.095  -3.250  35.773  1.00  0.00     0.044 C 
ENDROOT
BRANCH   1   2
ATOM      2  C   UNL     1      27.752  -2.814  35.244  1.00  0.00    -0.006 A 
ATOM      3  C   UNL     1      25.936  -3.100  33.652  1.00  0.00     0.001 A 
ATOM      4  C   UNL     1      25.285  -1.986  34.187  1.00  0.00     0.004 A 
ATOM      5  C   UNL     1      27.166  -3.510  34.174  1.00  0.00     0.007 A 
ATOM      6  C   UNL     1      25.865  -1.277  35.242  1.00  0.00     0.046 A 
ATOM      7  C   UNL     1      27.099  -1.680  35.771  1.00  0.00     0.118 A 
BRANCH   7   8
ATOM      8  O   UNL     1      27.678  -0.957  36.815  1.00  0.00    -0.508 OA
ATOM      9  H   UNL     1      27.679  -1.306  37.765  1.00  0.00     0.293 HD
ENDBRANCH   7   8
ENDBRANCH   1   2
BRANCH   1  10
ATOM     10  C   UNL     1      29.667  -4.385  34.919  1.00  0.00     0.040 C 
BRANCH  10  11
ATOM     11  C   UNL     1      30.930  -3.944  34.230  1.00  0.00    -0.040 A 
ATOM     12  C   UNL     1      31.459  -4.699  33.171  1.00  0.00     0.050 A 
ATOM     13  C   UNL     1      31.557  -2.744  34.601  1.00  0.00     0.050 A 
ATOM     14  C   UNL     1      32.613  -4.274  32.506  1.00  0.00     0.119 A 
ATOM     15  C   UNL     1      32.714  -2.315  33.936  1.00  0.00     0.119 A 
ATOM     16  C   UNL     1      33.242  -3.082  32.892  1.00  0.00     0.092 A 
BRANCH  14  17
ATOM     17  O   UNL     1      33.127  -5.041  31.462  1.00  0.00    -0.508 OA
ATOM     18  H   UNL     1      32.579  -5.773  31.024  1.00  0.00     0.293 HD
ENDBRANCH  14  17
BRANCH  15  19
ATOM     19  O   UNL     1      33.346  -1.129  34.304  1.00  0.00    -0.508 OA
ATOM     20  H   UNL     1      34.202  -1.132  34.848  1.00  0.00     0.293 HD
ENDBRANCH  15  19
ENDBRANCH  10  11
ENDBRANCH   1  10
TORSDOF 6
ENDMDL
MODEL 6
REMARK VINA RESULT:    -5.538      1.764      3.150
REMARK INTER + INTRA:          -7.381
REMARK INTER:                  -6.848
REMARK INTRA:                  -0.534
REMARK UNBOUND:                -0.387
REMARK SMILES Oc1cc(O)cc(CCc2ccccc2O)c1
REMARK SMILES IDX 9 1 10 2 12 3 13 4 11 5 14 6 15 7 16 8 8 10 7 11 6 12 17 13
REMARK SMILES IDX 4 14 2 15 3 16 5 17 1 19
REMARK H PARENT 16 9 5 18 1 20
REMARK Flexibility Score: inf
ROOT
ATOM      1  C   UNL     1      30.022  -4.121  35.284  1.00  0.00     0.044 C 
ENDROOT
BRANCH   1   2
ATOM      2  C   UNL     1      31.239  -3.958  34.408  1.00  0.00    -0.006 A 
ATOM      3  C   UNL     1      33.020  -4.963  33.093  1.00  0.00     0.001 A 
ATOM      4  C   UNL     1      33.549  -3.697  32.832  1.00  0.00     0.004 A 
ATOM      5  C   UNL     1      31.874  -5.095  33.881  1.00  0.00     0.007 A 
ATOM      6  C   UNL     1      32.935  -2.560  33.363  1.00  0.00     0.046 A 
ATOM      7  C   UNL     1      31.785  -2.682  34.157  1.00  0.00     0.118 A 
BRANCH   7   8
ATOM      8  O   UNL     1      31.187  -1.543  34.695  1.00  0.00    -0.508 OA
ATOM      9  H   UNL     1      30.258  -1.250  34.418  1.00  0.00     0.293 HD
ENDBRANCH   7   8
ENDBRANCH   1   2
BRANCH   1  10
ATOM     10  C   UNL     1      28.758  -4.257  34.431  1.00  0.00     0.040 C 
BRANCH  10  11
ATOM     11  C   UNL     1      27.731  -3.237  34.840  1.00  0.00    -0.040 A 
ATOM     12  C   UNL     1      27.988  -2.363  35.909  1.00  0.00     0.050 A 
ATOM     13  C   UNL     1      26.531  -3.111  34.120  1.00  0.00     0.050 A 
ATOM     14  C   UNL     1      27.050  -1.392  36.271  1.00  0.00     0.119 A 
ATOM     15  C   UNL     1      25.590  -2.137  34.480  1.00  0.00     0.119 A 
ATOM     16  C   UNL     1      25.849  -1.282  35.556  1.00  0.00     0.092 A 
BRANCH  14  17
ATOM     17  O   UNL     1      27.320  -0.539  37.339  1.00  0.00    -0.508 OA
ATOM     18  H   UNL     1      28.267  -0.255  37.563  1.00  0.00     0.293 HD
ENDBRANCH  14  17
BRANCH  15  19
ATOM     19  O   UNL     1      24.394  -2.011  33.776  1.00  0.00    -0.508 OA
ATOM     20  H   UNL     1      24.265  -1.288  33.077  1.00  0.00     0.293 HD
ENDBRANCH  15  19
ENDBRANCH  10  11
ENDBRANCH   1  10
TORSDOF 6
ENDMDL
MODEL 7
REMARK VINA RESULT:    -5.485      1.807      2.263
REMARK INTER + INTRA:          -7.314
REMARK INTER:                  -6.905
REMARK INTRA:                  -0.410
REMARK UNBOUND:                -0.387
REMARK SMILES Oc1cc(O)cc(CCc2ccccc2O)c1
REMARK SMILES IDX 9 1 10 2 12 3 13 4 11 5 14 6 15 7 16 8 8 10 7 11 6 12 17 13
REMARK SMILES IDX 4 14 2 15 3 16 5 17 1 19
REMARK H PARENT 16 9 5 18 1 20
REMARK Flexibility Score: inf
ROOT
ATOM      1  C   UNL     1      28.447  -2.753  36.299  1.00  0.00     0.044 C 
ENDROOT
BRANCH   1   2
ATOM      2  C   UNL     1      29.353  -3.492  35.348  1.00  0.00    -0.006 A 
ATOM      3  C   UNL     1      31.593  -3.948  34.519  1.00  0.00     0.001 A 
ATOM      4  C   UNL     1      31.065  -4.798  33.544  1.00  0.00     0.004 A 
ATOM      5  C   UNL     1      30.742  -3.294  35.413  1.00  0.00     0.007 A 
ATOM      6  C   UNL     1      29.685  -4.992  33.459  1.00  0.00     0.046 A 
ATOM      7  C   UNL     1      28.822  -4.338  34.352  1.00  0.00     0.118 A 
BRANCH   7   8
ATOM      8  O   UNL     1      27.443  -4.526  34.251  1.00  0.00    -0.508 OA
ATOM      9  H   UNL     1      27.044  -5.437  34.060  1.00  0.00     0.293 HD
ENDBRANCH   7   8
ENDBRANCH   1   2
BRANCH   1  10
ATOM     10  C   UNL     1      28.100  -1.367  35.748  1.00  0.00     0.040 C 
BRANCH  10  11
ATOM     11  C   UNL     1      26.617  -1.126  35.817  1.00  0.00    -0.040 A 
ATOM     12  C   UNL     1      25.735  -1.913  35.058  1.00  0.00     0.050 A 
ATOM     13  C   UNL     1      26.098  -0.150  36.684  1.00  0.00     0.050 A 
ATOM     14  C   UNL     1      24.354  -1.714  35.146  1.00  0.00     0.119 A 
ATOM     15  C   UNL     1      24.714   0.051  36.774  1.00  0.00     0.119 A 
ATOM     16  C   UNL     1      23.845  -0.728  36.003  1.00  0.00     0.092 A 
BRANCH  14  17
ATOM     17  O   UNL     1      23.496  -2.500  34.380  1.00  0.00    -0.508 OA
ATOM     18  H   UNL     1      22.516  -2.603  34.620  1.00  0.00     0.293 HD
ENDBRANCH  14  17
BRANCH  15  19
ATOM     19  O   UNL     1      24.192   1.021  37.626  1.00  0.00    -0.508 OA
ATOM     20  H   UNL     1      23.499   1.689  37.307  1.00  0.00     0.293 HD
ENDBRANCH  15  19
ENDBRANCH  10  11
ENDBRANCH   1  10
TORSDOF 6
ENDMDL
MODEL 8
REMARK VINA RESULT:    -5.475      1.832      2.827
REMARK INTER + INTRA:          -7.301
REMARK INTER:                  -6.884
REMARK INTRA:                  -0.417
REMARK UNBOUND:                -0.387
REMARK SMILES Oc1cc(O)cc(CCc2ccccc2O)c1
REMARK SMILES IDX 9 1 10 2 12 3 13 4 11 5 14 6 15 7 16 8 8 10 7 11 6 12 17 13
REMARK SMILES IDX 4 14 2 15 3 16 5 17 1 19
REMARK H PARENT 16 9 5 18 1 20
REMARK Flexibility Score: inf
ROOT
ATOM      1  C   UNL     1      28.454  -2.753  36.332  1.00  0.00     0.044 C 
ENDROOT
BRANCH   1   2
ATOM      2  C   UNL     1      29.355  -3.499  35.382  1.00  0.00    -0.006 A 
ATOM      3  C   UNL     1      31.597  -4.007  34.586  1.00  0.00     0.001 A 
ATOM      4  C   UNL     1      31.062  -4.819  33.583  1.00  0.00     0.004 A 
ATOM      5  C   UNL     1      30.749  -3.346  35.478  1.00  0.00     0.007 A 
ATOM      6  C   UNL     1      29.678  -4.968  33.468  1.00  0.00     0.046 A 
ATOM      7  C   UNL     1      28.819  -4.307  34.358  1.00  0.00     0.118 A 
BRANCH   7   8
ATOM      8  O   UNL     1      27.437  -4.450  34.227  1.00  0.00    -0.508 OA
ATOM      9  H   UNL     1      26.792  -3.838  34.710  1.00  0.00     0.293 HD
ENDBRANCH   7   8
ENDBRANCH   1   2
BRANCH   1  10
ATOM     10  C   UNL     1      28.103  -1.372  35.770  1.00  0.00     0.040 C 
BRANCH  10  11
ATOM     11  C   UNL     1      26.630  -1.100  35.916  1.00  0.00    -0.040 A 
ATOM     12  C   UNL     1      26.180  -0.078  36.768  1.00  0.00     0.050 A 
ATOM     13  C   UNL     1      25.698  -1.827  35.158  1.00  0.00     0.050 A 
ATOM     14  C   UNL     1      24.814   0.199  36.880  1.00  0.00     0.119 A 
ATOM     15  C   UNL     1      24.328  -1.551  35.268  1.00  0.00     0.119 A 
ATOM     16  C   UNL     1      23.889  -0.541  36.131  1.00  0.00     0.092 A 
BRANCH  14  17
ATOM     17  O   UNL     1      24.387   1.211  37.735  1.00  0.00    -0.508 OA
ATOM     18  H   UNL     1      23.421   1.520  37.750  1.00  0.00     0.293 HD
ENDBRANCH  14  17
BRANCH  15  19
ATOM     19  O   UNL     1      23.397  -2.273  34.526  1.00  0.00    -0.508 OA
ATOM     20  H   UNL     1      23.034  -3.162  34.851  1.00  0.00     0.293 HD
ENDBRANCH  15  19
ENDBRANCH  10  11
ENDBRANCH   1  10
TORSDOF 6
ENDMDL
MODEL 9
REMARK VINA RESULT:    -5.456      1.822      2.086
REMARK INTER + INTRA:          -7.278
REMARK INTER:                  -6.869
REMARK INTRA:                  -0.409
REMARK UNBOUND:                -0.387
REMARK SMILES Oc1cc(O)cc(CCc2ccccc2O)c1
REMARK SMILES IDX 9 1 10 2 12 3 13 4 11 5 14 6 15 7 16 8 8 10 7 11 6 12 17 13
REMARK SMILES IDX 4 14 2 15 3 16 5 17 1 19
REMARK H PARENT 16 9 5 18 1 20
REMARK Flexibility Score: inf
ROOT
ATOM      1  C   UNL     1      29.067  -3.135  35.684  1.00  0.00     0.044 C 
ENDROOT
BRANCH   1   2
ATOM      2  C   UNL     1      30.108  -3.748  34.782  1.00  0.00    -0.006 A 
ATOM      3  C   UNL     1      31.014  -5.706  33.659  1.00  0.00     0.001 A 
ATOM      4  C   UNL     1      32.070  -4.939  33.163  1.00  0.00     0.004 A 
ATOM      5  C   UNL     1      30.040  -5.116  34.469  1.00  0.00     0.007 A 
ATOM      6  C   UNL     1      32.157  -3.581  33.480  1.00  0.00     0.046 A 
ATOM      7  C   UNL     1      31.186  -2.980  34.293  1.00  0.00     0.118 A 
BRANCH   7   8
ATOM      8  O   UNL     1      31.288  -1.627  34.616  1.00  0.00    -0.508 OA
ATOM      9  H   UNL     1      32.115  -1.088  34.390  1.00  0.00     0.293 HD
ENDBRANCH   7   8
ENDBRANCH   1   2
BRANCH   1  10
ATOM     10  C   UNL     1      27.697  -3.129  35.000  1.00  0.00     0.040 C 
BRANCH  10  11
ATOM     11  C   UNL     1      26.832  -2.031  35.558  1.00  0.00    -0.040 A 
ATOM     12  C   UNL     1      25.653  -1.653  34.895  1.00  0.00     0.050 A 
ATOM     13  C   UNL     1      27.167  -1.414  36.774  1.00  0.00     0.050 A 
ATOM     14  C   UNL     1      24.830  -0.656  35.428  1.00  0.00     0.119 A 
ATOM     15  C   UNL     1      26.343  -0.415  37.311  1.00  0.00     0.119 A 
ATOM     16  C   UNL     1      25.179  -0.036  36.635  1.00  0.00     0.092 A 
BRANCH  14  17
ATOM     17  O   UNL     1      23.668  -0.291  34.752  1.00  0.00    -0.508 OA
ATOM     18  H   UNL     1      23.170  -0.948  34.162  1.00  0.00     0.293 HD
ENDBRANCH  14  17
BRANCH  15  19
ATOM     19  O   UNL     1      26.673   0.206  38.513  1.00  0.00    -0.508 OA
ATOM     20  H   UNL     1      26.230   1.072  38.801  1.00  0.00     0.293 HD
ENDBRANCH  15  19
ENDBRANCH  10  11
ENDBRANCH   1  10
TORSDOF 6
ENDMDL
