MODEL 1
REMARK VINA RESULT:    -3.159      0.000      0.000
REMARK INTER + INTRA:          -5.174
REMARK INTER:                  -4.821
REMARK INTRA:                  -0.353
REMARK UNBOUND:                -0.353
REMARK SMILES CC1=CCC[C@@H](C)C(=O)C[C@@H](C(C)C)C(=O)C1
REMARK SMILES IDX 8 1 9 2 6 3 7 4 5 5 4 6 3 7 2 8 1 9 10 11 11 12 15 13 16 14
REMARK SMILES IDX 17 15 12 17 13 18 14 19
REMARK H PARENT
REMARK Flexibility Score: 70.00
ROOT
ATOM      1  C   UNL     1     151.997 161.076 201.345  1.00  0.00     0.136 C 
ATOM      2  O   UNL     1     152.358 162.002 202.057  1.00  0.00    -0.299 OA
ENDROOT
BRANCH   1   3
ATOM      3  C   UNL     1     151.069 160.028 201.937  1.00  0.00     0.053 C 
ATOM      4  C   UNL     1     149.759 160.639 202.452  1.00  0.00     0.016 C 
BRANCH   3   5
ATOM      5  C   UNL     1     151.793 159.106 202.948  1.00  0.00     0.015 C 
BRANCH   5   6
ATOM      6  C   UNL     1     152.170 157.707 202.424  1.00  0.00     0.028 C 
BRANCH   6   7
ATOM      7  C   UNL     1     153.665 157.569 202.299  1.00  0.00    -0.028 C 
ATOM      8  C   UNL     1     154.323 157.396 201.130  1.00  0.00    -0.070 CG0
ATOM      9  C   UNL     1     155.818 157.205 201.181  1.00  0.00     0.039 C 
ATOM     10  G   UNL     1     153.627 157.407 199.776  1.00  0.00     0.000 G0
ENDBRANCH   6   7
ENDBRANCH   5   6
ENDBRANCH   3   5
ENDBRANCH   1   3
BRANCH   1  11
ATOM     11  C   UNL     1     152.518 161.018 199.926  1.00  0.00     0.087 C 
BRANCH  11  12
ATOM     12  C   UNL     1     152.248 159.644 199.260  1.00  0.00     0.066 C 
BRANCH  12  13
ATOM     13  C   UNL     1     153.504 158.784 199.152  1.00  0.00     0.140 C 
ATOM     14  O   UNL     1     154.493 159.264 198.617  1.00  0.00    -0.299 OA
BRANCH  13  15
ATOM     15  C   UNL     1     153.611 157.408 199.767  1.00  0.00     0.106 CG0
ATOM     16  G   UNL     1     154.320 157.423 201.114  1.00  0.00     0.000 G0
ENDBRANCH  13  15
ENDBRANCH  12  13
BRANCH  12  17
ATOM     17  C   UNL     1     151.448 159.771 197.925  1.00  0.00    -0.006 C 
ATOM     18  C   UNL     1     149.924 159.615 198.062  1.00  0.00     0.008 C 
ATOM     19  C   UNL     1     151.784 161.074 197.183  1.00  0.00     0.008 C 
ENDBRANCH  12  17
ENDBRANCH  11  12
ENDBRANCH   1  11
TORSDOF 1
ENDMDL
MODEL 2
REMARK VINA RESULT:    -3.021      1.877      2.629
REMARK INTER + INTRA:          -4.964
REMARK INTER:                  -4.777
REMARK INTRA:                  -0.187
REMARK UNBOUND:                -0.353
REMARK SMILES CC1=CCC[C@@H](C)C(=O)C[C@@H](C(C)C)C(=O)C1
REMARK SMILES IDX 8 1 9 2 6 3 7 4 5 5 4 6 3 7 2 8 1 9 10 11 11 12 15 13 16 14
REMARK SMILES IDX 17 15 12 17 13 18 14 19
REMARK H PARENT
REMARK Flexibility Score: 70.00
ROOT
ATOM      1  C   UNL     1     152.681 160.878 201.434  1.00  0.00     0.136 C 
ATOM      2  O   UNL     1     152.397 161.982 201.877  1.00  0.00    -0.299 OA
ENDROOT
BRANCH   1   3
ATOM      3  C   UNL     1     151.557 159.883 201.201  1.00  0.00     0.053 C 
ATOM      4  C   UNL     1     150.561 160.369 200.139  1.00  0.00     0.016 C 
BRANCH   3   5
ATOM      5  C   UNL     1     150.908 159.408 202.524  1.00  0.00     0.015 C 
BRANCH   5   6
ATOM      6  C   UNL     1     151.739 158.412 203.356  1.00  0.00     0.028 C 
BRANCH   6   7
ATOM      7  C   UNL     1     152.025 157.164 202.564  1.00  0.00    -0.028 C 
ATOM      8  C   UNL     1     153.264 156.705 202.277  1.00  0.00    -0.070 CG0
ATOM      9  C   UNL     1     153.381 155.475 201.412  1.00  0.00     0.039 C 
ATOM     10  G   UNL     1     154.535 157.360 202.802  1.00  0.00     0.000 G0
ENDBRANCH   6   7
ENDBRANCH   5   6
ENDBRANCH   3   5
ENDBRANCH   1   3
BRANCH   1  11
ATOM     11  C   UNL     1     154.137 160.565 201.170  1.00  0.00     0.087 C 
BRANCH  11  12
ATOM     12  C   UNL     1     154.352 159.081 200.775  1.00  0.00     0.066 C 
BRANCH  12  13
ATOM     13  C   UNL     1     155.174 158.309 201.803  1.00  0.00     0.140 C 
ATOM     14  O   UNL     1     156.371 158.544 201.885  1.00  0.00    -0.299 OA
BRANCH  13  15
ATOM     15  C   UNL     1     154.557 157.346 202.791  1.00  0.00     0.106 CG0
ATOM     16  G   UNL     1     153.271 156.719 202.269  1.00  0.00     0.000 G0
ENDBRANCH  13  15
ENDBRANCH  12  13
BRANCH  12  17
ATOM     17  C   UNL     1     154.858 158.919 199.306  1.00  0.00    -0.006 C 
ATOM     18  C   UNL     1     154.149 157.825 198.490  1.00  0.00     0.008 C 
ATOM     19  C   UNL     1     154.828 160.253 198.545  1.00  0.00     0.008 C 
ENDBRANCH  12  17
ENDBRANCH  11  12
ENDBRANCH   1  11
TORSDOF 1
ENDMDL
MODEL 3
REMARK VINA RESULT:    -2.999      2.339      4.344
REMARK INTER + INTRA:          -4.930
REMARK INTER:                  -4.596
REMARK INTRA:                  -0.334
REMARK UNBOUND:                -0.353
REMARK SMILES CC1=CCC[C@@H](C)C(=O)C[C@@H](C(C)C)C(=O)C1
REMARK SMILES IDX 8 1 9 2 6 3 7 4 5 5 4 6 3 7 2 8 1 9 10 11 11 12 15 13 16 14
REMARK SMILES IDX 17 15 12 17 13 18 14 19
REMARK H PARENT
REMARK Flexibility Score: 70.00
ROOT
ATOM      1  C   UNL     1     153.243 159.142 198.338  1.00  0.00     0.136 C 
ATOM      2  O   UNL     1     153.750 158.226 197.705  1.00  0.00    -0.299 OA
ENDROOT
BRANCH   1   3
ATOM      3  C   UNL     1     154.044 160.419 198.524  1.00  0.00     0.053 C 
ATOM      4  C   UNL     1     154.781 160.835 197.244  1.00  0.00     0.016 C 
BRANCH   3   5
ATOM      5  C   UNL     1     154.929 160.378 199.794  1.00  0.00     0.015 C 
BRANCH   5   6
ATOM      6  C   UNL     1     154.217 159.946 201.090  1.00  0.00     0.028 C 
BRANCH   6   7
ATOM      7  C   UNL     1     153.611 161.135 201.788  1.00  0.00    -0.028 C 
ATOM      8  C   UNL     1     152.290 161.287 202.035  1.00  0.00    -0.070 CG0
ATOM      9  C   UNL     1     151.835 162.571 202.683  1.00  0.00     0.039 C 
ATOM     10  G   UNL     1     151.255 160.220 201.707  1.00  0.00     0.000 G0
ENDBRANCH   6   7
ENDBRANCH   5   6
ENDBRANCH   3   5
ENDBRANCH   1   3
BRANCH   1  11
ATOM     11  C   UNL     1     151.860 158.935 198.915  1.00  0.00     0.087 C 
BRANCH  11  12
ATOM     12  C   UNL     1     151.081 160.268 199.053  1.00  0.00     0.066 C 
BRANCH  12  13
ATOM     13  C   UNL     1     150.472 160.455 200.441  1.00  0.00     0.140 C 
ATOM     14  O   UNL     1     149.288 160.749 200.521  1.00  0.00    -0.299 OA
BRANCH  13  15
ATOM     15  C   UNL     1     151.240 160.193 201.715  1.00  0.00     0.106 CG0
ATOM     16  G   UNL     1     152.272 161.273 202.008  1.00  0.00     0.000 G0
ENDBRANCH  13  15
ENDBRANCH  12  13
BRANCH  12  17
ATOM     17  C   UNL     1     150.074 160.500 197.882  1.00  0.00    -0.006 C 
ATOM     18  C   UNL     1     150.402 161.694 196.968  1.00  0.00     0.008 C 
ATOM     19  C   UNL     1     149.877 159.228 197.043  1.00  0.00     0.008 C 
ENDBRANCH  12  17
ENDBRANCH  11  12
ENDBRANCH   1  11
TORSDOF 1
ENDMDL
MODEL 4
REMARK VINA RESULT:    -2.981      1.932      4.167
REMARK INTER + INTRA:          -4.903
REMARK INTER:                  -4.489
REMARK INTRA:                  -0.414
REMARK UNBOUND:                -0.353
REMARK SMILES CC1=CCC[C@@H](C)C(=O)C[C@@H](C(C)C)C(=O)C1
REMARK SMILES IDX 8 1 9 2 6 3 7 4 5 5 4 6 3 7 2 8 1 9 10 11 11 12 15 13 16 14
REMARK SMILES IDX 17 15 12 17 13 18 14 19
REMARK H PARENT
REMARK Flexibility Score: 70.00
ROOT
ATOM      1  C   UNL     1     155.410 159.576 200.970  1.00  0.00     0.136 C 
ATOM      2  O   UNL     1     156.602 159.816 200.832  1.00  0.00    -0.299 OA
ENDROOT
BRANCH   1   3
ATOM      3  C   UNL     1     154.978 158.125 201.101  1.00  0.00     0.053 C 
ATOM      4  C   UNL     1     155.135 157.599 202.534  1.00  0.00     0.016 C 
BRANCH   3   5
ATOM      5  C   UNL     1     155.605 157.224 200.009  1.00  0.00     0.015 C 
BRANCH   5   6
ATOM      6  C   UNL     1     155.316 157.640 198.553  1.00  0.00     0.028 C 
BRANCH   6   7
ATOM      7  C   UNL     1     153.873 157.392 198.204  1.00  0.00    -0.028 C 
ATOM      8  C   UNL     1     152.957 158.366 197.997  1.00  0.00    -0.070 CG0
ATOM      9  C   UNL     1     151.533 157.952 197.722  1.00  0.00     0.039 C 
ATOM     10  G   UNL     1     153.303 159.849 198.009  1.00  0.00     0.000 G0
ENDBRANCH   6   7
ENDBRANCH   5   6
ENDBRANCH   3   5
ENDBRANCH   1   3
BRANCH   1  11
ATOM     11  C   UNL     1     154.441 160.737 200.978  1.00  0.00     0.087 C 
BRANCH  11  12
ATOM     12  C   UNL     1     152.999 160.296 200.619  1.00  0.00     0.066 C 
BRANCH  12  13
ATOM     13  C   UNL     1     152.638 160.586 199.164  1.00  0.00     0.140 C 
ATOM     14  O   UNL     1     151.860 161.500 198.931  1.00  0.00    -0.299 OA
BRANCH  13  15
ATOM     15  C   UNL     1     153.276 159.864 198.001  1.00  0.00     0.106 CG0
ATOM     16  G   UNL     1     152.972 158.372 198.002  1.00  0.00     0.000 G0
ENDBRANCH  13  15
ENDBRANCH  12  13
BRANCH  12  17
ATOM     17  C   UNL     1     151.942 160.803 201.650  1.00  0.00    -0.006 C 
ATOM     18  C   UNL     1     151.484 159.758 202.682  1.00  0.00     0.008 C 
ATOM     19  C   UNL     1     152.411 162.082 202.361  1.00  0.00     0.008 C 
ENDBRANCH  12  17
ENDBRANCH  11  12
ENDBRANCH   1  11
TORSDOF 1
ENDMDL
MODEL 5
REMARK VINA RESULT:    -2.855      1.718      4.047
REMARK INTER + INTRA:          -4.711
REMARK INTER:                  -4.877
REMARK INTRA:                   0.166
REMARK UNBOUND:                -0.353
REMARK SMILES CC1=CCC[C@@H](C)C(=O)C[C@@H](C(C)C)C(=O)C1
REMARK SMILES IDX 8 1 9 2 6 3 7 4 5 5 4 6 3 7 2 8 1 9 10 11 11 12 15 13 16 14
REMARK SMILES IDX 17 15 12 17 13 18 14 19
REMARK H PARENT
REMARK Flexibility Score: 70.00
ROOT
ATOM      1  C   UNL     1     151.504 159.796 202.372  1.00  0.00     0.136 C 
ATOM      2  O   UNL     1     150.428 160.081 202.880  1.00  0.00    -0.299 OA
ENDROOT
BRANCH   1   3
ATOM      3  C   UNL     1     152.281 160.893 201.664  1.00  0.00     0.053 C 
ATOM      4  C   UNL     1     152.182 162.239 202.395  1.00  0.00     0.016 C 
BRANCH   3   5
ATOM      5  C   UNL     1     151.962 160.956 200.150  1.00  0.00     0.015 C 
BRANCH   5   6
ATOM      6  C   UNL     1     153.102 160.518 199.209  1.00  0.00     0.028 C 
BRANCH   6   7
ATOM      7  C   UNL     1     152.570 159.665 198.088  1.00  0.00    -0.028 C 
ATOM      8  C   UNL     1     152.808 158.340 197.953  1.00  0.00    -0.070 CG0
ATOM      9  C   UNL     1     152.259 157.643 196.734  1.00  0.00     0.039 C 
ATOM     10  G   UNL     1     153.582 157.527 198.982  1.00  0.00     0.000 G0
ENDBRANCH   6   7
ENDBRANCH   5   6
ENDBRANCH   3   5
ENDBRANCH   1   3
BRANCH   1  11
ATOM     11  C   UNL     1     151.981 158.363 202.461  1.00  0.00     0.087 C 
BRANCH  11  12
ATOM     12  C   UNL     1     153.211 158.100 201.555  1.00  0.00     0.066 C 
BRANCH  12  13
ATOM     13  C   UNL     1     152.857 157.326 200.288  1.00  0.00     0.140 C 
ATOM     14  O   UNL     1     151.880 156.591 200.311  1.00  0.00    -0.299 OA
BRANCH  13  15
ATOM     15  C   UNL     1     153.598 157.504 198.983  1.00  0.00     0.106 CG0
ATOM     16  G   UNL     1     152.815 158.335 197.976  1.00  0.00     0.000 G0
ENDBRANCH  13  15
ENDBRANCH  12  13
BRANCH  12  17
ATOM     17  C   UNL     1     154.422 157.509 202.344  1.00  0.00    -0.006 C 
ATOM     18  C   UNL     1     154.611 155.989 202.204  1.00  0.00     0.008 C 
ATOM     19  C   UNL     1     155.731 158.240 202.005  1.00  0.00     0.008 C 
ENDBRANCH  12  17
ENDBRANCH  11  12
ENDBRANCH   1  11
TORSDOF 1
ENDMDL
MODEL 6
REMARK VINA RESULT:    -2.801      2.032      5.195
REMARK INTER + INTRA:          -4.628
REMARK INTER:                  -4.289
REMARK INTRA:                  -0.340
REMARK UNBOUND:                -0.353
REMARK SMILES CC1=CCC[C@@H](C)C(=O)C[C@@H](C(C)C)C(=O)C1
REMARK SMILES IDX 8 1 9 2 6 3 7 4 5 5 4 6 3 7 2 8 1 9 10 11 11 12 15 13 16 14
REMARK SMILES IDX 17 15 12 17 13 18 14 19
REMARK H PARENT
REMARK Flexibility Score: 70.00
ROOT
ATOM      1  C   UNL     1     155.097 157.546 201.061  1.00  0.00     0.136 C 
ATOM      2  O   UNL     1     155.068 156.360 200.762  1.00  0.00    -0.299 OA
ENDROOT
BRANCH   1   3
ATOM      3  C   UNL     1     155.954 158.480 200.225  1.00  0.00     0.053 C 
ATOM      4  C   UNL     1     156.575 159.605 201.065  1.00  0.00     0.016 C 
BRANCH   3   5
ATOM      5  C   UNL     1     155.228 158.957 198.944  1.00  0.00     0.015 C 
BRANCH   5   6
ATOM      6  C   UNL     1     154.681 160.397 198.983  1.00  0.00     0.028 C 
BRANCH   6   7
ATOM      7  C   UNL     1     153.190 160.407 198.768  1.00  0.00    -0.028 C 
ATOM      8  C   UNL     1     152.273 160.442 199.762  1.00  0.00    -0.070 CG0
ATOM      9  C   UNL     1     150.815 160.377 199.383  1.00  0.00     0.039 C 
ATOM     10  G   UNL     1     152.648 160.564 201.233  1.00  0.00     0.000 G0
ENDBRANCH   6   7
ENDBRANCH   5   6
ENDBRANCH   3   5
ENDBRANCH   1   3
BRANCH   1  11
ATOM     11  C   UNL     1     154.295 158.001 202.261  1.00  0.00     0.087 C 
BRANCH  11  12
ATOM     12  C   UNL     1     152.772 158.022 201.971  1.00  0.00     0.066 C 
BRANCH  12  13
ATOM     13  C   UNL     1     152.169 159.420 202.081  1.00  0.00     0.140 C 
ATOM     14  O   UNL     1     151.324 159.621 202.942  1.00  0.00    -0.299 OA
BRANCH  13  15
ATOM     15  C   UNL     1     152.643 160.586 201.245  1.00  0.00     0.106 CG0
ATOM     16  G   UNL     1     152.292 160.430 199.772  1.00  0.00     0.000 G0
ENDBRANCH  13  15
ENDBRANCH  12  13
BRANCH  12  17
ATOM     17  C   UNL     1     151.994 156.929 202.770  1.00  0.00    -0.006 C 
ATOM     18  C   UNL     1     151.655 155.657 201.973  1.00  0.00     0.008 C 
ATOM     19  C   UNL     1     152.714 156.561 204.076  1.00  0.00     0.008 C 
ENDBRANCH  12  17
ENDBRANCH  11  12
ENDBRANCH   1  11
TORSDOF 1
ENDMDL
MODEL 7
REMARK VINA RESULT:    -2.795      2.085      4.341
REMARK INTER + INTRA:          -4.619
REMARK INTER:                  -4.139
REMARK INTRA:                  -0.480
REMARK UNBOUND:                -0.353
REMARK SMILES CC1=CCC[C@@H](C)C(=O)C[C@@H](C(C)C)C(=O)C1
REMARK SMILES IDX 8 1 9 2 6 3 7 4 5 5 4 6 3 7 2 8 1 9 10 11 11 12 15 13 16 14
REMARK SMILES IDX 17 15 12 17 13 18 14 19
REMARK H PARENT
REMARK Flexibility Score: 70.00
ROOT
ATOM      1  C   UNL     1     152.142 159.083 201.001  1.00  0.00     0.136 C 
ATOM      2  O   UNL     1     151.819 158.604 202.079  1.00  0.00    -0.299 OA
ENDROOT
BRANCH   1   3
ATOM      3  C   UNL     1     151.685 160.494 200.672  1.00  0.00     0.053 C 
ATOM      4  C   UNL     1     152.015 161.487 201.795  1.00  0.00     0.016 C 
BRANCH   3   5
ATOM      5  C   UNL     1     150.217 160.538 200.182  1.00  0.00     0.015 C 
BRANCH   5   6
ATOM      6  C   UNL     1     149.968 159.971 198.770  1.00  0.00     0.028 C 
BRANCH   6   7
ATOM      7  C   UNL     1     150.682 160.795 197.731  1.00  0.00    -0.028 C 
ATOM      8  C   UNL     1     151.733 160.361 196.999  1.00  0.00    -0.070 CG0
ATOM      9  C   UNL     1     152.382 161.333 196.047  1.00  0.00     0.039 C 
ATOM     10  G   UNL     1     152.271 158.939 197.082  1.00  0.00     0.000 G0
ENDBRANCH   6   7
ENDBRANCH   5   6
ENDBRANCH   3   5
ENDBRANCH   1   3
BRANCH   1  11
ATOM     11  C   UNL     1     152.955 158.229 200.053  1.00  0.00     0.087 C 
BRANCH  11  12
ATOM     12  C   UNL     1     153.911 159.080 199.176  1.00  0.00     0.066 C 
BRANCH  12  13
ATOM     13  C   UNL     1     153.668 158.888 197.681  1.00  0.00     0.140 C 
ATOM     14  O   UNL     1     154.622 158.606 196.970  1.00  0.00    -0.299 OA
BRANCH  13  15
ATOM     15  C   UNL     1     152.291 158.930 197.062  1.00  0.00     0.106 CG0
ATOM     16  G   UNL     1     151.732 160.344 196.975  1.00  0.00     0.000 G0
ENDBRANCH  13  15
ENDBRANCH  12  13
BRANCH  12  17
ATOM     17  C   UNL     1     155.406 158.932 199.602  1.00  0.00    -0.006 C 
ATOM     18  C   UNL     1     155.993 160.142 200.349  1.00  0.00     0.008 C 
ATOM     19  C   UNL     1     155.643 157.645 200.406  1.00  0.00     0.008 C 
ENDBRANCH  12  17
ENDBRANCH  11  12
ENDBRANCH   1  11
TORSDOF 1
ENDMDL
MODEL 8
REMARK VINA RESULT:    -2.793      1.978      4.464
REMARK INTER + INTRA:          -4.615
REMARK INTER:                  -4.270
REMARK INTRA:                  -0.345
REMARK UNBOUND:                -0.353
REMARK SMILES CC1=CCC[C@@H](C)C(=O)C[C@@H](C(C)C)C(=O)C1
REMARK SMILES IDX 8 1 9 2 6 3 7 4 5 5 4 6 3 7 2 8 1 9 10 11 11 12 15 13 16 14
REMARK SMILES IDX 17 15 12 17 13 18 14 19
REMARK H PARENT
REMARK Flexibility Score: 70.00
ROOT
ATOM      1  C   UNL     1     152.391 156.821 202.197  1.00  0.00     0.136 C 
ATOM      2  O   UNL     1     151.555 155.957 202.417  1.00  0.00    -0.299 OA
ENDROOT
BRANCH   1   3
ATOM      3  C   UNL     1     152.579 157.923 203.226  1.00  0.00     0.053 C 
ATOM      4  C   UNL     1     152.804 157.366 204.638  1.00  0.00     0.016 C 
BRANCH   3   5
ATOM      5  C   UNL     1     151.483 159.012 203.128  1.00  0.00     0.015 C 
BRANCH   5   6
ATOM      6  C   UNL     1     151.862 160.271 202.324  1.00  0.00     0.028 C 
BRANCH   6   7
ATOM      7  C   UNL     1     151.149 160.291 200.998  1.00  0.00    -0.028 C 
ATOM      8  C   UNL     1     151.768 160.318 199.795  1.00  0.00    -0.070 CG0
ATOM      9  C   UNL     1     150.909 160.406 198.559  1.00  0.00     0.039 C 
ATOM     10  G   UNL     1     153.281 160.244 199.638  1.00  0.00     0.000 G0
ENDBRANCH   6   7
ENDBRANCH   5   6
ENDBRANCH   3   5
ENDBRANCH   1   3
BRANCH   1  11
ATOM     11  C   UNL     1     153.169 156.751 200.901  1.00  0.00     0.087 C 
BRANCH  11  12
ATOM     12  C   UNL     1     154.127 157.958 200.730  1.00  0.00     0.066 C 
BRANCH  12  13
ATOM     13  C   UNL     1     153.782 158.819 199.517  1.00  0.00     0.140 C 
ATOM     14  O   UNL     1     153.835 158.307 198.408  1.00  0.00    -0.299 OA
BRANCH  13  15
ATOM     15  C   UNL     1     153.280 160.239 199.636  1.00  0.00     0.106 CG0
ATOM     16  G   UNL     1     151.767 160.315 199.785  1.00  0.00     0.000 G0
ENDBRANCH  13  15
ENDBRANCH  12  13
BRANCH  12  17
ATOM     17  C   UNL     1     155.631 157.547 200.809  1.00  0.00    -0.006 C 
ATOM     18  C   UNL     1     156.523 158.493 201.632  1.00  0.00     0.008 C 
ATOM     19  C   UNL     1     155.799 156.100 201.298  1.00  0.00     0.008 C 
ENDBRANCH  12  17
ENDBRANCH  11  12
ENDBRANCH   1  11
TORSDOF 1
ENDMDL
MODEL 9
REMARK VINA RESULT:    -2.689      1.804      2.221
REMARK INTER + INTRA:          -4.458
REMARK INTER:                  -4.674
REMARK INTRA:                   0.217
REMARK UNBOUND:                -0.353
REMARK SMILES CC1=CCC[C@@H](C)C(=O)C[C@@H](C(C)C)C(=O)C1
REMARK SMILES IDX 8 1 9 2 6 3 7 4 5 5 4 6 3 7 2 8 1 9 10 11 11 12 15 13 16 14
REMARK SMILES IDX 17 15 12 17 13 18 14 19
REMARK H PARENT
REMARK Flexibility Score: 70.00
ROOT
ATOM      1  C   UNL     1     150.225 160.589 199.964  1.00  0.00     0.136 C 
ATOM      2  O   UNL     1     149.015 160.569 199.788  1.00  0.00    -0.299 OA
ENDROOT
BRANCH   1   3
ATOM      3  C   UNL     1     150.750 160.446 201.382  1.00  0.00     0.053 C 
ATOM      4  C   UNL     1     149.625 160.488 202.425  1.00  0.00     0.016 C 
BRANCH   3   5
ATOM      5  C   UNL     1     151.934 161.401 201.671  1.00  0.00     0.015 C 
BRANCH   5   6
ATOM      6  C   UNL     1     153.303 160.952 201.123  1.00  0.00     0.028 C 
BRANCH   6   7
ATOM      7  C   UNL     1     153.532 159.489 201.395  1.00  0.00    -0.028 C 
ATOM      8  C   UNL     1     153.578 158.531 200.440  1.00  0.00    -0.070 CG0
ATOM      9  C   UNL     1     153.747 157.099 200.883  1.00  0.00     0.039 C 
ATOM     10  G   UNL     1     153.488 158.836 198.952  1.00  0.00     0.000 G0
ENDBRANCH   6   7
ENDBRANCH   5   6
ENDBRANCH   3   5
ENDBRANCH   1   3
BRANCH   1  11
ATOM     11  C   UNL     1     151.121 160.780 198.760  1.00  0.00     0.087 C 
BRANCH  11  12
ATOM     12  C   UNL     1     151.159 159.521 197.856  1.00  0.00     0.066 C 
BRANCH  12  13
ATOM     13  C   UNL     1     152.156 158.474 198.344  1.00  0.00     0.140 C 
ATOM     14  O   UNL     1     151.891 157.293 198.169  1.00  0.00    -0.299 OA
BRANCH  13  15
ATOM     15  C   UNL     1     153.498 158.834 198.940  1.00  0.00     0.106 CG0
ATOM     16  G   UNL     1     153.575 158.536 200.431  1.00  0.00     0.000 G0
ENDBRANCH  13  15
ENDBRANCH  12  13
BRANCH  12  17
ATOM     17  C   UNL     1     151.299 159.874 196.341  1.00  0.00    -0.006 C 
ATOM     18  C   UNL     1     149.974 159.931 195.561  1.00  0.00     0.008 C 
ATOM     19  C   UNL     1     152.095 161.171 196.132  1.00  0.00     0.008 C 
ENDBRANCH  12  17
ENDBRANCH  11  12
ENDBRANCH   1  11
TORSDOF 1
ENDMDL
