MODEL 1
REMARK VINA RESULT:    -2.011      0.000      0.000
REMARK INTER + INTRA:          -2.639
REMARK INTER:                  -2.482
REMARK INTRA:                  -0.157
REMARK UNBOUND:                -0.157
REMARK SMILES CCCCC=CC(C)=O
REMARK SMILES IDX 4 1 3 2 2 3 1 4 5 5 6 6 7 7 9 8 8 9
REMARK H PARENT
REMARK Flexibility Score: inf
ROOT
ATOM      1  C   UNL     1      32.369  23.909  27.813  1.00  0.00     0.027 C 
ENDROOT
BRANCH   1   2
ATOM      2  C   UNL     1      31.863  22.644  28.523  1.00  0.00     0.004 C 
BRANCH   2   3
ATOM      3  C   UNL     1      31.486  21.526  27.538  1.00  0.00    -0.003 C 
ATOM      4  C   UNL     1      29.975  21.322  27.428  1.00  0.00     0.004 C 
ENDBRANCH   2   3
ENDBRANCH   1   2
BRANCH   1   5
ATOM      5  C   UNL     1      33.842  23.821  27.535  1.00  0.00    -0.023 C 
ATOM      6  C   UNL     1      34.726  23.595  28.514  1.00  0.00     0.042 C 
BRANCH   6   7
ATOM      7  C   UNL     1      36.176  23.518  28.265  1.00  0.00     0.152 C 
ATOM      8  O   UNL     1      36.629  23.488  27.088  1.00  0.00    -0.295 OA
ATOM      9  C   UNL     1      37.124  23.471  29.419  1.00  0.00     0.093 C 
ENDBRANCH   6   7
ENDBRANCH   1   5
TORSDOF 4
ENDMDL
MODEL 2
REMARK VINA RESULT:    -1.897      2.390      5.075
REMARK INTER + INTRA:          -2.498
REMARK INTER:                  -2.319
REMARK INTRA:                  -0.179
REMARK UNBOUND:                -0.157
REMARK SMILES CCCCC=CC(C)=O
REMARK SMILES IDX 4 1 3 2 2 3 1 4 5 5 6 6 7 7 9 8 8 9
REMARK H PARENT
REMARK Flexibility Score: inf
ROOT
ATOM      1  C   UNL     1      34.800  23.872  28.188  1.00  0.00     0.027 C 
ENDROOT
BRANCH   1   2
ATOM      2  C   UNL     1      35.450  23.024  27.084  1.00  0.00     0.004 C 
BRANCH   2   3
ATOM      3  C   UNL     1      36.897  22.629  27.420  1.00  0.00    -0.003 C 
ATOM      4  C   UNL     1      37.125  22.443  28.919  1.00  0.00     0.004 C 
ENDBRANCH   2   3
ENDBRANCH   1   2
BRANCH   1   5
ATOM      5  C   UNL     1      33.305  23.876  28.058  1.00  0.00    -0.023 C 
ATOM      6  C   UNL     1      32.545  22.978  28.695  1.00  0.00     0.042 C 
BRANCH   6   7
ATOM      7  C   UNL     1      31.077  22.955  28.570  1.00  0.00     0.152 C 
ATOM      8  O   UNL     1      30.372  23.877  29.066  1.00  0.00    -0.295 OA
ATOM      9  C   UNL     1      30.412  21.827  27.850  1.00  0.00     0.093 C 
ENDBRANCH   6   7
ENDBRANCH   1   5
TORSDOF 4
ENDMDL
MODEL 3
REMARK VINA RESULT:    -1.829     21.443     22.857
REMARK INTER + INTRA:          -2.414
REMARK INTER:                  -2.234
REMARK INTRA:                  -0.181
REMARK UNBOUND:                -0.157
REMARK SMILES CCCCC=CC(C)=O
REMARK SMILES IDX 4 1 3 2 2 3 1 4 5 5 6 6 7 7 9 8 8 9
REMARK H PARENT
REMARK Flexibility Score: inf
ROOT
ATOM      1  C   UNL     1      21.150  21.544  46.421  1.00  0.00     0.027 C 
ENDROOT
BRANCH   1   2
ATOM      2  C   UNL     1      22.201  22.644  46.631  1.00  0.00     0.004 C 
BRANCH   2   3
ATOM      3  C   UNL     1      23.247  22.683  45.506  1.00  0.00    -0.003 C 
ATOM      4  C   UNL     1      24.627  23.115  45.999  1.00  0.00     0.004 C 
ENDBRANCH   2   3
ENDBRANCH   1   2
BRANCH   1   5
ATOM      5  C   UNL     1      19.770  22.125  46.318  1.00  0.00    -0.023 C 
ATOM      6  C   UNL     1      19.501  23.149  45.499  1.00  0.00     0.042 C 
BRANCH   6   7
ATOM      7  C   UNL     1      18.157  23.744  45.393  1.00  0.00     0.152 C 
ATOM      8  O   UNL     1      17.651  23.999  44.266  1.00  0.00    -0.295 OA
ATOM      9  C   UNL     1      17.385  24.052  46.634  1.00  0.00     0.093 C 
ENDBRANCH   6   7
ENDBRANCH   1   5
TORSDOF 4
ENDMDL
MODEL 4
REMARK VINA RESULT:    -0.881      2.612      3.499
REMARK INTER + INTRA:          -1.244
REMARK INTER:                  -1.049
REMARK INTRA:                  -0.195
REMARK UNBOUND:                -0.157
REMARK SMILES CCCCC=CC(C)=O
REMARK SMILES IDX 4 1 3 2 2 3 1 4 5 5 6 6 7 7 9 8 8 9
REMARK H PARENT
REMARK Flexibility Score: inf
ROOT
ATOM      1  C   UNL     1      30.716  22.966  29.733  1.00  0.00     0.027 C 
ENDROOT
BRANCH   1   2
ATOM      2  C   UNL     1      30.895  24.125  30.726  1.00  0.00     0.004 C 
BRANCH   2   3
ATOM      3  C   UNL     1      30.386  23.778  32.134  1.00  0.00    -0.003 C 
ATOM      4  C   UNL     1      31.411  24.088  33.225  1.00  0.00     0.004 C 
ENDBRANCH   2   3
ENDBRANCH   1   2
BRANCH   1   5
ATOM      5  C   UNL     1      31.944  22.782  28.889  1.00  0.00    -0.023 C 
ATOM      6  C   UNL     1      32.942  23.674  28.903  1.00  0.00     0.042 C 
BRANCH   6   7
ATOM      7  C   UNL     1      34.150  23.519  28.073  1.00  0.00     0.152 C 
ATOM      8  O   UNL     1      34.071  23.080  26.892  1.00  0.00    -0.295 OA
ATOM      9  C   UNL     1      35.485  23.883  28.635  1.00  0.00     0.093 C 
ENDBRANCH   6   7
ENDBRANCH   1   5
TORSDOF 4
ENDMDL
MODEL 5
REMARK VINA RESULT:    -0.643      3.726      5.060
REMARK INTER + INTRA:          -0.950
REMARK INTER:                  -0.694
REMARK INTRA:                  -0.256
REMARK UNBOUND:                -0.157
REMARK SMILES CCCCC=CC(C)=O
REMARK SMILES IDX 4 1 3 2 2 3 1 4 5 5 6 6 7 7 9 8 8 9
REMARK H PARENT
REMARK Flexibility Score: inf
ROOT
ATOM      1  C   UNL     1      31.611  23.708  28.228  1.00  0.00     0.027 C 
ENDROOT
BRANCH   1   2
ATOM      2  C   UNL     1      32.794  22.732  28.137  1.00  0.00     0.004 C 
BRANCH   2   3
ATOM      3  C   UNL     1      34.078  23.409  27.629  1.00  0.00    -0.003 C 
ATOM      4  C   UNL     1      34.873  24.079  28.749  1.00  0.00     0.004 C 
ENDBRANCH   2   3
ENDBRANCH   1   2
BRANCH   1   5
ATOM      5  C   UNL     1      30.965  23.652  29.582  1.00  0.00    -0.023 C 
ATOM      6  C   UNL     1      31.582  24.125  30.671  1.00  0.00     0.042 C 
BRANCH   6   7
ATOM      7  C   UNL     1      30.973  24.067  32.012  1.00  0.00     0.152 C 
ATOM      8  O   UNL     1      29.720  24.005  32.150  1.00  0.00    -0.295 OA
ATOM      9  C   UNL     1      31.847  24.086  33.223  1.00  0.00     0.093 C 
ENDBRANCH   6   7
ENDBRANCH   1   5
TORSDOF 4
ENDMDL
MODEL 6
REMARK VINA RESULT:    -0.208      1.595      2.258
REMARK INTER + INTRA:          -0.414
REMARK INTER:                  -0.238
REMARK INTRA:                  -0.176
REMARK UNBOUND:                -0.157
REMARK SMILES CCCCC=CC(C)=O
REMARK SMILES IDX 4 1 3 2 2 3 1 4 5 5 6 6 7 7 9 8 8 9
REMARK H PARENT
REMARK Flexibility Score: inf
ROOT
ATOM      1  C   UNL     1      30.833  22.341  28.005  1.00  0.00     0.027 C 
ENDROOT
BRANCH   1   2
ATOM      2  C   UNL     1      30.918  21.196  26.984  1.00  0.00     0.004 C 
BRANCH   2   3
ATOM      3  C   UNL     1      29.604  20.406  26.876  1.00  0.00    -0.003 C 
ATOM      4  C   UNL     1      28.407  21.172  27.436  1.00  0.00     0.004 C 
ENDBRANCH   2   3
ENDBRANCH   1   2
BRANCH   1   5
ATOM      5  C   UNL     1      32.058  23.207  27.949  1.00  0.00    -0.023 C 
ATOM      6  C   UNL     1      33.273  22.719  28.225  1.00  0.00     0.042 C 
BRANCH   6   7
ATOM      7  C   UNL     1      34.486  23.554  28.190  1.00  0.00     0.152 C 
ATOM      8  O   UNL     1      35.061  23.905  29.257  1.00  0.00    -0.295 OA
ATOM      9  C   UNL     1      35.044  23.994  26.875  1.00  0.00     0.093 C 
ENDBRANCH   6   7
ENDBRANCH   1   5
TORSDOF 4
ENDMDL
MODEL 7
REMARK VINA RESULT:     0.419      3.667      4.925
REMARK INTER + INTRA:           0.360
REMARK INTER:                   0.623
REMARK INTRA:                  -0.262
REMARK UNBOUND:                -0.157
REMARK SMILES CCCCC=CC(C)=O
REMARK SMILES IDX 4 1 3 2 2 3 1 4 5 5 6 6 7 7 9 8 8 9
REMARK H PARENT
REMARK Flexibility Score: inf
ROOT
ATOM      1  C   UNL     1      32.492  23.444  28.836  1.00  0.00     0.027 C 
ENDROOT
BRANCH   1   2
ATOM      2  C   UNL     1      31.679  23.046  27.594  1.00  0.00     0.004 C 
BRANCH   2   3
ATOM      3  C   UNL     1      31.234  21.575  27.629  1.00  0.00    -0.003 C 
ATOM      4  C   UNL     1      29.714  21.418  27.600  1.00  0.00     0.004 C 
ENDBRANCH   2   3
ENDBRANCH   1   2
BRANCH   1   5
ATOM      5  C   UNL     1      31.602  23.997  29.911  1.00  0.00    -0.023 C 
ATOM      6  C   UNL     1      31.440  23.365  31.078  1.00  0.00     0.042 C 
BRANCH   6   7
ATOM      7  C   UNL     1      30.561  23.883  32.142  1.00  0.00     0.152 C 
ATOM      8  O   UNL     1      31.015  24.124  33.294  1.00  0.00    -0.295 OA
ATOM      9  C   UNL     1      29.115  24.124  31.855  1.00  0.00     0.093 C 
ENDBRANCH   6   7
ENDBRANCH   1   5
TORSDOF 4
ENDMDL
MODEL 8
REMARK VINA RESULT:     0.631     16.899     17.412
REMARK INTER + INTRA:           0.621
REMARK INTER:                   0.813
REMARK INTRA:                  -0.192
REMARK UNBOUND:                -0.157
REMARK SMILES CCCCC=CC(C)=O
REMARK SMILES IDX 4 1 3 2 2 3 1 4 5 5 6 6 7 7 9 8 8 9
REMARK H PARENT
REMARK Flexibility Score: inf
ROOT
ATOM      1  C   UNL     1      34.282  12.445  40.391  1.00  0.00     0.027 C 
ENDROOT
BRANCH   1   2
ATOM      2  C   UNL     1      33.334  11.556  41.210  1.00  0.00     0.004 C 
BRANCH   2   3
ATOM      3  C   UNL     1      32.815  10.352  40.408  1.00  0.00    -0.003 C 
ATOM      4  C   UNL     1      33.935   9.409  39.971  1.00  0.00     0.004 C 
ENDBRANCH   2   3
ENDBRANCH   1   2
BRANCH   1   5
ATOM      5  C   UNL     1      34.862  13.542  41.236  1.00  0.00    -0.023 C 
ATOM      6  C   UNL     1      35.220  13.329  42.508  1.00  0.00     0.042 C 
BRANCH   6   7
ATOM      7  C   UNL     1      35.779  14.394  43.360  1.00  0.00     0.152 C 
ATOM      8  O   UNL     1      36.944  14.298  43.833  1.00  0.00    -0.295 OA
ATOM      9  C   UNL     1      34.955  15.601  43.671  1.00  0.00     0.093 C 
ENDBRANCH   6   7
ENDBRANCH   1   5
TORSDOF 4
ENDMDL
