MODEL 1
REMARK VINA RESULT:    -4.279      0.000      0.000
REMARK INTER + INTRA:          -6.330
REMARK INTER:                  -5.779
REMARK INTRA:                  -0.550
REMARK UNBOUND:                -0.550
REMARK SMILES [NH3+]CCCC[C@@H]([NH3+])C(=O)[O-]
REMARK SMILES IDX 4 1 3 2 2 3 1 4 5 8 6 9 7 10 8 14 9 15 10 16
REMARK H PARENT 1 5 1 6 1 7 7 11 7 12 7 13
REMARK Flexibility Score: inf
ROOT
ATOM      1  C   UNL     1       0.593  -5.426   3.090  1.00  0.00     0.012 C 
ENDROOT
BRANCH   1   2
ATOM      2  C   UNL     1      -0.692  -4.678   3.465  1.00  0.00     0.061 C 
BRANCH   2   3
ATOM      3  C   UNL     1      -1.239  -3.885   2.271  1.00  0.00     0.258 C 
BRANCH   3   4
ATOM      4  N   UNL     1      -1.065  -2.447   2.474  1.00  0.00    -0.358 N 
ATOM      5  H   UNL     1      -0.173  -2.262   2.988  1.00  0.00     0.344 HD
ATOM      6  H   UNL     1      -1.050  -1.953   1.551  1.00  0.00     0.344 HD
ATOM      7  H   UNL     1      -1.864  -2.082   3.041  1.00  0.00     0.344 HD
ENDBRANCH   3   4
ENDBRANCH   2   3
ENDBRANCH   1   2
BRANCH   1   8
ATOM      8  C   UNL     1       1.830  -4.542   3.312  1.00  0.00     0.072 C 
BRANCH   8   9
ATOM      9  C   UNL     1       2.524  -4.147   1.990  1.00  0.00     0.227 C 
BRANCH   9  10
ATOM     10  N   UNL     1       1.896  -4.793   0.829  1.00  0.00    -0.350 N 
ATOM     11  H   UNL     1       0.857  -4.675   0.855  1.00  0.00     0.345 HD
ATOM     12  H   UNL     1       2.265  -4.373  -0.055  1.00  0.00     0.345 HD
ATOM     13  H   UNL     1       2.130  -5.811   0.814  1.00  0.00     0.345 HD
ENDBRANCH   9  10
BRANCH   9  14
ATOM     14  C   UNL     1       2.494  -2.650   1.831  1.00  0.00     0.099 C 
ATOM     15  O   UNL     1       1.639  -2.104   1.083  1.00  0.00    -0.544 OA
ATOM     16  O   UNL     1       3.400  -1.859   2.526  1.00  0.00    -0.544 OA
ENDBRANCH   9  14
ENDBRANCH   8   9
ENDBRANCH   1   8
TORSDOF 7
ENDMDL
MODEL 2
REMARK VINA RESULT:    -4.186      1.203      1.231
REMARK INTER + INTRA:          -6.205
REMARK INTER:                  -5.672
REMARK INTRA:                  -0.532
REMARK UNBOUND:                -0.550
REMARK SMILES [NH3+]CCCC[C@@H]([NH3+])C(=O)[O-]
REMARK SMILES IDX 4 1 3 2 2 3 1 4 5 8 6 9 7 10 8 14 9 15 10 16
REMARK H PARENT 1 5 1 6 1 7 7 11 7 12 7 13
REMARK Flexibility Score: inf
ROOT
ATOM      1  C   UNL     1       0.202  -5.638   3.136  1.00  0.00     0.012 C 
ENDROOT
BRANCH   1   2
ATOM      2  C   UNL     1      -0.678  -4.499   3.666  1.00  0.00     0.061 C 
BRANCH   2   3
ATOM      3  C   UNL     1      -1.569  -3.927   2.556  1.00  0.00     0.258 C 
BRANCH   3   4
ATOM      4  N   UNL     1      -1.412  -2.477   2.453  1.00  0.00    -0.358 N 
ATOM      5  H   UNL     1      -1.857  -2.128   1.572  1.00  0.00     0.344 HD
ATOM      6  H   UNL     1      -1.851  -2.008   3.280  1.00  0.00     0.344 HD
ATOM      7  H   UNL     1      -0.393  -2.243   2.433  1.00  0.00     0.344 HD
ENDBRANCH   3   4
ENDBRANCH   2   3
ENDBRANCH   1   2
BRANCH   1   8
ATOM      8  C   UNL     1       1.441  -5.086   2.414  1.00  0.00     0.072 C 
BRANCH   8   9
ATOM      9  C   UNL     1       2.033  -3.842   3.113  1.00  0.00     0.227 C 
BRANCH   9  10
ATOM     10  N   UNL     1       3.298  -4.149   3.795  1.00  0.00    -0.350 N 
ATOM     11  H   UNL     1       3.431  -3.531   4.628  1.00  0.00     0.345 HD
ATOM     12  H   UNL     1       3.300  -5.148   4.108  1.00  0.00     0.345 HD
ATOM     13  H   UNL     1       4.101  -4.025   3.138  1.00  0.00     0.345 HD
ENDBRANCH   9  10
BRANCH   9  14
ATOM     14  C   UNL     1       2.241  -2.745   2.102  1.00  0.00     0.099 C 
ATOM     15  O   UNL     1       1.446  -2.610   1.134  1.00  0.00    -0.544 OA
ATOM     16  O   UNL     1       3.303  -1.862   2.244  1.00  0.00    -0.544 OA
ENDBRANCH   9  14
ENDBRANCH   8   9
ENDBRANCH   1   8
TORSDOF 7
ENDMDL
MODEL 3
REMARK VINA RESULT:    -4.186      0.534      1.157
REMARK INTER + INTRA:          -6.204
REMARK INTER:                  -5.747
REMARK INTRA:                  -0.458
REMARK UNBOUND:                -0.550
REMARK SMILES [NH3+]CCCC[C@@H]([NH3+])C(=O)[O-]
REMARK SMILES IDX 4 1 3 2 2 3 1 4 5 8 6 9 7 10 8 14 9 15 10 16
REMARK H PARENT 1 5 1 6 1 7 7 11 7 12 7 13
REMARK Flexibility Score: inf
ROOT
ATOM      1  C   UNL     1       0.885  -4.247   3.441  1.00  0.00     0.012 C 
ENDROOT
BRANCH   1   2
ATOM      2  C   UNL     1      -0.438  -4.891   3.009  1.00  0.00     0.061 C 
BRANCH   2   3
ATOM      3  C   UNL     1      -1.267  -3.928   2.149  1.00  0.00     0.258 C 
BRANCH   3   4
ATOM      4  N   UNL     1      -1.041  -2.540   2.551  1.00  0.00    -0.358 N 
ATOM      5  H   UNL     1      -0.293  -2.112   1.958  1.00  0.00     0.344 HD
ATOM      6  H   UNL     1      -1.926  -1.989   2.456  1.00  0.00     0.344 HD
ATOM      7  H   UNL     1      -0.735  -2.518   3.550  1.00  0.00     0.344 HD
ENDBRANCH   3   4
ENDBRANCH   2   3
ENDBRANCH   1   2
BRANCH   1   8
ATOM      8  C   UNL     1       2.082  -4.959   2.791  1.00  0.00     0.072 C 
BRANCH   8   9
ATOM      9  C   UNL     1       2.607  -4.220   1.540  1.00  0.00     0.227 C 
BRANCH   9  10
ATOM     10  N   UNL     1       1.869  -4.605   0.329  1.00  0.00    -0.350 N 
ATOM     11  H   UNL     1       1.607  -5.618   0.360  1.00  0.00     0.345 HD
ATOM     12  H   UNL     1       0.999  -4.031   0.245  1.00  0.00     0.345 HD
ATOM     13  H   UNL     1       2.450  -4.423  -0.520  1.00  0.00     0.345 HD
ENDBRANCH   9  10
BRANCH   9  14
ATOM     14  C   UNL     1       2.513  -2.733   1.756  1.00  0.00     0.099 C 
ATOM     15  O   UNL     1       3.286  -2.155   2.566  1.00  0.00    -0.544 OA
ATOM     16  O   UNL     1       1.582  -1.986   1.046  1.00  0.00    -0.544 OA
ENDBRANCH   9  14
ENDBRANCH   8   9
ENDBRANCH   1   8
TORSDOF 7
ENDMDL
MODEL 4
REMARK VINA RESULT:    -4.164      1.271      1.364
REMARK INTER + INTRA:          -6.175
REMARK INTER:                  -6.037
REMARK INTRA:                  -0.137
REMARK UNBOUND:                -0.550
REMARK SMILES [NH3+]CCCC[C@@H]([NH3+])C(=O)[O-]
REMARK SMILES IDX 4 1 3 2 2 3 1 4 5 8 6 9 7 10 8 14 9 15 10 16
REMARK H PARENT 1 5 1 6 1 7 7 11 7 12 7 13
REMARK Flexibility Score: inf
ROOT
ATOM      1  C   UNL     1      -0.040  -4.197   3.185  1.00  0.00     0.012 C 
ENDROOT
BRANCH   1   2
ATOM      2  C   UNL     1      -1.470  -3.802   3.571  1.00  0.00     0.061 C 
BRANCH   2   3
ATOM      3  C   UNL     1      -2.343  -3.597   2.326  1.00  0.00     0.258 C 
BRANCH   3   4
ATOM      4  N   UNL     1      -3.252  -2.466   2.503  1.00  0.00    -0.358 N 
ATOM      5  H   UNL     1      -3.418  -2.294   3.522  1.00  0.00     0.344 HD
ATOM      6  H   UNL     1      -2.848  -1.607   2.062  1.00  0.00     0.344 HD
ATOM      7  H   UNL     1      -4.165  -2.685   2.044  1.00  0.00     0.344 HD
ENDBRANCH   3   4
ENDBRANCH   2   3
ENDBRANCH   1   2
BRANCH   1   8
ATOM      8  C   UNL     1       0.300  -3.719   1.765  1.00  0.00     0.072 C 
BRANCH   8   9
ATOM      9  C   UNL     1       1.783  -3.950   1.398  1.00  0.00     0.227 C 
BRANCH   9  10
ATOM     10  N   UNL     1       1.927  -4.551   0.064  1.00  0.00    -0.350 N 
ATOM     11  H   UNL     1       1.486  -5.499   0.035  1.00  0.00     0.345 HD
ATOM     12  H   UNL     1       1.472  -3.940  -0.652  1.00  0.00     0.345 HD
ATOM     13  H   UNL     1       2.938  -4.630  -0.187  1.00  0.00     0.345 HD
ENDBRANCH   9  10
BRANCH   9  14
ATOM     14  C   UNL     1       2.529  -2.644   1.463  1.00  0.00     0.099 C 
ATOM     15  O   UNL     1       2.775  -1.995   0.411  1.00  0.00    -0.544 OA
ATOM     16  O   UNL     1       2.936  -2.137   2.690  1.00  0.00    -0.544 OA
ENDBRANCH   9  14
ENDBRANCH   8   9
ENDBRANCH   1   8
TORSDOF 7
ENDMDL
MODEL 5
REMARK VINA RESULT:    -4.043      2.854      4.689
REMARK INTER + INTRA:          -6.011
REMARK INTER:                  -5.485
REMARK INTRA:                  -0.526
REMARK UNBOUND:                -0.550
REMARK SMILES [NH3+]CCCC[C@@H]([NH3+])C(=O)[O-]
REMARK SMILES IDX 4 1 3 2 2 3 1 4 5 8 6 9 7 10 8 14 9 15 10 16
REMARK H PARENT 1 5 1 6 1 7 7 11 7 12 7 13
REMARK Flexibility Score: inf
ROOT
ATOM      1  C   UNL     1       4.907  -1.540   2.893  1.00  0.00     0.012 C 
ENDROOT
BRANCH   1   2
ATOM      2  C   UNL     1       6.003  -1.592   1.822  1.00  0.00     0.061 C 
BRANCH   2   3
ATOM      3  C   UNL     1       5.633  -0.728   0.610  1.00  0.00     0.258 C 
BRANCH   3   4
ATOM      4  N   UNL     1       4.878  -1.501  -0.375  1.00  0.00    -0.358 N 
ATOM      5  H   UNL     1       4.656  -2.450   0.007  1.00  0.00     0.344 HD
ATOM      6  H   UNL     1       3.991  -1.003  -0.620  1.00  0.00     0.344 HD
ATOM      7  H   UNL     1       5.454  -1.611  -1.240  1.00  0.00     0.344 HD
ENDBRANCH   3   4
ENDBRANCH   2   3
ENDBRANCH   1   2
BRANCH   1   8
ATOM      8  C   UNL     1       4.491  -2.954   3.325  1.00  0.00     0.072 C 
BRANCH   8   9
ATOM      9  C   UNL     1       3.620  -3.668   2.267  1.00  0.00     0.227 C 
BRANCH   9  10
ATOM     10  N   UNL     1       3.288  -5.042   2.671  1.00  0.00    -0.350 N 
ATOM     11  H   UNL     1       4.155  -5.583   2.897  1.00  0.00     0.345 HD
ATOM     12  H   UNL     1       2.667  -5.025   3.513  1.00  0.00     0.345 HD
ATOM     13  H   UNL     1       2.766  -5.525   1.906  1.00  0.00     0.345 HD
ENDBRANCH   9  10
BRANCH   9  14
ATOM     14  C   UNL     1       2.361  -2.876   2.031  1.00  0.00     0.099 C 
ATOM     15  O   UNL     1       1.445  -2.861   2.896  1.00  0.00    -0.544 OA
ATOM     16  O   UNL     1       2.212  -2.142   0.862  1.00  0.00    -0.544 OA
ENDBRANCH   9  14
ENDBRANCH   8   9
ENDBRANCH   1   8
TORSDOF 7
ENDMDL
MODEL 6
REMARK VINA RESULT:    -3.987      1.714      2.076
REMARK INTER + INTRA:          -5.936
REMARK INTER:                  -5.807
REMARK INTRA:                  -0.129
REMARK UNBOUND:                -0.550
REMARK SMILES [NH3+]CCCC[C@@H]([NH3+])C(=O)[O-]
REMARK SMILES IDX 4 1 3 2 2 3 1 4 5 8 6 9 7 10 8 14 9 15 10 16
REMARK H PARENT 1 5 1 6 1 7 7 11 7 12 7 13
REMARK Flexibility Score: inf
ROOT
ATOM      1  C   UNL     1       0.160  -5.496   3.309  1.00  0.00     0.012 C 
ENDROOT
BRANCH   1   2
ATOM      2  C   UNL     1      -1.373  -5.458   3.278  1.00  0.00     0.061 C 
BRANCH   2   3
ATOM      3  C   UNL     1      -1.923  -4.485   4.328  1.00  0.00     0.258 C 
BRANCH   3   4
ATOM      4  N   UNL     1      -2.820  -5.170   5.258  1.00  0.00    -0.358 N 
ATOM      5  H   UNL     1      -2.586  -6.189   5.298  1.00  0.00     0.344 HD
ATOM      6  H   UNL     1      -2.736  -4.751   6.214  1.00  0.00     0.344 HD
ATOM      7  H   UNL     1      -3.805  -5.062   4.927  1.00  0.00     0.344 HD
ENDBRANCH   3   4
ENDBRANCH   2   3
ENDBRANCH   1   2
BRANCH   1   8
ATOM      8  C   UNL     1       0.745  -4.078   3.388  1.00  0.00     0.072 C 
BRANCH   8   9
ATOM      9  C   UNL     1       0.776  -3.368   2.016  1.00  0.00     0.227 C 
BRANCH   9  10
ATOM     10  N   UNL     1      -0.338  -2.421   1.866  1.00  0.00    -0.350 N 
ATOM     11  H   UNL     1      -0.340  -1.724   2.647  1.00  0.00     0.345 HD
ATOM     12  H   UNL     1      -0.252  -1.913   0.956  1.00  0.00     0.345 HD
ATOM     13  H   UNL     1      -1.248  -2.934   1.855  1.00  0.00     0.345 HD
ENDBRANCH   9  10
BRANCH   9  14
ATOM     14  C   UNL     1       2.092  -2.656   1.846  1.00  0.00     0.099 C 
ATOM     15  O   UNL     1       2.338  -2.015   0.789  1.00  0.00    -0.544 OA
ATOM     16  O   UNL     1       3.036  -2.688   2.864  1.00  0.00    -0.544 OA
ENDBRANCH   9  14
ENDBRANCH   8   9
ENDBRANCH   1   8
TORSDOF 7
ENDMDL
MODEL 7
REMARK VINA RESULT:    -3.969      3.799      5.445
REMARK INTER + INTRA:          -5.912
REMARK INTER:                  -5.725
REMARK INTRA:                  -0.187
REMARK UNBOUND:                -0.550
REMARK SMILES [NH3+]CCCC[C@@H]([NH3+])C(=O)[O-]
REMARK SMILES IDX 4 1 3 2 2 3 1 4 5 8 6 9 7 10 8 14 9 15 10 16
REMARK H PARENT 1 5 1 6 1 7 7 11 7 12 7 13
REMARK Flexibility Score: inf
ROOT
ATOM      1  C   UNL     1       5.998  -1.664   1.867  1.00  0.00     0.012 C 
ENDROOT
BRANCH   1   2
ATOM      2  C   UNL     1       5.755  -0.366   1.089  1.00  0.00     0.061 C 
BRANCH   2   3
ATOM      3  C   UNL     1       6.644   0.769   1.613  1.00  0.00     0.258 C 
BRANCH   3   4
ATOM      4  N   UNL     1       5.919   1.606   2.567  1.00  0.00    -0.358 N 
ATOM      5  H   UNL     1       6.292   2.583   2.546  1.00  0.00     0.344 HD
ATOM      6  H   UNL     1       4.898   1.613   2.336  1.00  0.00     0.344 HD
ATOM      7  H   UNL     1       6.045   1.217   3.530  1.00  0.00     0.344 HD
ENDBRANCH   3   4
ENDBRANCH   2   3
ENDBRANCH   1   2
BRANCH   1   8
ATOM      8  C   UNL     1       4.858  -1.932   2.862  1.00  0.00     0.072 C 
BRANCH   8   9
ATOM      9  C   UNL     1       3.971  -3.126   2.444  1.00  0.00     0.227 C 
BRANCH   9  10
ATOM     10  N   UNL     1       3.776  -4.075   3.549  1.00  0.00    -0.350 N 
ATOM     11  H   UNL     1       3.613  -3.567   4.450  1.00  0.00     0.345 HD
ATOM     12  H   UNL     1       2.954  -4.689   3.350  1.00  0.00     0.345 HD
ATOM     13  H   UNL     1       4.614  -4.692   3.645  1.00  0.00     0.345 HD
ENDBRANCH   9  10
BRANCH   9  14
ATOM     14  C   UNL     1       2.640  -2.619   1.953  1.00  0.00     0.099 C 
ATOM     15  O   UNL     1       2.546  -2.058   0.828  1.00  0.00    -0.544 OA
ATOM     16  O   UNL     1       1.503  -2.785   2.733  1.00  0.00    -0.544 OA
ENDBRANCH   9  14
ENDBRANCH   8   9
ENDBRANCH   1   8
TORSDOF 7
ENDMDL
MODEL 8
REMARK VINA RESULT:    -3.946      2.733      4.621
REMARK INTER + INTRA:          -5.880
REMARK INTER:                  -5.511
REMARK INTRA:                  -0.369
REMARK UNBOUND:                -0.550
REMARK SMILES [NH3+]CCCC[C@@H]([NH3+])C(=O)[O-]
REMARK SMILES IDX 4 1 3 2 2 3 1 4 5 8 6 9 7 10 8 14 9 15 10 16
REMARK H PARENT 1 5 1 6 1 7 7 11 7 12 7 13
REMARK Flexibility Score: inf
ROOT
ATOM      1  C   UNL     1       4.558  -1.749   0.028  1.00  0.00     0.012 C 
ENDROOT
BRANCH   1   2
ATOM      2  C   UNL     1       5.582  -1.058   0.937  1.00  0.00     0.061 C 
BRANCH   2   3
ATOM      3  C   UNL     1       5.737  -1.809   2.266  1.00  0.00     0.258 C 
BRANCH   3   4
ATOM      4  N   UNL     1       5.128  -1.061   3.365  1.00  0.00    -0.358 N 
ATOM      5  H   UNL     1       4.121  -1.328   3.467  1.00  0.00     0.344 HD
ATOM      6  H   UNL     1       5.637  -1.256   4.258  1.00  0.00     0.344 HD
ATOM      7  H   UNL     1       5.187  -0.038   3.157  1.00  0.00     0.344 HD
ENDBRANCH   3   4
ENDBRANCH   2   3
ENDBRANCH   1   2
BRANCH   1   8
ATOM      8  C   UNL     1       4.116  -3.096   0.619  1.00  0.00     0.072 C 
BRANCH   8   9
ATOM      9  C   UNL     1       2.626  -3.405   0.351  1.00  0.00     0.227 C 
BRANCH   9  10
ATOM     10  N   UNL     1       2.375  -4.851   0.266  1.00  0.00    -0.350 N 
ATOM     11  H   UNL     1       2.461  -5.185  -0.722  1.00  0.00     0.345 HD
ATOM     12  H   UNL     1       3.063  -5.367   0.861  1.00  0.00     0.345 HD
ATOM     13  H   UNL     1       1.420  -5.072   0.626  1.00  0.00     0.345 HD
ENDBRANCH   9  10
BRANCH   9  14
ATOM     14  C   UNL     1       1.780  -2.793   1.436  1.00  0.00     0.099 C 
ATOM     15  O   UNL     1       0.524  -2.780   1.336  1.00  0.00    -0.544 OA
ATOM     16  O   UNL     1       2.383  -2.255   2.566  1.00  0.00    -0.544 OA
ENDBRANCH   9  14
ENDBRANCH   8   9
ENDBRANCH   1   8
TORSDOF 7
ENDMDL
MODEL 9
REMARK VINA RESULT:    -3.837      2.273      2.922
REMARK INTER + INTRA:          -5.733
REMARK INTER:                  -5.581
REMARK INTRA:                  -0.152
REMARK UNBOUND:                -0.550
REMARK SMILES [NH3+]CCCC[C@@H]([NH3+])C(=O)[O-]
REMARK SMILES IDX 4 1 3 2 2 3 1 4 5 8 6 9 7 10 8 14 9 15 10 16
REMARK H PARENT 1 5 1 6 1 7 7 11 7 12 7 13
REMARK Flexibility Score: inf
ROOT
ATOM      1  C   UNL     1       2.134  -3.563   1.062  1.00  0.00     0.012 C 
ENDROOT
BRANCH   1   2
ATOM      2  C   UNL     1       1.184  -2.799   1.992  1.00  0.00     0.061 C 
BRANCH   2   3
ATOM      3  C   UNL     1      -0.210  -3.441   2.006  1.00  0.00     0.258 C 
BRANCH   3   4
ATOM      4  N   UNL     1      -1.217  -2.496   2.486  1.00  0.00    -0.358 N 
ATOM      5  H   UNL     1      -1.919  -2.991   3.083  1.00  0.00     0.344 HD
ATOM      6  H   UNL     1      -0.760  -1.733   3.037  1.00  0.00     0.344 HD
ATOM      7  H   UNL     1      -1.709  -2.074   1.666  1.00  0.00     0.344 HD
ENDBRANCH   3   4
ENDBRANCH   2   3
ENDBRANCH   1   2
BRANCH   1   8
ATOM      8  C   UNL     1       3.165  -2.614   0.429  1.00  0.00     0.072 C 
BRANCH   8   9
ATOM      9  C   UNL     1       4.570  -2.759   1.056  1.00  0.00     0.227 C 
BRANCH   9  10
ATOM     10  N   UNL     1       5.634  -2.596   0.055  1.00  0.00    -0.350 N 
ATOM     11  H   UNL     1       5.365  -3.048  -0.850  1.00  0.00     0.345 HD
ATOM     12  H   UNL     1       5.812  -1.579  -0.112  1.00  0.00     0.345 HD
ATOM     13  H   UNL     1       6.524  -3.018   0.403  1.00  0.00     0.345 HD
ENDBRANCH   9  10
BRANCH   9  14
ATOM     14  C   UNL     1       4.737  -1.750   2.161  1.00  0.00     0.099 C 
ATOM     15  O   UNL     1       4.446  -2.050   3.350  1.00  0.00    -0.544 OA
ATOM     16  O   UNL     1       5.231  -0.483   1.877  1.00  0.00    -0.544 OA
ENDBRANCH   9  14
ENDBRANCH   8   9
ENDBRANCH   1   8
TORSDOF 7
ENDMDL
