MODEL 1
REMARK VINA RESULT:    -4.520      0.000      0.000
REMARK INTER + INTRA:          -6.300
REMARK INTER:                  -5.709
REMARK INTRA:                  -0.591
REMARK UNBOUND:                -0.591
REMARK SMILES Oc1cc(O)cc(CCc2ccccc2O)c1
REMARK SMILES IDX 9 1 10 2 12 3 13 4 11 5 14 6 15 7 16 8 8 10 7 11 6 12 17 13
REMARK SMILES IDX 4 14 2 15 3 16 5 17 1 19
REMARK H PARENT 16 9 5 18 1 20
REMARK Flexibility Score: inf
ROOT
ATOM      1  C   UNL     1     -94.624 -20.739 -64.138  1.00  0.00     0.044 C 
ENDROOT
BRANCH   1   2
ATOM      2  C   UNL     1     -93.336 -21.002 -63.400  1.00  0.00    -0.006 A 
ATOM      3  C   UNL     1     -92.190 -21.776 -61.400  1.00  0.00     0.001 A 
ATOM      4  C   UNL     1     -90.961 -21.438 -61.967  1.00  0.00     0.004 A 
ATOM      5  C   UNL     1     -93.373 -21.555 -62.109  1.00  0.00     0.007 A 
ATOM      6  C   UNL     1     -90.911 -20.873 -63.245  1.00  0.00     0.046 A 
ATOM      7  C   UNL     1     -92.094 -20.646 -63.964  1.00  0.00     0.118 A 
BRANCH   7   8
ATOM      8  O   UNL     1     -92.037 -20.069 -65.232  1.00  0.00    -0.508 OA
ATOM      9  H   UNL     1     -92.799 -19.507 -65.595  1.00  0.00     0.293 HD
ENDBRANCH   7   8
ENDBRANCH   1   2
BRANCH   1  10
ATOM     10  C   UNL     1     -95.577 -19.902 -63.279  1.00  0.00     0.040 C 
BRANCH  10  11
ATOM     11  C   UNL     1     -95.334 -18.433 -63.497  1.00  0.00    -0.040 A 
ATOM     12  C   UNL     1     -94.319 -17.770 -62.789  1.00  0.00     0.050 A 
ATOM     13  C   UNL     1     -96.158 -17.701 -64.368  1.00  0.00     0.050 A 
ATOM     14  C   UNL     1     -94.114 -16.394 -62.966  1.00  0.00     0.119 A 
ATOM     15  C   UNL     1     -95.955 -16.329 -64.548  1.00  0.00     0.119 A 
ATOM     16  C   UNL     1     -94.930 -15.678 -63.847  1.00  0.00     0.092 A 
BRANCH  14  17
ATOM     17  O   UNL     1     -93.104 -15.732 -62.273  1.00  0.00    -0.508 OA
ATOM     18  H   UNL     1     -93.012 -14.723 -62.305  1.00  0.00     0.293 HD
ENDBRANCH  14  17
BRANCH  15  19
ATOM     19  O   UNL     1     -96.778 -15.621 -65.420  1.00  0.00    -0.508 OA
ATOM     20  H   UNL     1     -97.787 -15.640 -65.330  1.00  0.00     0.293 HD
ENDBRANCH  15  19
ENDBRANCH  10  11
ENDBRANCH   1  10
TORSDOF 6
ENDMDL
MODEL 2
REMARK VINA RESULT:    -4.516      2.241      5.752
REMARK INTER + INTRA:          -6.294
REMARK INTER:                  -5.562
REMARK INTRA:                  -0.733
REMARK UNBOUND:                -0.591
REMARK SMILES Oc1cc(O)cc(CCc2ccccc2O)c1
REMARK SMILES IDX 9 1 10 2 12 3 13 4 11 5 14 6 15 7 16 8 8 10 7 11 6 12 17 13
REMARK SMILES IDX 4 14 2 15 3 16 5 17 1 19
REMARK H PARENT 16 9 5 18 1 20
REMARK Flexibility Score: inf
ROOT
ATOM      1  C   UNL     1     -96.029 -16.044 -64.909  1.00  0.00     0.044 C 
ENDROOT
BRANCH   1   2
ATOM      2  C   UNL     1     -97.323 -16.461 -64.257  1.00  0.00    -0.006 A 
ATOM      3  C   UNL     1     -99.010 -16.109 -62.541  1.00  0.00     0.001 A 
ATOM      4  C   UNL     1     -99.692 -17.248 -62.972  1.00  0.00     0.004 A 
ATOM      5  C   UNL     1     -97.828 -15.719 -63.176  1.00  0.00     0.007 A 
ATOM      6  C   UNL     1     -99.192 -18.003 -64.036  1.00  0.00     0.046 A 
ATOM      7  C   UNL     1     -98.006 -17.620 -64.679  1.00  0.00     0.118 A 
BRANCH   7   8
ATOM      8  O   UNL     1     -97.506 -18.386 -65.731  1.00  0.00    -0.508 OA
ATOM      9  H   UNL     1     -96.980 -17.968 -66.490  1.00  0.00     0.293 HD
ENDBRANCH   7   8
ENDBRANCH   1   2
BRANCH   1  10
ATOM     10  C   UNL     1     -94.945 -15.805 -63.853  1.00  0.00     0.040 C 
BRANCH  10  11
ATOM     11  C   UNL     1     -94.430 -17.113 -63.317  1.00  0.00    -0.040 A 
ATOM     12  C   UNL     1     -94.178 -17.266 -61.944  1.00  0.00     0.050 A 
ATOM     13  C   UNL     1     -94.142 -18.172 -64.194  1.00  0.00     0.050 A 
ATOM     14  C   UNL     1     -93.666 -18.473 -61.449  1.00  0.00     0.119 A 
ATOM     15  C   UNL     1     -93.631 -19.378 -63.702  1.00  0.00     0.119 A 
ATOM     16  C   UNL     1     -93.397 -19.527 -62.327  1.00  0.00     0.092 A 
BRANCH  14  17
ATOM     17  O   UNL     1     -93.421 -18.634 -60.088  1.00  0.00    -0.508 OA
ATOM     18  H   UNL     1     -94.173 -18.808 -59.430  1.00  0.00     0.293 HD
ENDBRANCH  14  17
BRANCH  15  19
ATOM     19  O   UNL     1     -93.358 -20.420 -64.585  1.00  0.00    -0.508 OA
ATOM     20  H   UNL     1     -94.009 -20.677 -65.318  1.00  0.00     0.293 HD
ENDBRANCH  15  19
ENDBRANCH  10  11
ENDBRANCH   1  10
TORSDOF 6
ENDMDL
MODEL 3
REMARK VINA RESULT:    -4.506      0.147      2.040
REMARK INTER + INTRA:          -6.282
REMARK INTER:                  -5.697
REMARK INTRA:                  -0.585
REMARK UNBOUND:                -0.591
REMARK SMILES Oc1cc(O)cc(CCc2ccccc2O)c1
REMARK SMILES IDX 9 1 10 2 12 3 13 4 11 5 14 6 15 7 16 8 8 10 7 11 6 12 17 13
REMARK SMILES IDX 4 14 2 15 3 16 5 17 1 19
REMARK H PARENT 16 9 5 18 1 20
REMARK Flexibility Score: inf
ROOT
ATOM      1  C   UNL     1     -94.713 -20.617 -64.198  1.00  0.00     0.044 C 
ENDROOT
BRANCH   1   2
ATOM      2  C   UNL     1     -93.458 -20.978 -63.446  1.00  0.00    -0.006 A 
ATOM      3  C   UNL     1     -92.401 -21.902 -61.459  1.00  0.00     0.001 A 
ATOM      4  C   UNL     1     -91.143 -21.600 -61.983  1.00  0.00     0.004 A 
ATOM      5  C   UNL     1     -93.554 -21.589 -62.184  1.00  0.00     0.007 A 
ATOM      6  C   UNL     1     -91.034 -20.980 -63.231  1.00  0.00     0.046 A 
ATOM      7  C   UNL     1     -92.186 -20.660 -63.964  1.00  0.00     0.118 A 
BRANCH   7   8
ATOM      8  O   UNL     1     -92.070 -20.028 -65.202  1.00  0.00    -0.508 OA
ATOM      9  H   UNL     1     -92.170 -20.539 -66.071  1.00  0.00     0.293 HD
ENDBRANCH   7   8
ENDBRANCH   1   2
BRANCH   1  10
ATOM     10  C   UNL     1     -95.667 -19.818 -63.305  1.00  0.00     0.040 C 
BRANCH  10  11
ATOM     11  C   UNL     1     -95.446 -18.340 -63.483  1.00  0.00    -0.040 A 
ATOM     12  C   UNL     1     -96.253 -17.604 -64.366  1.00  0.00     0.050 A 
ATOM     13  C   UNL     1     -94.394 -17.696 -62.812  1.00  0.00     0.050 A 
ATOM     14  C   UNL     1     -96.026 -16.234 -64.558  1.00  0.00     0.119 A 
ATOM     15  C   UNL     1     -94.165 -16.329 -63.002  1.00  0.00     0.119 A 
ATOM     16  C   UNL     1     -94.986 -15.599 -63.874  1.00  0.00     0.092 A 
BRANCH  14  17
ATOM     17  O   UNL     1     -96.828 -15.497 -65.426  1.00  0.00    -0.508 OA
ATOM     18  H   UNL     1     -97.451 -14.773 -65.087  1.00  0.00     0.293 HD
ENDBRANCH  14  17
BRANCH  15  19
ATOM     19  O   UNL     1     -93.122 -15.706 -62.323  1.00  0.00    -0.508 OA
ATOM     20  H   UNL     1     -92.171 -16.053 -62.379  1.00  0.00     0.293 HD
ENDBRANCH  15  19
ENDBRANCH  10  11
ENDBRANCH   1  10
TORSDOF 6
ENDMDL
MODEL 4
REMARK VINA RESULT:    -4.489      2.246      5.969
REMARK INTER + INTRA:          -6.261
REMARK INTER:                  -5.540
REMARK INTRA:                  -0.721
REMARK UNBOUND:                -0.591
REMARK SMILES Oc1cc(O)cc(CCc2ccccc2O)c1
REMARK SMILES IDX 9 1 10 2 12 3 13 4 11 5 14 6 15 7 16 8 8 10 7 11 6 12 17 13
REMARK SMILES IDX 4 14 2 15 3 16 5 17 1 19
REMARK H PARENT 16 9 5 18 1 20
REMARK Flexibility Score: inf
ROOT
ATOM      1  C   UNL     1     -96.010 -16.095 -64.943  1.00  0.00     0.044 C 
ENDROOT
BRANCH   1   2
ATOM      2  C   UNL     1     -97.312 -16.464 -64.279  1.00  0.00    -0.006 A 
ATOM      3  C   UNL     1     -98.980 -16.038 -62.561  1.00  0.00     0.001 A 
ATOM      4  C   UNL     1     -99.697 -17.164 -62.971  1.00  0.00     0.004 A 
ATOM      5  C   UNL     1     -97.791 -15.691 -63.208  1.00  0.00     0.007 A 
ATOM      6  C   UNL     1     -99.223 -17.949 -64.025  1.00  0.00     0.046 A 
ATOM      7  C   UNL     1     -98.029 -17.610 -64.679  1.00  0.00     0.118 A 
BRANCH   7   8
ATOM      8  O   UNL     1     -97.555 -18.407 -65.721  1.00  0.00    -0.508 OA
ATOM      9  H   UNL     1     -98.180 -18.800 -66.416  1.00  0.00     0.293 HD
ENDBRANCH   7   8
ENDBRANCH   1   2
BRANCH   1  10
ATOM     10  C   UNL     1     -94.931 -15.809 -63.894  1.00  0.00     0.040 C 
BRANCH  10  11
ATOM     11  C   UNL     1     -94.396 -17.094 -63.321  1.00  0.00    -0.040 A 
ATOM     12  C   UNL     1     -94.170 -18.201 -64.154  1.00  0.00     0.050 A 
ATOM     13  C   UNL     1     -94.173 -17.213 -61.939  1.00  0.00     0.050 A 
ATOM     14  C   UNL     1     -93.704 -19.409 -63.615  1.00  0.00     0.119 A 
ATOM     15  C   UNL     1     -93.707 -18.417 -61.399  1.00  0.00     0.119 A 
ATOM     16  C   UNL     1     -93.470 -19.513 -62.241  1.00  0.00     0.092 A 
BRANCH  14  17
ATOM     17  O   UNL     1     -93.470 -20.509 -64.437  1.00  0.00    -0.508 OA
ATOM     18  H   UNL     1     -92.952 -20.423 -65.304  1.00  0.00     0.293 HD
ENDBRANCH  14  17
BRANCH  15  19
ATOM     19  O   UNL     1     -93.485 -18.514 -60.028  1.00  0.00    -0.508 OA
ATOM     20  H   UNL     1     -94.253 -18.534 -59.367  1.00  0.00     0.293 HD
ENDBRANCH  15  19
ENDBRANCH  10  11
ENDBRANCH   1  10
TORSDOF 6
ENDMDL
MODEL 5
REMARK VINA RESULT:    -4.475      2.283      3.126
REMARK INTER + INTRA:          -6.243
REMARK INTER:                  -5.692
REMARK INTRA:                  -0.552
REMARK UNBOUND:                -0.591
REMARK SMILES Oc1cc(O)cc(CCc2ccccc2O)c1
REMARK SMILES IDX 9 1 10 2 12 3 13 4 11 5 14 6 15 7 16 8 8 10 7 11 6 12 17 13
REMARK SMILES IDX 4 14 2 15 3 16 5 17 1 19
REMARK H PARENT 16 9 5 18 1 20
REMARK Flexibility Score: inf
ROOT
ATOM      1  C   UNL     1     -93.711 -17.617 -62.364  1.00  0.00     0.044 C 
ENDROOT
BRANCH   1   2
ATOM      2  C   UNL     1     -93.065 -18.859 -62.923  1.00  0.00    -0.006 A 
ATOM      3  C   UNL     1     -93.260 -21.169 -63.660  1.00  0.00     0.001 A 
ATOM      4  C   UNL     1     -91.885 -21.214 -63.897  1.00  0.00     0.004 A 
ATOM      5  C   UNL     1     -93.848 -19.999 -63.172  1.00  0.00     0.007 A 
ATOM      6  C   UNL     1     -91.093 -20.091 -63.640  1.00  0.00     0.046 A 
ATOM      7  C   UNL     1     -91.675 -18.914 -63.147  1.00  0.00     0.118 A 
BRANCH   7   8
ATOM      8  O   UNL     1     -90.876 -17.802 -62.880  1.00  0.00    -0.508 OA
ATOM      9  H   UNL     1     -91.278 -16.894 -62.683  1.00  0.00     0.293 HD
ENDBRANCH   7   8
ENDBRANCH   1   2
BRANCH   1  10
ATOM     10  C   UNL     1     -94.973 -17.974 -61.572  1.00  0.00     0.040 C 
BRANCH  10  11
ATOM     11  C   UNL     1     -96.166 -17.238 -62.119  1.00  0.00    -0.040 A 
ATOM     12  C   UNL     1     -96.121 -16.667 -63.401  1.00  0.00     0.050 A 
ATOM     13  C   UNL     1     -97.314 -17.067 -61.327  1.00  0.00     0.050 A 
ATOM     14  C   UNL     1     -97.220 -15.952 -63.896  1.00  0.00     0.119 A 
ATOM     15  C   UNL     1     -98.413 -16.354 -61.820  1.00  0.00     0.119 A 
ATOM     16  C   UNL     1     -98.364 -15.800 -63.108  1.00  0.00     0.092 A 
BRANCH  14  17
ATOM     17  O   UNL     1     -97.184 -15.390 -65.170  1.00  0.00    -0.508 OA
ATOM     18  H   UNL     1     -96.411 -14.807 -65.472  1.00  0.00     0.293 HD
ENDBRANCH  14  17
BRANCH  15  19
ATOM     19  O   UNL     1     -99.545 -16.200 -61.025  1.00  0.00    -0.508 OA
ATOM     20  H   UNL     1    -100.429 -16.630 -61.272  1.00  0.00     0.293 HD
ENDBRANCH  15  19
ENDBRANCH  10  11
ENDBRANCH   1  10
TORSDOF 6
ENDMDL
MODEL 6
REMARK VINA RESULT:    -4.474      4.051      7.486
REMARK INTER + INTRA:          -6.242
REMARK INTER:                  -5.619
REMARK INTRA:                  -0.623
REMARK UNBOUND:                -0.591
REMARK SMILES Oc1cc(O)cc(CCc2ccccc2O)c1
REMARK SMILES IDX 9 1 10 2 12 3 13 4 11 5 14 6 15 7 16 8 8 10 7 11 6 12 17 13
REMARK SMILES IDX 4 14 2 15 3 16 5 17 1 19
REMARK H PARENT 16 9 5 18 1 20
REMARK Flexibility Score: inf
ROOT
ATOM      1  C   UNL     1     -98.867 -16.754 -60.936  1.00  0.00     0.044 C 
ENDROOT
BRANCH   1   2
ATOM      2  C   UNL     1    -100.127 -16.197 -61.545  1.00  0.00    -0.006 A 
ATOM      3  C   UNL     1    -102.398 -16.546 -62.343  1.00  0.00     0.001 A 
ATOM      4  C   UNL     1    -102.468 -15.211 -62.745  1.00  0.00     0.004 A 
ATOM      5  C   UNL     1    -101.233 -17.039 -61.750  1.00  0.00     0.007 A 
ATOM      6  C   UNL     1    -101.369 -14.367 -62.560  1.00  0.00     0.046 A 
ATOM      7  C   UNL     1    -100.195 -14.853 -61.968  1.00  0.00     0.118 A 
BRANCH   7   8
ATOM      8  O   UNL     1     -99.098 -14.008 -61.800  1.00  0.00    -0.508 OA
ATOM      9  H   UNL     1     -98.906 -13.558 -60.913  1.00  0.00     0.293 HD
ENDBRANCH   7   8
ENDBRANCH   1   2
BRANCH   1  10
ATOM     10  C   UNL     1     -98.234 -17.797 -61.862  1.00  0.00     0.040 C 
BRANCH  10  11
ATOM     11  C   UNL     1     -97.160 -17.169 -62.709  1.00  0.00    -0.040 A 
ATOM     12  C   UNL     1     -97.494 -16.512 -63.904  1.00  0.00     0.050 A 
ATOM     13  C   UNL     1     -95.809 -17.288 -62.341  1.00  0.00     0.050 A 
ATOM     14  C   UNL     1     -96.490 -15.957 -64.711  1.00  0.00     0.119 A 
ATOM     15  C   UNL     1     -94.807 -16.735 -63.144  1.00  0.00     0.119 A 
ATOM     16  C   UNL     1     -95.150 -16.066 -64.328  1.00  0.00     0.092 A 
BRANCH  14  17
ATOM     17  O   UNL     1     -96.815 -15.297 -65.893  1.00  0.00    -0.508 OA
ATOM     18  H   UNL     1     -97.732 -14.889 -66.038  1.00  0.00     0.293 HD
ENDBRANCH  14  17
BRANCH  15  19
ATOM     19  O   UNL     1     -93.473 -16.855 -62.760  1.00  0.00    -0.508 OA
ATOM     20  H   UNL     1     -93.213 -17.271 -61.873  1.00  0.00     0.293 HD
ENDBRANCH  15  19
ENDBRANCH  10  11
ENDBRANCH   1  10
TORSDOF 6
ENDMDL
MODEL 7
REMARK VINA RESULT:    -4.468      3.626      7.404
REMARK INTER + INTRA:          -6.234
REMARK INTER:                  -5.763
REMARK INTRA:                  -0.470
REMARK UNBOUND:                -0.591
REMARK SMILES Oc1cc(O)cc(CCc2ccccc2O)c1
REMARK SMILES IDX 9 1 10 2 12 3 13 4 11 5 14 6 15 7 16 8 8 10 7 11 6 12 17 13
REMARK SMILES IDX 4 14 2 15 3 16 5 17 1 19
REMARK H PARENT 16 9 5 18 1 20
REMARK Flexibility Score: inf
ROOT
ATOM      1  C   UNL     1     -97.990 -16.219 -62.421  1.00  0.00     0.044 C 
ENDROOT
BRANCH   1   2
ATOM      2  C   UNL     1     -99.458 -15.955 -62.644  1.00  0.00    -0.006 A 
ATOM      3  C   UNL     1    -101.607 -16.684 -63.519  1.00  0.00     0.001 A 
ATOM      4  C   UNL     1    -102.179 -15.469 -63.140  1.00  0.00     0.004 A 
ATOM      5  C   UNL     1    -100.252 -16.926 -63.277  1.00  0.00     0.007 A 
ATOM      6  C   UNL     1    -101.396 -14.488 -62.523  1.00  0.00     0.046 A 
ATOM      7  C   UNL     1    -100.035 -14.722 -62.278  1.00  0.00     0.118 A 
BRANCH   7   8
ATOM      8  O   UNL     1     -99.257 -13.733 -61.674  1.00  0.00    -0.508 OA
ATOM      9  H   UNL     1     -99.659 -12.856 -61.366  1.00  0.00     0.293 HD
ENDBRANCH   7   8
ENDBRANCH   1   2
BRANCH   1  10
ATOM     10  C   UNL     1     -97.187 -15.904 -63.687  1.00  0.00     0.040 C 
BRANCH  10  11
ATOM     11  C   UNL     1     -96.040 -16.866 -63.839  1.00  0.00    -0.040 A 
ATOM     12  C   UNL     1     -96.178 -18.013 -64.637  1.00  0.00     0.050 A 
ATOM     13  C   UNL     1     -94.842 -16.655 -63.136  1.00  0.00     0.050 A 
ATOM     14  C   UNL     1     -95.121 -18.927 -64.752  1.00  0.00     0.119 A 
ATOM     15  C   UNL     1     -93.786 -17.566 -63.249  1.00  0.00     0.119 A 
ATOM     16  C   UNL     1     -93.927 -18.700 -64.061  1.00  0.00     0.092 A 
BRANCH  14  17
ATOM     17  O   UNL     1     -95.249 -20.062 -65.548  1.00  0.00    -0.508 OA
ATOM     18  H   UNL     1     -94.451 -20.648 -65.770  1.00  0.00     0.293 HD
ENDBRANCH  14  17
BRANCH  15  19
ATOM     19  O   UNL     1     -92.603 -17.336 -62.551  1.00  0.00    -0.508 OA
ATOM     20  H   UNL     1     -92.074 -16.480 -62.671  1.00  0.00     0.293 HD
ENDBRANCH  15  19
ENDBRANCH  10  11
ENDBRANCH   1  10
TORSDOF 6
ENDMDL
MODEL 8
REMARK VINA RESULT:    -4.454      2.244      2.982
REMARK INTER + INTRA:          -6.216
REMARK INTER:                  -5.676
REMARK INTRA:                  -0.540
REMARK UNBOUND:                -0.591
REMARK SMILES Oc1cc(O)cc(CCc2ccccc2O)c1
REMARK SMILES IDX 9 1 10 2 12 3 13 4 11 5 14 6 15 7 16 8 8 10 7 11 6 12 17 13
REMARK SMILES IDX 4 14 2 15 3 16 5 17 1 19
REMARK H PARENT 16 9 5 18 1 20
REMARK Flexibility Score: inf
ROOT
ATOM      1  C   UNL     1     -93.733 -17.639 -62.468  1.00  0.00     0.044 C 
ENDROOT
BRANCH   1   2
ATOM      2  C   UNL     1     -93.028 -18.877 -62.960  1.00  0.00    -0.006 A 
ATOM      3  C   UNL     1     -93.123 -21.214 -63.627  1.00  0.00     0.001 A 
ATOM      4  C   UNL     1     -91.739 -21.223 -63.809  1.00  0.00     0.004 A 
ATOM      5  C   UNL     1     -93.765 -20.050 -63.200  1.00  0.00     0.007 A 
ATOM      6  C   UNL     1     -90.992 -20.069 -63.559  1.00  0.00     0.046 A 
ATOM      7  C   UNL     1     -91.628 -18.895 -63.129  1.00  0.00     0.118 A 
BRANCH   7   8
ATOM      8  O   UNL     1     -90.875 -17.750 -62.868  1.00  0.00    -0.508 OA
ATOM      9  H   UNL     1     -90.422 -17.605 -61.974  1.00  0.00     0.293 HD
ENDBRANCH   7   8
ENDBRANCH   1   2
BRANCH   1  10
ATOM     10  C   UNL     1     -94.999 -18.012 -61.690  1.00  0.00     0.040 C 
BRANCH  10  11
ATOM     11  C   UNL     1     -96.188 -17.257 -62.221  1.00  0.00    -0.040 A 
ATOM     12  C   UNL     1     -97.351 -17.131 -61.445  1.00  0.00     0.050 A 
ATOM     13  C   UNL     1     -96.164 -16.723 -63.520  1.00  0.00     0.050 A 
ATOM     14  C   UNL     1     -98.471 -16.458 -61.952  1.00  0.00     0.119 A 
ATOM     15  C   UNL     1     -97.280 -16.050 -64.028  1.00  0.00     0.119 A 
ATOM     16  C   UNL     1     -98.432 -15.916 -63.240  1.00  0.00     0.092 A 
BRANCH  14  17
ATOM     17  O   UNL     1     -99.625 -16.322 -61.185  1.00  0.00    -0.508 OA
ATOM     18  H   UNL     1     -99.855 -15.450 -60.722  1.00  0.00     0.293 HD
ENDBRANCH  14  17
BRANCH  15  19
ATOM     19  O   UNL     1     -97.235 -15.521 -65.315  1.00  0.00    -0.508 OA
ATOM     20  H   UNL     1     -96.906 -16.068 -66.102  1.00  0.00     0.293 HD
ENDBRANCH  15  19
ENDBRANCH  10  11
ENDBRANCH   1  10
TORSDOF 6
ENDMDL
MODEL 9
REMARK VINA RESULT:    -4.443      4.111      7.238
REMARK INTER + INTRA:          -6.203
REMARK INTER:                  -5.583
REMARK INTRA:                  -0.620
REMARK UNBOUND:                -0.591
REMARK SMILES Oc1cc(O)cc(CCc2ccccc2O)c1
REMARK SMILES IDX 9 1 10 2 12 3 13 4 11 5 14 6 15 7 16 8 8 10 7 11 6 12 17 13
REMARK SMILES IDX 4 14 2 15 3 16 5 17 1 19
REMARK H PARENT 16 9 5 18 1 20
REMARK Flexibility Score: inf
ROOT
ATOM      1  C   UNL     1     -98.782 -16.654 -60.909  1.00  0.00     0.044 C 
ENDROOT
BRANCH   1   2
ATOM      2  C   UNL     1    -100.106 -16.150 -61.422  1.00  0.00    -0.006 A 
ATOM      3  C   UNL     1    -102.450 -16.562 -61.923  1.00  0.00     0.001 A 
ATOM      4  C   UNL     1    -102.572 -15.270 -62.437  1.00  0.00     0.004 A 
ATOM      5  C   UNL     1    -101.223 -17.003 -61.422  1.00  0.00     0.007 A 
ATOM      6  C   UNL     1    -101.465 -14.417 -62.457  1.00  0.00     0.046 A 
ATOM      7  C   UNL     1    -100.229 -14.852 -61.958  1.00  0.00     0.118 A 
BRANCH   7   8
ATOM      8  O   UNL     1     -99.125 -14.000 -61.993  1.00  0.00    -0.508 OA
ATOM      9  H   UNL     1     -98.725 -13.614 -61.147  1.00  0.00     0.293 HD
ENDBRANCH   7   8
ENDBRANCH   1   2
BRANCH   1  10
ATOM     10  C   UNL     1     -98.233 -17.757 -61.820  1.00  0.00     0.040 C 
BRANCH  10  11
ATOM     11  C   UNL     1     -97.160 -17.212 -62.723  1.00  0.00    -0.040 A 
ATOM     12  C   UNL     1     -95.806 -17.345 -62.376  1.00  0.00     0.050 A 
ATOM     13  C   UNL     1     -97.507 -16.514 -63.892  1.00  0.00     0.050 A 
ATOM     14  C   UNL     1     -94.808 -16.808 -63.200  1.00  0.00     0.119 A 
ATOM     15  C   UNL     1     -96.513 -15.977 -64.716  1.00  0.00     0.119 A 
ATOM     16  C   UNL     1     -95.162 -16.129 -64.370  1.00  0.00     0.092 A 
BRANCH  14  17
ATOM     17  O   UNL     1     -93.463 -16.944 -62.866  1.00  0.00    -0.508 OA
ATOM     18  H   UNL     1     -92.728 -16.600 -63.474  1.00  0.00     0.293 HD
ENDBRANCH  14  17
BRANCH  15  19
ATOM     19  O   UNL     1     -96.875 -15.295 -65.875  1.00  0.00    -0.508 OA
ATOM     20  H   UNL     1     -97.359 -14.405 -65.837  1.00  0.00     0.293 HD
ENDBRANCH  15  19
ENDBRANCH  10  11
ENDBRANCH   1  10
TORSDOF 6
ENDMDL
