MODEL 1
REMARK VINA RESULT:    -4.368      0.000      0.000
REMARK INTER + INTRA:         -13.096
REMARK INTER:                  -9.475
REMARK INTRA:                  -3.621
REMARK UNBOUND:                -3.621
REMARK SMILES CCCCCCCCCCCCCCCCCCCCCC(=O)[O-]
REMARK SMILES IDX 12 1 11 2 10 3 9 4 8 5 7 6 6 7 5 8 4 9 3 10 2 11 1 12 13 13
REMARK SMILES IDX 14 14 15 15 16 16 17 17 18 18 19 19 20 20 21 21 22 22 23 23
REMARK SMILES IDX 24 24
REMARK H PARENT
REMARK Flexibility Score: inf
ROOT
ATOM      1  C   UNL     1     -17.415 115.417  -1.970  1.00  0.00     0.000 C 
ENDROOT
BRANCH   1   2
ATOM      2  C   UNL     1     -17.011 114.625  -3.228  1.00  0.00     0.000 C 
BRANCH   2   3
ATOM      3  C   UNL     1     -18.145 114.366  -4.238  1.00  0.00     0.000 C 
BRANCH   3   4
ATOM      4  C   UNL     1     -19.316 115.349  -4.093  1.00  0.00    -0.000 C 
BRANCH   4   5
ATOM      5  C   UNL     1     -19.546 116.123  -5.399  1.00  0.00    -0.000 C 
BRANCH   5   6
ATOM      6  C   UNL     1     -20.818 116.986  -5.364  1.00  0.00    -0.000 C 
BRANCH   6   7
ATOM      7  C   UNL     1     -21.848 116.479  -4.340  1.00  0.00    -0.000 C 
BRANCH   7   8
ATOM      8  C   UNL     1     -22.207 117.540  -3.287  1.00  0.00    -0.000 C 
BRANCH   8   9
ATOM      9  C   UNL     1     -21.160 118.665  -3.195  1.00  0.00    -0.000 C 
BRANCH   9  10
ATOM     10  C   UNL     1     -20.113 118.397  -2.092  1.00  0.00    -0.000 C 
BRANCH  10  11
ATOM     11  C   UNL     1     -19.695 119.661  -1.321  1.00  0.00    -0.003 C 
ATOM     12  C   UNL     1     -19.929 120.949  -2.108  1.00  0.00     0.004 C 
ENDBRANCH  10  11
ENDBRANCH   9  10
ENDBRANCH   8   9
ENDBRANCH   7   8
ENDBRANCH   6   7
ENDBRANCH   5   6
ENDBRANCH   4   5
ENDBRANCH   3   4
ENDBRANCH   2   3
ENDBRANCH   1   2
BRANCH   1  13
ATOM     13  C   UNL     1     -17.474 114.548  -0.703  1.00  0.00     0.000 C 
BRANCH  13  14
ATOM     14  C   UNL     1     -18.915 114.226  -0.263  1.00  0.00     0.000 C 
BRANCH  14  15
ATOM     15  C   UNL     1     -19.932 115.364  -0.456  1.00  0.00     0.000 C 
BRANCH  15  16
ATOM     16  C   UNL     1     -21.345 114.855  -0.788  1.00  0.00     0.000 C 
BRANCH  16  17
ATOM     17  C   UNL     1     -22.449 115.630  -0.049  1.00  0.00     0.000 C 
BRANCH  17  18
ATOM     18  C   UNL     1     -21.985 116.925   0.647  1.00  0.00     0.000 C 
BRANCH  18  19
ATOM     19  C   UNL     1     -23.131 117.911   0.958  1.00  0.00     0.000 C 
BRANCH  19  20
ATOM     20  C   UNL     1     -23.647 118.621  -0.306  1.00  0.00     0.006 C 
BRANCH  20  21
ATOM     21  C   UNL     1     -23.252 120.104  -0.342  1.00  0.00     0.053 C 
BRANCH  21  22
ATOM     22  C   UNL     1     -23.996 120.851  -1.406  1.00  0.00     0.041 C 
ATOM     23  O   UNL     1     -23.489 121.000  -2.548  1.00  0.00    -0.550 OA
ATOM     24  O   UNL     1     -25.266 121.349  -1.146  1.00  0.00    -0.550 OA
ENDBRANCH  21  22
ENDBRANCH  20  21
ENDBRANCH  19  20
ENDBRANCH  18  19
ENDBRANCH  17  18
ENDBRANCH  16  17
ENDBRANCH  15  16
ENDBRANCH  14  15
ENDBRANCH  13  14
ENDBRANCH   1  13
TORSDOF 20
ENDMDL
MODEL 2
REMARK VINA RESULT:    -4.137      3.016      6.137
REMARK INTER + INTRA:         -12.596
REMARK INTER:                  -8.635
REMARK INTRA:                  -3.960
REMARK UNBOUND:                -3.621
REMARK SMILES CCCCCCCCCCCCCCCCCCCCCC(=O)[O-]
REMARK SMILES IDX 12 1 11 2 10 3 9 4 8 5 7 6 6 7 5 8 4 9 3 10 2 11 1 12 13 13
REMARK SMILES IDX 14 14 15 15 16 16 17 17 18 18 19 19 20 20 21 21 22 22 23 23
REMARK SMILES IDX 24 24
REMARK H PARENT
REMARK Flexibility Score: inf
ROOT
ATOM      1  C   UNL     1     -21.497 119.164   0.539  1.00  0.00     0.000 C 
ENDROOT
BRANCH   1   2
ATOM      2  C   UNL     1     -22.298 117.863   0.342  1.00  0.00     0.000 C 
BRANCH   2   3
ATOM      3  C   UNL     1     -21.483 116.562   0.462  1.00  0.00     0.000 C 
BRANCH   3   4
ATOM      4  C   UNL     1     -22.135 115.375  -0.263  1.00  0.00    -0.000 C 
BRANCH   4   5
ATOM      5  C   UNL     1     -23.441 115.801  -0.950  1.00  0.00    -0.000 C 
BRANCH   5   6
ATOM      6  C   UNL     1     -23.400 115.614  -2.475  1.00  0.00    -0.000 C 
BRANCH   6   7
ATOM      7  C   UNL     1     -24.556 116.334  -3.190  1.00  0.00    -0.000 C 
BRANCH   7   8
ATOM      8  C   UNL     1     -25.318 117.294  -2.261  1.00  0.00    -0.000 C 
BRANCH   8   9
ATOM      9  C   UNL     1     -24.762 118.729  -2.303  1.00  0.00    -0.000 C 
BRANCH   9  10
ATOM     10  C   UNL     1     -25.395 119.630  -1.220  1.00  0.00    -0.000 C 
BRANCH  10  11
ATOM     11  C   UNL     1     -25.569 121.093  -1.663  1.00  0.00    -0.003 C 
ATOM     12  C   UNL     1     -24.716 121.459  -2.876  1.00  0.00     0.004 C 
ENDBRANCH  10  11
ENDBRANCH   9  10
ENDBRANCH   8   9
ENDBRANCH   7   8
ENDBRANCH   6   7
ENDBRANCH   5   6
ENDBRANCH   4   5
ENDBRANCH   3   4
ENDBRANCH   2   3
ENDBRANCH   1   2
BRANCH   1  13
ATOM     13  C   UNL     1     -22.109 120.367  -0.198  1.00  0.00     0.000 C 
BRANCH  13  14
ATOM     14  C   UNL     1     -21.065 121.187  -0.978  1.00  0.00     0.000 C 
BRANCH  14  15
ATOM     15  C   UNL     1     -20.326 120.423  -2.091  1.00  0.00     0.000 C 
BRANCH  15  16
ATOM     16  C   UNL     1     -21.233 120.075  -3.284  1.00  0.00     0.000 C 
BRANCH  16  17
ATOM     17  C   UNL     1     -21.427 118.560  -3.465  1.00  0.00     0.000 C 
BRANCH  17  18
ATOM     18  C   UNL     1     -20.343 117.679  -2.813  1.00  0.00     0.000 C 
BRANCH  18  19
ATOM     19  C   UNL     1     -19.857 116.522  -3.711  1.00  0.00     0.000 C 
BRANCH  19  20
ATOM     20  C   UNL     1     -18.635 115.799  -3.117  1.00  0.00     0.006 C 
BRANCH  20  21
ATOM     21  C   UNL     1     -19.029 114.783  -2.037  1.00  0.00     0.053 C 
BRANCH  21  22
ATOM     22  C   UNL     1     -18.086 114.816  -0.874  1.00  0.00     0.041 C 
ATOM     23  O   UNL     1     -16.980 115.409  -0.971  1.00  0.00    -0.550 OA
ATOM     24  O   UNL     1     -18.445 114.223   0.330  1.00  0.00    -0.550 OA
ENDBRANCH  21  22
ENDBRANCH  20  21
ENDBRANCH  19  20
ENDBRANCH  18  19
ENDBRANCH  17  18
ENDBRANCH  16  17
ENDBRANCH  15  16
ENDBRANCH  14  15
ENDBRANCH  13  14
ENDBRANCH   1  13
TORSDOF 20
ENDMDL
MODEL 3
REMARK VINA RESULT:    -4.034      2.902      5.314
REMARK INTER + INTRA:         -12.372
REMARK INTER:                  -8.472
REMARK INTRA:                  -3.900
REMARK UNBOUND:                -3.621
REMARK SMILES CCCCCCCCCCCCCCCCCCCCCC(=O)[O-]
REMARK SMILES IDX 12 1 11 2 10 3 9 4 8 5 7 6 6 7 5 8 4 9 3 10 2 11 1 12 13 13
REMARK SMILES IDX 14 14 15 15 16 16 17 17 18 18 19 19 20 20 21 21 22 22 23 23
REMARK SMILES IDX 24 24
REMARK H PARENT
REMARK Flexibility Score: inf
ROOT
ATOM      1  C   UNL     1     -23.242 114.842  -3.866  1.00  0.00     0.000 C 
ENDROOT
BRANCH   1   2
ATOM      2  C   UNL     1     -22.205 114.903  -5.004  1.00  0.00     0.000 C 
BRANCH   2   3
ATOM      3  C   UNL     1     -20.792 115.350  -4.587  1.00  0.00     0.000 C 
BRANCH   3   4
ATOM      4  C   UNL     1     -20.570 116.863  -4.735  1.00  0.00    -0.000 C 
BRANCH   4   5
ATOM      5  C   UNL     1     -20.747 117.577  -3.386  1.00  0.00    -0.000 C 
BRANCH   5   6
ATOM      6  C   UNL     1     -21.546 118.885  -3.506  1.00  0.00    -0.000 C 
BRANCH   6   7
ATOM      7  C   UNL     1     -20.757 120.107  -3.004  1.00  0.00    -0.000 C 
BRANCH   7   8
ATOM      8  C   UNL     1     -20.031 119.837  -1.677  1.00  0.00    -0.000 C 
BRANCH   8   9
ATOM      9  C   UNL     1     -20.671 120.577  -0.487  1.00  0.00    -0.000 C 
BRANCH   9  10
ATOM     10  C   UNL     1     -21.947 121.343  -0.897  1.00  0.00    -0.000 C 
BRANCH  10  11
ATOM     11  C   UNL     1     -23.249 120.629  -0.493  1.00  0.00    -0.003 C 
ATOM     12  C   UNL     1     -24.414 120.927  -1.434  1.00  0.00     0.004 C 
ENDBRANCH  10  11
ENDBRANCH   9  10
ENDBRANCH   8   9
ENDBRANCH   7   8
ENDBRANCH   6   7
ENDBRANCH   5   6
ENDBRANCH   4   5
ENDBRANCH   3   4
ENDBRANCH   2   3
ENDBRANCH   1   2
BRANCH   1  13
ATOM     13  C   UNL     1     -24.158 116.076  -3.817  1.00  0.00     0.000 C 
BRANCH  13  14
ATOM     14  C   UNL     1     -24.873 116.238  -2.462  1.00  0.00     0.000 C 
BRANCH  14  15
ATOM     15  C   UNL     1     -24.196 117.202  -1.472  1.00  0.00     0.000 C 
BRANCH  15  16
ATOM     16  C   UNL     1     -23.606 116.484  -0.246  1.00  0.00     0.000 C 
BRANCH  16  17
ATOM     17  C   UNL     1     -22.292 117.117   0.243  1.00  0.00     0.000 C 
BRANCH  17  18
ATOM     18  C   UNL     1     -21.028 116.267   0.004  1.00  0.00     0.000 C 
BRANCH  18  19
ATOM     19  C   UNL     1     -21.295 114.956  -0.764  1.00  0.00     0.000 C 
BRANCH  19  20
ATOM     20  C   UNL     1     -19.991 114.249  -1.178  1.00  0.00     0.006 C 
BRANCH  20  21
ATOM     21  C   UNL     1     -18.819 114.602  -0.253  1.00  0.00     0.053 C 
BRANCH  21  22
ATOM     22  C   UNL     1     -17.617 115.048  -1.026  1.00  0.00     0.041 C 
ATOM     23  O   UNL     1     -17.732 115.910  -1.936  1.00  0.00    -0.550 OA
ATOM     24  O   UNL     1     -16.362 114.540  -0.715  1.00  0.00    -0.550 OA
ENDBRANCH  21  22
ENDBRANCH  20  21
ENDBRANCH  19  20
ENDBRANCH  18  19
ENDBRANCH  17  18
ENDBRANCH  16  17
ENDBRANCH  15  16
ENDBRANCH  14  15
ENDBRANCH  13  14
ENDBRANCH   1  13
TORSDOF 20
ENDMDL
MODEL 4
REMARK VINA RESULT:    -4.019      3.085      6.396
REMARK INTER + INTRA:         -12.338
REMARK INTER:                  -8.737
REMARK INTRA:                  -3.601
REMARK UNBOUND:                -3.621
REMARK SMILES CCCCCCCCCCCCCCCCCCCCCC(=O)[O-]
REMARK SMILES IDX 12 1 11 2 10 3 9 4 8 5 7 6 6 7 5 8 4 9 3 10 2 11 1 12 13 13
REMARK SMILES IDX 14 14 15 15 16 16 17 17 18 18 19 19 20 20 21 21 22 22 23 23
REMARK SMILES IDX 24 24
REMARK H PARENT
REMARK Flexibility Score: inf
ROOT
ATOM      1  C   UNL     1     -20.857 120.778  -0.735  1.00  0.00     0.000 C 
ENDROOT
BRANCH   1   2
ATOM      2  C   UNL     1     -22.369 121.072  -0.776  1.00  0.00     0.000 C 
BRANCH   2   3
ATOM      3  C   UNL     1     -23.057 120.803  -2.128  1.00  0.00     0.000 C 
BRANCH   3   4
ATOM      4  C   UNL     1     -24.581 120.986  -2.075  1.00  0.00    -0.000 C 
BRANCH   4   5
ATOM      5  C   UNL     1     -25.292 119.630  -1.952  1.00  0.00    -0.000 C 
BRANCH   5   6
ATOM      6  C   UNL     1     -24.655 118.543  -2.832  1.00  0.00    -0.000 C 
BRANCH   6   7
ATOM      7  C   UNL     1     -25.263 117.152  -2.584  1.00  0.00    -0.000 C 
BRANCH   7   8
ATOM      8  C   UNL     1     -24.242 116.154  -2.014  1.00  0.00    -0.000 C 
BRANCH   8   9
ATOM      9  C   UNL     1     -24.562 115.735  -0.568  1.00  0.00    -0.000 C 
BRANCH   9  10
ATOM     10  C   UNL     1     -23.416 116.085   0.406  1.00  0.00    -0.000 C 
BRANCH  10  11
ATOM     11  C   UNL     1     -22.939 117.544   0.296  1.00  0.00    -0.003 C 
ATOM     12  C   UNL     1     -21.816 117.884   1.273  1.00  0.00     0.004 C 
ENDBRANCH  10  11
ENDBRANCH   9  10
ENDBRANCH   8   9
ENDBRANCH   7   8
ENDBRANCH   6   7
ENDBRANCH   5   6
ENDBRANCH   4   5
ENDBRANCH   3   4
ENDBRANCH   2   3
ENDBRANCH   1   2
BRANCH   1  13
ATOM     13  C   UNL     1     -20.319 120.192  -2.051  1.00  0.00     0.000 C 
BRANCH  13  14
ATOM     14  C   UNL     1     -20.029 118.682  -1.960  1.00  0.00     0.000 C 
BRANCH  14  15
ATOM     15  C   UNL     1     -20.899 117.789  -2.861  1.00  0.00     0.000 C 
BRANCH  15  16
ATOM     16  C   UNL     1     -20.156 116.539  -3.364  1.00  0.00     0.000 C 
BRANCH  16  17
ATOM     17  C   UNL     1     -21.058 115.295  -3.436  1.00  0.00     0.000 C 
BRANCH  17  18
ATOM     18  C   UNL     1     -20.705 114.172  -2.442  1.00  0.00     0.000 C 
BRANCH  18  19
ATOM     19  C   UNL     1     -20.512 114.661  -0.991  1.00  0.00     0.000 C 
BRANCH  19  20
ATOM     20  C   UNL     1     -19.258 114.055  -0.335  1.00  0.00     0.006 C 
BRANCH  20  21
ATOM     21  C   UNL     1     -18.108 113.875  -1.334  1.00  0.00     0.053 C 
BRANCH  21  22
ATOM     22  C   UNL     1     -16.967 114.799  -1.039  1.00  0.00     0.041 C 
ATOM     23  O   UNL     1     -15.860 114.336  -0.656  1.00  0.00    -0.550 OA
ATOM     24  O   UNL     1     -17.114 116.168  -1.223  1.00  0.00    -0.550 OA
ENDBRANCH  21  22
ENDBRANCH  20  21
ENDBRANCH  19  20
ENDBRANCH  18  19
ENDBRANCH  17  18
ENDBRANCH  16  17
ENDBRANCH  15  16
ENDBRANCH  14  15
ENDBRANCH  13  14
ENDBRANCH   1  13
TORSDOF 20
ENDMDL
MODEL 5
REMARK VINA RESULT:    -4.018      1.932      4.933
REMARK INTER + INTRA:         -12.337
REMARK INTER:                  -8.668
REMARK INTRA:                  -3.669
REMARK UNBOUND:                -3.621
REMARK SMILES CCCCCCCCCCCCCCCCCCCCCC(=O)[O-]
REMARK SMILES IDX 12 1 11 2 10 3 9 4 8 5 7 6 6 7 5 8 4 9 3 10 2 11 1 12 13 13
REMARK SMILES IDX 14 14 15 15 16 16 17 17 18 18 19 19 20 20 21 21 22 22 23 23
REMARK SMILES IDX 24 24
REMARK H PARENT
REMARK Flexibility Score: inf
ROOT
ATOM      1  C   UNL     1     -21.262 117.525  -0.170  1.00  0.00     0.000 C 
ENDROOT
BRANCH   1   2
ATOM      2  C   UNL     1     -21.340 116.016   0.127  1.00  0.00     0.000 C 
BRANCH   2   3
ATOM      3  C   UNL     1     -21.172 115.093  -1.094  1.00  0.00     0.000 C 
BRANCH   3   4
ATOM      4  C   UNL     1     -20.011 114.098  -0.943  1.00  0.00    -0.000 C 
BRANCH   4   5
ATOM      5  C   UNL     1     -18.884 114.697  -0.088  1.00  0.00    -0.000 C 
BRANCH   5   6
ATOM      6  C   UNL     1     -17.540 114.754  -0.831  1.00  0.00    -0.000 C 
BRANCH   6   7
ATOM      7  C   UNL     1     -17.597 115.636  -2.089  1.00  0.00    -0.000 C 
BRANCH   7   8
ATOM      8  C   UNL     1     -17.364 114.838  -3.382  1.00  0.00    -0.000 C 
BRANCH   8   9
ATOM      9  C   UNL     1     -18.634 114.715  -4.243  1.00  0.00    -0.000 C 
BRANCH   9  10
ATOM     10  C   UNL     1     -19.322 116.079  -4.463  1.00  0.00    -0.000 C 
BRANCH  10  11
ATOM     11  C   UNL     1     -20.760 115.963  -4.998  1.00  0.00    -0.003 C 
ATOM     12  C   UNL     1     -21.388 114.595  -4.741  1.00  0.00     0.004 C 
ENDBRANCH  10  11
ENDBRANCH   9  10
ENDBRANCH   8   9
ENDBRANCH   7   8
ENDBRANCH   6   7
ENDBRANCH   5   6
ENDBRANCH   4   5
ENDBRANCH   3   4
ENDBRANCH   2   3
ENDBRANCH   1   2
BRANCH   1  13
ATOM     13  C   UNL     1     -20.808 117.836  -1.607  1.00  0.00     0.000 C 
BRANCH  13  14
ATOM     14  C   UNL     1     -19.604 118.794  -1.661  1.00  0.00     0.000 C 
BRANCH  14  15
ATOM     15  C   UNL     1     -19.937 120.283  -1.460  1.00  0.00     0.000 C 
BRANCH  15  16
ATOM     16  C   UNL     1     -21.348 120.652  -1.950  1.00  0.00     0.000 C 
BRANCH  16  17
ATOM     17  C   UNL     1     -22.288 121.069  -0.805  1.00  0.00     0.000 C 
BRANCH  17  18
ATOM     18  C   UNL     1     -23.750 120.603  -0.956  1.00  0.00     0.000 C 
BRANCH  18  19
ATOM     19  C   UNL     1     -23.938 119.461  -1.976  1.00  0.00     0.000 C 
BRANCH  19  20
ATOM     20  C   UNL     1     -25.140 118.563  -1.629  1.00  0.00     0.006 C 
BRANCH  20  21
ATOM     21  C   UNL     1     -24.726 117.106  -1.383  1.00  0.00     0.053 C 
BRANCH  21  22
ATOM     22  C   UNL     1     -24.914 116.709   0.049  1.00  0.00     0.041 C 
ATOM     23  O   UNL     1     -25.262 115.535   0.340  1.00  0.00    -0.550 OA
ATOM     24  O   UNL     1     -24.668 117.626   1.063  1.00  0.00    -0.550 OA
ENDBRANCH  21  22
ENDBRANCH  20  21
ENDBRANCH  19  20
ENDBRANCH  18  19
ENDBRANCH  17  18
ENDBRANCH  16  17
ENDBRANCH  15  16
ENDBRANCH  14  15
ENDBRANCH  13  14
ENDBRANCH   1  13
TORSDOF 20
ENDMDL
MODEL 6
REMARK VINA RESULT:    -4.009      1.883      3.783
REMARK INTER + INTRA:         -12.317
REMARK INTER:                  -8.399
REMARK INTRA:                  -3.918
REMARK UNBOUND:                -3.621
REMARK SMILES CCCCCCCCCCCCCCCCCCCCCC(=O)[O-]
REMARK SMILES IDX 12 1 11 2 10 3 9 4 8 5 7 6 6 7 5 8 4 9 3 10 2 11 1 12 13 13
REMARK SMILES IDX 14 14 15 15 16 16 17 17 18 18 19 19 20 20 21 21 22 22 23 23
REMARK SMILES IDX 24 24
REMARK H PARENT
REMARK Flexibility Score: inf
ROOT
ATOM      1  C   UNL     1     -17.080 115.469  -2.600  1.00  0.00     0.000 C 
ENDROOT
BRANCH   1   2
ATOM      2  C   UNL     1     -17.217 115.373  -1.069  1.00  0.00     0.000 C 
BRANCH   2   3
ATOM      3  C   UNL     1     -17.783 114.043  -0.539  1.00  0.00     0.000 C 
BRANCH   3   4
ATOM      4  C   UNL     1     -19.173 114.191   0.099  1.00  0.00    -0.000 C 
BRANCH   4   5
ATOM      5  C   UNL     1     -20.204 114.659  -0.939  1.00  0.00    -0.000 C 
BRANCH   5   6
ATOM      6  C   UNL     1     -21.343 115.483  -0.316  1.00  0.00    -0.000 C 
BRANCH   6   7
ATOM      7  C   UNL     1     -21.051 116.993  -0.322  1.00  0.00    -0.000 C 
BRANCH   7   8
ATOM      8  C   UNL     1     -20.228 117.431  -1.544  1.00  0.00    -0.000 C 
BRANCH   8   9
ATOM      9  C   UNL     1     -20.833 118.650  -2.264  1.00  0.00    -0.000 C 
BRANCH   9  10
ATOM     10  C   UNL     1     -20.058 119.951  -1.957  1.00  0.00    -0.000 C 
BRANCH  10  11
ATOM     11  C   UNL     1     -20.660 120.765  -0.800  1.00  0.00    -0.003 C 
ATOM     12  C   UNL     1     -22.147 121.061  -0.983  1.00  0.00     0.004 C 
ENDBRANCH  10  11
ENDBRANCH   9  10
ENDBRANCH   8   9
ENDBRANCH   7   8
ENDBRANCH   6   7
ENDBRANCH   5   6
ENDBRANCH   4   5
ENDBRANCH   3   4
ENDBRANCH   2   3
ENDBRANCH   1   2
BRANCH   1  13
ATOM     13  C   UNL     1     -17.368 114.139  -3.317  1.00  0.00     0.000 C 
BRANCH  13  14
ATOM     14  C   UNL     1     -18.480 114.257  -4.376  1.00  0.00     0.000 C 
BRANCH  14  15
ATOM     15  C   UNL     1     -19.093 115.660  -4.533  1.00  0.00     0.000 C 
BRANCH  15  16
ATOM     16  C   UNL     1     -20.601 115.624  -4.835  1.00  0.00     0.000 C 
BRANCH  16  17
ATOM     17  C   UNL     1     -21.291 114.363  -4.286  1.00  0.00     0.000 C 
BRANCH  17  18
ATOM     18  C   UNL     1     -22.800 114.511  -4.008  1.00  0.00     0.000 C 
BRANCH  18  19
ATOM     19  C   UNL     1     -23.213 115.923  -3.544  1.00  0.00     0.000 C 
BRANCH  19  20
ATOM     20  C   UNL     1     -24.259 115.881  -2.415  1.00  0.00     0.006 C 
BRANCH  20  21
ATOM     21  C   UNL     1     -24.514 117.266  -1.806  1.00  0.00     0.053 C 
BRANCH  21  22
ATOM     22  C   UNL     1     -24.670 117.198  -0.318  1.00  0.00     0.041 C 
ATOM     23  O   UNL     1     -25.136 116.161   0.223  1.00  0.00    -0.550 OA
ATOM     24  O   UNL     1     -24.267 118.266   0.473  1.00  0.00    -0.550 OA
ENDBRANCH  21  22
ENDBRANCH  20  21
ENDBRANCH  19  20
ENDBRANCH  18  19
ENDBRANCH  17  18
ENDBRANCH  16  17
ENDBRANCH  15  16
ENDBRANCH  14  15
ENDBRANCH  13  14
ENDBRANCH   1  13
TORSDOF 20
ENDMDL
MODEL 7
REMARK VINA RESULT:    -3.945      1.522      4.254
REMARK INTER + INTRA:         -12.178
REMARK INTER:                  -8.260
REMARK INTRA:                  -3.917
REMARK UNBOUND:                -3.621
REMARK SMILES CCCCCCCCCCCCCCCCCCCCCC(=O)[O-]
REMARK SMILES IDX 12 1 11 2 10 3 9 4 8 5 7 6 6 7 5 8 4 9 3 10 2 11 1 12 13 13
REMARK SMILES IDX 14 14 15 15 16 16 17 17 18 18 19 19 20 20 21 21 22 22 23 23
REMARK SMILES IDX 24 24
REMARK H PARENT
REMARK Flexibility Score: inf
ROOT
ATOM      1  C   UNL     1     -20.265 120.629  -2.115  1.00  0.00     0.000 C 
ENDROOT
BRANCH   1   2
ATOM      2  C   UNL     1     -21.486 120.089  -2.885  1.00  0.00     0.000 C 
BRANCH   2   3
ATOM      3  C   UNL     1     -21.287 118.719  -3.560  1.00  0.00     0.000 C 
BRANCH   3   4
ATOM      4  C   UNL     1     -22.292 117.661  -3.082  1.00  0.00    -0.000 C 
BRANCH   4   5
ATOM      5  C   UNL     1     -22.189 116.384  -3.930  1.00  0.00    -0.000 C 
BRANCH   5   6
ATOM      6  C   UNL     1     -22.392 115.103  -3.104  1.00  0.00    -0.000 C 
BRANCH   6   7
ATOM      7  C   UNL     1     -22.093 115.310  -1.610  1.00  0.00    -0.000 C 
BRANCH   7   8
ATOM      8  C   UNL     1     -20.809 114.594  -1.160  1.00  0.00    -0.000 C 
BRANCH   8   9
ATOM      9  C   UNL     1     -19.745 115.566  -0.618  1.00  0.00    -0.000 C 
BRANCH   9  10
ATOM     10  C   UNL     1     -19.106 116.414  -1.740  1.00  0.00    -0.000 C 
BRANCH  10  11
ATOM     11  C   UNL     1     -18.115 115.629  -2.616  1.00  0.00    -0.003 C 
ATOM     12  C   UNL     1     -18.676 115.280  -3.992  1.00  0.00     0.004 C 
ENDBRANCH  10  11
ENDBRANCH   9  10
ENDBRANCH   8   9
ENDBRANCH   7   8
ENDBRANCH   6   7
ENDBRANCH   5   6
ENDBRANCH   4   5
ENDBRANCH   3   4
ENDBRANCH   2   3
ENDBRANCH   1   2
BRANCH   1  13
ATOM     13  C   UNL     1     -20.467 120.634  -0.591  1.00  0.00     0.000 C 
BRANCH  13  14
ATOM     14  C   UNL     1     -21.753 119.909  -0.153  1.00  0.00     0.000 C 
BRANCH  14  15
ATOM     15  C   UNL     1     -21.539 118.578   0.588  1.00  0.00     0.000 C 
BRANCH  15  16
ATOM     16  C   UNL     1     -22.855 117.834   0.876  1.00  0.00     0.000 C 
BRANCH  16  17
ATOM     17  C   UNL     1     -24.035 118.364   0.045  1.00  0.00     0.000 C 
BRANCH  17  18
ATOM     18  C   UNL     1     -25.028 117.290  -0.442  1.00  0.00     0.000 C 
BRANCH  18  19
ATOM     19  C   UNL     1     -26.104 117.827  -1.408  1.00  0.00     0.000 C 
BRANCH  19  20
ATOM     20  C   UNL     1     -25.489 118.557  -2.616  1.00  0.00     0.006 C 
BRANCH  20  21
ATOM     21  C   UNL     1     -26.133 119.929  -2.855  1.00  0.00     0.053 C 
BRANCH  21  22
ATOM     22  C   UNL     1     -25.150 121.044  -2.667  1.00  0.00     0.041 C 
ATOM     23  O   UNL     1     -24.707 121.672  -3.663  1.00  0.00    -0.550 OA
ATOM     24  O   UNL     1     -24.754 121.412  -1.387  1.00  0.00    -0.550 OA
ENDBRANCH  21  22
ENDBRANCH  20  21
ENDBRANCH  19  20
ENDBRANCH  18  19
ENDBRANCH  17  18
ENDBRANCH  16  17
ENDBRANCH  15  16
ENDBRANCH  14  15
ENDBRANCH  13  14
ENDBRANCH   1  13
TORSDOF 20
ENDMDL
MODEL 8
REMARK VINA RESULT:    -3.907      2.913      5.923
REMARK INTER + INTRA:         -12.095
REMARK INTER:                  -8.521
REMARK INTRA:                  -3.574
REMARK UNBOUND:                -3.621
REMARK SMILES CCCCCCCCCCCCCCCCCCCCCC(=O)[O-]
REMARK SMILES IDX 12 1 11 2 10 3 9 4 8 5 7 6 6 7 5 8 4 9 3 10 2 11 1 12 13 13
REMARK SMILES IDX 14 14 15 15 16 16 17 17 18 18 19 19 20 20 21 21 22 22 23 23
REMARK SMILES IDX 24 24
REMARK H PARENT
REMARK Flexibility Score: inf
ROOT
ATOM      1  C   UNL     1     -20.821 121.269  -0.975  1.00  0.00     0.000 C 
ENDROOT
BRANCH   1   2
ATOM      2  C   UNL     1     -20.077 120.606  -2.150  1.00  0.00     0.000 C 
BRANCH   2   3
ATOM      3  C   UNL     1     -20.970 119.864  -3.162  1.00  0.00     0.000 C 
BRANCH   3   4
ATOM      4  C   UNL     1     -20.887 118.336  -3.032  1.00  0.00    -0.000 C 
BRANCH   4   5
ATOM      5  C   UNL     1     -22.282 117.701  -3.141  1.00  0.00    -0.000 C 
BRANCH   5   6
ATOM      6  C   UNL     1     -22.281 116.400  -3.962  1.00  0.00    -0.000 C 
BRANCH   6   7
ATOM      7  C   UNL     1     -23.547 115.558  -3.734  1.00  0.00    -0.000 C 
BRANCH   7   8
ATOM      8  C   UNL     1     -24.644 116.330  -2.985  1.00  0.00    -0.000 C 
BRANCH   8   9
ATOM      9  C   UNL     1     -24.942 115.742  -1.594  1.00  0.00    -0.000 C 
BRANCH   9  10
ATOM     10  C   UNL     1     -25.622 116.769  -0.661  1.00  0.00    -0.000 C 
BRANCH  10  11
ATOM     11  C   UNL     1     -25.776 116.275   0.787  1.00  0.00    -0.003 C 
ATOM     12  C   UNL     1     -26.029 114.772   0.886  1.00  0.00     0.004 C 
ENDBRANCH  10  11
ENDBRANCH   9  10
ENDBRANCH   8   9
ENDBRANCH   7   8
ENDBRANCH   6   7
ENDBRANCH   5   6
ENDBRANCH   4   5
ENDBRANCH   3   4
ENDBRANCH   2   3
ENDBRANCH   1   2
BRANCH   1  13
ATOM     13  C   UNL     1     -22.325 120.947  -0.953  1.00  0.00     0.000 C 
BRANCH  13  14
ATOM     14  C   UNL     1     -22.670 119.761  -0.034  1.00  0.00     0.000 C 
BRANCH  14  15
ATOM     15  C   UNL     1     -21.543 119.312   0.913  1.00  0.00     0.000 C 
BRANCH  15  16
ATOM     16  C   UNL     1     -21.818 117.946   1.566  1.00  0.00     0.000 C 
BRANCH  16  17
ATOM     17  C   UNL     1     -22.162 116.851   0.541  1.00  0.00     0.000 C 
BRANCH  17  18
ATOM     18  C   UNL     1     -20.955 116.063  -0.005  1.00  0.00     0.000 C 
BRANCH  18  19
ATOM     19  C   UNL     1     -21.344 114.854  -0.880  1.00  0.00     0.000 C 
BRANCH  19  20
ATOM     20  C   UNL     1     -20.134 114.264  -1.627  1.00  0.00     0.006 C 
BRANCH  20  21
ATOM     21  C   UNL     1     -18.934 115.220  -1.639  1.00  0.00     0.053 C 
BRANCH  21  22
ATOM     22  C   UNL     1     -18.277 115.271  -2.984  1.00  0.00     0.041 C 
ATOM     23  O   UNL     1     -17.031 115.425  -3.075  1.00  0.00    -0.550 OA
ATOM     24  O   UNL     1     -19.037 115.110  -4.135  1.00  0.00    -0.550 OA
ENDBRANCH  21  22
ENDBRANCH  20  21
ENDBRANCH  19  20
ENDBRANCH  18  19
ENDBRANCH  17  18
ENDBRANCH  16  17
ENDBRANCH  15  16
ENDBRANCH  14  15
ENDBRANCH  13  14
ENDBRANCH   1  13
TORSDOF 20
ENDMDL
MODEL 9
REMARK VINA RESULT:    -3.881      1.644      4.398
REMARK INTER + INTRA:         -12.039
REMARK INTER:                  -8.122
REMARK INTRA:                  -3.918
REMARK UNBOUND:                -3.621
REMARK SMILES CCCCCCCCCCCCCCCCCCCCCC(=O)[O-]
REMARK SMILES IDX 12 1 11 2 10 3 9 4 8 5 7 6 6 7 5 8 4 9 3 10 2 11 1 12 13 13
REMARK SMILES IDX 14 14 15 15 16 16 17 17 18 18 19 19 20 20 21 21 22 22 23 23
REMARK SMILES IDX 24 24
REMARK H PARENT
REMARK Flexibility Score: inf
ROOT
ATOM      1  C   UNL     1     -17.585 115.518  -1.550  1.00  0.00     0.000 C 
ENDROOT
BRANCH   1   2
ATOM      2  C   UNL     1     -17.965 114.359  -0.609  1.00  0.00     0.000 C 
BRANCH   2   3
ATOM      3  C   UNL     1     -19.465 114.241  -0.280  1.00  0.00     0.000 C 
BRANCH   3   4
ATOM      4  C   UNL     1     -20.261 115.506  -0.635  1.00  0.00    -0.000 C 
BRANCH   4   5
ATOM      5  C   UNL     1     -21.769 115.217  -0.651  1.00  0.00    -0.000 C 
BRANCH   5   6
ATOM      6  C   UNL     1     -22.533 115.979   0.445  1.00  0.00    -0.000 C 
BRANCH   6   7
ATOM      7  C   UNL     1     -22.324 117.500   0.362  1.00  0.00    -0.000 C 
BRANCH   7   8
ATOM      8  C   UNL     1     -23.643 118.268   0.173  1.00  0.00    -0.000 C 
BRANCH   8   9
ATOM      9  C   UNL     1     -24.830 117.342  -0.147  1.00  0.00    -0.000 C 
BRANCH   9  10
ATOM     10  C   UNL     1     -25.340 117.528  -1.592  1.00  0.00    -0.000 C 
BRANCH  10  11
ATOM     11  C   UNL     1     -24.299 117.161  -2.664  1.00  0.00    -0.003 C 
ATOM     12  C   UNL     1     -24.537 115.787  -3.287  1.00  0.00     0.004 C 
ENDBRANCH  10  11
ENDBRANCH   9  10
ENDBRANCH   8   9
ENDBRANCH   7   8
ENDBRANCH   6   7
ENDBRANCH   5   6
ENDBRANCH   4   5
ENDBRANCH   3   4
ENDBRANCH   2   3
ENDBRANCH   1   2
BRANCH   1  13
ATOM     13  C   UNL     1     -16.956 115.043  -2.870  1.00  0.00     0.000 C 
BRANCH  13  14
ATOM     14  C   UNL     1     -17.778 113.941  -3.564  1.00  0.00     0.000 C 
BRANCH  14  15
ATOM     15  C   UNL     1     -18.821 114.439  -4.580  1.00  0.00     0.000 C 
BRANCH  15  16
ATOM     16  C   UNL     1     -20.266 114.306  -4.068  1.00  0.00     0.000 C 
BRANCH  16  17
ATOM     17  C   UNL     1     -21.112 115.563  -4.332  1.00  0.00     0.000 C 
BRANCH  17  18
ATOM     18  C   UNL     1     -20.337 116.894  -4.288  1.00  0.00     0.000 C 
BRANCH  18  19
ATOM     19  C   UNL     1     -20.724 117.802  -3.102  1.00  0.00     0.000 C 
BRANCH  19  20
ATOM     20  C   UNL     1     -21.318 119.144  -3.567  1.00  0.00     0.006 C 
BRANCH  20  21
ATOM     21  C   UNL     1     -21.771 120.019  -2.390  1.00  0.00     0.053 C 
BRANCH  21  22
ATOM     22  C   UNL     1     -20.606 120.578  -1.634  1.00  0.00     0.041 C 
ATOM     23  O   UNL     1     -19.611 121.039  -2.252  1.00  0.00    -0.550 OA
ATOM     24  O   UNL     1     -20.636 120.624  -0.245  1.00  0.00    -0.550 OA
ENDBRANCH  21  22
ENDBRANCH  20  21
ENDBRANCH  19  20
ENDBRANCH  18  19
ENDBRANCH  17  18
ENDBRANCH  16  17
ENDBRANCH  15  16
ENDBRANCH  14  15
ENDBRANCH  13  14
ENDBRANCH   1  13
TORSDOF 20
ENDMDL
