MODEL 1
REMARK VINA RESULT:    24.244      0.000      0.000
REMARK INTER + INTRA:          28.943
REMARK INTER:                  29.204
REMARK INTRA:                  -0.261
REMARK UNBOUND:                -0.261
REMARK SMILES O=c1c(O)c(-c2ccc(O)c(O)c2)oc2cc(O)cc(O)c12
REMARK SMILES IDX 5 1 3 2 2 3 1 4 22 5 20 6 19 7 17 8 16 9 15 10 14 11 6 12
REMARK SMILES IDX 7 13 8 14 9 15 13 16 11 17 10 18 12 20 4 22 21 24 18 26
REMARK H PARENT 10 19 12 21 4 23 21 25 18 27
REMARK Flexibility Score: inf
ROOT
ATOM      1  C   UNL     1      -6.192  -7.476  16.384  1.00  0.00     0.180 A 
ATOM      2  C   UNL     1      -5.760  -8.399  17.352  1.00  0.00     0.208 A 
ATOM      3  C   UNL     1      -6.027  -9.764  17.158  1.00  0.00     0.238 A 
ATOM      4  O   UNL     1      -5.685 -10.579  18.054  1.00  0.00    -0.285 OA
ATOM      5  C   UNL     1      -6.708 -10.190  15.993  1.00  0.00     0.111 A 
ATOM      6  C   UNL     1      -6.997 -11.551  15.675  1.00  0.00     0.134 A 
ATOM      7  C   UNL     1      -7.791 -11.847  14.560  1.00  0.00     0.093 A 
ATOM      8  C   UNL     1      -8.252 -10.838  13.716  1.00  0.00     0.123 A 
ATOM      9  C   UNL     1      -7.926  -9.508  13.984  1.00  0.00     0.094 A 
ATOM     10  C   UNL     1      -7.166  -9.178  15.109  1.00  0.00     0.146 A 
ATOM     11  O   UNL     1      -6.886  -7.899  15.334  1.00  0.00    -0.452 OA
ENDROOT
BRANCH   1  12
ATOM     12  C   UNL     1      -5.926  -6.025  16.505  1.00  0.00     0.025 A 
ATOM     13  C   UNL     1      -4.630  -5.538  16.277  1.00  0.00     0.016 A 
ATOM     14  C   UNL     1      -4.352  -4.175  16.406  1.00  0.00     0.051 A 
ATOM     15  C   UNL     1      -5.359  -3.280  16.779  1.00  0.00     0.157 A 
ATOM     16  C   UNL     1      -6.933  -5.126  16.901  1.00  0.00     0.062 A 
ATOM     17  C   UNL     1      -6.656  -3.758  17.032  1.00  0.00     0.158 A 
BRANCH  15  18
ATOM     18  O   UNL     1      -5.054  -1.925  16.898  1.00  0.00    -0.504 OA
ATOM     19  H   UNL     1      -4.335  -1.588  17.527  1.00  0.00     0.293 HD
ENDBRANCH  15  18
BRANCH  17  20
ATOM     20  O   UNL     1      -7.663  -2.873  17.420  1.00  0.00    -0.504 OA
ATOM     21  H   UNL     1      -8.364  -3.133  18.103  1.00  0.00     0.293 HD
ENDBRANCH  17  20
ENDBRANCH   1  12
BRANCH   2  22
ATOM     22  O   UNL     1      -5.109  -7.955  18.506  1.00  0.00    -0.502 OA
ATOM     23  H   UNL     1      -5.609  -7.679  19.341  1.00  0.00     0.293 HD
ENDBRANCH   2  22
BRANCH   6  24
ATOM     24  O   UNL     1      -6.509 -12.642  16.400  1.00  0.00    -0.507 OA
ATOM     25  H   UNL     1      -6.837 -12.919  17.312  1.00  0.00     0.293 HD
ENDBRANCH   6  24
BRANCH   8  26
ATOM     26  O   UNL     1      -9.027 -11.169  12.606  1.00  0.00    -0.508 OA
ATOM     27  H   UNL     1      -8.752 -10.899  11.669  1.00  0.00     0.293 HD
ENDBRANCH   8  26
TORSDOF 6
ENDMDL
MODEL 2
REMARK VINA RESULT:    25.446      1.249      2.879
REMARK INTER + INTRA:          30.392
REMARK INTER:                  30.634
REMARK INTRA:                  -0.243
REMARK UNBOUND:                -0.261
REMARK SMILES O=c1c(O)c(-c2ccc(O)c(O)c2)oc2cc(O)cc(O)c12
REMARK SMILES IDX 5 1 3 2 2 3 1 4 22 5 20 6 19 7 17 8 16 9 15 10 14 11 6 12
REMARK SMILES IDX 7 13 8 14 9 15 13 16 11 17 10 18 12 20 4 22 21 24 18 26
REMARK H PARENT 10 19 12 21 4 23 21 25 18 27
REMARK Flexibility Score: inf
ROOT
ATOM      1  C   UNL     1      -6.541  -7.757  15.768  1.00  0.00     0.180 A 
ATOM      2  C   UNL     1      -7.341  -8.062  14.654  1.00  0.00     0.208 A 
ATOM      3  C   UNL     1      -7.601  -9.409  14.351  1.00  0.00     0.238 A 
ATOM      4  O   UNL     1      -8.273  -9.677  13.321  1.00  0.00    -0.285 OA
ATOM      5  C   UNL     1      -7.071 -10.431  15.174  1.00  0.00     0.111 A 
ATOM      6  C   UNL     1      -7.302 -11.826  14.984  1.00  0.00     0.134 A 
ATOM      7  C   UNL     1      -6.621 -12.754  15.781  1.00  0.00     0.093 A 
ATOM      8  C   UNL     1      -5.768 -12.339  16.802  1.00  0.00     0.123 A 
ATOM      9  C   UNL     1      -5.580 -10.976  17.036  1.00  0.00     0.094 A 
ATOM     10  C   UNL     1      -6.217 -10.026  16.234  1.00  0.00     0.146 A 
ATOM     11  O   UNL     1      -6.004  -8.739  16.483  1.00  0.00    -0.452 OA
ENDROOT
BRANCH   1  12
ATOM     12  C   UNL     1      -6.244  -6.362  16.166  1.00  0.00     0.025 A 
ATOM     13  C   UNL     1      -4.931  -5.877  16.060  1.00  0.00     0.016 A 
ATOM     14  C   UNL     1      -4.624  -4.571  16.450  1.00  0.00     0.051 A 
ATOM     15  C   UNL     1      -5.619  -3.735  16.964  1.00  0.00     0.157 A 
ATOM     16  C   UNL     1      -7.239  -5.525  16.703  1.00  0.00     0.062 A 
ATOM     17  C   UNL     1      -6.933  -4.215  17.096  1.00  0.00     0.158 A 
BRANCH  15  18
ATOM     18  O   UNL     1      -5.285  -2.435  17.342  1.00  0.00    -0.504 OA
ATOM     19  H   UNL     1      -4.994  -1.736  16.669  1.00  0.00     0.293 HD
ENDBRANCH  15  18
BRANCH  17  20
ATOM     20  O   UNL     1      -7.928  -3.390  17.622  1.00  0.00    -0.504 OA
ATOM     21  H   UNL     1      -8.906  -3.651  17.589  1.00  0.00     0.293 HD
ENDBRANCH  17  20
ENDBRANCH   1  12
BRANCH   2  22
ATOM     22  O   UNL     1      -7.837  -7.038  13.842  1.00  0.00    -0.502 OA
ATOM     23  H   UNL     1      -8.709  -7.120  13.335  1.00  0.00     0.293 HD
ENDBRANCH   2  22
BRANCH   6  24
ATOM     24  O   UNL     1      -8.205 -12.348  14.053  1.00  0.00    -0.507 OA
ATOM     25  H   UNL     1      -9.209 -12.306  14.140  1.00  0.00     0.293 HD
ENDBRANCH   6  24
BRANCH   8  26
ATOM     26  O   UNL     1      -5.119 -13.290  17.587  1.00  0.00    -0.508 OA
ATOM     27  H   UNL     1      -4.429 -13.023  18.280  1.00  0.00     0.293 HD
ENDBRANCH   8  26
TORSDOF 6
ENDMDL
