MODEL 1
REMARK VINA RESULT:    -8.601      0.000      0.000
REMARK INTER + INTRA:         -10.424
REMARK INTER:                 -10.109
REMARK INTRA:                  -0.315
REMARK UNBOUND:                -0.315
REMARK SMILES O=c1cc(-c2ccc(O)c(O)c2)oc2cc(O)cc(O)c12
REMARK SMILES IDX 4 1 3 2 2 3 1 4 21 5 19 6 18 7 16 8 15 9 14 10 13 11 5 12
REMARK SMILES IDX 6 13 7 14 8 15 12 16 10 17 9 18 11 20 20 22 17 24
REMARK H PARENT 9 19 11 21 20 23 17 25
REMARK Flexibility Score: inf
ROOT
ATOM      1  C   UNL     1     -12.103 -13.119  15.018  1.00  0.00     0.138 A 
ATOM      2  C   UNL     1     -12.530 -12.991  16.347  1.00  0.00     0.100 A 
ATOM      3  C   UNL     1     -13.885 -13.123  16.653  1.00  0.00     0.197 A 
ATOM      4  O   UNL     1     -14.245 -12.942  17.845  1.00  0.00    -0.289 OA
ATOM      5  C   UNL     1     -14.812 -13.417  15.626  1.00  0.00     0.107 A 
ATOM      6  C   UNL     1     -16.212 -13.615  15.826  1.00  0.00     0.134 A 
ATOM      7  C   UNL     1     -17.050 -13.785  14.717  1.00  0.00     0.093 A 
ATOM      8  C   UNL     1     -16.531 -13.825  13.419  1.00  0.00     0.123 A 
ATOM      9  C   UNL     1     -15.160 -13.687  13.218  1.00  0.00     0.094 A 
ATOM     10  C   UNL     1     -14.301 -13.482  14.301  1.00  0.00     0.146 A 
ATOM     11  O   UNL     1     -13.002 -13.341  14.064  1.00  0.00    -0.456 OA
ENDROOT
BRANCH   1  12
ATOM     12  C   UNL     1     -10.674 -12.989  14.637  1.00  0.00     0.021 A 
ATOM     13  C   UNL     1      -9.759 -12.450  15.558  1.00  0.00     0.016 A 
ATOM     14  C   UNL     1      -8.411 -12.311  15.221  1.00  0.00     0.051 A 
ATOM     15  C   UNL     1      -7.953 -12.696  13.959  1.00  0.00     0.157 A 
ATOM     16  C   UNL     1     -10.211 -13.364  13.361  1.00  0.00     0.062 A 
ATOM     17  C   UNL     1      -8.857 -13.222  13.022  1.00  0.00     0.158 A 
BRANCH  15  18
ATOM     18  O   UNL     1      -6.601 -12.546  13.652  1.00  0.00    -0.504 OA
ATOM     19  H   UNL     1      -5.911 -12.319  14.358  1.00  0.00     0.293 HD
ENDBRANCH  15  18
BRANCH  17  20
ATOM     20  O   UNL     1      -8.409 -13.598  11.756  1.00  0.00    -0.504 OA
ATOM     21  H   UNL     1      -7.582 -14.171  11.634  1.00  0.00     0.293 HD
ENDBRANCH  17  20
ENDBRANCH   1  12
BRANCH   6  22
ATOM     22  O   UNL     1     -16.820 -13.677  17.083  1.00  0.00    -0.507 OA
ATOM     23  H   UNL     1     -17.402 -12.953  17.478  1.00  0.00     0.293 HD
ENDBRANCH   6  22
BRANCH   8  24
ATOM     24  O   UNL     1     -17.372 -14.010  12.325  1.00  0.00    -0.508 OA
ATOM     25  H   UNL     1     -17.007 -14.099  11.384  1.00  0.00     0.293 HD
ENDBRANCH   8  24
TORSDOF 5
ENDMDL
MODEL 2
REMARK VINA RESULT:    -8.056      0.796      1.463
REMARK INTER + INTRA:          -9.785
REMARK INTER:                  -9.511
REMARK INTRA:                  -0.273
REMARK UNBOUND:                -0.315
REMARK SMILES O=c1cc(-c2ccc(O)c(O)c2)oc2cc(O)cc(O)c12
REMARK SMILES IDX 4 1 3 2 2 3 1 4 21 5 19 6 18 7 16 8 15 9 14 10 13 11 5 12
REMARK SMILES IDX 6 13 7 14 8 15 12 16 10 17 9 18 11 20 20 22 17 24
REMARK H PARENT 9 19 11 21 20 23 17 25
REMARK Flexibility Score: inf
ROOT
ATOM      1  C   UNL     1     -12.036 -12.906  14.727  1.00  0.00     0.138 A 
ATOM      2  C   UNL     1     -12.383 -12.872  16.084  1.00  0.00     0.100 A 
ATOM      3  C   UNL     1     -13.707 -13.094  16.464  1.00  0.00     0.197 A 
ATOM      4  O   UNL     1     -13.999 -12.996  17.684  1.00  0.00    -0.289 OA
ATOM      5  C   UNL     1     -14.682 -13.382  15.481  1.00  0.00     0.107 A 
ATOM      6  C   UNL     1     -16.054 -13.666  15.755  1.00  0.00     0.134 A 
ATOM      7  C   UNL     1     -16.952 -13.821  14.691  1.00  0.00     0.093 A 
ATOM      8  C   UNL     1     -16.516 -13.764  13.364  1.00  0.00     0.123 A 
ATOM      9  C   UNL     1     -15.170 -13.542  13.088  1.00  0.00     0.094 A 
ATOM     10  C   UNL     1     -14.255 -13.348  14.126  1.00  0.00     0.146 A 
ATOM     11  O   UNL     1     -12.982 -13.125  13.818  1.00  0.00    -0.456 OA
ENDROOT
BRANCH   1  12
ATOM     12  C   UNL     1     -10.643 -12.679  14.267  1.00  0.00     0.021 A 
ATOM     13  C   UNL     1     -10.047 -13.598  13.387  1.00  0.00     0.016 A 
ATOM     14  C   UNL     1      -8.735 -13.410  12.945  1.00  0.00     0.051 A 
ATOM     15  C   UNL     1      -7.992 -12.310  13.380  1.00  0.00     0.157 A 
ATOM     16  C   UNL     1      -9.887 -11.578  14.713  1.00  0.00     0.062 A 
ATOM     17  C   UNL     1      -8.568 -11.389  14.271  1.00  0.00     0.158 A 
BRANCH  15  18
ATOM     18  O   UNL     1      -6.686 -12.148  12.921  1.00  0.00    -0.504 OA
ATOM     19  H   UNL     1      -5.987 -11.642  13.452  1.00  0.00     0.293 HD
ENDBRANCH  15  18
BRANCH  17  20
ATOM     20  O   UNL     1      -7.829 -10.295  14.718  1.00  0.00    -0.504 OA
ATOM     21  H   UNL     1      -7.583 -10.184  15.695  1.00  0.00     0.293 HD
ENDBRANCH  17  20
ENDBRANCH   1  12
BRANCH   6  22
ATOM     22  O   UNL     1     -16.577 -13.827  17.041  1.00  0.00    -0.507 OA
ATOM     23  H   UNL     1     -16.351 -14.589  17.663  1.00  0.00     0.293 HD
ENDBRANCH   6  22
BRANCH   8  24
ATOM     24  O   UNL     1     -17.415 -13.935  12.315  1.00  0.00    -0.508 OA
ATOM     25  H   UNL     1     -17.800 -13.146  11.810  1.00  0.00     0.293 HD
ENDBRANCH   8  24
TORSDOF 5
ENDMDL
MODEL 3
REMARK VINA RESULT:    -7.956      1.277      2.737
REMARK INTER + INTRA:          -9.667
REMARK INTER:                  -9.370
REMARK INTRA:                  -0.297
REMARK UNBOUND:                -0.315
REMARK SMILES O=c1cc(-c2ccc(O)c(O)c2)oc2cc(O)cc(O)c12
REMARK SMILES IDX 4 1 3 2 2 3 1 4 21 5 19 6 18 7 16 8 15 9 14 10 13 11 5 12
REMARK SMILES IDX 6 13 7 14 8 15 12 16 10 17 9 18 11 20 20 22 17 24
REMARK H PARENT 9 19 11 21 20 23 17 25
REMARK Flexibility Score: inf
ROOT
ATOM      1  C   UNL     1     -11.995 -13.135  14.867  1.00  0.00     0.138 A 
ATOM      2  C   UNL     1     -12.829 -13.592  13.838  1.00  0.00     0.100 A 
ATOM      3  C   UNL     1     -14.184 -13.807  14.092  1.00  0.00     0.197 A 
ATOM      4  O   UNL     1     -14.895 -14.276  13.165  1.00  0.00    -0.289 OA
ATOM      5  C   UNL     1     -14.711 -13.531  15.375  1.00  0.00     0.107 A 
ATOM      6  C   UNL     1     -16.085 -13.672  15.738  1.00  0.00     0.134 A 
ATOM      7  C   UNL     1     -16.470 -13.482  17.070  1.00  0.00     0.093 A 
ATOM      8  C   UNL     1     -15.542 -13.095  18.041  1.00  0.00     0.123 A 
ATOM      9  C   UNL     1     -14.210 -12.902  17.686  1.00  0.00     0.094 A 
ATOM     10  C   UNL     1     -13.787 -13.117  16.372  1.00  0.00     0.146 A 
ATOM     11  O   UNL     1     -12.504 -12.935  16.078  1.00  0.00    -0.456 OA
ENDROOT
BRANCH   1  12
ATOM     12  C   UNL     1     -10.547 -12.889  14.652  1.00  0.00     0.021 A 
ATOM     13  C   UNL     1      -9.769 -12.376  15.704  1.00  0.00     0.016 A 
ATOM     14  C   UNL     1      -8.405 -12.129  15.525  1.00  0.00     0.051 A 
ATOM     15  C   UNL     1      -7.796 -12.380  14.293  1.00  0.00     0.157 A 
ATOM     16  C   UNL     1      -9.932 -13.127  13.407  1.00  0.00     0.062 A 
ATOM     17  C   UNL     1      -8.563 -12.878  13.226  1.00  0.00     0.158 A 
BRANCH  15  18
ATOM     18  O   UNL     1      -6.434 -12.125  14.144  1.00  0.00    -0.504 OA
ATOM     19  H   UNL     1      -5.884 -11.694  14.878  1.00  0.00     0.293 HD
ENDBRANCH  15  18
BRANCH  17  20
ATOM     20  O   UNL     1      -7.964 -13.119  11.990  1.00  0.00    -0.504 OA
ATOM     21  H   UNL     1      -7.601 -14.033  11.746  1.00  0.00     0.293 HD
ENDBRANCH  17  20
ENDBRANCH   1  12
BRANCH   6  22
ATOM     22  O   UNL     1     -17.105 -13.973  14.830  1.00  0.00    -0.507 OA
ATOM     23  H   UNL     1     -17.104 -14.762  14.202  1.00  0.00     0.293 HD
ENDBRANCH   6  22
BRANCH   8  24
ATOM     24  O   UNL     1     -15.938 -12.893  19.361  1.00  0.00    -0.508 OA
ATOM     25  H   UNL     1     -16.541 -13.550  19.841  1.00  0.00     0.293 HD
ENDBRANCH   8  24
TORSDOF 5
ENDMDL
MODEL 4
REMARK VINA RESULT:    -7.575      1.407      6.975
REMARK INTER + INTRA:          -9.219
REMARK INTER:                  -8.922
REMARK INTRA:                  -0.297
REMARK UNBOUND:                -0.315
REMARK SMILES O=c1cc(-c2ccc(O)c(O)c2)oc2cc(O)cc(O)c12
REMARK SMILES IDX 4 1 3 2 2 3 1 4 21 5 19 6 18 7 16 8 15 9 14 10 13 11 5 12
REMARK SMILES IDX 6 13 7 14 8 15 12 16 10 17 9 18 11 20 20 22 17 24
REMARK H PARENT 9 19 11 21 20 23 17 25
REMARK Flexibility Score: inf
ROOT
ATOM      1  C   UNL     1     -12.293 -13.217  14.885  1.00  0.00     0.138 A 
ATOM      2  C   UNL     1     -11.706 -12.812  16.091  1.00  0.00     0.100 A 
ATOM      3  C   UNL     1     -10.343 -12.520  16.132  1.00  0.00     0.197 A 
ATOM      4  O   UNL     1      -9.832 -12.219  17.242  1.00  0.00    -0.289 OA
ATOM      5  C   UNL     1      -9.571 -12.603  14.949  1.00  0.00     0.107 A 
ATOM      6  C   UNL     1      -8.181 -12.288  14.862  1.00  0.00     0.134 A 
ATOM      7  C   UNL     1      -7.495 -12.520  13.663  1.00  0.00     0.093 A 
ATOM      8  C   UNL     1      -8.162 -12.998  12.531  1.00  0.00     0.123 A 
ATOM      9  C   UNL     1      -9.528 -13.257  12.591  1.00  0.00     0.094 A 
ATOM     10  C   UNL     1     -10.234 -13.068  13.782  1.00  0.00     0.146 A 
ATOM     11  O   UNL     1     -11.535 -13.340  13.800  1.00  0.00    -0.456 OA
ENDROOT
BRANCH   1  12
ATOM     12  C   UNL     1     -13.739 -13.540  14.786  1.00  0.00     0.021 A 
ATOM     13  C   UNL     1     -14.279 -13.920  13.545  1.00  0.00     0.016 A 
ATOM     14  C   UNL     1     -15.638 -14.221  13.424  1.00  0.00     0.051 A 
ATOM     15  C   UNL     1     -16.483 -14.140  14.533  1.00  0.00     0.157 A 
ATOM     16  C   UNL     1     -14.597 -13.446  15.899  1.00  0.00     0.062 A 
ATOM     17  C   UNL     1     -15.962 -13.747  15.778  1.00  0.00     0.158 A 
BRANCH  15  18
ATOM     18  O   UNL     1     -17.834 -14.448  14.382  1.00  0.00    -0.504 OA
ATOM     19  H   UNL     1     -18.501 -13.780  14.015  1.00  0.00     0.293 HD
ENDBRANCH  15  18
BRANCH  17  20
ATOM     20  O   UNL     1     -16.801 -13.653  16.886  1.00  0.00    -0.504 OA
ATOM     21  H   UNL     1     -17.616 -13.050  16.886  1.00  0.00     0.293 HD
ENDBRANCH  17  20
ENDBRANCH   1  12
BRANCH   6  22
ATOM     22  O   UNL     1      -7.440 -11.728  15.906  1.00  0.00    -0.507 OA
ATOM     23  H   UNL     1      -7.422 -10.746  16.138  1.00  0.00     0.293 HD
ENDBRANCH   6  22
BRANCH   8  24
ATOM     24  O   UNL     1      -7.473 -13.211  11.339  1.00  0.00    -0.508 OA
ATOM     25  H   UNL     1      -6.694 -13.855  11.284  1.00  0.00     0.293 HD
ENDBRANCH   8  24
TORSDOF 5
ENDMDL
MODEL 5
REMARK VINA RESULT:    -7.524      1.454      3.126
REMARK INTER + INTRA:          -9.159
REMARK INTER:                  -8.840
REMARK INTRA:                  -0.318
REMARK UNBOUND:                -0.315
REMARK SMILES O=c1cc(-c2ccc(O)c(O)c2)oc2cc(O)cc(O)c12
REMARK SMILES IDX 4 1 3 2 2 3 1 4 21 5 19 6 18 7 16 8 15 9 14 10 13 11 5 12
REMARK SMILES IDX 6 13 7 14 8 15 12 16 10 17 9 18 11 20 20 22 17 24
REMARK H PARENT 9 19 11 21 20 23 17 25
REMARK Flexibility Score: inf
ROOT
ATOM      1  C   UNL     1     -11.952 -13.087  14.843  1.00  0.00     0.138 A 
ATOM      2  C   UNL     1     -12.752 -13.531  13.782  1.00  0.00     0.100 A 
ATOM      3  C   UNL     1     -14.112 -13.761  13.992  1.00  0.00     0.197 A 
ATOM      4  O   UNL     1     -14.792 -14.218  13.037  1.00  0.00    -0.289 OA
ATOM      5  C   UNL     1     -14.678 -13.514  15.265  1.00  0.00     0.107 A 
ATOM      6  C   UNL     1     -16.061 -13.674  15.585  1.00  0.00     0.134 A 
ATOM      7  C   UNL     1     -16.485 -13.512  16.909  1.00  0.00     0.093 A 
ATOM      8  C   UNL     1     -15.589 -13.137  17.914  1.00  0.00     0.123 A 
ATOM      9  C   UNL     1     -14.249 -12.927  17.601  1.00  0.00     0.094 A 
ATOM     10  C   UNL     1     -13.787 -13.113  16.296  1.00  0.00     0.146 A 
ATOM     11  O   UNL     1     -12.497 -12.915  16.043  1.00  0.00    -0.456 OA
ENDROOT
BRANCH   1  12
ATOM     12  C   UNL     1     -10.500 -12.825  14.675  1.00  0.00     0.021 A 
ATOM     13  C   UNL     1      -9.899 -13.043  13.423  1.00  0.00     0.016 A 
ATOM     14  C   UNL     1      -8.533 -12.811  13.241  1.00  0.00     0.051 A 
ATOM     15  C   UNL     1      -7.743 -12.367  14.303  1.00  0.00     0.157 A 
ATOM     16  C   UNL     1      -9.697 -12.391  15.747  1.00  0.00     0.062 A 
ATOM     17  C   UNL     1      -8.325 -12.160  15.565  1.00  0.00     0.158 A 
BRANCH  15  18
ATOM     18  O   UNL     1      -6.383 -12.143  14.091  1.00  0.00    -0.504 OA
ATOM     19  H   UNL     1      -5.668 -12.643  14.606  1.00  0.00     0.293 HD
ENDBRANCH  15  18
BRANCH  17  20
ATOM     20  O   UNL     1      -7.540 -11.728  16.633  1.00  0.00    -0.504 OA
ATOM     21  H   UNL     1      -6.722 -12.247  16.934  1.00  0.00     0.293 HD
ENDBRANCH  17  20
ENDBRANCH   1  12
BRANCH   6  22
ATOM     22  O   UNL     1     -17.052 -13.964  14.643  1.00  0.00    -0.507 OA
ATOM     23  H   UNL     1     -17.773 -14.661  14.761  1.00  0.00     0.293 HD
ENDBRANCH   6  22
BRANCH   8  24
ATOM     24  O   UNL     1     -16.025 -12.964  19.225  1.00  0.00    -0.508 OA
ATOM     25  H   UNL     1     -17.002 -13.049  19.476  1.00  0.00     0.293 HD
ENDBRANCH   8  24
TORSDOF 5
ENDMDL
MODEL 6
REMARK VINA RESULT:    -7.220      3.414      7.149
REMARK INTER + INTRA:          -8.802
REMARK INTER:                  -8.488
REMARK INTRA:                  -0.314
REMARK UNBOUND:                -0.315
REMARK SMILES O=c1cc(-c2ccc(O)c(O)c2)oc2cc(O)cc(O)c12
REMARK SMILES IDX 4 1 3 2 2 3 1 4 21 5 19 6 18 7 16 8 15 9 14 10 13 11 5 12
REMARK SMILES IDX 6 13 7 14 8 15 12 16 10 17 9 18 11 20 20 22 17 24
REMARK H PARENT 9 19 11 21 20 23 17 25
REMARK Flexibility Score: inf
ROOT
ATOM      1  C   UNL     1     -15.571 -12.776  17.875  1.00  0.00     0.138 A 
ATOM      2  C   UNL     1     -14.219 -12.872  17.517  1.00  0.00     0.100 A 
ATOM      3  C   UNL     1     -13.874 -13.254  16.220  1.00  0.00     0.197 A 
ATOM      4  O   UNL     1     -12.653 -13.392  15.947  1.00  0.00    -0.289 OA
ATOM      5  C   UNL     1     -14.889 -13.510  15.269  1.00  0.00     0.107 A 
ATOM      6  C   UNL     1     -14.655 -13.866  13.906  1.00  0.00     0.134 A 
ATOM      7  C   UNL     1     -15.738 -14.210  13.088  1.00  0.00     0.093 A 
ATOM      8  C   UNL     1     -17.051 -14.152  13.565  1.00  0.00     0.123 A 
ATOM      9  C   UNL     1     -17.292 -13.753  14.877  1.00  0.00     0.094 A 
ATOM     10  C   UNL     1     -16.231 -13.437  15.729  1.00  0.00     0.146 A 
ATOM     11  O   UNL     1     -16.505 -13.074  16.978  1.00  0.00    -0.456 OA
ENDROOT
BRANCH   1  12
ATOM     12  C   UNL     1     -15.994 -12.373  19.240  1.00  0.00     0.021 A 
ATOM     13  C   UNL     1     -15.060 -12.400  20.290  1.00  0.00     0.016 A 
ATOM     14  C   UNL     1     -15.436 -12.032  21.584  1.00  0.00     0.051 A 
ATOM     15  C   UNL     1     -16.748 -11.640  21.856  1.00  0.00     0.157 A 
ATOM     16  C   UNL     1     -17.320 -11.989  19.520  1.00  0.00     0.062 A 
ATOM     17  C   UNL     1     -17.698 -11.621  20.821  1.00  0.00     0.158 A 
BRANCH  15  18
ATOM     18  O   UNL     1     -17.093 -11.277  23.157  1.00  0.00    -0.504 OA
ATOM     19  H   UNL     1     -17.134 -10.309  23.453  1.00  0.00     0.293 HD
ENDBRANCH  15  18
BRANCH  17  20
ATOM     20  O   UNL     1     -19.012 -11.242  21.087  1.00  0.00    -0.504 OA
ATOM     21  H   UNL     1     -19.307 -10.962  22.015  1.00  0.00     0.293 HD
ENDBRANCH  17  20
ENDBRANCH   1  12
BRANCH   6  22
ATOM     22  O   UNL     1     -13.393 -13.875  13.307  1.00  0.00    -0.507 OA
ATOM     23  H   UNL     1     -12.941 -13.067  12.904  1.00  0.00     0.293 HD
ENDBRANCH   6  22
BRANCH   8  24
ATOM     24  O   UNL     1     -18.121 -14.481  12.738  1.00  0.00    -0.508 OA
ATOM     25  H   UNL     1     -18.785 -15.203  12.990  1.00  0.00     0.293 HD
ENDBRANCH   8  24
TORSDOF 5
ENDMDL
MODEL 7
REMARK VINA RESULT:    -7.084      4.798      7.343
REMARK INTER + INTRA:          -8.642
REMARK INTER:                  -8.330
REMARK INTRA:                  -0.312
REMARK UNBOUND:                -0.315
REMARK SMILES O=c1cc(-c2ccc(O)c(O)c2)oc2cc(O)cc(O)c12
REMARK SMILES IDX 4 1 3 2 2 3 1 4 21 5 19 6 18 7 16 8 15 9 14 10 13 11 5 12
REMARK SMILES IDX 6 13 7 14 8 15 12 16 10 17 9 18 11 20 20 22 17 24
REMARK H PARENT 9 19 11 21 20 23 17 25
REMARK Flexibility Score: inf
ROOT
ATOM      1  C   UNL     1     -15.996 -12.279  19.172  1.00  0.00     0.138 A 
ATOM      2  C   UNL     1     -15.070 -12.002  20.186  1.00  0.00     0.100 A 
ATOM      3  C   UNL     1     -15.512 -11.476  21.400  1.00  0.00     0.197 A 
ATOM      4  O   UNL     1     -14.650 -11.179  22.268  1.00  0.00    -0.289 OA
ATOM      5  C   UNL     1     -16.894 -11.255  21.609  1.00  0.00     0.107 A 
ATOM      6  C   UNL     1     -17.464 -10.761  22.821  1.00  0.00     0.134 A 
ATOM      7  C   UNL     1     -18.833 -10.472  22.872  1.00  0.00     0.093 A 
ATOM      8  C   UNL     1     -19.664 -10.718  21.774  1.00  0.00     0.123 A 
ATOM      9  C   UNL     1     -19.126 -11.251  20.606  1.00  0.00     0.094 A 
ATOM     10  C   UNL     1     -17.757 -11.517  20.512  1.00  0.00     0.146 A 
ATOM     11  O   UNL     1     -17.282 -12.012  19.374  1.00  0.00    -0.456 OA
ENDROOT
BRANCH   1  12
ATOM     12  C   UNL     1     -15.580 -12.841  17.862  1.00  0.00     0.021 A 
ATOM     13  C   UNL     1     -14.247 -12.700  17.441  1.00  0.00     0.016 A 
ATOM     14  C   UNL     1     -13.833 -13.214  16.210  1.00  0.00     0.051 A 
ATOM     15  C   UNL     1     -14.741 -13.869  15.374  1.00  0.00     0.157 A 
ATOM     16  C   UNL     1     -16.496 -13.490  17.011  1.00  0.00     0.062 A 
ATOM     17  C   UNL     1     -16.081 -14.005  15.773  1.00  0.00     0.158 A 
BRANCH  15  18
ATOM     18  O   UNL     1     -14.298 -14.372  14.152  1.00  0.00    -0.504 OA
ATOM     19  H   UNL     1     -14.878 -14.356  13.321  1.00  0.00     0.293 HD
ENDBRANCH  15  18
BRANCH  17  20
ATOM     20  O   UNL     1     -16.995 -14.646  14.939  1.00  0.00    -0.504 OA
ATOM     21  H   UNL     1     -17.994 -14.517  15.048  1.00  0.00     0.293 HD
ENDBRANCH  17  20
ENDBRANCH   1  12
BRANCH   6  22
ATOM     22  O   UNL     1     -16.741 -10.561  24.000  1.00  0.00    -0.507 OA
ATOM     23  H   UNL     1     -16.054 -11.201  24.371  1.00  0.00     0.293 HD
ENDBRANCH   6  22
BRANCH   8  24
ATOM     24  O   UNL     1     -21.027 -10.442  21.840  1.00  0.00    -0.508 OA
ATOM     25  H   UNL     1     -21.682 -11.096  22.251  1.00  0.00     0.293 HD
ENDBRANCH   8  24
TORSDOF 5
ENDMDL
MODEL 8
REMARK VINA RESULT:    -7.055      1.967      2.319
REMARK INTER + INTRA:          -8.607
REMARK INTER:                  -8.291
REMARK INTRA:                  -0.316
REMARK UNBOUND:                -0.315
REMARK SMILES O=c1cc(-c2ccc(O)c(O)c2)oc2cc(O)cc(O)c12
REMARK SMILES IDX 4 1 3 2 2 3 1 4 21 5 19 6 18 7 16 8 15 9 14 10 13 11 5 12
REMARK SMILES IDX 6 13 7 14 8 15 12 16 10 17 9 18 11 20 20 22 17 24
REMARK H PARENT 9 19 11 21 20 23 17 25
REMARK Flexibility Score: inf
ROOT
ATOM      1  C   UNL     1     -11.430 -12.310  14.923  1.00  0.00     0.138 A 
ATOM      2  C   UNL     1     -12.186 -13.017  15.867  1.00  0.00     0.100 A 
ATOM      3  C   UNL     1     -13.519 -13.326  15.593  1.00  0.00     0.197 A 
ATOM      4  O   UNL     1     -14.189 -13.907  16.485  1.00  0.00    -0.289 OA
ATOM      5  C   UNL     1     -14.086 -12.952  14.352  1.00  0.00     0.107 A 
ATOM      6  C   UNL     1     -15.422 -13.250  13.946  1.00  0.00     0.134 A 
ATOM      7  C   UNL     1     -15.911 -12.726  12.743  1.00  0.00     0.093 A 
ATOM      8  C   UNL     1     -15.092 -11.967  11.901  1.00  0.00     0.123 A 
ATOM      9  C   UNL     1     -13.772 -11.717  12.263  1.00  0.00     0.094 A 
ATOM     10  C   UNL     1     -13.264 -12.196  13.474  1.00  0.00     0.146 A 
ATOM     11  O   UNL     1     -12.002 -11.922  13.787  1.00  0.00    -0.456 OA
ENDROOT
BRANCH   1  12
ATOM     12  C   UNL     1     -10.008 -11.957  15.162  1.00  0.00     0.021 A 
ATOM     13  C   UNL     1      -9.317 -12.555  16.230  1.00  0.00     0.016 A 
ATOM     14  C   UNL     1      -7.981 -12.233  16.481  1.00  0.00     0.051 A 
ATOM     15  C   UNL     1      -7.313 -11.305  15.678  1.00  0.00     0.157 A 
ATOM     16  C   UNL     1      -9.336 -11.011  14.364  1.00  0.00     0.062 A 
ATOM     17  C   UNL     1      -7.994 -10.687  14.616  1.00  0.00     0.158 A 
BRANCH  15  18
ATOM     18  O   UNL     1      -5.980 -11.005  15.952  1.00  0.00    -0.504 OA
ATOM     19  H   UNL     1      -5.711 -10.199  16.503  1.00  0.00     0.293 HD
ENDBRANCH  15  18
BRANCH  17  20
ATOM     20  O   UNL     1      -7.338  -9.751  13.818  1.00  0.00    -0.504 OA
ATOM     21  H   UNL     1      -7.244  -8.783  14.103  1.00  0.00     0.293 HD
ENDBRANCH  17  20
ENDBRANCH   1  12
BRANCH   6  22
ATOM     22  O   UNL     1     -16.295 -14.067  14.670  1.00  0.00    -0.507 OA
ATOM     23  H   UNL     1     -17.079 -14.566  14.276  1.00  0.00     0.293 HD
ENDBRANCH   6  22
BRANCH   8  24
ATOM     24  O   UNL     1     -15.584 -11.464  10.699  1.00  0.00    -0.508 OA
ATOM     25  H   UNL     1     -16.337 -10.787  10.675  1.00  0.00     0.293 HD
ENDBRANCH   8  24
TORSDOF 5
ENDMDL
MODEL 9
REMARK VINA RESULT:    -6.769      3.373      7.518
REMARK INTER + INTRA:          -8.271
REMARK INTER:                  -7.977
REMARK INTRA:                  -0.295
REMARK UNBOUND:                -0.315
REMARK SMILES O=c1cc(-c2ccc(O)c(O)c2)oc2cc(O)cc(O)c12
REMARK SMILES IDX 4 1 3 2 2 3 1 4 21 5 19 6 18 7 16 8 15 9 14 10 13 11 5 12
REMARK SMILES IDX 6 13 7 14 8 15 12 16 10 17 9 18 11 20 20 22 17 24
REMARK H PARENT 9 19 11 21 20 23 17 25
REMARK Flexibility Score: inf
ROOT
ATOM      1  C   UNL     1     -15.444 -12.757  18.027  1.00  0.00     0.138 A 
ATOM      2  C   UNL     1     -16.384 -13.210  17.092  1.00  0.00     0.100 A 
ATOM      3  C   UNL     1     -15.960 -13.611  15.825  1.00  0.00     0.197 A 
ATOM      4  O   UNL     1     -16.834 -13.953  14.987  1.00  0.00    -0.289 OA
ATOM      5  C   UNL     1     -14.583 -13.586  15.504  1.00  0.00     0.107 A 
ATOM      6  C   UNL     1     -14.030 -14.010  14.258  1.00  0.00     0.134 A 
ATOM      7  C   UNL     1     -12.663 -13.830  14.012  1.00  0.00     0.093 A 
ATOM      8  C   UNL     1     -11.818 -13.298  14.991  1.00  0.00     0.123 A 
ATOM      9  C   UNL     1     -12.339 -12.932  16.229  1.00  0.00     0.094 A 
ATOM     10  C   UNL     1     -13.704 -13.067  16.493  1.00  0.00     0.146 A 
ATOM     11  O   UNL     1     -14.162 -12.692  17.683  1.00  0.00    -0.456 OA
ENDROOT
BRANCH   1  12
ATOM     12  C   UNL     1     -15.840 -12.321  19.390  1.00  0.00     0.021 A 
ATOM     13  C   UNL     1     -14.855 -12.168  20.380  1.00  0.00     0.016 A 
ATOM     14  C   UNL     1     -15.203 -11.765  21.672  1.00  0.00     0.051 A 
ATOM     15  C   UNL     1     -16.537 -11.517  22.001  1.00  0.00     0.157 A 
ATOM     16  C   UNL     1     -17.186 -12.083  19.729  1.00  0.00     0.062 A 
ATOM     17  C   UNL     1     -17.536 -11.680  21.027  1.00  0.00     0.158 A 
BRANCH  15  18
ATOM     18  O   UNL     1     -16.854 -11.116  23.299  1.00  0.00    -0.504 OA
ATOM     19  H   UNL     1     -17.581 -10.437  23.490  1.00  0.00     0.293 HD
ENDBRANCH  15  18
BRANCH  17  20
ATOM     20  O   UNL     1     -18.872 -11.447  21.352  1.00  0.00    -0.504 OA
ATOM     21  H   UNL     1     -19.165 -11.281  22.308  1.00  0.00     0.293 HD
ENDBRANCH  17  20
ENDBRANCH   1  12
BRANCH   6  22
ATOM     22  O   UNL     1     -14.769 -14.630  13.246  1.00  0.00    -0.507 OA
ATOM     23  H   UNL     1     -14.458 -15.427  12.711  1.00  0.00     0.293 HD
ENDBRANCH   6  22
BRANCH   8  24
ATOM     24  O   UNL     1     -10.458 -13.137  14.741  1.00  0.00    -0.508 OA
ATOM     25  H   UNL     1      -9.756 -13.440  15.407  1.00  0.00     0.293 HD
ENDBRANCH   8  24
TORSDOF 5
ENDMDL
