MODEL 1
REMARK VINA RESULT:    -4.319      0.000      0.000
REMARK INTER + INTRA:          -4.728
REMARK INTER:                  -4.824
REMARK INTRA:                   0.096
REMARK UNBOUND:                 0.096
REMARK SMILES O=C([O-])C=Cc1ccccc1
REMARK SMILES IDX 4 1 5 2 2 3 1 4 3 5 6 6 7 7 11 8 8 9 10 10 9 11
REMARK H PARENT
REMARK Flexibility Score: inf
ROOT
ATOM      1  C   UNL     1      20.852  -4.900 -17.629  1.00  0.00     0.025 C 
ATOM      2  C   UNL     1      20.765  -4.079 -18.688  1.00  0.00     0.010 C 
ENDROOT
BRANCH   1   3
ATOM      3  C   UNL     1      21.910  -4.873 -16.601  1.00  0.00     0.064 C 
ATOM      4  O   UNL     1      23.125  -4.742 -16.908  1.00  0.00    -0.545 OA
ATOM      5  O   UNL     1      21.565  -5.064 -15.270  1.00  0.00    -0.545 OA
ENDBRANCH   1   3
BRANCH   2   6
ATOM      6  C   UNL     1      21.608  -2.887 -18.918  1.00  0.00    -0.026 A 
ATOM      7  C   UNL     1      21.594  -1.801 -18.024  1.00  0.00     0.008 A 
ATOM      8  C   UNL     1      22.353  -2.791 -20.103  1.00  0.00     0.008 A 
ATOM      9  C   UNL     1      22.360  -0.661 -18.289  1.00  0.00     0.001 A 
ATOM     10  C   UNL     1      23.118  -1.650 -20.364  1.00  0.00     0.001 A 
ATOM     11  C   UNL     1      23.125  -0.587 -19.456  1.00  0.00     0.000 A 
ENDBRANCH   2   6
TORSDOF 2
ENDMDL
MODEL 2
REMARK VINA RESULT:    -4.054     18.589     19.318
REMARK INTER + INTRA:          -4.432
REMARK INTER:                  -4.399
REMARK INTRA:                  -0.033
REMARK UNBOUND:                 0.096
REMARK SMILES O=C([O-])C=Cc1ccccc1
REMARK SMILES IDX 4 1 5 2 2 3 1 4 3 5 6 6 7 7 11 8 8 9 10 10 9 11
REMARK H PARENT
REMARK Flexibility Score: inf
ROOT
ATOM      1  C   UNL     1       3.695   3.125 -20.837  1.00  0.00     0.025 C 
ATOM      2  C   UNL     1       3.557   3.455 -22.132  1.00  0.00     0.010 C 
ENDROOT
BRANCH   1   3
ATOM      3  C   UNL     1       4.092   1.800 -20.322  1.00  0.00     0.064 C 
ATOM      4  O   UNL     1       3.291   0.828 -20.315  1.00  0.00    -0.545 OA
ATOM      5  O   UNL     1       5.356   1.641 -19.770  1.00  0.00    -0.545 OA
ENDBRANCH   1   3
BRANCH   2   6
ATOM      6  C   UNL     1       3.951   2.608 -23.277  1.00  0.00    -0.026 A 
ATOM      7  C   UNL     1       5.007   2.980 -24.129  1.00  0.00     0.008 A 
ATOM      8  C   UNL     1       3.192   1.469 -23.583  1.00  0.00     0.008 A 
ATOM      9  C   UNL     1       5.329   2.190 -25.238  1.00  0.00     0.001 A 
ATOM     10  C   UNL     1       3.516   0.682 -24.692  1.00  0.00     0.001 A 
ATOM     11  C   UNL     1       4.587   1.040 -25.517  1.00  0.00     0.000 A 
ENDBRANCH   2   6
TORSDOF 2
ENDMDL
MODEL 3
REMARK VINA RESULT:    -4.024     19.012     19.828
REMARK INTER + INTRA:          -4.398
REMARK INTER:                  -4.336
REMARK INTRA:                  -0.062
REMARK UNBOUND:                 0.096
REMARK SMILES O=C([O-])C=Cc1ccccc1
REMARK SMILES IDX 4 1 5 2 2 3 1 4 3 5 6 6 7 7 11 8 8 9 10 10 9 11
REMARK H PARENT
REMARK Flexibility Score: inf
ROOT
ATOM      1  C   UNL     1       3.686   2.793 -25.013  1.00  0.00     0.025 C 
ATOM      2  C   UNL     1       3.129   3.120 -23.836  1.00  0.00     0.010 C 
ENDROOT
BRANCH   1   3
ATOM      3  C   UNL     1       4.739   1.780 -25.217  1.00  0.00     0.064 C 
ATOM      4  O   UNL     1       5.938   2.108 -25.424  1.00  0.00    -0.545 OA
ATOM      5  O   UNL     1       4.389   0.437 -25.249  1.00  0.00    -0.545 OA
ENDBRANCH   1   3
BRANCH   2   6
ATOM      6  C   UNL     1       3.339   2.402 -22.561  1.00  0.00    -0.026 A 
ATOM      7  C   UNL     1       2.876   1.086 -22.380  1.00  0.00     0.008 A 
ATOM      8  C   UNL     1       3.914   3.082 -21.477  1.00  0.00     0.008 A 
ATOM      9  C   UNL     1       3.040   0.444 -21.148  1.00  0.00     0.001 A 
ATOM     10  C   UNL     1       4.076   2.438 -20.246  1.00  0.00     0.001 A 
ATOM     11  C   UNL     1       3.643   1.119 -20.083  1.00  0.00     0.000 A 
ENDBRANCH   2   6
TORSDOF 2
ENDMDL
MODEL 4
REMARK VINA RESULT:    -4.011     19.032     19.807
REMARK INTER + INTRA:          -4.384
REMARK INTER:                  -4.280
REMARK INTRA:                  -0.104
REMARK UNBOUND:                 0.096
REMARK SMILES O=C([O-])C=Cc1ccccc1
REMARK SMILES IDX 4 1 5 2 2 3 1 4 3 5 6 6 7 7 11 8 8 9 10 10 9 11
REMARK H PARENT
REMARK Flexibility Score: inf
ROOT
ATOM      1  C   UNL     1       3.598   3.019 -24.854  1.00  0.00     0.025 C 
ATOM      2  C   UNL     1       3.044   3.346 -23.675  1.00  0.00     0.010 C 
ENDROOT
BRANCH   1   3
ATOM      3  C   UNL     1       4.674   2.029 -25.056  1.00  0.00     0.064 C 
ATOM      4  O   UNL     1       5.885   2.372 -25.105  1.00  0.00    -0.545 OA
ATOM      5  O   UNL     1       4.337   0.698 -25.266  1.00  0.00    -0.545 OA
ENDBRANCH   1   3
BRANCH   2   6
ATOM      6  C   UNL     1       3.283   2.649 -22.394  1.00  0.00    -0.026 A 
ATOM      7  C   UNL     1       4.005   3.262 -21.354  1.00  0.00     0.008 A 
ATOM      8  C   UNL     1       2.876   1.314 -22.252  1.00  0.00     0.008 A 
ATOM      9  C   UNL     1       4.265   2.564 -20.170  1.00  0.00     0.001 A 
ATOM     10  C   UNL     1       3.136   0.619 -21.067  1.00  0.00     0.001 A 
ATOM     11  C   UNL     1       3.827   1.245 -20.025  1.00  0.00     0.000 A 
ENDBRANCH   2   6
TORSDOF 2
ENDMDL
MODEL 5
REMARK VINA RESULT:    -3.968      1.763      2.366
REMARK INTER + INTRA:          -4.336
REMARK INTER:                  -4.393
REMARK INTRA:                   0.057
REMARK UNBOUND:                 0.096
REMARK SMILES O=C([O-])C=Cc1ccccc1
REMARK SMILES IDX 4 1 5 2 2 3 1 4 3 5 6 6 7 7 11 8 8 9 10 10 9 11
REMARK H PARENT
REMARK Flexibility Score: inf
ROOT
ATOM      1  C   UNL     1      21.607  -5.125 -19.386  1.00  0.00     0.025 C 
ATOM      2  C   UNL     1      22.594  -4.259 -19.668  1.00  0.00     0.010 C 
ENDROOT
BRANCH   1   3
ATOM      3  C   UNL     1      20.563  -4.938 -18.360  1.00  0.00     0.064 C 
ATOM      4  O   UNL     1      20.812  -5.076 -17.132  1.00  0.00    -0.545 OA
ATOM      5  O   UNL     1      19.261  -4.671 -18.761  1.00  0.00    -0.545 OA
ENDBRANCH   1   3
BRANCH   2   6
ATOM      6  C   UNL     1      22.709  -2.887 -19.132  1.00  0.00    -0.026 A 
ATOM      7  C   UNL     1      22.675  -1.766 -19.982  1.00  0.00     0.008 A 
ATOM      8  C   UNL     1      22.963  -2.703 -17.764  1.00  0.00     0.008 A 
ATOM      9  C   UNL     1      22.838  -0.480 -19.458  1.00  0.00     0.001 A 
ATOM     10  C   UNL     1      23.125  -1.415 -17.244  1.00  0.00     0.001 A 
ATOM     11  C   UNL     1      23.058  -0.304 -18.089  1.00  0.00     0.000 A 
ENDBRANCH   2   6
TORSDOF 2
ENDMDL
MODEL 6
REMARK VINA RESULT:    -3.793     19.093     19.825
REMARK INTER + INTRA:          -4.140
REMARK INTER:                  -3.885
REMARK INTRA:                  -0.255
REMARK UNBOUND:                 0.096
REMARK SMILES O=C([O-])C=Cc1ccccc1
REMARK SMILES IDX 4 1 5 2 2 3 1 4 3 5 6 6 7 7 11 8 8 9 10 10 9 11
REMARK H PARENT
REMARK Flexibility Score: inf
ROOT
ATOM      1  C   UNL     1       3.798   1.113 -26.069  1.00  0.00     0.025 C 
ATOM      2  C   UNL     1       2.957   1.746 -25.236  1.00  0.00     0.010 C 
ENDROOT
BRANCH   1   3
ATOM      3  C   UNL     1       5.209   0.784 -25.784  1.00  0.00     0.064 C 
ATOM      4  O   UNL     1       5.575  -0.398 -25.546  1.00  0.00    -0.545 OA
ATOM      5  O   UNL     1       6.141   1.810 -25.711  1.00  0.00    -0.545 OA
ENDBRANCH   1   3
BRANCH   2   6
ATOM      6  C   UNL     1       3.235   2.069 -23.821  1.00  0.00    -0.026 A 
ATOM      7  C   UNL     1       3.059   1.109 -22.807  1.00  0.00     0.008 A 
ATOM      8  C   UNL     1       3.576   3.383 -23.470  1.00  0.00     0.008 A 
ATOM      9  C   UNL     1       3.278   1.451 -21.468  1.00  0.00     0.001 A 
ATOM     10  C   UNL     1       3.794   3.722 -22.130  1.00  0.00     0.001 A 
ATOM     11  C   UNL     1       3.649   2.756 -21.131  1.00  0.00     0.000 A 
ENDBRANCH   2   6
TORSDOF 2
ENDMDL
MODEL 7
REMARK VINA RESULT:    -3.672     19.052     19.770
REMARK INTER + INTRA:          -4.006
REMARK INTER:                  -3.765
REMARK INTRA:                  -0.240
REMARK UNBOUND:                 0.096
REMARK SMILES O=C([O-])C=Cc1ccccc1
REMARK SMILES IDX 4 1 5 2 2 3 1 4 3 5 6 6 7 7 11 8 8 9 10 10 9 11
REMARK H PARENT
REMARK Flexibility Score: inf
ROOT
ATOM      1  C   UNL     1       3.994   0.937 -26.207  1.00  0.00     0.025 C 
ATOM      2  C   UNL     1       3.045   1.527 -25.463  1.00  0.00     0.010 C 
ENDROOT
BRANCH   1   3
ATOM      3  C   UNL     1       5.417   0.798 -25.839  1.00  0.00     0.064 C 
ATOM      4  O   UNL     1       6.193   1.790 -25.823  1.00  0.00    -0.545 OA
ATOM      5  O   UNL     1       5.926  -0.466 -25.572  1.00  0.00    -0.545 OA
ENDBRANCH   1   3
BRANCH   2   6
ATOM      6  C   UNL     1       3.212   1.983 -24.067  1.00  0.00    -0.026 A 
ATOM      7  C   UNL     1       3.615   3.299 -23.774  1.00  0.00     0.008 A 
ATOM      8  C   UNL     1       3.071   1.060 -23.021  1.00  0.00     0.008 A 
ATOM      9  C   UNL     1       3.818   3.695 -22.447  1.00  0.00     0.001 A 
ATOM     10  C   UNL     1       3.274   1.458 -21.696  1.00  0.00     0.001 A 
ATOM     11  C   UNL     1       3.644   2.776 -21.409  1.00  0.00     0.000 A 
ENDBRANCH   2   6
TORSDOF 2
ENDMDL
MODEL 8
REMARK VINA RESULT:    -3.598      1.888      3.469
REMARK INTER + INTRA:          -3.923
REMARK INTER:                  -4.183
REMARK INTRA:                   0.260
REMARK UNBOUND:                 0.096
REMARK SMILES O=C([O-])C=Cc1ccccc1
REMARK SMILES IDX 4 1 5 2 2 3 1 4 3 5 6 6 7 7 11 8 8 9 10 10 9 11
REMARK H PARENT
REMARK Flexibility Score: inf
ROOT
ATOM      1  C   UNL     1      22.513  -0.761 -16.771  1.00  0.00     0.025 C 
ATOM      2  C   UNL     1      22.125  -1.128 -18.002  1.00  0.00     0.010 C 
ENDROOT
BRANCH   1   3
ATOM      3  C   UNL     1      22.737  -1.671 -15.630  1.00  0.00     0.064 C 
ATOM      4  O   UNL     1      23.124  -2.858 -15.799  1.00  0.00    -0.545 OA
ATOM      5  O   UNL     1      22.448  -1.229 -14.346  1.00  0.00    -0.545 OA
ENDBRANCH   1   3
BRANCH   2   6
ATOM      6  C   UNL     1      22.025  -2.520 -18.489  1.00  0.00    -0.026 A 
ATOM      7  C   UNL     1      23.015  -3.074 -19.321  1.00  0.00     0.008 A 
ATOM      8  C   UNL     1      20.871  -3.266 -18.206  1.00  0.00     0.008 A 
ATOM      9  C   UNL     1      22.874  -4.376 -19.813  1.00  0.00     0.001 A 
ATOM     10  C   UNL     1      20.733  -4.567 -18.699  1.00  0.00     0.001 A 
ATOM     11  C   UNL     1      21.736  -5.123 -19.499  1.00  0.00     0.000 A 
ENDBRANCH   2   6
TORSDOF 2
ENDMDL
MODEL 9
REMARK VINA RESULT:    -3.536      2.781      4.030
REMARK INTER + INTRA:          -3.854
REMARK INTER:                  -3.723
REMARK INTRA:                  -0.130
REMARK UNBOUND:                 0.096
REMARK SMILES O=C([O-])C=Cc1ccccc1
REMARK SMILES IDX 4 1 5 2 2 3 1 4 3 5 6 6 7 7 11 8 8 9 10 10 9 11
REMARK H PARENT
REMARK Flexibility Score: inf
ROOT
ATOM      1  C   UNL     1      21.965  -5.097 -18.555  1.00  0.00     0.025 C 
ATOM      2  C   UNL     1      22.851  -5.114 -17.547  1.00  0.00     0.010 C 
ENDROOT
BRANCH   1   3
ATOM      3  C   UNL     1      20.690  -4.354 -18.571  1.00  0.00     0.064 C 
ATOM      4  O   UNL     1      20.657  -3.105 -18.729  1.00  0.00    -0.545 OA
ATOM      5  O   UNL     1      19.505  -5.039 -18.337  1.00  0.00    -0.545 OA
ENDBRANCH   1   3
BRANCH   2   6
ATOM      6  C   UNL     1      22.799  -4.253 -16.347  1.00  0.00    -0.026 A 
ATOM      7  C   UNL     1      23.125  -2.886 -16.416  1.00  0.00     0.008 A 
ATOM      8  C   UNL     1      22.523  -4.831 -15.098  1.00  0.00     0.008 A 
ATOM      9  C   UNL     1      23.119  -2.102 -15.257  1.00  0.00     0.001 A 
ATOM     10  C   UNL     1      22.518  -4.044 -13.942  1.00  0.00     0.001 A 
ATOM     11  C   UNL     1      22.812  -2.679 -14.023  1.00  0.00     0.000 A 
ENDBRANCH   2   6
TORSDOF 2
ENDMDL
