MODEL 1
REMARK VINA RESULT:    19.852      0.000      0.000
REMARK INTER + INTRA:          24.479
REMARK INTER:                  25.075
REMARK INTRA:                  -0.595
REMARK UNBOUND:                -0.595
REMARK SMILES O=C(C=Cc1ccc(O)cc1)c1ccc(O)cc1O
REMARK SMILES IDX 4 1 3 2 5 3 6 4 7 5 8 6 11 7 10 8 9 9 2 11 1 12 12 13 18 14
REMARK SMILES IDX 13 15 17 16 14 17 15 18 19 19 16 21
REMARK H PARENT 9 10 19 20 16 22
REMARK Flexibility Score: inf
ROOT
ATOM      1  C   UNL     1      17.194  40.989  10.520  1.00  0.00     0.012 C 
ATOM      2  C   UNL     1      18.131  40.130  10.091  1.00  0.00     0.053 C 
ENDROOT
BRANCH   1   3
ATOM      3  C   UNL     1      15.735  40.742  10.408  1.00  0.00    -0.025 A 
ATOM      4  C   UNL     1      14.831  41.719   9.939  1.00  0.00     0.012 A 
ATOM      5  C   UNL     1      13.463  41.438   9.864  1.00  0.00     0.047 A 
ATOM      6  C   UNL     1      12.977  40.187  10.262  1.00  0.00     0.115 A 
ATOM      7  C   UNL     1      15.232  39.496  10.819  1.00  0.00     0.012 A 
ATOM      8  C   UNL     1      13.864  39.219  10.740  1.00  0.00     0.047 A 
BRANCH   6   9
ATOM      9  O   UNL     1      11.616  39.898  10.189  1.00  0.00    -0.508 OA
ATOM     10  H   UNL     1      11.006  40.382   9.542  1.00  0.00     0.293 HD
ENDBRANCH   6   9
ENDBRANCH   1   3
BRANCH   2  11
ATOM     11  C   UNL     1      19.580  40.394  10.214  1.00  0.00     0.189 C 
ATOM     12  O   UNL     1      20.384  39.591   9.669  1.00  0.00    -0.289 OA
BRANCH  11  13
ATOM     13  C   UNL     1      20.123  41.534  10.987  1.00  0.00     0.064 A 
ATOM     14  C   UNL     1      20.361  41.441  12.378  1.00  0.00     0.130 A 
ATOM     15  C   UNL     1      20.359  42.754  10.330  1.00  0.00     0.020 A 
ATOM     16  C   UNL     1      20.818  42.564  13.080  1.00  0.00     0.093 A 
ATOM     17  C   UNL     1      20.824  43.863  11.040  1.00  0.00     0.047 A 
ATOM     18  C   UNL     1      21.053  43.773  12.414  1.00  0.00     0.119 A 
BRANCH  14  19
ATOM     19  O   UNL     1      20.176  40.250  13.084  1.00  0.00    -0.507 OA
ATOM     20  H   UNL     1      20.684  40.027  13.931  1.00  0.00     0.293 HD
ENDBRANCH  14  19
BRANCH  18  21
ATOM     21  O   UNL     1      21.512  44.889  13.110  1.00  0.00    -0.508 OA
ATOM     22  H   UNL     1      22.486  45.166  13.083  1.00  0.00     0.293 HD
ENDBRANCH  18  21
ENDBRANCH  11  13
ENDBRANCH   2  11
TORSDOF 6
ENDMDL
