MODEL 1
REMARK VINA RESULT:    -4.382      0.000      0.000
REMARK INTER + INTRA:          -6.767
REMARK INTER:                  -6.687
REMARK INTRA:                  -0.080
REMARK UNBOUND:                -0.080
REMARK SMILES CC1=CCC[C@H](C)C(=O)C[C@@H](C(C)C)C(=O)C1
REMARK SMILES IDX 8 1 9 2 6 3 7 4 5 5 4 6 3 7 2 8 1 9 10 11 11 12 15 13 16 14
REMARK SMILES IDX 17 15 12 17 13 18 14 19
REMARK H PARENT
REMARK Flexibility Score: 70.00
ROOT
ATOM      1  C   UNL     1      -5.035  -2.188  -0.840  1.00  0.00     0.136 C 
ATOM      2  O   UNL     1      -6.123  -1.860  -1.295  1.00  0.00    -0.299 OA
ENDROOT
BRANCH   1   3
ATOM      3  C   UNL     1      -3.970  -2.723  -1.776  1.00  0.00     0.053 C 
ATOM      4  C   UNL     1      -4.547  -3.837  -2.660  1.00  0.00     0.016 C 
BRANCH   3   5
ATOM      5  C   UNL     1      -3.383  -1.581  -2.640  1.00  0.00     0.015 C 
BRANCH   5   6
ATOM      6  C   UNL     1      -2.465  -0.660  -1.815  1.00  0.00     0.028 C 
BRANCH   6   7
ATOM      7  C   UNL     1      -1.362  -1.401  -1.098  1.00  0.00    -0.028 C 
ATOM      8  C   UNL     1      -1.083  -1.308   0.227  1.00  0.00    -0.070 CG0
ATOM      9  C   UNL     1       0.005  -2.179   0.805  1.00  0.00     0.039 C 
ATOM     10  G   UNL     1      -1.722  -0.287   1.157  1.00  0.00     0.000 G0
ENDBRANCH   6   7
ENDBRANCH   5   6
ENDBRANCH   3   5
ENDBRANCH   1   3
BRANCH   1  11
ATOM     11  C   UNL     1      -4.801  -2.071   0.650  1.00  0.00     0.087 C 
BRANCH  11  12
ATOM     12  C   UNL     1      -4.316  -0.651   1.052  1.00  0.00     0.066 C 
BRANCH  12  13
ATOM     13  C   UNL     1      -3.001  -0.762   1.810  1.00  0.00     0.140 C 
ATOM     14  O   UNL     1      -2.989  -1.197   2.954  1.00  0.00    -0.299 OA
BRANCH  13  15
ATOM     15  C   UNL     1      -1.717  -0.294   1.169  1.00  0.00     0.106 CG0
ATOM     16  G   UNL     1      -1.091  -1.308   0.224  1.00  0.00     0.000 G0
ENDBRANCH  13  15
ENDBRANCH  12  13
BRANCH  12  17
ATOM     17  C   UNL     1      -5.377   0.152   1.875  1.00  0.00    -0.006 C 
ATOM     18  C   UNL     1      -6.748   0.210   1.175  1.00  0.00     0.008 C 
ATOM     19  C   UNL     1      -4.898   1.593   2.137  1.00  0.00     0.008 C 
ENDBRANCH  12  17
ENDBRANCH  11  12
ENDBRANCH   1  11
TORSDOF 1
ENDMDL
MODEL 2
REMARK VINA RESULT:    -4.237      1.658      2.429
REMARK INTER + INTRA:          -6.547
REMARK INTER:                  -6.402
REMARK INTRA:                  -0.145
REMARK UNBOUND:                -0.080
REMARK SMILES CC1=CCC[C@H](C)C(=O)C[C@@H](C(C)C)C(=O)C1
REMARK SMILES IDX 8 1 9 2 6 3 7 4 5 5 4 6 3 7 2 8 1 9 10 11 11 12 15 13 16 14
REMARK SMILES IDX 17 15 12 17 13 18 14 19
REMARK H PARENT
REMARK Flexibility Score: 70.00
ROOT
ATOM      1  C   UNL     1      -2.742  -2.057  -1.881  1.00  0.00     0.136 C 
ATOM      2  O   UNL     1      -2.900  -1.381  -2.890  1.00  0.00    -0.299 OA
ENDROOT
BRANCH   1   3
ATOM      3  C   UNL     1      -1.341  -2.470  -1.476  1.00  0.00     0.053 C 
ATOM      4  C   UNL     1      -0.873  -3.666  -2.316  1.00  0.00     0.016 C 
BRANCH   3   5
ATOM      5  C   UNL     1      -0.363  -1.279  -1.618  1.00  0.00     0.015 C 
BRANCH   5   6
ATOM      6  C   UNL     1      -0.753  -0.110  -0.693  1.00  0.00     0.028 C 
BRANCH   6   7
ATOM      7  C   UNL     1      -0.419  -0.359   0.758  1.00  0.00    -0.028 C 
ATOM      8  C   UNL     1      -1.321  -0.500   1.762  1.00  0.00    -0.070 CG0
ATOM      9  C   UNL     1      -0.825  -0.824   3.149  1.00  0.00     0.039 C 
ATOM     10  G   UNL     1      -2.811  -0.232   1.603  1.00  0.00     0.000 G0
ENDBRANCH   6   7
ENDBRANCH   5   6
ENDBRANCH   3   5
ENDBRANCH   1   3
BRANCH   1  11
ATOM     11  C   UNL     1      -3.959  -2.479  -1.087  1.00  0.00     0.087 C 
BRANCH  11  12
ATOM     12  C   UNL     1      -4.437  -1.362  -0.119  1.00  0.00     0.066 C 
BRANCH  12  13
ATOM     13  C   UNL     1      -3.627  -1.430   1.168  1.00  0.00     0.140 C 
ATOM     14  O   UNL     1      -3.663  -2.438   1.861  1.00  0.00    -0.299 OA
BRANCH  13  15
ATOM     15  C   UNL     1      -2.815  -0.239   1.615  1.00  0.00     0.106 CG0
ATOM     16  G   UNL     1      -1.329  -0.526   1.774  1.00  0.00     0.000 G0
ENDBRANCH  13  15
ENDBRANCH  12  13
BRANCH  12  17
ATOM     17  C   UNL     1      -5.972  -1.418   0.175  1.00  0.00    -0.006 C 
ATOM     18  C   UNL     1      -6.752  -2.196  -0.902  1.00  0.00     0.008 C 
ATOM     19  C   UNL     1      -6.566   0.000   0.282  1.00  0.00     0.008 C 
ENDBRANCH  12  17
ENDBRANCH  11  12
ENDBRANCH   1  11
TORSDOF 1
ENDMDL
MODEL 3
REMARK VINA RESULT:    -4.107      1.727      3.888
REMARK INTER + INTRA:          -6.349
REMARK INTER:                  -6.195
REMARK INTRA:                  -0.154
REMARK UNBOUND:                -0.080
REMARK SMILES CC1=CCC[C@H](C)C(=O)C[C@@H](C(C)C)C(=O)C1
REMARK SMILES IDX 8 1 9 2 6 3 7 4 5 5 4 6 3 7 2 8 1 9 10 11 11 12 15 13 16 14
REMARK SMILES IDX 17 15 12 17 13 18 14 19
REMARK H PARENT
REMARK Flexibility Score: 70.00
ROOT
ATOM      1  C   UNL     1      -2.919  -0.448   2.173  1.00  0.00     0.136 C 
ATOM      2  O   UNL     1      -3.594  -1.045   3.002  1.00  0.00    -0.299 OA
ENDROOT
BRANCH   1   3
ATOM      3  C   UNL     1      -1.430  -0.284   2.407  1.00  0.00     0.053 C 
ATOM      4  C   UNL     1      -0.907  -1.404   3.315  1.00  0.00     0.016 C 
BRANCH   3   5
ATOM      5  C   UNL     1      -0.669  -0.263   1.060  1.00  0.00     0.015 C 
BRANCH   5   6
ATOM      6  C   UNL     1      -0.483  -1.682   0.491  1.00  0.00     0.028 C 
BRANCH   6   7
ATOM      7  C   UNL     1      -0.227  -1.702  -0.997  1.00  0.00    -0.028 C 
ATOM      8  C   UNL     1      -1.176  -1.837  -1.958  1.00  0.00    -0.070 CG0
ATOM      9  C   UNL     1      -0.763  -1.756  -3.406  1.00  0.00     0.039 C 
ATOM     10  G   UNL     1      -2.628  -2.188  -1.669  1.00  0.00     0.000 G0
ENDBRANCH   6   7
ENDBRANCH   5   6
ENDBRANCH   3   5
ENDBRANCH   1   3
BRANCH   1  11
ATOM     11  C   UNL     1      -3.603   0.130   0.953  1.00  0.00     0.087 C 
BRANCH  11  12
ATOM     12  C   UNL     1      -4.206  -0.979   0.047  1.00  0.00     0.066 C 
BRANCH  12  13
ATOM     13  C   UNL     1      -3.480  -0.988  -1.290  1.00  0.00     0.140 C 
ATOM     14  O   UNL     1      -3.607  -0.047  -2.063  1.00  0.00    -0.299 OA
BRANCH  13  15
ATOM     15  C   UNL     1      -2.637  -2.176  -1.685  1.00  0.00     0.106 CG0
ATOM     16  G   UNL     1      -1.174  -1.841  -1.939  1.00  0.00     0.000 G0
ENDBRANCH  13  15
ENDBRANCH  12  13
BRANCH  12  17
ATOM     17  C   UNL     1      -5.752  -0.839  -0.150  1.00  0.00    -0.006 C 
ATOM     18  C   UNL     1      -6.427  -0.065   0.998  1.00  0.00     0.008 C 
ATOM     19  C   UNL     1      -6.421  -2.223  -0.269  1.00  0.00     0.008 C 
ENDBRANCH  12  17
ENDBRANCH  11  12
ENDBRANCH   1  11
TORSDOF 1
ENDMDL
MODEL 4
REMARK VINA RESULT:    -4.068      1.997      4.387
REMARK INTER + INTRA:          -6.289
REMARK INTER:                  -5.924
REMARK INTRA:                  -0.365
REMARK UNBOUND:                -0.080
REMARK SMILES CC1=CCC[C@H](C)C(=O)C[C@@H](C(C)C)C(=O)C1
REMARK SMILES IDX 8 1 9 2 6 3 7 4 5 5 4 6 3 7 2 8 1 9 10 11 11 12 15 13 16 14
REMARK SMILES IDX 17 15 12 17 13 18 14 19
REMARK H PARENT
REMARK Flexibility Score: 70.00
ROOT
ATOM      1  C   UNL     1      -3.397  -0.163   0.447  1.00  0.00     0.136 C 
ATOM      2  O   UNL     1      -4.495  -0.212  -0.094  1.00  0.00    -0.299 OA
ENDROOT
BRANCH   1   3
ATOM      3  C   UNL     1      -3.308   0.217   1.911  1.00  0.00     0.053 C 
ATOM      4  C   UNL     1      -4.625   0.848   2.380  1.00  0.00     0.016 C 
BRANCH   3   5
ATOM      5  C   UNL     1      -2.950  -1.019   2.771  1.00  0.00     0.015 C 
BRANCH   5   6
ATOM      6  C   UNL     1      -1.509  -0.938   3.310  1.00  0.00     0.028 C 
BRANCH   6   7
ATOM      7  C   UNL     1      -0.752  -2.238   3.189  1.00  0.00    -0.028 C 
ATOM      8  C   UNL     1       0.058  -2.585   2.156  1.00  0.00    -0.070 CG0
ATOM      9  C   UNL     1       0.809  -3.892   2.225  1.00  0.00     0.039 C 
ATOM     10  G   UNL     1       0.170  -1.789   0.864  1.00  0.00     0.000 G0
ENDBRANCH   6   7
ENDBRANCH   5   6
ENDBRANCH   3   5
ENDBRANCH   1   3
BRANCH   1  11
ATOM     11  C   UNL     1      -2.163  -0.460  -0.377  1.00  0.00     0.087 C 
BRANCH  11  12
ATOM     12  C   UNL     1      -1.977  -1.984  -0.616  1.00  0.00     0.066 C 
BRANCH  12  13
ATOM     13  C   UNL     1      -0.529  -2.364  -0.344  1.00  0.00     0.140 C 
ATOM     14  O   UNL     1       0.039  -3.169  -1.070  1.00  0.00    -0.299 OA
BRANCH  13  15
ATOM     15  C   UNL     1       0.194  -1.784   0.847  1.00  0.00     0.106 CG0
ATOM     16  G   UNL     1       0.037  -2.597   2.124  1.00  0.00     0.000 G0
ENDBRANCH  13  15
ENDBRANCH  12  13
BRANCH  12  17
ATOM     17  C   UNL     1      -2.424  -2.442  -2.043  1.00  0.00    -0.006 C 
ATOM     18  C   UNL     1      -2.326  -1.312  -3.085  1.00  0.00     0.008 C 
ATOM     19  C   UNL     1      -3.872  -2.969  -2.026  1.00  0.00     0.008 C 
ENDBRANCH  12  17
ENDBRANCH  11  12
ENDBRANCH   1  11
TORSDOF 1
ENDMDL
MODEL 5
REMARK VINA RESULT:    -3.991      1.599      2.235
REMARK INTER + INTRA:          -6.171
REMARK INTER:                  -5.846
REMARK INTRA:                  -0.325
REMARK UNBOUND:                -0.080
REMARK SMILES CC1=CCC[C@H](C)C(=O)C[C@@H](C(C)C)C(=O)C1
REMARK SMILES IDX 8 1 9 2 6 3 7 4 5 5 4 6 3 7 2 8 1 9 10 11 11 12 15 13 16 14
REMARK SMILES IDX 17 15 12 17 13 18 14 19
REMARK H PARENT
REMARK Flexibility Score: 70.00
ROOT
ATOM      1  C   UNL     1      -4.159  -2.016  -0.465  1.00  0.00     0.136 C 
ATOM      2  O   UNL     1      -5.187  -1.352  -0.427  1.00  0.00    -0.299 OA
ENDROOT
BRANCH   1   3
ATOM      3  C   UNL     1      -3.756  -2.685  -1.764  1.00  0.00     0.053 C 
ATOM      4  C   UNL     1      -4.874  -3.613  -2.256  1.00  0.00     0.016 C 
BRANCH   3   5
ATOM      5  C   UNL     1      -3.407  -1.624  -2.835  1.00  0.00     0.015 C 
BRANCH   5   6
ATOM      6  C   UNL     1      -1.956  -1.128  -2.691  1.00  0.00     0.028 C 
BRANCH   6   7
ATOM      7  C   UNL     1      -0.952  -2.247  -2.558  1.00  0.00    -0.028 C 
ATOM      8  C   UNL     1      -0.136  -2.451  -1.492  1.00  0.00    -0.070 CG0
ATOM      9  C   UNL     1       0.757  -3.667  -1.480  1.00  0.00     0.039 C 
ATOM     10  G   UNL     1       0.025  -1.460  -0.349  1.00  0.00     0.000 G0
ENDBRANCH   6   7
ENDBRANCH   5   6
ENDBRANCH   3   5
ENDBRANCH   1   3
BRANCH   1  11
ATOM     11  C   UNL     1      -3.340  -2.167   0.798  1.00  0.00     0.087 C 
BRANCH  11  12
ATOM     12  C   UNL     1      -2.245  -1.070   0.914  1.00  0.00     0.066 C 
BRANCH  12  13
ATOM     13  C   UNL     1      -0.871  -1.720   0.841  1.00  0.00     0.140 C 
ATOM     14  O   UNL     1      -0.474  -2.418   1.764  1.00  0.00    -0.299 OA
BRANCH  13  15
ATOM     15  C   UNL     1       0.023  -1.469  -0.349  1.00  0.00     0.106 CG0
ATOM     16  G   UNL     1      -0.149  -2.475  -1.477  1.00  0.00     0.000 G0
ENDBRANCH  13  15
ENDBRANCH  12  13
BRANCH  12  17
ATOM     17  C   UNL     1      -2.388  -0.191   2.200  1.00  0.00    -0.006 C 
ATOM     18  C   UNL     1      -3.735   0.552   2.261  1.00  0.00     0.008 C 
ATOM     19  C   UNL     1      -1.251   0.846   2.289  1.00  0.00     0.008 C 
ENDBRANCH  12  17
ENDBRANCH  11  12
ENDBRANCH   1  11
TORSDOF 1
ENDMDL
MODEL 6
REMARK VINA RESULT:    -3.973      1.859      3.786
REMARK INTER + INTRA:          -6.144
REMARK INTER:                  -6.256
REMARK INTRA:                   0.112
REMARK UNBOUND:                -0.080
REMARK SMILES CC1=CCC[C@H](C)C(=O)C[C@@H](C(C)C)C(=O)C1
REMARK SMILES IDX 8 1 9 2 6 3 7 4 5 5 4 6 3 7 2 8 1 9 10 11 11 12 15 13 16 14
REMARK SMILES IDX 17 15 12 17 13 18 14 19
REMARK H PARENT
REMARK Flexibility Score: 70.00
ROOT
ATOM      1  C   UNL     1      -4.148  -0.084   1.539  1.00  0.00     0.136 C 
ATOM      2  O   UNL     1      -4.075   1.082   1.904  1.00  0.00    -0.299 OA
ENDROOT
BRANCH   1   3
ATOM      3  C   UNL     1      -5.390  -0.559   0.811  1.00  0.00     0.053 C 
ATOM      4  C   UNL     1      -6.604   0.283   1.224  1.00  0.00     0.016 C 
BRANCH   3   5
ATOM      5  C   UNL     1      -5.174  -0.504  -0.720  1.00  0.00     0.015 C 
BRANCH   5   6
ATOM      6  C   UNL     1      -4.525  -1.796  -1.249  1.00  0.00     0.028 C 
BRANCH   6   7
ATOM      7  C   UNL     1      -3.368  -1.545  -2.186  1.00  0.00    -0.028 C 
ATOM      8  C   UNL     1      -2.055  -1.663  -1.864  1.00  0.00    -0.070 CG0
ATOM      9  C   UNL     1      -1.019  -1.455  -2.941  1.00  0.00     0.039 C 
ATOM     10  G   UNL     1      -1.547  -1.878  -0.446  1.00  0.00     0.000 G0
ENDBRANCH   6   7
ENDBRANCH   5   6
ENDBRANCH   3   5
ENDBRANCH   1   3
BRANCH   1  11
ATOM     11  C   UNL     1      -3.001  -1.020   1.853  1.00  0.00     0.087 C 
BRANCH  11  12
ATOM     12  C   UNL     1      -1.621  -0.331   1.667  1.00  0.00     0.066 C 
BRANCH  12  13
ATOM     13  C   UNL     1      -1.087  -0.638   0.276  1.00  0.00     0.140 C 
ATOM     14  O   UNL     1      -0.325   0.145  -0.274  1.00  0.00    -0.299 OA
BRANCH  13  15
ATOM     15  C   UNL     1      -1.532  -1.887  -0.446  1.00  0.00     0.106 CG0
ATOM     16  G   UNL     1      -2.038  -1.638  -1.860  1.00  0.00     0.000 G0
ENDBRANCH  13  15
ENDBRANCH  12  13
BRANCH  12  17
ATOM     17  C   UNL     1      -0.584  -0.722   2.771  1.00  0.00    -0.006 C 
ATOM     18  C   UNL     1      -1.249  -1.339   4.016  1.00  0.00     0.008 C 
ATOM     19  C   UNL     1       0.242   0.502   3.211  1.00  0.00     0.008 C 
ENDBRANCH  12  17
ENDBRANCH  11  12
ENDBRANCH   1  11
TORSDOF 1
ENDMDL
MODEL 7
REMARK VINA RESULT:    -3.849      1.642      4.081
REMARK INTER + INTRA:          -5.955
REMARK INTER:                  -5.769
REMARK INTRA:                  -0.185
REMARK UNBOUND:                -0.080
REMARK SMILES CC1=CCC[C@H](C)C(=O)C[C@@H](C(C)C)C(=O)C1
REMARK SMILES IDX 8 1 9 2 6 3 7 4 5 5 4 6 3 7 2 8 1 9 10 11 11 12 15 13 16 14
REMARK SMILES IDX 17 15 12 17 13 18 14 19
REMARK H PARENT
REMARK Flexibility Score: 70.00
ROOT
ATOM      1  C   UNL     1      -4.386  -0.273   0.815  1.00  0.00     0.136 C 
ATOM      2  O   UNL     1      -5.484  -0.530   1.292  1.00  0.00    -0.299 OA
ENDROOT
BRANCH   1   3
ATOM      3  C   UNL     1      -3.263   0.167   1.733  1.00  0.00     0.053 C 
ATOM      4  C   UNL     1      -3.722   1.336   2.615  1.00  0.00     0.016 C 
BRANCH   3   5
ATOM      5  C   UNL     1      -2.773  -1.019   2.597  1.00  0.00     0.015 C 
BRANCH   5   6
ATOM      6  C   UNL     1      -1.912  -2.000   1.780  1.00  0.00     0.028 C 
BRANCH   6   7
ATOM      7  C   UNL     1      -0.774  -1.331   1.048  1.00  0.00    -0.028 C 
ATOM      8  C   UNL     1      -0.535  -1.417  -0.285  1.00  0.00    -0.070 CG0
ATOM      9  C   UNL     1       0.601  -0.620  -0.875  1.00  0.00     0.039 C 
ATOM     10  G   UNL     1      -1.273  -2.368  -1.216  1.00  0.00     0.000 G0
ENDBRANCH   6   7
ENDBRANCH   5   6
ENDBRANCH   3   5
ENDBRANCH   1   3
BRANCH   1  11
ATOM     11  C   UNL     1      -4.198  -0.379  -0.683  1.00  0.00     0.087 C 
BRANCH  11  12
ATOM     12  C   UNL     1      -3.830  -1.823  -1.121  1.00  0.00     0.066 C 
BRANCH  12  13
ATOM     13  C   UNL     1      -2.504  -1.802  -1.867  1.00  0.00     0.140 C 
ATOM     14  O   UNL     1      -2.447  -1.344  -3.000  1.00  0.00    -0.299 OA
BRANCH  13  15
ATOM     15  C   UNL     1      -1.267  -2.385  -1.228  1.00  0.00     0.106 CG0
ATOM     16  G   UNL     1      -0.528  -1.419  -0.312  1.00  0.00     0.000 G0
ENDBRANCH  13  15
ENDBRANCH  12  13
BRANCH  12  17
ATOM     17  C   UNL     1      -4.947  -2.511  -1.973  1.00  0.00    -0.006 C 
ATOM     18  C   UNL     1      -6.298  -2.574  -1.236  1.00  0.00     0.008 C 
ATOM     19  C   UNL     1      -4.537  -3.943  -2.369  1.00  0.00     0.008 C 
ENDBRANCH  12  17
ENDBRANCH  11  12
ENDBRANCH   1  11
TORSDOF 1
ENDMDL
MODEL 8
REMARK VINA RESULT:    -3.763      1.808      4.185
REMARK INTER + INTRA:          -5.824
REMARK INTER:                  -5.851
REMARK INTRA:                   0.028
REMARK UNBOUND:                -0.080
REMARK SMILES CC1=CCC[C@H](C)C(=O)C[C@@H](C(C)C)C(=O)C1
REMARK SMILES IDX 8 1 9 2 6 3 7 4 5 5 4 6 3 7 2 8 1 9 10 11 11 12 15 13 16 14
REMARK SMILES IDX 17 15 12 17 13 18 14 19
REMARK H PARENT
REMARK Flexibility Score: 70.00
ROOT
ATOM      1  C   UNL     1      -4.045  -2.164  -1.707  1.00  0.00     0.136 C 
ATOM      2  O   UNL     1      -4.140  -3.312  -2.122  1.00  0.00    -0.299 OA
ENDROOT
BRANCH   1   3
ATOM      3  C   UNL     1      -5.202  -1.553  -0.944  1.00  0.00     0.053 C 
ATOM      4  C   UNL     1      -5.725  -2.537   0.111  1.00  0.00     0.016 C 
BRANCH   3   5
ATOM      5  C   UNL     1      -4.775  -0.217  -0.290  1.00  0.00     0.015 C 
BRANCH   5   6
ATOM      6  C   UNL     1      -4.653  -0.347   1.240  1.00  0.00     0.028 C 
BRANCH   6   7
ATOM      7  C   UNL     1      -3.449   0.366   1.806  1.00  0.00    -0.028 C 
ATOM      8  C   UNL     1      -2.160  -0.038   1.674  1.00  0.00    -0.070 CG0
ATOM      9  C   UNL     1      -1.062   0.833   2.233  1.00  0.00     0.039 C 
ATOM     10  G   UNL     1      -1.751  -1.385   1.096  1.00  0.00     0.000 G0
ENDBRANCH   6   7
ENDBRANCH   5   6
ENDBRANCH   3   5
ENDBRANCH   1   3
BRANCH   1  11
ATOM     11  C   UNL     1      -2.779  -1.386  -1.995  1.00  0.00     0.087 C 
BRANCH  11  12
ATOM     12  C   UNL     1      -1.520  -2.093  -1.423  1.00  0.00     0.066 C 
BRANCH  12  13
ATOM     13  C   UNL     1      -1.008  -1.315  -0.219  1.00  0.00     0.140 C 
ATOM     14  O   UNL     1       0.020  -0.656  -0.308  1.00  0.00    -0.299 OA
BRANCH  13  15
ATOM     15  C   UNL     1      -1.740  -1.391   1.098  1.00  0.00     0.106 CG0
ATOM     16  G   UNL     1      -2.142  -0.036   1.662  1.00  0.00     0.000 G0
ENDBRANCH  13  15
ENDBRANCH  12  13
BRANCH  12  17
ATOM     17  C   UNL     1      -0.391  -2.297  -2.487  1.00  0.00    -0.006 C 
ATOM     18  C   UNL     1      -0.761  -1.706  -3.860  1.00  0.00     0.008 C 
ATOM     19  C   UNL     1      -0.066  -3.792  -2.668  1.00  0.00     0.008 C 
ENDBRANCH  12  17
ENDBRANCH  11  12
ENDBRANCH   1  11
TORSDOF 1
ENDMDL
MODEL 9
REMARK VINA RESULT:    -3.708      1.976      4.370
REMARK INTER + INTRA:          -5.739
REMARK INTER:                  -5.446
REMARK INTRA:                  -0.293
REMARK UNBOUND:                -0.080
REMARK SMILES CC1=CCC[C@H](C)C(=O)C[C@@H](C(C)C)C(=O)C1
REMARK SMILES IDX 8 1 9 2 6 3 7 4 5 5 4 6 3 7 2 8 1 9 10 11 11 12 15 13 16 14
REMARK SMILES IDX 17 15 12 17 13 18 14 19
REMARK H PARENT
REMARK Flexibility Score: 70.00
ROOT
ATOM      1  C   UNL     1      -3.976  -0.359   0.482  1.00  0.00     0.136 C 
ATOM      2  O   UNL     1      -4.972  -1.058   0.346  1.00  0.00    -0.299 OA
ENDROOT
BRANCH   1   3
ATOM      3  C   UNL     1      -3.713   0.306   1.819  1.00  0.00     0.053 C 
ATOM      4  C   UNL     1      -4.924   1.147   2.243  1.00  0.00     0.016 C 
BRANCH   3   5
ATOM      5  C   UNL     1      -3.373  -0.754   2.893  1.00  0.00     0.015 C 
BRANCH   5   6
ATOM      6  C   UNL     1      -1.922  -1.255   2.757  1.00  0.00     0.028 C 
BRANCH   6   7
ATOM      7  C   UNL     1      -0.909  -0.139   2.678  1.00  0.00    -0.028 C 
ATOM      8  C   UNL     1      -0.023   0.050   1.668  1.00  0.00    -0.070 CG0
ATOM      9  C   UNL     1       0.871   1.265   1.701  1.00  0.00     0.039 C 
ATOM     10  G   UNL     1       0.214  -0.956   0.552  1.00  0.00     0.000 G0
ENDBRANCH   6   7
ENDBRANCH   5   6
ENDBRANCH   3   5
ENDBRANCH   1   3
BRANCH   1  11
ATOM     11  C   UNL     1      -3.055  -0.161  -0.702  1.00  0.00     0.087 C 
BRANCH  11  12
ATOM     12  C   UNL     1      -2.004  -1.300  -0.816  1.00  0.00     0.066 C 
BRANCH  12  13
ATOM     13  C   UNL     1      -0.607  -0.711  -0.696  1.00  0.00     0.140 C 
ATOM     14  O   UNL     1      -0.135  -0.062  -1.620  1.00  0.00    -0.299 OA
BRANCH  13  15
ATOM     15  C   UNL     1       0.217  -0.963   0.543  1.00  0.00     0.106 CG0
ATOM     16  G   UNL     1      -0.028   0.036   1.664  1.00  0.00     0.000 G0
ENDBRANCH  13  15
ENDBRANCH  12  13
BRANCH  12  17
ATOM     17  C   UNL     1      -2.152  -2.144  -2.125  1.00  0.00    -0.006 C 
ATOM     18  C   UNL     1      -3.562  -2.744  -2.285  1.00  0.00     0.008 C 
ATOM     19  C   UNL     1      -1.123  -3.292  -2.160  1.00  0.00     0.008 C 
ENDBRANCH  12  17
ENDBRANCH  11  12
ENDBRANCH   1  11
TORSDOF 1
ENDMDL
