MODEL 1
REMARK VINA RESULT:    -1.675      0.000      0.000
REMARK INTER + INTRA:          -2.011
REMARK INTER:                  -1.968
REMARK INTRA:                  -0.043
REMARK UNBOUND:                -0.043
REMARK SMILES O=C([O-])CCC(=O)[O-]
REMARK SMILES IDX 4 1 2 2 1 3 3 4 5 5 6 6 7 7 8 8
REMARK H PARENT
REMARK Flexibility Score: inf
ROOT
ATOM      1  C   UNL     1      -7.966  -5.561  21.140  1.00  0.00     0.059 C 
ENDROOT
BRANCH   1   2
ATOM      2  C   UNL     1      -7.625  -5.030  19.783  1.00  0.00     0.042 C 
ATOM      3  O   UNL     1      -8.005  -5.640  18.750  1.00  0.00    -0.550 OA
ATOM      4  O   UNL     1      -6.927  -3.834  19.660  1.00  0.00    -0.550 OA
ENDBRANCH   1   2
BRANCH   1   5
ATOM      5  C   UNL     1      -9.105  -6.578  21.044  1.00  0.00     0.059 C 
BRANCH   5   6
ATOM      6  C   UNL     1      -8.963  -7.623  22.106  1.00  0.00     0.042 C 
ATOM      7  O   UNL     1      -8.739  -8.821  21.789  1.00  0.00    -0.550 OA
ATOM      8  O   UNL     1      -9.125  -7.282  23.443  1.00  0.00    -0.550 OA
ENDBRANCH   5   6
ENDBRANCH   1   5
TORSDOF 3
ENDMDL
MODEL 2
REMARK VINA RESULT:    -1.593      0.111      4.096
REMARK INTER + INTRA:          -1.915
REMARK INTER:                  -1.875
REMARK INTRA:                  -0.041
REMARK UNBOUND:                -0.043
REMARK SMILES O=C([O-])CCC(=O)[O-]
REMARK SMILES IDX 4 1 2 2 1 3 3 4 5 5 6 6 7 7 8 8
REMARK H PARENT
REMARK Flexibility Score: inf
ROOT
ATOM      1  C   UNL     1      -9.070  -6.735  20.981  1.00  0.00     0.059 C 
ENDROOT
BRANCH   1   2
ATOM      2  C   UNL     1      -8.979  -7.715  22.108  1.00  0.00     0.042 C 
ATOM      3  O   UNL     1      -8.736  -8.927  21.875  1.00  0.00    -0.550 OA
ATOM      4  O   UNL     1      -9.116  -7.280  23.421  1.00  0.00    -0.550 OA
ENDBRANCH   1   2
BRANCH   1   5
ATOM      5  C   UNL     1      -8.020  -5.633  21.146  1.00  0.00     0.059 C 
BRANCH   5   6
ATOM      6  C   UNL     1      -7.621  -5.088  19.810  1.00  0.00     0.042 C 
ATOM      7  O   UNL     1      -7.896  -5.724  18.759  1.00  0.00    -0.550 OA
ATOM      8  O   UNL     1      -6.902  -3.902  19.730  1.00  0.00    -0.550 OA
ENDBRANCH   5   6
ENDBRANCH   1   5
TORSDOF 3
ENDMDL
MODEL 3
REMARK VINA RESULT:    -1.545      1.498      4.283
REMARK INTER + INTRA:          -1.859
REMARK INTER:                  -1.817
REMARK INTRA:                  -0.042
REMARK UNBOUND:                -0.043
REMARK SMILES O=C([O-])CCC(=O)[O-]
REMARK SMILES IDX 4 1 2 2 1 3 3 4 5 5 6 6 7 7 8 8
REMARK H PARENT
REMARK Flexibility Score: inf
ROOT
ATOM      1  C   UNL     1      -7.540  -5.417  21.033  1.00  0.00     0.059 C 
ENDROOT
BRANCH   1   2
ATOM      2  C   UNL     1      -8.646  -6.378  20.730  1.00  0.00     0.042 C 
ATOM      3  O   UNL     1      -9.125  -6.448  19.569  1.00  0.00    -0.550 OA
ATOM      4  O   UNL     1      -9.117  -7.230  21.722  1.00  0.00    -0.550 OA
ENDBRANCH   1   2
BRANCH   1   5
ATOM      5  C   UNL     1      -7.252  -4.534  19.816  1.00  0.00     0.059 C 
BRANCH   5   6
ATOM      6  C   UNL     1      -6.464  -3.327  20.221  1.00  0.00     0.042 C 
ATOM      7  O   UNL     1      -5.931  -2.596  19.346  1.00  0.00    -0.550 OA
ATOM      8  O   UNL     1      -6.279  -3.038  21.568  1.00  0.00    -0.550 OA
ENDBRANCH   5   6
ENDBRANCH   1   5
TORSDOF 3
ENDMDL
MODEL 4
REMARK VINA RESULT:    -1.438      1.459      2.456
REMARK INTER + INTRA:          -1.733
REMARK INTER:                  -1.690
REMARK INTRA:                  -0.043
REMARK UNBOUND:                -0.043
REMARK SMILES O=C([O-])CCC(=O)[O-]
REMARK SMILES IDX 4 1 2 2 1 3 3 4 5 5 6 6 7 7 8 8
REMARK H PARENT
REMARK Flexibility Score: inf
ROOT
ATOM      1  C   UNL     1      -7.279  -4.552  19.766  1.00  0.00     0.059 C 
ENDROOT
BRANCH   1   2
ATOM      2  C   UNL     1      -6.481  -3.345  20.148  1.00  0.00     0.042 C 
ATOM      3  O   UNL     1      -6.442  -2.965  21.347  1.00  0.00    -0.550 OA
ATOM      4  O   UNL     1      -5.740  -2.669  19.186  1.00  0.00    -0.550 OA
ENDBRANCH   1   2
BRANCH   1   5
ATOM      5  C   UNL     1      -7.638  -5.371  21.008  1.00  0.00     0.059 C 
BRANCH   5   6
ATOM      6  C   UNL     1      -8.650  -6.419  20.669  1.00  0.00     0.042 C 
ATOM      7  O   UNL     1      -9.124  -6.488  19.504  1.00  0.00    -0.550 OA
ATOM      8  O   UNL     1      -9.105  -7.290  21.651  1.00  0.00    -0.550 OA
ENDBRANCH   5   6
ENDBRANCH   1   5
TORSDOF 3
ENDMDL
MODEL 5
REMARK VINA RESULT:    -1.424      1.215      4.422
REMARK INTER + INTRA:          -1.717
REMARK INTER:                  -1.686
REMARK INTRA:                  -0.031
REMARK UNBOUND:                -0.043
REMARK SMILES O=C([O-])CCC(=O)[O-]
REMARK SMILES IDX 4 1 2 2 1 3 3 4 5 5 6 6 7 7 8 8
REMARK H PARENT
REMARK Flexibility Score: inf
ROOT
ATOM      1  C   UNL     1      -9.125  -7.860  21.785  1.00  0.00     0.059 C 
ENDROOT
BRANCH   1   2
ATOM      2  C   UNL     1      -8.796  -8.399  23.141  1.00  0.00     0.042 C 
ATOM      3  O   UNL     1      -9.123  -7.758  24.174  1.00  0.00    -0.550 OA
ATOM      4  O   UNL     1      -8.172  -9.634  23.266  1.00  0.00    -0.550 OA
ENDBRANCH   1   2
BRANCH   1   5
ATOM      5  C   UNL     1      -8.913  -6.345  21.746  1.00  0.00     0.059 C 
BRANCH   5   6
ATOM      6  C   UNL     1      -8.387  -5.925  20.409  1.00  0.00     0.042 C 
ATOM      7  O   UNL     1      -7.305  -5.287  20.326  1.00  0.00    -0.550 OA
ATOM      8  O   UNL     1      -9.118  -6.195  19.259  1.00  0.00    -0.550 OA
ENDBRANCH   5   6
ENDBRANCH   1   5
TORSDOF 3
ENDMDL
MODEL 6
REMARK VINA RESULT:    -0.982      1.990      3.193
REMARK INTER + INTRA:          -1.197
REMARK INTER:                  -1.143
REMARK INTRA:                  -0.054
REMARK UNBOUND:                -0.043
REMARK SMILES O=C([O-])CCC(=O)[O-]
REMARK SMILES IDX 4 1 2 2 1 3 3 4 5 5 6 6 7 7 8 8
REMARK H PARENT
REMARK Flexibility Score: inf
ROOT
ATOM      1  C   UNL     1      -6.896  -3.900  19.822  1.00  0.00     0.059 C 
ENDROOT
BRANCH   1   2
ATOM      2  C   UNL     1      -6.412  -3.002  20.917  1.00  0.00     0.042 C 
ATOM      3  O   UNL     1      -5.889  -3.490  21.951  1.00  0.00    -0.550 OA
ATOM      4  O   UNL     1      -6.497  -1.622  20.773  1.00  0.00    -0.550 OA
ENDBRANCH   1   2
BRANCH   1   5
ATOM      5  C   UNL     1      -7.055  -5.332  20.336  1.00  0.00     0.059 C 
BRANCH   5   6
ATOM      6  C   UNL     1      -8.460  -5.807  20.135  1.00  0.00     0.042 C 
ATOM      7  O   UNL     1      -9.059  -6.424  21.055  1.00  0.00    -0.550 OA
ATOM      8  O   UNL     1      -9.091  -5.611  18.912  1.00  0.00    -0.550 OA
ENDBRANCH   5   6
ENDBRANCH   1   5
TORSDOF 3
ENDMDL
