MODEL 1
REMARK VINA RESULT:    -5.924      0.000      0.000
REMARK INTER + INTRA:          -6.524
REMARK INTER:                  -6.444
REMARK INTRA:                  -0.080
REMARK UNBOUND:                -0.080
REMARK SMILES C[C@H]1[C@@H](C)CC[C@@]2(C(=O)[O-])CC[C@]3(C)C(=CC[C@@H]4[C@]5(C)CC[C@@H](O)C(C)(C)[C@@H]5CC[C@@]43C)[C@@H]12
REMARK SMILES IDX 7 1 6 2 11 3 33 4 5 5 12 6 15 7 2 8 3 9 13 10 16 11 1 12
REMARK SMILES IDX 4 13 14 14 31 15 17 16 18 17 30 18 32 19 19 20 29 21 28 22
REMARK SMILES IDX 21 23 20 24 25 25 22 26 23 27 26 28 27 29 8 30 9 31 10 32
REMARK SMILES IDX 24 33
REMARK H PARENT 24 34
REMARK Flexibility Score: inf
ROOT
ATOM      1  C   UNL     1     -13.918 -40.233 -17.215  1.00  0.00     0.017 C 
ATOM      2  C   UNL     1     -14.453 -40.551 -15.786  1.00  0.00     0.014 C 
ATOM      3  C   UNL     1     -13.201 -38.867 -17.216  1.00  0.00     0.014 C 
ATOM      4  C   UNL     1     -12.910 -41.320 -17.761  1.00  0.00     0.030 C 
ATOM      5  C   UNL     1     -13.394 -41.040 -14.808  1.00  0.00     0.004 C 
ATOM      6  C   UNL     1     -12.842 -38.378 -18.627  1.00  0.00     0.013 C 
ATOM      7  C   UNL     1     -12.102 -40.842 -18.991  1.00  0.00    -0.063 C 
ATOM      8  C   UNL     1     -11.971 -41.987 -16.670  1.00  0.00    -0.003 C 
ATOM      9  C   UNL     1     -12.741 -42.304 -15.363  1.00  0.00    -0.011 C 
ATOM     10  C   UNL     1     -12.238 -39.445 -19.630  1.00  0.00    -0.006 C 
ATOM     11  C   UNL     1     -11.364 -41.765 -19.633  1.00  0.00    -0.027 C 
ATOM     12  C   UNL     1     -10.626 -41.264 -16.413  1.00  0.00     0.008 C 
ATOM     13  C   UNL     1     -11.885 -42.994 -14.288  1.00  0.00     0.008 C 
ATOM     14  C   UNL     1     -13.269 -39.632 -20.793  1.00  0.00     0.017 C 
ATOM     15  C   UNL     1     -10.828 -38.927 -20.227  1.00  0.00    -0.020 C 
ATOM     16  C   UNL     1     -10.163 -41.418 -20.453  1.00  0.00     0.032 C 
ATOM     17  C   UNL     1     -10.154 -40.023 -21.146  1.00  0.00     0.006 C 
ATOM     18  C   UNL     1      -9.839 -38.561 -19.064  1.00  0.00     0.008 C 
ATOM     19  C   UNL     1     -11.110 -37.638 -21.078  1.00  0.00     0.012 C 
ATOM     20  C   UNL     1      -8.708 -39.600 -21.755  1.00  0.00    -0.025 C 
ATOM     21  C   UNL     1      -8.344 -38.875 -19.306  1.00  0.00     0.005 C 
ATOM     22  C   UNL     1      -7.911 -38.620 -20.774  1.00  0.00     0.003 C 
ATOM     23  C   UNL     1      -7.856 -40.882 -22.078  1.00  0.00     0.010 C 
ATOM     24  C   UNL     1      -8.964 -38.884 -23.125  1.00  0.00     0.012 C 
ATOM     25  C   UNL     1      -6.330 -38.510 -20.998  1.00  0.00    -0.006 C 
ATOM     26  C   UNL     1      -6.397 -40.620 -22.439  1.00  0.00     0.033 C 
ATOM     27  C   UNL     1      -5.693 -39.897 -21.290  1.00  0.00     0.120 C 
ATOM     28  C   UNL     1      -6.019 -37.511 -22.153  1.00  0.00     0.014 C 
ATOM     29  C   UNL     1      -5.606 -37.920 -19.754  1.00  0.00     0.014 C 
ENDROOT
BRANCH   1  30
ATOM     30  C   UNL     1     -15.181 -40.153 -18.071  1.00  0.00     0.048 C 
ATOM     31  O   UNL     1     -15.707 -41.196 -18.545  1.00  0.00    -0.550 OA
ATOM     32  O   UNL     1     -15.855 -38.945 -18.218  1.00  0.00    -0.550 OA
ENDBRANCH   1  30
BRANCH  27  33
ATOM     33  O   UNL     1      -4.327 -39.758 -21.595  1.00  0.00    -0.393 OA
ATOM     34  H   UNL     1      -4.101 -40.469 -22.251  1.00  0.00     0.210 HD
ENDBRANCH  27  33
TORSDOF 2
ENDMDL
MODEL 2
REMARK VINA RESULT:    -5.508      2.317      7.740
REMARK INTER + INTRA:          -6.071
REMARK INTER:                  -5.890
REMARK INTRA:                  -0.181
REMARK UNBOUND:                -0.080
REMARK SMILES C[C@H]1[C@@H](C)CC[C@@]2(C(=O)[O-])CC[C@]3(C)C(=CC[C@@H]4[C@]5(C)CC[C@@H](O)C(C)(C)[C@@H]5CC[C@@]43C)[C@@H]12
REMARK SMILES IDX 7 1 6 2 11 3 33 4 5 5 12 6 15 7 2 8 3 9 13 10 16 11 1 12
REMARK SMILES IDX 4 13 14 14 31 15 17 16 18 17 30 18 32 19 19 20 29 21 28 22
REMARK SMILES IDX 21 23 20 24 25 25 22 26 23 27 26 28 27 29 8 30 9 31 10 32
REMARK SMILES IDX 24 33
REMARK H PARENT 24 34
REMARK Flexibility Score: inf
ROOT
ATOM      1  C   UNL     1      -9.704 -38.987 -21.955  1.00  0.00     0.017 C 
ATOM      2  C   UNL     1      -8.849 -39.594 -23.108  1.00  0.00     0.014 C 
ATOM      3  C   UNL     1     -11.204 -39.093 -22.299  1.00  0.00     0.014 C 
ATOM      4  C   UNL     1      -9.465 -39.694 -20.562  1.00  0.00     0.030 C 
ATOM      5  C   UNL     1      -8.799 -41.115 -23.125  1.00  0.00     0.004 C 
ATOM      6  C   UNL     1     -12.101 -38.319 -21.322  1.00  0.00     0.013 C 
ATOM      7  C   UNL     1     -10.553 -39.360 -19.513  1.00  0.00    -0.063 C 
ATOM      8  C   UNL     1      -9.180 -41.253 -20.630  1.00  0.00    -0.003 C 
ATOM      9  C   UNL     1      -8.229 -41.614 -21.798  1.00  0.00    -0.011 C 
ATOM     10  C   UNL     1     -11.764 -38.443 -19.779  1.00  0.00    -0.006 C 
ATOM     11  C   UNL     1     -10.327 -39.764 -18.250  1.00  0.00    -0.027 C 
ATOM     12  C   UNL     1     -10.430 -42.164 -20.571  1.00  0.00     0.008 C 
ATOM     13  C   UNL     1      -7.884 -43.111 -21.881  1.00  0.00     0.008 C 
ATOM     14  C   UNL     1     -11.316 -37.028 -19.281  1.00  0.00     0.017 C 
ATOM     15  C   UNL     1     -13.066 -38.927 -18.952  1.00  0.00    -0.020 C 
ATOM     16  C   UNL     1     -11.425 -40.008 -17.266  1.00  0.00     0.032 C 
ATOM     17  C   UNL     1     -12.724 -39.163 -17.426  1.00  0.00     0.006 C 
ATOM     18  C   UNL     1     -13.638 -40.258 -19.555  1.00  0.00     0.008 C 
ATOM     19  C   UNL     1     -14.157 -37.805 -19.071  1.00  0.00     0.012 C 
ATOM     20  C   UNL     1     -13.969 -39.694 -16.526  1.00  0.00    -0.025 C 
ATOM     21  C   UNL     1     -14.226 -41.275 -18.549  1.00  0.00     0.005 C 
ATOM     22  C   UNL     1     -14.982 -40.589 -17.381  1.00  0.00     0.003 C 
ATOM     23  C   UNL     1     -13.441 -40.487 -15.276  1.00  0.00     0.010 C 
ATOM     24  C   UNL     1     -14.717 -38.436 -15.967  1.00  0.00     0.012 C 
ATOM     25  C   UNL     1     -15.960 -41.553 -16.557  1.00  0.00    -0.006 C 
ATOM     26  C   UNL     1     -14.507 -41.231 -14.477  1.00  0.00     0.033 C 
ATOM     27  C   UNL     1     -15.223 -42.241 -15.374  1.00  0.00     0.120 C 
ATOM     28  C   UNL     1     -17.193 -40.752 -16.041  1.00  0.00     0.014 C 
ATOM     29  C   UNL     1     -16.558 -42.677 -17.449  1.00  0.00     0.014 C 
ENDROOT
BRANCH   1  30
ATOM     30  C   UNL     1      -9.285 -37.518 -21.922  1.00  0.00     0.048 C 
ATOM     31  O   UNL     1      -8.408 -37.114 -21.111  1.00  0.00    -0.550 OA
ATOM     32  O   UNL     1      -9.757 -36.631 -22.884  1.00  0.00    -0.550 OA
ENDBRANCH   1  30
BRANCH  27  33
ATOM     33  O   UNL     1     -16.128 -42.991 -14.600  1.00  0.00    -0.393 OA
ATOM     34  H   UNL     1     -16.977 -43.043 -15.114  1.00  0.00     0.210 HD
ENDBRANCH  27  33
TORSDOF 2
ENDMDL
MODEL 3
REMARK VINA RESULT:    -4.555     13.160     16.443
REMARK INTER + INTRA:          -5.034
REMARK INTER:                  -4.932
REMARK INTRA:                  -0.102
REMARK UNBOUND:                -0.080
REMARK SMILES C[C@H]1[C@@H](C)CC[C@@]2(C(=O)[O-])CC[C@]3(C)C(=CC[C@@H]4[C@]5(C)CC[C@@H](O)C(C)(C)[C@@H]5CC[C@@]43C)[C@@H]12
REMARK SMILES IDX 7 1 6 2 11 3 33 4 5 5 12 6 15 7 2 8 3 9 13 10 16 11 1 12
REMARK SMILES IDX 4 13 14 14 31 15 17 16 18 17 30 18 32 19 19 20 29 21 28 22
REMARK SMILES IDX 21 23 20 24 25 25 22 26 23 27 26 28 27 29 8 30 9 31 10 32
REMARK SMILES IDX 24 33
REMARK H PARENT 24 34
REMARK Flexibility Score: inf
ROOT
ATOM      1  C   UNL     1     -11.001 -46.459  -4.683  1.00  0.00     0.017 C 
ATOM      2  C   UNL     1      -9.460 -46.622  -4.839  1.00  0.00     0.014 C 
ATOM      3  C   UNL     1     -11.315 -45.506  -3.512  1.00  0.00     0.014 C 
ATOM      4  C   UNL     1     -11.704 -45.893  -5.981  1.00  0.00     0.030 C 
ATOM      5  C   UNL     1      -8.766 -45.454  -5.525  1.00  0.00     0.004 C 
ATOM      6  C   UNL     1     -12.806 -45.468  -3.149  1.00  0.00     0.013 C 
ATOM      7  C   UNL     1     -13.143 -45.385  -5.725  1.00  0.00    -0.063 C 
ATOM      8  C   UNL     1     -10.854 -44.843  -6.812  1.00  0.00    -0.003 C 
ATOM      9  C   UNL     1      -9.366 -45.260  -6.917  1.00  0.00    -0.011 C 
ATOM     10  C   UNL     1     -13.840 -45.405  -4.349  1.00  0.00    -0.006 C 
ATOM     11  C   UNL     1     -13.878 -45.066  -6.804  1.00  0.00    -0.027 C 
ATOM     12  C   UNL     1     -11.033 -43.361  -6.399  1.00  0.00     0.008 C 
ATOM     13  C   UNL     1      -8.506 -44.296  -7.752  1.00  0.00     0.008 C 
ATOM     14  C   UNL     1     -14.660 -46.738  -4.332  1.00  0.00     0.017 C 
ATOM     15  C   UNL     1     -14.838 -44.147  -4.172  1.00  0.00    -0.020 C 
ATOM     16  C   UNL     1     -15.020 -44.102  -6.754  1.00  0.00     0.032 C 
ATOM     17  C   UNL     1     -15.807 -44.001  -5.414  1.00  0.00     0.006 C 
ATOM     18  C   UNL     1     -14.022 -42.816  -4.007  1.00  0.00     0.008 C 
ATOM     19  C   UNL     1     -15.689 -44.386  -2.875  1.00  0.00     0.012 C 
ATOM     20  C   UNL     1     -16.819 -42.731  -5.339  1.00  0.00    -0.025 C 
ATOM     21  C   UNL     1     -14.632 -41.549  -4.651  1.00  0.00     0.005 C 
ATOM     22  C   UNL     1     -16.178 -41.506  -4.535  1.00  0.00     0.003 C 
ATOM     23  C   UNL     1     -17.248 -42.289  -6.785  1.00  0.00     0.010 C 
ATOM     24  C   UNL     1     -18.125 -43.211  -4.618  1.00  0.00     0.012 C 
ATOM     25  C   UNL     1     -16.830 -40.064  -4.785  1.00  0.00    -0.006 C 
ATOM     26  C   UNL     1     -18.012 -40.970  -6.863  1.00  0.00     0.033 C 
ATOM     27  C   UNL     1     -17.162 -39.837  -6.286  1.00  0.00     0.120 C 
ATOM     28  C   UNL     1     -18.108 -39.895  -3.909  1.00  0.00     0.014 C 
ATOM     29  C   UNL     1     -15.884 -38.913  -4.339  1.00  0.00     0.014 C 
ENDROOT
BRANCH   1  30
ATOM     30  C   UNL     1     -11.488 -47.868  -4.346  1.00  0.00     0.048 C 
ATOM     31  O   UNL     1     -11.743 -48.698  -5.259  1.00  0.00    -0.550 OA
ATOM     32  O   UNL     1     -11.515 -48.304  -3.026  1.00  0.00    -0.550 OA
ENDBRANCH   1  30
BRANCH  27  33
ATOM     33  O   UNL     1     -17.836 -38.615  -6.461  1.00  0.00    -0.393 OA
ATOM     34  H   UNL     1     -18.695 -38.819  -6.917  1.00  0.00     0.210 HD
ENDBRANCH  27  33
TORSDOF 2
ENDMDL
MODEL 4
REMARK VINA RESULT:    -4.497      1.811      2.495
REMARK INTER + INTRA:          -4.971
REMARK INTER:                  -4.799
REMARK INTRA:                  -0.173
REMARK UNBOUND:                -0.080
REMARK SMILES C[C@H]1[C@@H](C)CC[C@@]2(C(=O)[O-])CC[C@]3(C)C(=CC[C@@H]4[C@]5(C)CC[C@@H](O)C(C)(C)[C@@H]5CC[C@@]43C)[C@@H]12
REMARK SMILES IDX 7 1 6 2 11 3 33 4 5 5 12 6 15 7 2 8 3 9 13 10 16 11 1 12
REMARK SMILES IDX 4 13 14 14 31 15 17 16 18 17 30 18 32 19 19 20 29 21 28 22
REMARK SMILES IDX 21 23 20 24 25 25 22 26 23 27 26 28 27 29 8 30 9 31 10 32
REMARK SMILES IDX 24 33
REMARK H PARENT 24 34
REMARK Flexibility Score: inf
ROOT
ATOM      1  C   UNL     1     -13.747 -41.693 -15.597  1.00  0.00     0.017 C 
ATOM      2  C   UNL     1     -13.550 -42.265 -14.161  1.00  0.00     0.014 C 
ATOM      3  C   UNL     1     -13.523 -40.167 -15.592  1.00  0.00     0.014 C 
ATOM      4  C   UNL     1     -12.772 -42.331 -16.663  1.00  0.00     0.030 C 
ATOM      5  C   UNL     1     -12.097 -42.421 -13.736  1.00  0.00     0.004 C 
ATOM      6  C   UNL     1     -13.916 -39.496 -16.916  1.00  0.00     0.013 C 
ATOM      7  C   UNL     1     -12.699 -41.528 -17.984  1.00  0.00    -0.063 C 
ATOM      8  C   UNL     1     -11.326 -42.703 -16.126  1.00  0.00    -0.003 C 
ATOM      9  C   UNL     1     -11.382 -43.347 -14.718  1.00  0.00    -0.011 C 
ATOM     10  C   UNL     1     -13.479 -40.225 -18.253  1.00  0.00    -0.006 C 
ATOM     11  C   UNL     1     -12.044 -42.100 -19.010  1.00  0.00    -0.027 C 
ATOM     12  C   UNL     1     -10.265 -41.580 -16.230  1.00  0.00     0.008 C 
ATOM     13  C   UNL     1     -10.008 -43.767 -14.170  1.00  0.00     0.008 C 
ATOM     14  C   UNL     1     -14.784 -40.681 -18.987  1.00  0.00     0.017 C 
ATOM     15  C   UNL     1     -12.642 -39.219 -19.200  1.00  0.00    -0.020 C 
ATOM     16  C   UNL     1     -11.428 -41.311 -20.121  1.00  0.00     0.032 C 
ATOM     17  C   UNL     1     -12.102 -39.957 -20.490  1.00  0.00     0.006 C 
ATOM     18  C   UNL     1     -11.425 -38.610 -18.418  1.00  0.00     0.008 C 
ATOM     19  C   UNL     1     -13.602 -38.054 -19.632  1.00  0.00     0.012 C 
ATOM     20  C   UNL     1     -11.211 -39.026 -21.481  1.00  0.00    -0.025 C 
ATOM     21  C   UNL     1     -10.130 -38.376 -19.230  1.00  0.00     0.005 C 
ATOM     22  C   UNL     1     -10.413 -37.896 -20.678  1.00  0.00     0.003 C 
ATOM     23  C   UNL     1     -10.225 -39.915 -22.324  1.00  0.00     0.010 C 
ATOM     24  C   UNL     1     -12.189 -38.356 -22.506  1.00  0.00     0.012 C 
ATOM     25  C   UNL     1      -9.159 -37.236 -21.424  1.00  0.00    -0.006 C 
ATOM     26  C   UNL     1      -9.177 -39.146 -23.123  1.00  0.00     0.033 C 
ATOM     27  C   UNL     1      -8.318 -38.300 -22.183  1.00  0.00     0.120 C 
ATOM     28  C   UNL     1      -9.641 -36.121 -22.399  1.00  0.00     0.014 C 
ATOM     29  C   UNL     1      -8.206 -36.513 -20.430  1.00  0.00     0.014 C 
ENDROOT
BRANCH   1  30
ATOM     30  C   UNL     1     -15.210 -41.997 -15.916  1.00  0.00     0.048 C 
ATOM     31  O   UNL     1     -15.522 -42.978 -16.643  1.00  0.00    -0.550 OA
ATOM     32  O   UNL     1     -16.229 -41.286 -15.290  1.00  0.00    -0.550 OA
ENDBRANCH   1  30
BRANCH  27  33
ATOM     33  O   UNL     1      -7.292 -37.681 -22.920  1.00  0.00    -0.393 OA
ATOM     34  H   UNL     1      -6.605 -38.376 -23.103  1.00  0.00     0.210 HD
ENDBRANCH  27  33
TORSDOF 2
ENDMDL
MODEL 5
REMARK VINA RESULT:    -3.632      1.947      7.728
REMARK INTER + INTRA:          -4.031
REMARK INTER:                  -3.874
REMARK INTRA:                  -0.157
REMARK UNBOUND:                -0.080
REMARK SMILES C[C@H]1[C@@H](C)CC[C@@]2(C(=O)[O-])CC[C@]3(C)C(=CC[C@@H]4[C@]5(C)CC[C@@H](O)C(C)(C)[C@@H]5CC[C@@]43C)[C@@H]12
REMARK SMILES IDX 7 1 6 2 11 3 33 4 5 5 12 6 15 7 2 8 3 9 13 10 16 11 1 12
REMARK SMILES IDX 4 13 14 14 31 15 17 16 18 17 30 18 32 19 19 20 29 21 28 22
REMARK SMILES IDX 21 23 20 24 25 25 22 26 23 27 26 28 27 29 8 30 9 31 10 32
REMARK SMILES IDX 24 33
REMARK H PARENT 24 34
REMARK Flexibility Score: inf
ROOT
ATOM      1  C   UNL     1      -8.138 -39.652 -21.678  1.00  0.00     0.017 C 
ATOM      2  C   UNL     1      -7.211 -40.460 -22.635  1.00  0.00     0.014 C 
ATOM      3  C   UNL     1      -9.232 -38.930 -22.491  1.00  0.00     0.014 C 
ATOM      4  C   UNL     1      -8.846 -40.550 -20.588  1.00  0.00     0.030 C 
ATOM      5  C   UNL     1      -7.799 -41.776 -23.124  1.00  0.00     0.004 C 
ATOM      6  C   UNL     1     -10.048 -37.936 -21.652  1.00  0.00     0.013 C 
ATOM      7  C   UNL     1     -10.029 -39.841 -19.885  1.00  0.00    -0.063 C 
ATOM      8  C   UNL     1      -9.240 -42.012 -21.061  1.00  0.00    -0.003 C 
ATOM      9  C   UNL     1      -8.126 -42.659 -21.921  1.00  0.00    -0.011 C 
ATOM     10  C   UNL     1     -10.498 -38.408 -20.209  1.00  0.00    -0.006 C 
ATOM     11  C   UNL     1     -10.563 -40.459 -18.817  1.00  0.00    -0.027 C 
ATOM     12  C   UNL     1     -10.646 -42.152 -21.696  1.00  0.00     0.008 C 
ATOM     13  C   UNL     1      -8.441 -44.097 -22.369  1.00  0.00     0.008 C 
ATOM     14  C   UNL     1      -9.764 -37.498 -19.167  1.00  0.00     0.017 C 
ATOM     15  C   UNL     1     -12.098 -38.256 -20.036  1.00  0.00    -0.020 C 
ATOM     16  C   UNL     1     -11.968 -40.227 -18.363  1.00  0.00     0.032 C 
ATOM     17  C   UNL     1     -12.583 -38.823 -18.642  1.00  0.00     0.006 C 
ATOM     18  C   UNL     1     -12.850 -39.017 -21.183  1.00  0.00     0.008 C 
ATOM     19  C   UNL     1     -12.448 -36.728 -20.124  1.00  0.00     0.012 C 
ATOM     20  C   UNL     1     -14.189 -38.749 -18.402  1.00  0.00    -0.025 C 
ATOM     21  C   UNL     1     -14.180 -39.705 -20.798  1.00  0.00     0.005 C 
ATOM     22  C   UNL     1     -15.003 -38.882 -19.772  1.00  0.00     0.003 C 
ATOM     23  C   UNL     1     -14.639 -39.851 -17.375  1.00  0.00     0.010 C 
ATOM     24  C   UNL     1     -14.502 -37.367 -17.732  1.00  0.00     0.012 C 
ATOM     25  C   UNL     1     -16.544 -39.303 -19.654  1.00  0.00    -0.006 C 
ATOM     26  C   UNL     1     -16.148 -40.036 -17.237  1.00  0.00     0.033 C 
ATOM     27  C   UNL     1     -16.754 -40.414 -18.589  1.00  0.00     0.120 C 
ATOM     28  C   UNL     1     -17.417 -38.055 -19.324  1.00  0.00     0.014 C 
ATOM     29  C   UNL     1     -17.105 -39.838 -21.002  1.00  0.00     0.014 C 
ENDROOT
BRANCH   1  30
ATOM     30  C   UNL     1      -7.204 -38.623 -21.043  1.00  0.00     0.048 C 
ATOM     31  O   UNL     1      -6.604 -38.875 -19.964  1.00  0.00    -0.550 OA
ATOM     32  O   UNL     1      -6.885 -37.451 -21.721  1.00  0.00    -0.550 OA
ENDBRANCH   1  30
BRANCH  27  33
ATOM     33  O   UNL     1     -18.125 -40.684 -18.424  1.00  0.00    -0.393 OA
ATOM     34  H   UNL     1     -18.308 -41.550 -18.876  1.00  0.00     0.210 HD
ENDBRANCH  27  33
TORSDOF 2
ENDMDL
MODEL 6
REMARK VINA RESULT:    -3.079      2.322      4.296
REMARK INTER + INTRA:          -3.428
REMARK INTER:                  -5.515
REMARK INTRA:                   2.087
REMARK UNBOUND:                -0.080
REMARK SMILES C[C@H]1[C@@H](C)CC[C@@]2(C(=O)[O-])CC[C@]3(C)C(=CC[C@@H]4[C@]5(C)CC[C@@H](O)C(C)(C)[C@@H]5CC[C@@]43C)[C@@H]12
REMARK SMILES IDX 7 1 6 2 11 3 33 4 5 5 12 6 15 7 2 8 3 9 13 10 16 11 1 12
REMARK SMILES IDX 4 13 14 14 31 15 17 16 18 17 30 18 32 19 19 20 29 21 28 22
REMARK SMILES IDX 21 23 20 24 25 25 22 26 23 27 26 28 27 29 8 30 9 31 10 32
REMARK SMILES IDX 24 33
REMARK H PARENT 24 34
REMARK Flexibility Score: inf
ROOT
ATOM      1  C   UNL     1     -15.763 -41.625 -15.463  1.00  0.00     0.017 C 
ATOM      2  C   UNL     1     -16.929 -42.619 -15.182  1.00  0.00     0.014 C 
ATOM      3  C   UNL     1     -14.407 -42.334 -15.267  1.00  0.00     0.014 C 
ATOM      4  C   UNL     1     -15.797 -41.019 -16.922  1.00  0.00     0.030 C 
ATOM      5  C   UNL     1     -17.212 -43.599 -16.312  1.00  0.00     0.004 C 
ATOM      6  C   UNL     1     -13.213 -41.370 -15.306  1.00  0.00     0.013 C 
ATOM      7  C   UNL     1     -14.470 -40.336 -17.332  1.00  0.00    -0.063 C 
ATOM      8  C   UNL     1     -16.323 -41.998 -18.054  1.00  0.00    -0.003 C 
ATOM      9  C   UNL     1     -17.548 -42.819 -17.582  1.00  0.00    -0.011 C 
ATOM     10  C   UNL     1     -13.220 -40.255 -16.430  1.00  0.00    -0.006 C 
ATOM     11  C   UNL     1     -14.474 -39.631 -18.477  1.00  0.00    -0.027 C 
ATOM     12  C   UNL     1     -15.242 -42.873 -18.736  1.00  0.00     0.008 C 
ATOM     13  C   UNL     1     -18.125 -43.753 -18.659  1.00  0.00     0.008 C 
ATOM     14  C   UNL     1     -13.330 -38.867 -15.714  1.00  0.00     0.017 C 
ATOM     15  C   UNL     1     -11.859 -40.315 -17.299  1.00  0.00    -0.020 C 
ATOM     16  C   UNL     1     -13.238 -39.372 -19.276  1.00  0.00     0.032 C 
ATOM     17  C   UNL     1     -11.892 -39.283 -18.496  1.00  0.00     0.006 C 
ATOM     18  C   UNL     1     -11.640 -41.757 -17.879  1.00  0.00     0.008 C 
ATOM     19  C   UNL     1     -10.663 -39.964 -16.344  1.00  0.00     0.012 C 
ATOM     20  C   UNL     1     -10.576 -39.307 -19.449  1.00  0.00    -0.025 C 
ATOM     21  C   UNL     1     -11.008 -41.845 -19.287  1.00  0.00     0.005 C 
ATOM     22  C   UNL     1      -9.921 -40.764 -19.522  1.00  0.00     0.003 C 
ATOM     23  C   UNL     1     -10.934 -38.783 -20.888  1.00  0.00     0.010 C 
ATOM     24  C   UNL     1      -9.543 -38.291 -18.853  1.00  0.00     0.012 C 
ATOM     25  C   UNL     1      -8.944 -41.051 -20.758  1.00  0.00    -0.006 C 
ATOM     26  C   UNL     1      -9.845 -38.970 -21.939  1.00  0.00     0.033 C 
ATOM     27  C   UNL     1      -9.502 -40.453 -22.080  1.00  0.00     0.120 C 
ATOM     28  C   UNL     1      -7.522 -40.489 -20.460  1.00  0.00     0.014 C 
ATOM     29  C   UNL     1      -8.732 -42.574 -20.991  1.00  0.00     0.014 C 
ENDROOT
BRANCH   1  30
ATOM     30  C   UNL     1     -15.937 -40.543 -14.398  1.00  0.00     0.048 C 
ATOM     31  O   UNL     1     -15.012 -39.722 -14.154  1.00  0.00    -0.550 OA
ATOM     32  O   UNL     1     -17.171 -40.353 -13.784  1.00  0.00    -0.550 OA
ENDBRANCH   1  30
BRANCH  27  33
ATOM     33  O   UNL     1      -8.574 -40.619 -23.125  1.00  0.00    -0.393 OA
ATOM     34  H   UNL     1      -8.379 -41.591 -23.189  1.00  0.00     0.210 HD
ENDBRANCH  27  33
TORSDOF 2
ENDMDL
