MODEL 1
REMARK VINA RESULT:    -4.031      0.000      0.000
REMARK INTER + INTRA:          -4.031
REMARK INTER:                  -4.031
REMARK INTRA:                   0.000
REMARK UNBOUND:                 0.000
REMARK SMILES Cc1cc2cc3c(C)cc(=O)oc3c(C)c2o1
REMARK SMILES IDX 8 1 7 2 9 3 10 4 11 5 12 6 13 7 6 8 5 9 4 10 3 11 2 12 17 13
REMARK SMILES IDX 16 14 14 15 15 16 1 17
REMARK H PARENT
REMARK Flexibility Score: inf
ROOT
ATOM      1  C   UNL     1      13.695  22.185   1.242  1.00  0.00     0.045 C 
ATOM      2  C   UNL     1      13.880  22.899  -0.072  1.00  0.00    -0.033 A 
ATOM      3  C   UNL     1      14.601  24.099  -0.105  1.00  0.00     0.098 A 
ATOM      4  C   UNL     1      14.775  24.768  -1.317  1.00  0.00     0.336 A 
ATOM      5  O   UNL     1      15.421  25.847  -1.351  1.00  0.00    -0.246 OA
ATOM      6  O   UNL     1      14.262  24.277  -2.438  1.00  0.00    -0.422 OA
ATOM      7  C   UNL     1      13.568  23.142  -2.481  1.00  0.00     0.145 A 
ATOM      8  C   UNL     1      13.342  22.397  -1.279  1.00  0.00     0.022 A 
ATOM      9  C   UNL     1      12.593  21.196  -1.332  1.00  0.00     0.024 A 
ATOM     10  C   UNL     1      12.098  20.787  -2.564  1.00  0.00     0.022 A 
ATOM     11  C   UNL     1      11.342  19.689  -2.904  1.00  0.00     0.054 A 
ATOM     12  C   UNL     1      11.149  19.817  -4.274  1.00  0.00     0.102 A 
ATOM     13  O   UNL     1      11.736  20.908  -4.731  1.00  0.00    -0.461 OA
ATOM     14  C   UNL     1      12.314  21.500  -3.712  1.00  0.00     0.140 A 
ATOM     15  C   UNL     1      13.056  22.683  -3.718  1.00  0.00     0.036 A 
ATOM     16  C   UNL     1      13.258  23.468  -4.984  1.00  0.00     0.052 C 
ATOM     17  C   UNL     1      10.367  18.875  -5.124  1.00  0.00     0.087 C 
ENDROOT
TORSDOF 0
ENDMDL
MODEL 2
REMARK VINA RESULT:    -3.326      1.035      5.145
REMARK INTER + INTRA:          -3.326
REMARK INTER:                  -3.326
REMARK INTRA:                   0.000
REMARK UNBOUND:                 0.000
REMARK SMILES Cc1cc2cc3c(C)cc(=O)oc3c(C)c2o1
REMARK SMILES IDX 8 1 7 2 9 3 10 4 11 5 12 6 13 7 6 8 5 9 4 10 3 11 2 12 17 13
REMARK SMILES IDX 16 14 14 15 15 16 1 17
REMARK H PARENT
REMARK Flexibility Score: inf
ROOT
ATOM      1  C   UNL     1      12.134  18.875  -0.506  1.00  0.00     0.045 C 
ATOM      2  C   UNL     1      12.060  19.569  -1.841  1.00  0.00    -0.033 A 
ATOM      3  C   UNL     1      11.435  18.924  -2.915  1.00  0.00     0.098 A 
ATOM      4  C   UNL     1      11.364  19.559  -4.156  1.00  0.00     0.336 A 
ATOM      5  O   UNL     1      10.804  18.982  -5.125  1.00  0.00    -0.246 OA
ATOM      6  O   UNL     1      11.883  20.768  -4.326  1.00  0.00    -0.422 OA
ATOM      7  C   UNL     1      12.489  21.439  -3.350  1.00  0.00     0.145 A 
ATOM      8  C   UNL     1      12.607  20.855  -2.048  1.00  0.00     0.022 A 
ATOM      9  C   UNL     1      13.263  21.573  -1.017  1.00  0.00     0.024 A 
ATOM     10  C   UNL     1      13.777  22.829  -1.318  1.00  0.00     0.022 A 
ATOM     11  C   UNL     1      14.460  23.727  -0.531  1.00  0.00     0.054 A 
ATOM     12  C   UNL     1      14.719  24.796  -1.380  1.00  0.00     0.102 A 
ATOM     13  O   UNL     1      14.236  24.566  -2.588  1.00  0.00    -0.461 OA
ATOM     14  C   UNL     1      13.663  23.386  -2.563  1.00  0.00     0.140 A 
ATOM     15  C   UNL     1      13.016  22.727  -3.611  1.00  0.00     0.036 A 
ATOM     16  C   UNL     1      12.927  23.342  -4.979  1.00  0.00     0.052 C 
ATOM     17  C   UNL     1      15.461  26.033  -1.003  1.00  0.00     0.087 C 
ENDROOT
TORSDOF 0
ENDMDL
MODEL 3
REMARK VINA RESULT:    -2.591      1.950      5.718
REMARK INTER + INTRA:          -2.591
REMARK INTER:                  -2.591
REMARK INTRA:                   0.000
REMARK UNBOUND:                 0.000
REMARK SMILES Cc1cc2cc3c(C)cc(=O)oc3c(C)c2o1
REMARK SMILES IDX 8 1 7 2 9 3 10 4 11 5 12 6 13 7 6 8 5 9 4 10 3 11 2 12 17 13
REMARK SMILES IDX 16 14 14 15 15 16 1 17
REMARK H PARENT
REMARK Flexibility Score: inf
ROOT
ATOM      1  C   UNL     1      14.915  18.875  -5.125  1.00  0.00     0.045 C 
ATOM      2  C   UNL     1      13.642  19.427  -4.537  1.00  0.00    -0.033 A 
ATOM      3  C   UNL     1      12.411  19.028  -5.072  1.00  0.00     0.098 A 
ATOM      4  C   UNL     1      11.227  19.536  -4.535  1.00  0.00     0.336 A 
ATOM      5  O   UNL     1      10.118  19.181  -5.013  1.00  0.00    -0.246 OA
ATOM      6  O   UNL     1      11.259  20.394  -3.523  1.00  0.00    -0.422 OA
ATOM      7  C   UNL     1      12.391  20.814  -2.966  1.00  0.00     0.145 A 
ATOM      8  C   UNL     1      13.649  20.343  -3.461  1.00  0.00     0.022 A 
ATOM      9  C   UNL     1      14.851  20.804  -2.868  1.00  0.00     0.024 A 
ATOM     10  C   UNL     1      14.757  21.711  -1.819  1.00  0.00     0.022 A 
ATOM     11  C   UNL     1      15.741  22.325  -1.079  1.00  0.00     0.054 A 
ATOM     12  C   UNL     1      15.044  23.126  -0.182  1.00  0.00     0.102 A 
ATOM     13  O   UNL     1      13.741  23.012  -0.366  1.00  0.00    -0.461 OA
ATOM     14  C   UNL     1      13.555  22.161  -1.347  1.00  0.00     0.140 A 
ATOM     15  C   UNL     1      12.341  21.729  -1.887  1.00  0.00     0.036 A 
ATOM     16  C   UNL     1      11.030  22.257  -1.374  1.00  0.00     0.052 C 
ATOM     17  C   UNL     1      15.665  24.017   0.838  1.00  0.00     0.087 C 
ENDROOT
TORSDOF 0
ENDMDL
