MODEL 1
REMARK VINA RESULT:    -2.959      0.000      0.000
REMARK INTER + INTRA:          -8.248
REMARK INTER:                  -6.764
REMARK INTRA:                  -1.484
REMARK UNBOUND:                -1.484
REMARK SMILES CCCCCCCCCCCCCCCCCCCCCCCC(=O)[O-]
REMARK SMILES IDX 13 1 14 2 15 3 16 4 17 5 18 6 19 7 20 8 21 9 22 10 23 11
REMARK SMILES IDX 24 12 25 13 26 14 12 15 11 16 10 17 9 18 8 19 7 20 6 21 5 22
REMARK SMILES IDX 4 23 3 24 2 25 1 26
REMARK H PARENT
REMARK Flexibility Score: inf
ROOT
ATOM      1  C   UNL     1      -4.496   7.221  -6.305  1.00  0.00     0.000 C 
ENDROOT
BRANCH   1   2
ATOM      2  C   UNL     1      -3.483   8.044  -7.130  1.00  0.00     0.000 C 
BRANCH   2   3
ATOM      3  C   UNL     1      -3.778   7.999  -8.640  1.00  0.00     0.000 C 
BRANCH   3   4
ATOM      4  C   UNL     1      -5.284   8.016  -8.950  1.00  0.00     0.000 C 
BRANCH   4   5
ATOM      5  C   UNL     1      -5.895   9.423  -8.822  1.00  0.00     0.000 C 
BRANCH   5   6
ATOM      6  C   UNL     1      -7.213   9.424  -8.032  1.00  0.00     0.000 C 
BRANCH   6   7
ATOM      7  C   UNL     1      -8.452   9.396  -8.944  1.00  0.00     0.000 C 
BRANCH   7   8
ATOM      8  C   UNL     1      -8.530   8.125  -9.807  1.00  0.00     0.000 C 
BRANCH   8   9
ATOM      9  C   UNL     1      -9.868   7.368  -9.727  1.00  0.00     0.000 C 
BRANCH   9  10
ATOM     10  C   UNL     1      -9.804   6.137  -8.811  1.00  0.00     0.006 C 
BRANCH  10  11
ATOM     11  C   UNL     1      -8.420   6.006  -8.166  1.00  0.00     0.053 C 
BRANCH  11  12
ATOM     12  C   UNL     1      -7.693   4.818  -8.710  1.00  0.00     0.041 C 
ATOM     13  O   UNL     1      -6.526   4.555  -8.316  1.00  0.00    -0.550 OA
ATOM     14  O   UNL     1      -8.293   4.014  -9.671  1.00  0.00    -0.550 OA
ENDBRANCH  11  12
ENDBRANCH  10  11
ENDBRANCH   9  10
ENDBRANCH   8   9
ENDBRANCH   7   8
ENDBRANCH   6   7
ENDBRANCH   5   6
ENDBRANCH   4   5
ENDBRANCH   3   4
ENDBRANCH   2   3
ENDBRANCH   1   2
BRANCH   1  15
ATOM     15  C   UNL     1      -4.199   5.709  -6.280  1.00  0.00     0.000 C 
BRANCH  15  16
ATOM     16  C   UNL     1      -2.981   5.299  -5.432  1.00  0.00     0.000 C 
BRANCH  16  17
ATOM     17  C   UNL     1      -3.304   4.842  -3.994  1.00  0.00     0.000 C 
BRANCH  17  18
ATOM     18  C   UNL     1      -2.822   3.424  -3.637  1.00  0.00    -0.000 C 
BRANCH  18  19
ATOM     19  C   UNL     1      -2.093   3.309  -2.285  1.00  0.00    -0.000 C 
BRANCH  19  20
ATOM     20  C   UNL     1      -0.641   2.797  -2.406  1.00  0.00    -0.000 C 
BRANCH  20  21
ATOM     21  C   UNL     1      -0.468   1.782  -3.550  1.00  0.00    -0.000 C 
BRANCH  21  22
ATOM     22  C   UNL     1      -0.643   0.329  -3.079  1.00  0.00    -0.000 C 
BRANCH  22  23
ATOM     23  C   UNL     1      -1.831  -0.373  -3.758  1.00  0.00    -0.000 C 
BRANCH  23  24
ATOM     24  C   UNL     1      -1.397  -1.505  -4.704  1.00  0.00    -0.000 C 
BRANCH  24  25
ATOM     25  C   UNL     1      -2.429  -2.645  -4.826  1.00  0.00    -0.003 C 
ATOM     26  C   UNL     1      -1.972  -3.923  -4.122  1.00  0.00     0.004 C 
ENDBRANCH  24  25
ENDBRANCH  23  24
ENDBRANCH  22  23
ENDBRANCH  21  22
ENDBRANCH  20  21
ENDBRANCH  19  20
ENDBRANCH  18  19
ENDBRANCH  17  18
ENDBRANCH  16  17
ENDBRANCH  15  16
ENDBRANCH   1  15
TORSDOF 22
ENDMDL
MODEL 2
REMARK VINA RESULT:    -2.791      1.329      1.651
REMARK INTER + INTRA:          -7.865
REMARK INTER:                  -6.083
REMARK INTRA:                  -1.782
REMARK UNBOUND:                -1.484
REMARK SMILES CCCCCCCCCCCCCCCCCCCCCCCC(=O)[O-]
REMARK SMILES IDX 13 1 14 2 15 3 16 4 17 5 18 6 19 7 20 8 21 9 22 10 23 11
REMARK SMILES IDX 24 12 25 13 26 14 12 15 11 16 10 17 9 18 8 19 7 20 6 21 5 22
REMARK SMILES IDX 4 23 3 24 2 25 1 26
REMARK H PARENT
REMARK Flexibility Score: inf
ROOT
ATOM      1  C   UNL     1      -3.573   7.255  -7.592  1.00  0.00     0.000 C 
ENDROOT
BRANCH   1   2
ATOM      2  C   UNL     1      -4.757   8.112  -8.094  1.00  0.00     0.000 C 
BRANCH   2   3
ATOM      3  C   UNL     1      -5.909   8.177  -7.076  1.00  0.00     0.000 C 
BRANCH   3   4
ATOM      4  C   UNL     1      -6.862   9.356  -7.335  1.00  0.00     0.000 C 
BRANCH   4   5
ATOM      5  C   UNL     1      -6.858   9.803  -8.807  1.00  0.00     0.000 C 
BRANCH   5   6
ATOM      6  C   UNL     1      -8.257   9.757  -9.442  1.00  0.00     0.000 C 
BRANCH   6   7
ATOM      7  C   UNL     1      -8.924   8.376  -9.310  1.00  0.00     0.000 C 
BRANCH   7   8
ATOM      8  C   UNL     1      -8.167   7.272 -10.068  1.00  0.00     0.000 C 
BRANCH   8   9
ATOM      9  C   UNL     1      -8.664   5.841  -9.793  1.00  0.00     0.000 C 
BRANCH   9  10
ATOM     10  C   UNL     1      -7.723   5.049  -8.873  1.00  0.00     0.006 C 
BRANCH  10  11
ATOM     11  C   UNL     1      -8.085   5.269  -7.401  1.00  0.00     0.053 C 
BRANCH  11  12
ATOM     12  C   UNL     1      -9.316   4.500  -7.038  1.00  0.00     0.041 C 
ATOM     13  O   UNL     1      -9.869   4.681  -5.921  1.00  0.00    -0.550 OA
ATOM     14  O   UNL     1      -9.839   3.565  -7.922  1.00  0.00    -0.550 OA
ENDBRANCH  11  12
ENDBRANCH  10  11
ENDBRANCH   9  10
ENDBRANCH   8   9
ENDBRANCH   7   8
ENDBRANCH   6   7
ENDBRANCH   5   6
ENDBRANCH   4   5
ENDBRANCH   3   4
ENDBRANCH   2   3
ENDBRANCH   1   2
BRANCH   1  15
ATOM     15  C   UNL     1      -3.958   6.239  -6.500  1.00  0.00     0.000 C 
BRANCH  15  16
ATOM     16  C   UNL     1      -3.187   6.385  -5.175  1.00  0.00     0.000 C 
BRANCH  16  17
ATOM     17  C   UNL     1      -3.582   5.380  -4.072  1.00  0.00     0.000 C 
BRANCH  17  18
ATOM     18  C   UNL     1      -2.976   3.973  -4.225  1.00  0.00    -0.000 C 
BRANCH  18  19
ATOM     19  C   UNL     1      -2.591   3.285  -2.901  1.00  0.00    -0.000 C 
BRANCH  19  20
ATOM     20  C   UNL     1      -1.069   3.225  -2.653  1.00  0.00    -0.000 C 
BRANCH  20  21
ATOM     21  C   UNL     1      -0.425   1.958  -3.244  1.00  0.00    -0.000 C 
BRANCH  21  22
ATOM     22  C   UNL     1      -1.287   0.704  -3.026  1.00  0.00    -0.000 C 
BRANCH  22  23
ATOM     23  C   UNL     1      -1.099  -0.343  -4.137  1.00  0.00    -0.000 C 
BRANCH  23  24
ATOM     24  C   UNL     1      -2.124  -1.486  -4.062  1.00  0.00    -0.000 C 
BRANCH  24  25
ATOM     25  C   UNL     1      -1.729  -2.732  -4.883  1.00  0.00    -0.003 C 
ATOM     26  C   UNL     1      -2.189  -4.034  -4.226  1.00  0.00     0.004 C 
ENDBRANCH  24  25
ENDBRANCH  23  24
ENDBRANCH  22  23
ENDBRANCH  21  22
ENDBRANCH  20  21
ENDBRANCH  19  20
ENDBRANCH  18  19
ENDBRANCH  17  18
ENDBRANCH  16  17
ENDBRANCH  15  16
ENDBRANCH   1  15
TORSDOF 22
ENDMDL
MODEL 3
REMARK VINA RESULT:    -2.728      2.822      8.967
REMARK INTER + INTRA:          -7.719
REMARK INTER:                  -6.218
REMARK INTRA:                  -1.501
REMARK UNBOUND:                -1.484
REMARK SMILES CCCCCCCCCCCCCCCCCCCCCCCC(=O)[O-]
REMARK SMILES IDX 13 1 14 2 15 3 16 4 17 5 18 6 19 7 20 8 21 9 22 10 23 11
REMARK SMILES IDX 24 12 25 13 26 14 12 15 11 16 10 17 9 18 8 19 7 20 6 21 5 22
REMARK SMILES IDX 4 23 3 24 2 25 1 26
REMARK H PARENT
REMARK Flexibility Score: inf
ROOT
ATOM      1  C   UNL     1      -3.947   8.974  -7.878  1.00  0.00     0.000 C 
ENDROOT
BRANCH   1   2
ATOM      2  C   UNL     1      -4.574   7.807  -7.083  1.00  0.00     0.000 C 
BRANCH   2   3
ATOM      3  C   UNL     1      -3.615   6.612  -6.937  1.00  0.00     0.000 C 
BRANCH   3   4
ATOM      4  C   UNL     1      -4.157   5.531  -5.988  1.00  0.00     0.000 C 
BRANCH   4   5
ATOM      5  C   UNL     1      -3.380   5.470  -4.660  1.00  0.00     0.000 C 
BRANCH   5   6
ATOM      6  C   UNL     1      -2.560   4.178  -4.515  1.00  0.00     0.000 C 
BRANCH   6   7
ATOM      7  C   UNL     1      -2.885   3.412  -3.221  1.00  0.00     0.000 C 
BRANCH   7   8
ATOM      8  C   UNL     1      -1.823   3.611  -2.125  1.00  0.00     0.000 C 
BRANCH   8   9
ATOM      9  C   UNL     1      -0.718   2.540  -2.092  1.00  0.00     0.000 C 
BRANCH   9  10
ATOM     10  C   UNL     1      -0.516   1.848  -3.448  1.00  0.00     0.006 C 
BRANCH  10  11
ATOM     11  C   UNL     1      -0.344   0.337  -3.271  1.00  0.00     0.053 C 
BRANCH  11  12
ATOM     12  C   UNL     1      -1.588  -0.389  -3.677  1.00  0.00     0.041 C 
ATOM     13  O   UNL     1      -2.646  -0.256  -3.008  1.00  0.00    -0.550 OA
ATOM     14  O   UNL     1      -1.573  -1.232  -4.781  1.00  0.00    -0.550 OA
ENDBRANCH  11  12
ENDBRANCH  10  11
ENDBRANCH   9  10
ENDBRANCH   8   9
ENDBRANCH   7   8
ENDBRANCH   6   7
ENDBRANCH   5   6
ENDBRANCH   4   5
ENDBRANCH   3   4
ENDBRANCH   2   3
ENDBRANCH   1   2
BRANCH   1  15
ATOM     15  C   UNL     1      -4.694   9.313  -9.182  1.00  0.00     0.000 C 
BRANCH  15  16
ATOM     16  C   UNL     1      -5.990  10.123  -8.998  1.00  0.00     0.000 C 
BRANCH  16  17
ATOM     17  C   UNL     1      -7.037   9.951 -10.119  1.00  0.00     0.000 C 
BRANCH  17  18
ATOM     18  C   UNL     1      -8.354   9.283  -9.684  1.00  0.00    -0.000 C 
BRANCH  18  19
ATOM     19  C   UNL     1      -8.189   7.933  -8.960  1.00  0.00    -0.000 C 
BRANCH  19  20
ATOM     20  C   UNL     1      -7.381   6.893  -9.766  1.00  0.00    -0.000 C 
BRANCH  20  21
ATOM     21  C   UNL     1      -6.885   5.727  -8.893  1.00  0.00    -0.000 C 
BRANCH  21  22
ATOM     22  C   UNL     1      -8.029   4.808  -8.433  1.00  0.00    -0.000 C 
BRANCH  22  23
ATOM     23  C   UNL     1      -8.620   5.234  -7.079  1.00  0.00    -0.000 C 
BRANCH  23  24
ATOM     24  C   UNL     1      -9.921   4.489  -6.733  1.00  0.00    -0.000 C 
BRANCH  24  25
ATOM     25  C   UNL     1     -10.073   4.164  -5.232  1.00  0.00    -0.003 C 
ATOM     26  C   UNL     1      -9.754   2.703  -4.916  1.00  0.00     0.004 C 
ENDBRANCH  24  25
ENDBRANCH  23  24
ENDBRANCH  22  23
ENDBRANCH  21  22
ENDBRANCH  20  21
ENDBRANCH  19  20
ENDBRANCH  18  19
ENDBRANCH  17  18
ENDBRANCH  16  17
ENDBRANCH  15  16
ENDBRANCH   1  15
TORSDOF 22
ENDMDL
MODEL 4
REMARK VINA RESULT:    -2.237      2.421      3.748
REMARK INTER + INTRA:          -6.598
REMARK INTER:                  -5.051
REMARK INTRA:                  -1.547
REMARK UNBOUND:                -1.484
REMARK SMILES CCCCCCCCCCCCCCCCCCCCCCCC(=O)[O-]
REMARK SMILES IDX 13 1 14 2 15 3 16 4 17 5 18 6 19 7 20 8 21 9 22 10 23 11
REMARK SMILES IDX 24 12 25 13 26 14 12 15 11 16 10 17 9 18 8 19 7 20 6 21 5 22
REMARK SMILES IDX 4 23 3 24 2 25 1 26
REMARK H PARENT
REMARK Flexibility Score: inf
ROOT
ATOM      1  C   UNL     1      -5.520   6.315  -8.471  1.00  0.00     0.000 C 
ENDROOT
BRANCH   1   2
ATOM      2  C   UNL     1      -5.625   7.125  -9.782  1.00  0.00     0.000 C 
BRANCH   2   3
ATOM      3  C   UNL     1      -4.428   8.070  -9.987  1.00  0.00     0.000 C 
BRANCH   3   4
ATOM      4  C   UNL     1      -4.839   9.551 -10.002  1.00  0.00     0.000 C 
BRANCH   4   5
ATOM      5  C   UNL     1      -6.361   9.738 -10.124  1.00  0.00     0.000 C 
BRANCH   5   6
ATOM      6  C   UNL     1      -7.045   9.924  -8.760  1.00  0.00     0.000 C 
BRANCH   6   7
ATOM      7  C   UNL     1      -8.467   9.338  -8.724  1.00  0.00     0.000 C 
BRANCH   7   8
ATOM      8  C   UNL     1      -8.707   8.282  -9.817  1.00  0.00     0.000 C 
BRANCH   8   9
ATOM      9  C   UNL     1      -9.747   7.205  -9.459  1.00  0.00     0.000 C 
BRANCH   9  10
ATOM     10  C   UNL     1      -9.235   5.777  -9.700  1.00  0.00     0.006 C 
BRANCH  10  11
ATOM     11  C   UNL     1     -10.063   4.759  -8.909  1.00  0.00     0.053 C 
BRANCH  11  12
ATOM     12  C   UNL     1      -9.520   4.597  -7.524  1.00  0.00     0.041 C 
ATOM     13  O   UNL     1      -8.585   5.338  -7.120  1.00  0.00    -0.550 OA
ATOM     14  O   UNL     1     -10.030   3.613  -6.688  1.00  0.00    -0.550 OA
ENDBRANCH  11  12
ENDBRANCH  10  11
ENDBRANCH   9  10
ENDBRANCH   8   9
ENDBRANCH   7   8
ENDBRANCH   6   7
ENDBRANCH   5   6
ENDBRANCH   4   5
ENDBRANCH   3   4
ENDBRANCH   2   3
ENDBRANCH   1   2
BRANCH   1  15
ATOM     15  C   UNL     1      -5.662   7.169  -7.197  1.00  0.00     0.000 C 
BRANCH  15  16
ATOM     16  C   UNL     1      -4.430   8.023  -6.844  1.00  0.00     0.000 C 
BRANCH  16  17
ATOM     17  C   UNL     1      -3.312   7.280  -6.082  1.00  0.00     0.000 C 
BRANCH  17  18
ATOM     18  C   UNL     1      -3.624   5.814  -5.733  1.00  0.00    -0.000 C 
BRANCH  18  19
ATOM     19  C   UNL     1      -3.057   5.332  -4.384  1.00  0.00    -0.000 C 
BRANCH  19  20
ATOM     20  C   UNL     1      -2.670   3.838  -4.373  1.00  0.00    -0.000 C 
BRANCH  20  21
ATOM     21  C   UNL     1      -2.929   3.172  -3.010  1.00  0.00    -0.000 C 
BRANCH  21  22
ATOM     22  C   UNL     1      -1.679   2.477  -2.447  1.00  0.00    -0.000 C 
BRANCH  22  23
ATOM     23  C   UNL     1      -1.523   2.680  -0.930  1.00  0.00    -0.000 C 
BRANCH  23  24
ATOM     24  C   UNL     1      -0.155   3.264  -0.542  1.00  0.00    -0.000 C 
BRANCH  24  25
ATOM     25  C   UNL     1       0.240   4.517  -1.352  1.00  0.00    -0.003 C 
ATOM     26  C   UNL     1      -0.394   5.794  -0.798  1.00  0.00     0.004 C 
ENDBRANCH  24  25
ENDBRANCH  23  24
ENDBRANCH  22  23
ENDBRANCH  21  22
ENDBRANCH  20  21
ENDBRANCH  19  20
ENDBRANCH  18  19
ENDBRANCH  17  18
ENDBRANCH  16  17
ENDBRANCH  15  16
ENDBRANCH   1  15
TORSDOF 22
ENDMDL
MODEL 5
REMARK VINA RESULT:    -2.237      3.622      9.190
REMARK INTER + INTRA:          -6.597
REMARK INTER:                  -4.482
REMARK INTRA:                  -2.115
REMARK UNBOUND:                -1.484
REMARK SMILES CCCCCCCCCCCCCCCCCCCCCCCC(=O)[O-]
REMARK SMILES IDX 13 1 14 2 15 3 16 4 17 5 18 6 19 7 20 8 21 9 22 10 23 11
REMARK SMILES IDX 24 12 25 13 26 14 12 15 11 16 10 17 9 18 8 19 7 20 6 21 5 22
REMARK SMILES IDX 4 23 3 24 2 25 1 26
REMARK H PARENT
REMARK Flexibility Score: inf
ROOT
ATOM      1  C   UNL     1      -3.793   8.649  -7.776  1.00  0.00     0.000 C 
ENDROOT
BRANCH   1   2
ATOM      2  C   UNL     1      -4.614   7.774  -6.804  1.00  0.00     0.000 C 
BRANCH   2   3
ATOM      3  C   UNL     1      -4.853   6.354  -7.348  1.00  0.00     0.000 C 
BRANCH   3   4
ATOM      4  C   UNL     1      -4.322   5.262  -6.406  1.00  0.00     0.000 C 
BRANCH   4   5
ATOM      5  C   UNL     1      -3.569   5.843  -5.197  1.00  0.00     0.000 C 
BRANCH   5   6
ATOM      6  C   UNL     1      -2.655   4.810  -4.518  1.00  0.00     0.000 C 
BRANCH   6   7
ATOM      7  C   UNL     1      -3.329   4.119  -3.319  1.00  0.00     0.000 C 
BRANCH   7   8
ATOM      8  C   UNL     1      -2.774   2.709  -3.053  1.00  0.00     0.000 C 
BRANCH   8   9
ATOM      9  C   UNL     1      -1.505   2.352  -3.848  1.00  0.00     0.000 C 
BRANCH   9  10
ATOM     10  C   UNL     1      -0.237   2.361  -2.983  1.00  0.00     0.006 C 
BRANCH  10  11
ATOM     11  C   UNL     1      -0.583   2.174  -1.502  1.00  0.00     0.053 C 
BRANCH  11  12
ATOM     12  C   UNL     1      -0.112   3.344  -0.697  1.00  0.00     0.041 C 
ATOM     13  O   UNL     1       0.470   3.161   0.404  1.00  0.00    -0.550 OA
ATOM     14  O   UNL     1      -0.338   4.637  -1.151  1.00  0.00    -0.550 OA
ENDBRANCH  11  12
ENDBRANCH  10  11
ENDBRANCH   9  10
ENDBRANCH   8   9
ENDBRANCH   7   8
ENDBRANCH   6   7
ENDBRANCH   5   6
ENDBRANCH   4   5
ENDBRANCH   3   4
ENDBRANCH   2   3
ENDBRANCH   1   2
BRANCH   1  15
ATOM     15  C   UNL     1      -4.545   9.022  -9.067  1.00  0.00     0.000 C 
BRANCH  15  16
ATOM     16  C   UNL     1      -5.766   9.940  -8.869  1.00  0.00     0.000 C 
BRANCH  16  17
ATOM     17  C   UNL     1      -6.693  10.075 -10.094  1.00  0.00     0.000 C 
BRANCH  17  18
ATOM     18  C   UNL     1      -8.159   9.674  -9.850  1.00  0.00    -0.000 C 
BRANCH  18  19
ATOM     19  C   UNL     1      -8.354   8.453  -8.929  1.00  0.00    -0.000 C 
BRANCH  19  20
ATOM     20  C   UNL     1      -8.627   7.140  -9.693  1.00  0.00    -0.000 C 
BRANCH  20  21
ATOM     21  C   UNL     1      -7.629   6.027  -9.327  1.00  0.00    -0.000 C 
BRANCH  21  22
ATOM     22  C   UNL     1      -8.301   4.849  -8.602  1.00  0.00    -0.000 C 
BRANCH  22  23
ATOM     23  C   UNL     1      -8.592   5.154  -7.123  1.00  0.00    -0.000 C 
BRANCH  23  24
ATOM     24  C   UNL     1      -9.969   4.644  -6.667  1.00  0.00    -0.000 C 
BRANCH  24  25
ATOM     25  C   UNL     1     -10.013   4.207  -5.188  1.00  0.00    -0.003 C 
ATOM     26  C   UNL     1      -9.750   2.711  -5.013  1.00  0.00     0.004 C 
ENDBRANCH  24  25
ENDBRANCH  23  24
ENDBRANCH  22  23
ENDBRANCH  21  22
ENDBRANCH  20  21
ENDBRANCH  19  20
ENDBRANCH  18  19
ENDBRANCH  17  18
ENDBRANCH  16  17
ENDBRANCH  15  16
ENDBRANCH   1  15
TORSDOF 22
ENDMDL
MODEL 6
REMARK VINA RESULT:    -2.207      1.258      1.545
REMARK INTER + INTRA:          -6.528
REMARK INTER:                  -4.980
REMARK INTRA:                  -1.548
REMARK UNBOUND:                -1.484
REMARK SMILES CCCCCCCCCCCCCCCCCCCCCCCC(=O)[O-]
REMARK SMILES IDX 13 1 14 2 15 3 16 4 17 5 18 6 19 7 20 8 21 9 22 10 23 11
REMARK SMILES IDX 24 12 25 13 26 14 12 15 11 16 10 17 9 18 8 19 7 20 6 21 5 22
REMARK SMILES IDX 4 23 3 24 2 25 1 26
REMARK H PARENT
REMARK Flexibility Score: inf
ROOT
ATOM      1  C   UNL     1      -4.426   6.374  -5.463  1.00  0.00     0.000 C 
ENDROOT
BRANCH   1   2
ATOM      2  C   UNL     1      -4.226   6.598  -6.978  1.00  0.00     0.000 C 
BRANCH   2   3
ATOM      3  C   UNL     1      -3.808   8.042  -7.310  1.00  0.00     0.000 C 
BRANCH   3   4
ATOM      4  C   UNL     1      -3.777   8.316  -8.822  1.00  0.00     0.000 C 
BRANCH   4   5
ATOM      5  C   UNL     1      -4.395   9.678  -9.185  1.00  0.00     0.000 C 
BRANCH   5   6
ATOM      6  C   UNL     1      -5.799   9.867  -8.589  1.00  0.00     0.000 C 
BRANCH   6   7
ATOM      7  C   UNL     1      -6.919   9.556  -9.597  1.00  0.00     0.000 C 
BRANCH   7   8
ATOM      8  C   UNL     1      -7.150   8.047  -9.787  1.00  0.00     0.000 C 
BRANCH   8   9
ATOM      9  C   UNL     1      -8.217   7.434  -8.862  1.00  0.00     0.000 C 
BRANCH   9  10
ATOM     10  C   UNL     1      -7.616   6.765  -7.618  1.00  0.00     0.006 C 
BRANCH  10  11
ATOM     11  C   UNL     1      -7.660   5.239  -7.742  1.00  0.00     0.053 C 
BRANCH  11  12
ATOM     12  C   UNL     1      -9.022   4.720  -7.405  1.00  0.00     0.041 C 
ATOM     13  O   UNL     1      -9.427   4.732  -6.213  1.00  0.00    -0.550 OA
ATOM     14  O   UNL     1      -9.835   4.199  -8.404  1.00  0.00    -0.550 OA
ENDBRANCH  11  12
ENDBRANCH  10  11
ENDBRANCH   9  10
ENDBRANCH   8   9
ENDBRANCH   7   8
ENDBRANCH   6   7
ENDBRANCH   5   6
ENDBRANCH   4   5
ENDBRANCH   3   4
ENDBRANCH   2   3
ENDBRANCH   1   2
BRANCH   1  15
ATOM     15  C   UNL     1      -3.176   5.835  -4.741  1.00  0.00     0.000 C 
BRANCH  15  16
ATOM     16  C   UNL     1      -3.006   4.306  -4.787  1.00  0.00     0.000 C 
BRANCH  16  17
ATOM     17  C   UNL     1      -2.986   3.605  -3.413  1.00  0.00     0.000 C 
BRANCH  17  18
ATOM     18  C   UNL     1      -1.872   4.073  -2.458  1.00  0.00    -0.000 C 
BRANCH  18  19
ATOM     19  C   UNL     1      -1.407   3.018  -1.437  1.00  0.00    -0.000 C 
BRANCH  19  20
ATOM     20  C   UNL     1      -0.215   2.167  -1.925  1.00  0.00    -0.000 C 
BRANCH  20  21
ATOM     21  C   UNL     1      -0.345   1.763  -3.404  1.00  0.00    -0.000 C 
BRANCH  21  22
ATOM     22  C   UNL     1      -0.213   0.246  -3.613  1.00  0.00    -0.000 C 
BRANCH  22  23
ATOM     23  C   UNL     1      -1.576  -0.450  -3.767  1.00  0.00    -0.000 C 
BRANCH  23  24
ATOM     24  C   UNL     1      -1.551  -1.593  -4.797  1.00  0.00    -0.000 C 
BRANCH  24  25
ATOM     25  C   UNL     1      -2.595  -2.697  -4.528  1.00  0.00    -0.003 C 
ATOM     26  C   UNL     1      -1.950  -4.054  -4.248  1.00  0.00     0.004 C 
ENDBRANCH  24  25
ENDBRANCH  23  24
ENDBRANCH  22  23
ENDBRANCH  21  22
ENDBRANCH  20  21
ENDBRANCH  19  20
ENDBRANCH  18  19
ENDBRANCH  17  18
ENDBRANCH  16  17
ENDBRANCH  15  16
ENDBRANCH   1  15
TORSDOF 22
ENDMDL
MODEL 7
REMARK VINA RESULT:    -2.180      2.906      9.357
REMARK INTER + INTRA:          -6.466
REMARK INTER:                  -4.722
REMARK INTRA:                  -1.744
REMARK UNBOUND:                -1.484
REMARK SMILES CCCCCCCCCCCCCCCCCCCCCCCC(=O)[O-]
REMARK SMILES IDX 13 1 14 2 15 3 16 4 17 5 18 6 19 7 20 8 21 9 22 10 23 11
REMARK SMILES IDX 24 12 25 13 26 14 12 15 11 16 10 17 9 18 8 19 7 20 6 21 5 22
REMARK SMILES IDX 4 23 3 24 2 25 1 26
REMARK H PARENT
REMARK Flexibility Score: inf
ROOT
ATOM      1  C   UNL     1      -5.431   7.087  -6.135  1.00  0.00     0.000 C 
ENDROOT
BRANCH   1   2
ATOM      2  C   UNL     1      -3.939   6.687  -6.120  1.00  0.00     0.000 C 
BRANCH   2   3
ATOM      3  C   UNL     1      -3.738   5.170  -5.955  1.00  0.00     0.000 C 
BRANCH   3   4
ATOM      4  C   UNL     1      -2.713   4.824  -4.864  1.00  0.00     0.000 C 
BRANCH   4   5
ATOM      5  C   UNL     1      -3.379   4.390  -3.546  1.00  0.00     0.000 C 
BRANCH   5   6
ATOM      6  C   UNL     1      -2.872   3.028  -3.048  1.00  0.00     0.000 C 
BRANCH   6   7
ATOM      7  C   UNL     1      -1.835   3.158  -1.918  1.00  0.00     0.000 C 
BRANCH   7   8
ATOM      8  C   UNL     1      -0.483   2.512  -2.271  1.00  0.00     0.000 C 
BRANCH   8   9
ATOM      9  C   UNL     1      -0.452   1.771  -3.620  1.00  0.00     0.000 C 
BRANCH   9  10
ATOM     10  C   UNL     1      -0.356   0.247  -3.463  1.00  0.00     0.006 C 
BRANCH  10  11
ATOM     11  C   UNL     1      -1.724  -0.412  -3.668  1.00  0.00     0.053 C 
BRANCH  11  12
ATOM     12  C   UNL     1      -1.584  -1.700  -4.416  1.00  0.00     0.041 C 
ATOM     13  O   UNL     1      -0.444  -2.118  -4.748  1.00  0.00    -0.550 OA
ATOM     14  O   UNL     1      -2.715  -2.425  -4.769  1.00  0.00    -0.550 OA
ENDBRANCH  11  12
ENDBRANCH  10  11
ENDBRANCH   9  10
ENDBRANCH   8   9
ENDBRANCH   7   8
ENDBRANCH   6   7
ENDBRANCH   5   6
ENDBRANCH   4   5
ENDBRANCH   3   4
ENDBRANCH   2   3
ENDBRANCH   1   2
BRANCH   1  15
ATOM     15  C   UNL     1      -5.747   8.283  -7.054  1.00  0.00     0.000 C 
BRANCH  15  16
ATOM     16  C   UNL     1      -4.601   8.705  -7.992  1.00  0.00     0.000 C 
BRANCH  16  17
ATOM     17  C   UNL     1      -4.749   8.244  -9.457  1.00  0.00     0.000 C 
BRANCH  17  18
ATOM     18  C   UNL     1      -6.092   8.601 -10.120  1.00  0.00    -0.000 C 
BRANCH  18  19
ATOM     19  C   UNL     1      -7.137   7.469 -10.120  1.00  0.00    -0.000 C 
BRANCH  19  20
ATOM     20  C   UNL     1      -8.538   7.920  -9.654  1.00  0.00    -0.000 C 
BRANCH  20  21
ATOM     21  C   UNL     1      -9.369   6.759  -9.080  1.00  0.00    -0.000 C 
BRANCH  21  22
ATOM     22  C   UNL     1      -8.499   5.563  -8.661  1.00  0.00    -0.000 C 
BRANCH  22  23
ATOM     23  C   UNL     1      -9.159   4.211  -8.983  1.00  0.00    -0.000 C 
BRANCH  23  24
ATOM     24  C   UNL     1     -10.097   3.722  -7.866  1.00  0.00    -0.000 C 
BRANCH  24  25
ATOM     25  C   UNL     1      -9.820   4.367  -6.492  1.00  0.00    -0.003 C 
ATOM     26  C   UNL     1      -9.724   3.332  -5.371  1.00  0.00     0.004 C 
ENDBRANCH  24  25
ENDBRANCH  23  24
ENDBRANCH  22  23
ENDBRANCH  21  22
ENDBRANCH  20  21
ENDBRANCH  19  20
ENDBRANCH  18  19
ENDBRANCH  17  18
ENDBRANCH  16  17
ENDBRANCH  15  16
ENDBRANCH   1  15
TORSDOF 22
ENDMDL
MODEL 8
REMARK VINA RESULT:    -2.000      2.403      3.844
REMARK INTER + INTRA:          -6.055
REMARK INTER:                  -4.510
REMARK INTRA:                  -1.545
REMARK UNBOUND:                -1.484
REMARK SMILES CCCCCCCCCCCCCCCCCCCCCCCC(=O)[O-]
REMARK SMILES IDX 13 1 14 2 15 3 16 4 17 5 18 6 19 7 20 8 21 9 22 10 23 11
REMARK SMILES IDX 24 12 25 13 26 14 12 15 11 16 10 17 9 18 8 19 7 20 6 21 5 22
REMARK SMILES IDX 4 23 3 24 2 25 1 26
REMARK H PARENT
REMARK Flexibility Score: inf
ROOT
ATOM      1  C   UNL     1      -4.967   6.039  -6.618  1.00  0.00     0.000 C 
ENDROOT
BRANCH   1   2
ATOM      2  C   UNL     1      -4.995   7.579  -6.733  1.00  0.00     0.000 C 
BRANCH   2   3
ATOM      3  C   UNL     1      -3.735   8.141  -7.417  1.00  0.00     0.000 C 
BRANCH   3   4
ATOM      4  C   UNL     1      -3.984   8.538  -8.881  1.00  0.00     0.000 C 
BRANCH   4   5
ATOM      5  C   UNL     1      -4.965   9.717  -9.013  1.00  0.00     0.000 C 
BRANCH   5   6
ATOM      6  C   UNL     1      -6.274   9.321  -9.714  1.00  0.00     0.000 C 
BRANCH   6   7
ATOM      7  C   UNL     1      -7.459   9.212  -8.739  1.00  0.00     0.000 C 
BRANCH   7   8
ATOM      8  C   UNL     1      -8.776   8.829  -9.438  1.00  0.00     0.000 C 
BRANCH   8   9
ATOM      9  C   UNL     1      -9.118   7.329  -9.396  1.00  0.00     0.000 C 
BRANCH   9  10
ATOM     10  C   UNL     1      -8.170   6.525  -8.494  1.00  0.00     0.006 C 
BRANCH  10  11
ATOM     11  C   UNL     1      -8.111   5.058  -8.933  1.00  0.00     0.053 C 
BRANCH  11  12
ATOM     12  C   UNL     1      -9.366   4.340  -8.547  1.00  0.00     0.041 C 
ATOM     13  O   UNL     1      -9.924   3.559  -9.362  1.00  0.00    -0.550 OA
ATOM     14  O   UNL     1      -9.932   4.551  -7.296  1.00  0.00    -0.550 OA
ENDBRANCH  11  12
ENDBRANCH  10  11
ENDBRANCH   9  10
ENDBRANCH   8   9
ENDBRANCH   7   8
ENDBRANCH   6   7
ENDBRANCH   5   6
ENDBRANCH   4   5
ENDBRANCH   3   4
ENDBRANCH   2   3
ENDBRANCH   1   2
BRANCH   1  15
ATOM     15  C   UNL     1      -3.623   5.474  -6.119  1.00  0.00     0.000 C 
BRANCH  15  16
ATOM     16  C   UNL     1      -3.409   5.552  -4.597  1.00  0.00     0.000 C 
BRANCH  16  17
ATOM     17  C   UNL     1      -2.439   4.502  -4.015  1.00  0.00     0.000 C 
BRANCH  17  18
ATOM     18  C   UNL     1      -3.114   3.322  -3.292  1.00  0.00    -0.000 C 
BRANCH  18  19
ATOM     19  C   UNL     1      -2.175   2.151  -2.943  1.00  0.00    -0.000 C 
BRANCH  19  20
ATOM     20  C   UNL     1      -0.795   2.601  -2.415  1.00  0.00    -0.000 C 
BRANCH  20  21
ATOM     21  C   UNL     1      -0.884   3.272  -1.033  1.00  0.00    -0.000 C 
BRANCH  21  22
ATOM     22  C   UNL     1       0.455   3.244  -0.279  1.00  0.00    -0.000 C 
BRANCH  22  23
ATOM     23  C   UNL     1       0.325   2.650   1.134  1.00  0.00    -0.000 C 
BRANCH  23  24
ATOM     24  C   UNL     1       1.662   2.613   1.894  1.00  0.00    -0.000 C 
BRANCH  24  25
ATOM     25  C   UNL     1       1.514   2.317   3.401  1.00  0.00    -0.003 C 
ATOM     26  C   UNL     1       0.476   1.231   3.683  1.00  0.00     0.004 C 
ENDBRANCH  24  25
ENDBRANCH  23  24
ENDBRANCH  22  23
ENDBRANCH  21  22
ENDBRANCH  20  21
ENDBRANCH  19  20
ENDBRANCH  18  19
ENDBRANCH  17  18
ENDBRANCH  16  17
ENDBRANCH  15  16
ENDBRANCH   1  15
TORSDOF 22
ENDMDL
MODEL 9
REMARK VINA RESULT:    -1.966      4.884     10.961
REMARK INTER + INTRA:          -5.978
REMARK INTER:                  -4.088
REMARK INTRA:                  -1.890
REMARK UNBOUND:                -1.484
REMARK SMILES CCCCCCCCCCCCCCCCCCCCCCCC(=O)[O-]
REMARK SMILES IDX 13 1 14 2 15 3 16 4 17 5 18 6 19 7 20 8 21 9 22 10 23 11
REMARK SMILES IDX 24 12 25 13 26 14 12 15 11 16 10 17 9 18 8 19 7 20 6 21 5 22
REMARK SMILES IDX 4 23 3 24 2 25 1 26
REMARK H PARENT
REMARK Flexibility Score: inf
ROOT
ATOM      1  C   UNL     1      -4.107   5.411  -6.452  1.00  0.00     0.000 C 
ENDROOT
BRANCH   1   2
ATOM      2  C   UNL     1      -3.090   4.573  -5.647  1.00  0.00     0.000 C 
BRANCH   2   3
ATOM      3  C   UNL     1      -3.128   4.887  -4.141  1.00  0.00     0.000 C 
BRANCH   3   4
ATOM      4  C   UNL     1      -2.885   3.643  -3.270  1.00  0.00     0.000 C 
BRANCH   4   5
ATOM      5  C   UNL     1      -1.669   2.825  -3.740  1.00  0.00     0.000 C 
BRANCH   5   6
ATOM      6  C   UNL     1      -0.671   2.546  -2.606  1.00  0.00     0.000 C 
BRANCH   6   7
ATOM      7  C   UNL     1      -0.953   3.384  -1.347  1.00  0.00     0.000 C 
BRANCH   7   8
ATOM      8  C   UNL     1       0.289   3.563  -0.456  1.00  0.00     0.000 C 
BRANCH   8   9
ATOM      9  C   UNL     1       0.345   2.634   0.770  1.00  0.00     0.000 C 
BRANCH   9  10
ATOM     10  C   UNL     1       1.269   3.162   1.877  1.00  0.00     0.006 C 
BRANCH  10  11
ATOM     11  C   UNL     1       1.808   2.012   2.734  1.00  0.00     0.053 C 
BRANCH  11  12
ATOM     12  C   UNL     1       0.806   1.607   3.768  1.00  0.00     0.041 C 
ATOM     13  O   UNL     1       0.549   0.389   3.958  1.00  0.00    -0.550 OA
ATOM     14  O   UNL     1       0.136   2.576   4.505  1.00  0.00    -0.550 OA
ENDBRANCH  11  12
ENDBRANCH  10  11
ENDBRANCH   9  10
ENDBRANCH   8   9
ENDBRANCH   7   8
ENDBRANCH   6   7
ENDBRANCH   5   6
ENDBRANCH   4   5
ENDBRANCH   3   4
ENDBRANCH   2   3
ENDBRANCH   1   2
BRANCH   1  15
ATOM     15  C   UNL     1      -4.170   6.891  -6.028  1.00  0.00     0.000 C 
BRANCH  15  16
ATOM     16  C   UNL     1      -3.355   7.856  -6.908  1.00  0.00     0.000 C 
BRANCH  16  17
ATOM     17  C   UNL     1      -3.787   7.921  -8.388  1.00  0.00     0.000 C 
BRANCH  17  18
ATOM     18  C   UNL     1      -4.086   9.335  -8.917  1.00  0.00    -0.000 C 
BRANCH  18  19
ATOM     19  C   UNL     1      -5.574   9.621  -9.201  1.00  0.00    -0.000 C 
BRANCH  19  20
ATOM     20  C   UNL     1      -6.461   9.596  -7.938  1.00  0.00    -0.000 C 
BRANCH  20  21
ATOM     21  C   UNL     1      -7.928   9.259  -8.255  1.00  0.00    -0.000 C 
BRANCH  21  22
ATOM     22  C   UNL     1      -8.130   7.775  -8.601  1.00  0.00    -0.000 C 
BRANCH  22  23
ATOM     23  C   UNL     1      -7.515   6.835  -7.551  1.00  0.00    -0.000 C 
BRANCH  23  24
ATOM     24  C   UNL     1      -7.515   5.362  -7.992  1.00  0.00    -0.000 C 
BRANCH  24  25
ATOM     25  C   UNL     1      -8.907   4.697  -7.948  1.00  0.00    -0.003 C 
ATOM     26  C   UNL     1      -9.440   4.554  -6.522  1.00  0.00     0.004 C 
ENDBRANCH  24  25
ENDBRANCH  23  24
ENDBRANCH  22  23
ENDBRANCH  21  22
ENDBRANCH  20  21
ENDBRANCH  19  20
ENDBRANCH  18  19
ENDBRANCH  17  18
ENDBRANCH  16  17
ENDBRANCH  15  16
ENDBRANCH   1  15
TORSDOF 22
ENDMDL
