MODEL 1
REMARK VINA RESULT:    -4.671      0.000      0.000
REMARK INTER + INTRA:          -5.881
REMARK INTER:                  -5.763
REMARK INTRA:                  -0.118
REMARK UNBOUND:                -0.118
REMARK SMILES CCCCCC(=O)[O-]
REMARK SMILES IDX 4 1 5 2 6 3 7 4 8 5 3 6 2 7 1 8
REMARK H PARENT
REMARK Flexibility Score: inf
ROOT
ATOM      1  C   UNL     1      18.517  -7.842  21.339  1.00  0.00     0.006 C 
ENDROOT
BRANCH   1   2
ATOM      2  C   UNL     1      19.904  -8.289  21.810  1.00  0.00     0.053 C 
BRANCH   2   3
ATOM      3  C   UNL     1      20.054  -8.066  23.282  1.00  0.00     0.041 C 
ATOM      4  O   UNL     1      21.185  -7.807  23.770  1.00  0.00    -0.550 OA
ATOM      5  O   UNL     1      18.953  -8.191  24.120  1.00  0.00    -0.550 OA
ENDBRANCH   2   3
ENDBRANCH   1   2
BRANCH   1   6
ATOM      6  C   UNL     1      18.621  -6.670  20.355  1.00  0.00     0.000 C 
BRANCH   6   7
ATOM      7  C   UNL     1      19.390  -5.498  20.976  1.00  0.00    -0.003 C 
ATOM      8  C   UNL     1      18.608  -4.875  22.129  1.00  0.00     0.004 C 
ENDBRANCH   6   7
ENDBRANCH   1   6
TORSDOF 4
ENDMDL
MODEL 2
REMARK VINA RESULT:    -4.609      2.150      3.323
REMARK INTER + INTRA:          -5.805
REMARK INTER:                  -5.581
REMARK INTRA:                  -0.224
REMARK UNBOUND:                -0.118
REMARK SMILES CCCCCC(=O)[O-]
REMARK SMILES IDX 4 1 5 2 6 3 7 4 8 5 3 6 2 7 1 8
REMARK H PARENT
REMARK Flexibility Score: inf
ROOT
ATOM      1  C   UNL     1      18.887  -7.943  21.555  1.00  0.00     0.006 C 
ENDROOT
BRANCH   1   2
ATOM      2  C   UNL     1      18.522  -6.717  20.712  1.00  0.00     0.053 C 
BRANCH   2   3
ATOM      3  C   UNL     1      19.218  -5.499  21.231  1.00  0.00     0.041 C 
ATOM      4  O   UNL     1      20.431  -5.299  20.960  1.00  0.00    -0.550 OA
ATOM      5  O   UNL     1      18.540  -4.608  22.054  1.00  0.00    -0.550 OA
ENDBRANCH   2   3
ENDBRANCH   1   2
BRANCH   1   6
ATOM      6  C   UNL     1      18.117  -7.946  22.882  1.00  0.00     0.000 C 
BRANCH   6   7
ATOM      7  C   UNL     1      19.079  -7.927  24.075  1.00  0.00    -0.003 C 
ATOM      8  C   UNL     1      20.533  -7.919  23.612  1.00  0.00     0.004 C 
ENDBRANCH   6   7
ENDBRANCH   1   6
TORSDOF 4
ENDMDL
MODEL 3
REMARK VINA RESULT:    -4.539      1.203      1.847
REMARK INTER + INTRA:          -5.718
REMARK INTER:                  -5.511
REMARK INTRA:                  -0.207
REMARK UNBOUND:                -0.118
REMARK SMILES CCCCCC(=O)[O-]
REMARK SMILES IDX 4 1 5 2 6 3 7 4 8 5 3 6 2 7 1 8
REMARK H PARENT
REMARK Flexibility Score: inf
ROOT
ATOM      1  C   UNL     1      18.079  -7.018  22.766  1.00  0.00     0.006 C 
ENDROOT
BRANCH   1   2
ATOM      2  C   UNL     1      18.887  -7.903  23.719  1.00  0.00     0.053 C 
BRANCH   2   3
ATOM      3  C   UNL     1      20.247  -8.171  23.156  1.00  0.00     0.041 C 
ATOM      4  O   UNL     1      21.276  -7.832  23.798  1.00  0.00    -0.550 OA
ATOM      5  O   UNL     1      20.379  -8.752  21.901  1.00  0.00    -0.550 OA
ENDBRANCH   2   3
ENDBRANCH   1   2
BRANCH   1   6
ATOM      6  C   UNL     1      18.726  -5.635  22.616  1.00  0.00     0.000 C 
BRANCH   6   7
ATOM      7  C   UNL     1      19.239  -5.421  21.188  1.00  0.00    -0.003 C 
ATOM      8  C   UNL     1      18.559  -6.373  20.208  1.00  0.00     0.004 C 
ENDBRANCH   6   7
ENDBRANCH   1   6
TORSDOF 4
ENDMDL
MODEL 4
REMARK VINA RESULT:    -4.534      1.222      2.077
REMARK INTER + INTRA:          -5.713
REMARK INTER:                  -5.493
REMARK INTRA:                  -0.220
REMARK UNBOUND:                -0.118
REMARK SMILES CCCCCC(=O)[O-]
REMARK SMILES IDX 4 1 5 2 6 3 7 4 8 5 3 6 2 7 1 8
REMARK H PARENT
REMARK Flexibility Score: inf
ROOT
ATOM      1  C   UNL     1      18.657  -5.481  22.602  1.00  0.00     0.006 C 
ENDROOT
BRANCH   1   2
ATOM      2  C   UNL     1      19.231  -6.136  23.861  1.00  0.00     0.053 C 
BRANCH   2   3
ATOM      3  C   UNL     1      19.102  -7.625  23.782  1.00  0.00     0.041 C 
ATOM      4  O   UNL     1      20.123  -8.341  23.613  1.00  0.00    -0.550 OA
ATOM      5  O   UNL     1      17.848  -8.218  23.848  1.00  0.00    -0.550 OA
ENDBRANCH   2   3
ENDBRANCH   1   2
BRANCH   1   6
ATOM      6  C   UNL     1      19.659  -5.544  21.443  1.00  0.00     0.000 C 
BRANCH   6   7
ATOM      7  C   UNL     1      18.966  -5.957  20.139  1.00  0.00    -0.003 C 
ATOM      8  C   UNL     1      18.245  -7.293  20.296  1.00  0.00     0.004 C 
ENDBRANCH   6   7
ENDBRANCH   1   6
TORSDOF 4
ENDMDL
MODEL 5
REMARK VINA RESULT:    -4.401      1.307      2.008
REMARK INTER + INTRA:          -5.548
REMARK INTER:                  -5.420
REMARK INTRA:                  -0.128
REMARK UNBOUND:                -0.118
REMARK SMILES CCCCCC(=O)[O-]
REMARK SMILES IDX 4 1 5 2 6 3 7 4 8 5 3 6 2 7 1 8
REMARK H PARENT
REMARK Flexibility Score: inf
ROOT
ATOM      1  C   UNL     1      17.853  -7.921  22.674  1.00  0.00     0.006 C 
ENDROOT
BRANCH   1   2
ATOM      2  C   UNL     1      18.595  -7.977  24.012  1.00  0.00     0.053 C 
BRANCH   2   3
ATOM      3  C   UNL     1      19.684  -6.952  24.050  1.00  0.00     0.041 C 
ATOM      4  O   UNL     1      19.400  -5.729  24.125  1.00  0.00    -0.550 OA
ATOM      5  O   UNL     1      21.013  -7.346  23.953  1.00  0.00    -0.550 OA
ENDBRANCH   2   3
ENDBRANCH   1   2
BRANCH   1   6
ATOM      6  C   UNL     1      18.838  -7.912  21.498  1.00  0.00     0.000 C 
BRANCH   6   7
ATOM      7  C   UNL     1      18.518  -6.774  20.522  1.00  0.00    -0.003 C 
ATOM      8  C   UNL     1      19.473  -5.599  20.713  1.00  0.00     0.004 C 
ENDBRANCH   6   7
ENDBRANCH   1   6
TORSDOF 4
ENDMDL
MODEL 6
REMARK VINA RESULT:    -4.046      2.431      3.595
REMARK INTER + INTRA:          -5.110
REMARK INTER:                  -4.925
REMARK INTRA:                  -0.184
REMARK UNBOUND:                -0.118
REMARK SMILES CCCCCC(=O)[O-]
REMARK SMILES IDX 4 1 5 2 6 3 7 4 8 5 3 6 2 7 1 8
REMARK H PARENT
REMARK Flexibility Score: inf
ROOT
ATOM      1  C   UNL     1      20.722  -6.731  22.970  1.00  0.00     0.006 C 
ENDROOT
BRANCH   1   2
ATOM      2  C   UNL     1      20.653  -6.105  21.574  1.00  0.00     0.053 C 
BRANCH   2   3
ATOM      3  C   UNL     1      19.238  -5.774  21.219  1.00  0.00     0.041 C 
ATOM      4  O   UNL     1      18.526  -5.103  22.011  1.00  0.00    -0.550 OA
ATOM      5  O   UNL     1      18.689  -6.247  20.033  1.00  0.00    -0.550 OA
ENDBRANCH   2   3
ENDBRANCH   1   2
BRANCH   1   6
ATOM      6  C   UNL     1      20.074  -8.121  22.983  1.00  0.00     0.000 C 
BRANCH   6   7
ATOM      7  C   UNL     1      19.059  -8.244  24.125  1.00  0.00    -0.003 C 
ATOM      8  C   UNL     1      17.650  -7.899  23.650  1.00  0.00     0.004 C 
ENDBRANCH   6   7
ENDBRANCH   1   6
TORSDOF 4
ENDMDL
MODEL 7
REMARK VINA RESULT:    -3.829      1.168      1.494
REMARK INTER + INTRA:          -4.842
REMARK INTER:                  -4.851
REMARK INTRA:                   0.009
REMARK UNBOUND:                -0.118
REMARK SMILES CCCCCC(=O)[O-]
REMARK SMILES IDX 4 1 5 2 6 3 7 4 8 5 3 6 2 7 1 8
REMARK H PARENT
REMARK Flexibility Score: inf
ROOT
ATOM      1  C   UNL     1      18.321  -7.196  21.043  1.00  0.00     0.006 C 
ENDROOT
BRANCH   1   2
ATOM      2  C   UNL     1      19.029  -8.275  21.868  1.00  0.00     0.053 C 
BRANCH   2   3
ATOM      3  C   UNL     1      18.758  -8.081  23.326  1.00  0.00     0.041 C 
ATOM      4  O   UNL     1      19.702  -7.811  24.115  1.00  0.00    -0.550 OA
ATOM      5  O   UNL     1      17.471  -8.247  23.823  1.00  0.00    -0.550 OA
ENDBRANCH   2   3
ENDBRANCH   1   2
BRANCH   1   6
ATOM      6  C   UNL     1      18.642  -5.795  21.580  1.00  0.00     0.000 C 
BRANCH   6   7
ATOM      7  C   UNL     1      19.909  -5.233  20.924  1.00  0.00    -0.003 C 
ATOM      8  C   UNL     1      21.166  -5.777  21.596  1.00  0.00     0.004 C 
ENDBRANCH   6   7
ENDBRANCH   1   6
TORSDOF 4
ENDMDL
MODEL 8
REMARK VINA RESULT:    -3.330      2.065      2.680
REMARK INTER + INTRA:          -4.226
REMARK INTER:                  -4.745
REMARK INTRA:                   0.519
REMARK UNBOUND:                -0.118
REMARK SMILES CCCCCC(=O)[O-]
REMARK SMILES IDX 4 1 5 2 6 3 7 4 8 5 3 6 2 7 1 8
REMARK H PARENT
REMARK Flexibility Score: inf
ROOT
ATOM      1  C   UNL     1      18.982  -7.659  23.960  1.00  0.00     0.006 C 
ENDROOT
BRANCH   1   2
ATOM      2  C   UNL     1      18.023  -7.967  22.807  1.00  0.00     0.053 C 
BRANCH   2   3
ATOM      3  C   UNL     1      18.771  -8.062  21.515  1.00  0.00     0.041 C 
ATOM      4  O   UNL     1      19.909  -8.597  21.481  1.00  0.00    -0.550 OA
ATOM      5  O   UNL     1      18.231  -7.517  20.357  1.00  0.00    -0.550 OA
ENDBRANCH   2   3
ENDBRANCH   1   2
BRANCH   1   6
ATOM      6  C   UNL     1      19.178  -6.147  24.125  1.00  0.00     0.000 C 
BRANCH   6   7
ATOM      7  C   UNL     1      19.615  -5.503  22.804  1.00  0.00    -0.003 C 
ATOM      8  C   UNL     1      18.530  -4.582  22.254  1.00  0.00     0.004 C 
ENDBRANCH   6   7
ENDBRANCH   1   6
TORSDOF 4
ENDMDL
