MODEL 1
REMARK VINA RESULT:    -8.417      0.000      0.000
REMARK INTER + INTRA:         -10.422
REMARK INTER:                 -10.139
REMARK INTRA:                  -0.284
REMARK UNBOUND:                -0.284
REMARK SMILES O=c1c(O)c(-c2ccc(O)c(O)c2)oc2cc(O)cc(O)c12
REMARK SMILES IDX 5 1 3 2 2 3 1 4 22 5 20 6 19 7 17 8 16 9 15 10 14 11 6 12
REMARK SMILES IDX 7 13 8 14 9 15 13 16 11 17 10 18 12 20 4 22 21 24 18 26
REMARK H PARENT 10 19 12 21 4 23 21 25 18 27
REMARK Flexibility Score: inf
ROOT
ATOM      1  C   UNL     1     -31.404  16.970  57.214  1.00  0.00     0.180 A 
ATOM      2  C   UNL     1     -30.140  16.382  57.026  1.00  0.00     0.208 A 
ATOM      3  C   UNL     1     -28.998  17.197  57.060  1.00  0.00     0.238 A 
ATOM      4  O   UNL     1     -27.866  16.657  56.945  1.00  0.00    -0.285 OA
ATOM      5  C   UNL     1     -29.132  18.592  57.265  1.00  0.00     0.111 A 
ATOM      6  C   UNL     1     -28.047  19.517  57.277  1.00  0.00     0.134 A 
ATOM      7  C   UNL     1     -28.283  20.855  57.620  1.00  0.00     0.093 A 
ATOM      8  C   UNL     1     -29.576  21.312  57.885  1.00  0.00     0.123 A 
ATOM      9  C   UNL     1     -30.650  20.428  57.818  1.00  0.00     0.094 A 
ATOM     10  C   UNL     1     -30.441  19.081  57.514  1.00  0.00     0.146 A 
ATOM     11  O   UNL     1     -31.492  18.270  57.470  1.00  0.00    -0.452 OA
ENDROOT
BRANCH   1  12
ATOM     12  C   UNL     1     -32.655  16.181  57.168  1.00  0.00     0.025 A 
ATOM     13  C   UNL     1     -33.061  15.389  58.256  1.00  0.00     0.016 A 
ATOM     14  C   UNL     1     -34.234  14.633  58.181  1.00  0.00     0.051 A 
ATOM     15  C   UNL     1     -35.010  14.647  57.016  1.00  0.00     0.157 A 
ATOM     16  C   UNL     1     -33.427  16.175  55.995  1.00  0.00     0.062 A 
ATOM     17  C   UNL     1     -34.602  15.420  55.916  1.00  0.00     0.158 A 
BRANCH  15  18
ATOM     18  O   UNL     1     -36.182  13.893  56.944  1.00  0.00    -0.504 OA
ATOM     19  H   UNL     1     -36.267  13.105  56.311  1.00  0.00     0.293 HD
ENDBRANCH  15  18
BRANCH  17  20
ATOM     20  O   UNL     1     -35.349  15.450  54.739  1.00  0.00    -0.504 OA
ATOM     21  H   UNL     1     -35.880  14.649  54.417  1.00  0.00     0.293 HD
ENDBRANCH  17  20
ENDBRANCH   1  12
BRANCH   2  22
ATOM     22  O   UNL     1     -30.028  15.001  56.847  1.00  0.00    -0.502 OA
ATOM     23  H   UNL     1     -29.223  14.573  56.407  1.00  0.00     0.293 HD
ENDBRANCH   2  22
BRANCH   6  24
ATOM     24  O   UNL     1     -26.732  19.184  56.938  1.00  0.00    -0.507 OA
ATOM     25  H   UNL     1     -26.394  19.068  55.994  1.00  0.00     0.293 HD
ENDBRANCH   6  24
BRANCH   8  26
ATOM     26  O   UNL     1     -29.804  22.648  58.210  1.00  0.00    -0.508 OA
ATOM     27  H   UNL     1     -30.272  23.276  57.569  1.00  0.00     0.293 HD
ENDBRANCH   8  26
TORSDOF 6
ENDMDL
MODEL 2
REMARK VINA RESULT:    -8.297      2.119      2.976
REMARK INTER + INTRA:         -10.279
REMARK INTER:                 -10.004
REMARK INTRA:                  -0.275
REMARK UNBOUND:                -0.284
REMARK SMILES O=c1c(O)c(-c2ccc(O)c(O)c2)oc2cc(O)cc(O)c12
REMARK SMILES IDX 5 1 3 2 2 3 1 4 22 5 20 6 19 7 17 8 16 9 15 10 14 11 6 12
REMARK SMILES IDX 7 13 8 14 9 15 13 16 11 17 10 18 12 20 4 22 21 24 18 26
REMARK H PARENT 10 19 12 21 4 23 21 25 18 27
REMARK Flexibility Score: inf
ROOT
ATOM      1  C   UNL     1     -31.246  16.778  56.493  1.00  0.00     0.180 A 
ATOM      2  C   UNL     1     -31.271  17.418  57.745  1.00  0.00     0.208 A 
ATOM      3  C   UNL     1     -30.420  18.513  57.967  1.00  0.00     0.238 A 
ATOM      4  O   UNL     1     -30.486  19.116  59.070  1.00  0.00    -0.285 OA
ATOM      5  C   UNL     1     -29.543  18.944  56.942  1.00  0.00     0.111 A 
ATOM      6  C   UNL     1     -28.610  20.015  57.070  1.00  0.00     0.134 A 
ATOM      7  C   UNL     1     -27.886  20.440  55.949  1.00  0.00     0.093 A 
ATOM      8  C   UNL     1     -28.013  19.787  54.721  1.00  0.00     0.123 A 
ATOM      9  C   UNL     1     -28.878  18.702  54.601  1.00  0.00     0.094 A 
ATOM     10  C   UNL     1     -29.641  18.279  55.692  1.00  0.00     0.146 A 
ATOM     11  O   UNL     1     -30.461  17.247  55.531  1.00  0.00    -0.452 OA
ENDROOT
BRANCH   1  12
ATOM     12  C   UNL     1     -32.095  15.603  56.192  1.00  0.00     0.025 A 
ATOM     13  C   UNL     1     -33.467  15.744  55.919  1.00  0.00     0.016 A 
ATOM     14  C   UNL     1     -34.254  14.618  55.661  1.00  0.00     0.051 A 
ATOM     15  C   UNL     1     -33.687  13.338  55.686  1.00  0.00     0.157 A 
ATOM     16  C   UNL     1     -31.536  14.316  56.236  1.00  0.00     0.062 A 
ATOM     17  C   UNL     1     -32.321  13.187  55.977  1.00  0.00     0.158 A 
BRANCH  15  18
ATOM     18  O   UNL     1     -34.474  12.217  55.426  1.00  0.00    -0.504 OA
ATOM     19  H   UNL     1     -35.317  12.279  54.866  1.00  0.00     0.293 HD
ENDBRANCH  15  18
BRANCH  17  20
ATOM     20  O   UNL     1     -31.728  11.925  56.017  1.00  0.00    -0.504 OA
ATOM     21  H   UNL     1     -31.669  11.332  55.198  1.00  0.00     0.293 HD
ENDBRANCH  17  20
ENDBRANCH   1  12
BRANCH   2  22
ATOM     22  O   UNL     1     -32.159  16.991  58.736  1.00  0.00    -0.502 OA
ATOM     23  H   UNL     1     -31.846  16.603  59.617  1.00  0.00     0.293 HD
ENDBRANCH   2  22
BRANCH   6  24
ATOM     24  O   UNL     1     -28.339  20.674  58.273  1.00  0.00    -0.507 OA
ATOM     25  H   UNL     1     -27.947  21.602  58.345  1.00  0.00     0.293 HD
ENDBRANCH   6  24
BRANCH   8  26
ATOM     26  O   UNL     1     -27.278  20.206  53.614  1.00  0.00    -0.508 OA
ATOM     27  H   UNL     1     -26.887  21.139  53.560  1.00  0.00     0.293 HD
ENDBRANCH   8  26
TORSDOF 6
ENDMDL
MODEL 3
REMARK VINA RESULT:    -8.190      2.057      2.986
REMARK INTER + INTRA:         -10.149
REMARK INTER:                  -9.915
REMARK INTRA:                  -0.234
REMARK UNBOUND:                -0.284
REMARK SMILES O=c1c(O)c(-c2ccc(O)c(O)c2)oc2cc(O)cc(O)c12
REMARK SMILES IDX 5 1 3 2 2 3 1 4 22 5 20 6 19 7 17 8 16 9 15 10 14 11 6 12
REMARK SMILES IDX 7 13 8 14 9 15 13 16 11 17 10 18 12 20 4 22 21 24 18 26
REMARK H PARENT 10 19 12 21 4 23 21 25 18 27
REMARK Flexibility Score: inf
ROOT
ATOM      1  C   UNL     1     -30.882  16.501  57.051  1.00  0.00     0.180 A 
ATOM      2  C   UNL     1     -31.145  17.432  56.030  1.00  0.00     0.208 A 
ATOM      3  C   UNL     1     -30.269  18.514  55.854  1.00  0.00     0.238 A 
ATOM      4  O   UNL     1     -30.479  19.313  54.904  1.00  0.00    -0.285 OA
ATOM      5  C   UNL     1     -29.149  18.662  56.708  1.00  0.00     0.111 A 
ATOM      6  C   UNL     1     -28.219  19.742  56.646  1.00  0.00     0.134 A 
ATOM      7  C   UNL     1     -27.076  19.717  57.455  1.00  0.00     0.093 A 
ATOM      8  C   UNL     1     -26.866  18.685  58.372  1.00  0.00     0.123 A 
ATOM      9  C   UNL     1     -27.799  17.657  58.482  1.00  0.00     0.094 A 
ATOM     10  C   UNL     1     -28.930  17.635  57.663  1.00  0.00     0.146 A 
ATOM     11  O   UNL     1     -29.789  16.631  57.793  1.00  0.00    -0.452 OA
ENDROOT
BRANCH   1  12
ATOM     12  C   UNL     1     -31.772  15.348  57.315  1.00  0.00     0.025 A 
ATOM     13  C   UNL     1     -31.832  14.254  56.434  1.00  0.00     0.016 A 
ATOM     14  C   UNL     1     -32.698  13.187  56.691  1.00  0.00     0.051 A 
ATOM     15  C   UNL     1     -33.525  13.204  57.821  1.00  0.00     0.157 A 
ATOM     16  C   UNL     1     -32.618  15.368  58.436  1.00  0.00     0.062 A 
ATOM     17  C   UNL     1     -33.486  14.302  58.696  1.00  0.00     0.158 A 
BRANCH  15  18
ATOM     18  O   UNL     1     -34.387  12.138  58.076  1.00  0.00    -0.504 OA
ATOM     19  H   UNL     1     -35.360  12.163  57.793  1.00  0.00     0.293 HD
ENDBRANCH  15  18
BRANCH  17  20
ATOM     20  O   UNL     1     -34.301  14.353  59.826  1.00  0.00    -0.504 OA
ATOM     21  H   UNL     1     -35.011  13.654  60.010  1.00  0.00     0.293 HD
ENDBRANCH  17  20
ENDBRANCH   1  12
BRANCH   2  22
ATOM     22  O   UNL     1     -32.242  17.254  55.183  1.00  0.00    -0.502 OA
ATOM     23  H   UNL     1     -32.252  16.564  54.443  1.00  0.00     0.293 HD
ENDBRANCH   2  22
BRANCH   6  24
ATOM     24  O   UNL     1     -28.382  20.867  55.832  1.00  0.00    -0.507 OA
ATOM     25  H   UNL     1     -28.373  20.852  54.822  1.00  0.00     0.293 HD
ENDBRANCH   6  24
BRANCH   8  26
ATOM     26  O   UNL     1     -25.734  18.677  59.185  1.00  0.00    -0.508 OA
ATOM     27  H   UNL     1     -25.354  19.531  59.573  1.00  0.00     0.293 HD
ENDBRANCH   8  26
TORSDOF 6
ENDMDL
MODEL 4
REMARK VINA RESULT:    -7.856      1.766      7.500
REMARK INTER + INTRA:          -9.747
REMARK INTER:                  -9.412
REMARK INTRA:                  -0.335
REMARK UNBOUND:                -0.284
REMARK SMILES O=c1c(O)c(-c2ccc(O)c(O)c2)oc2cc(O)cc(O)c12
REMARK SMILES IDX 5 1 3 2 2 3 1 4 22 5 20 6 19 7 17 8 16 9 15 10 14 11 6 12
REMARK SMILES IDX 7 13 8 14 9 15 13 16 11 17 10 18 12 20 4 22 21 24 18 26
REMARK H PARENT 10 19 12 21 4 23 21 25 18 27
REMARK Flexibility Score: inf
ROOT
ATOM      1  C   UNL     1     -32.952  15.852  57.175  1.00  0.00     0.180 A 
ATOM      2  C   UNL     1     -33.675  15.768  55.972  1.00  0.00     0.208 A 
ATOM      3  C   UNL     1     -34.830  14.971  55.927  1.00  0.00     0.238 A 
ATOM      4  O   UNL     1     -35.504  14.943  54.864  1.00  0.00    -0.285 OA
ATOM      5  C   UNL     1     -35.239  14.255  57.078  1.00  0.00     0.111 A 
ATOM      6  C   UNL     1     -36.369  13.386  57.134  1.00  0.00     0.134 A 
ATOM      7  C   UNL     1     -36.755  12.832  58.361  1.00  0.00     0.093 A 
ATOM      8  C   UNL     1     -36.012  13.063  59.521  1.00  0.00     0.123 A 
ATOM      9  C   UNL     1     -34.873  13.863  59.464  1.00  0.00     0.094 A 
ATOM     10  C   UNL     1     -34.484  14.458  58.263  1.00  0.00     0.146 A 
ATOM     11  O   UNL     1     -33.397  15.221  58.256  1.00  0.00    -0.452 OA
ENDROOT
BRANCH   1  12
ATOM     12  C   UNL     1     -31.712  16.651  57.294  1.00  0.00     0.025 A 
ATOM     13  C   UNL     1     -30.452  16.094  57.009  1.00  0.00     0.016 A 
ATOM     14  C   UNL     1     -29.293  16.861  57.152  1.00  0.00     0.051 A 
ATOM     15  C   UNL     1     -29.372  18.187  57.594  1.00  0.00     0.157 A 
ATOM     16  C   UNL     1     -31.783  17.975  57.757  1.00  0.00     0.062 A 
ATOM     17  C   UNL     1     -30.624  18.746  57.900  1.00  0.00     0.158 A 
BRANCH  15  18
ATOM     18  O   UNL     1     -28.213  18.951  57.734  1.00  0.00    -0.504 OA
ATOM     19  H   UNL     1     -27.931  19.325  58.633  1.00  0.00     0.293 HD
ENDBRANCH  15  18
BRANCH  17  20
ATOM     20  O   UNL     1     -30.736  20.061  58.349  1.00  0.00    -0.504 OA
ATOM     21  H   UNL     1     -31.298  20.750  57.863  1.00  0.00     0.293 HD
ENDBRANCH  17  20
ENDBRANCH   1  12
BRANCH   2  22
ATOM     22  O   UNL     1     -33.268  16.500  54.854  1.00  0.00    -0.502 OA
ATOM     23  H   UNL     1     -32.757  16.082  54.086  1.00  0.00     0.293 HD
ENDBRANCH   2  22
BRANCH   6  24
ATOM     24  O   UNL     1     -37.125  13.016  56.018  1.00  0.00    -0.507 OA
ATOM     25  H   UNL     1     -36.775  12.475  55.240  1.00  0.00     0.293 HD
ENDBRANCH   6  24
BRANCH   8  26
ATOM     26  O   UNL     1     -36.394  12.496  60.734  1.00  0.00    -0.508 OA
ATOM     27  H   UNL     1     -37.370  12.397  60.989  1.00  0.00     0.293 HD
ENDBRANCH   8  26
TORSDOF 6
ENDMDL
MODEL 5
REMARK VINA RESULT:    -7.791      1.678      7.245
REMARK INTER + INTRA:          -9.669
REMARK INTER:                  -9.347
REMARK INTRA:                  -0.322
REMARK UNBOUND:                -0.284
REMARK SMILES O=c1c(O)c(-c2ccc(O)c(O)c2)oc2cc(O)cc(O)c12
REMARK SMILES IDX 5 1 3 2 2 3 1 4 22 5 20 6 19 7 17 8 16 9 15 10 14 11 6 12
REMARK SMILES IDX 7 13 8 14 9 15 13 16 11 17 10 18 12 20 4 22 21 24 18 26
REMARK H PARENT 10 19 12 21 4 23 21 25 18 27
REMARK Flexibility Score: inf
ROOT
ATOM      1  C   UNL     1     -32.189  16.423  57.381  1.00  0.00     0.180 A 
ATOM      2  C   UNL     1     -32.840  16.492  56.137  1.00  0.00     0.208 A 
ATOM      3  C   UNL     1     -34.027  15.767  55.949  1.00  0.00     0.238 A 
ATOM      4  O   UNL     1     -34.635  15.876  54.851  1.00  0.00    -0.285 OA
ATOM      5  C   UNL     1     -34.540  14.968  56.999  1.00  0.00     0.111 A 
ATOM      6  C   UNL     1     -35.712  14.161  56.905  1.00  0.00     0.134 A 
ATOM      7  C   UNL     1     -36.200  13.515  58.049  1.00  0.00     0.093 A 
ATOM      8  C   UNL     1     -35.520  13.594  59.266  1.00  0.00     0.123 A 
ATOM      9  C   UNL     1     -34.342  14.333  59.352  1.00  0.00     0.094 A 
ATOM     10  C   UNL     1     -33.851  15.017  58.239  1.00  0.00     0.146 A 
ATOM     11  O   UNL     1     -32.730  15.718  58.368  1.00  0.00    -0.452 OA
ENDROOT
BRANCH   1  12
ATOM     12  C   UNL     1     -30.921  17.139  57.648  1.00  0.00     0.025 A 
ATOM     13  C   UNL     1     -30.915  18.468  58.107  1.00  0.00     0.016 A 
ATOM     14  C   UNL     1     -29.706  19.133  58.329  1.00  0.00     0.051 A 
ATOM     15  C   UNL     1     -28.488  18.486  58.085  1.00  0.00     0.157 A 
ATOM     16  C   UNL     1     -29.697  16.503  57.385  1.00  0.00     0.062 A 
ATOM     17  C   UNL     1     -28.485  17.164  57.607  1.00  0.00     0.158 A 
BRANCH  15  18
ATOM     18  O   UNL     1     -27.283  19.151  58.309  1.00  0.00    -0.504 OA
ATOM     19  H   UNL     1     -26.492  18.683  58.738  1.00  0.00     0.293 HD
ENDBRANCH  15  18
BRANCH  17  20
ATOM     20  O   UNL     1     -27.290  16.495  57.347  1.00  0.00    -0.504 OA
ATOM     21  H   UNL     1     -27.264  15.510  57.113  1.00  0.00     0.293 HD
ENDBRANCH  17  20
ENDBRANCH   1  12
BRANCH   2  22
ATOM     22  O   UNL     1     -32.329  17.304  55.121  1.00  0.00    -0.502 OA
ATOM     23  H   UNL     1     -32.800  17.425  54.233  1.00  0.00     0.293 HD
ENDBRANCH   2  22
BRANCH   6  24
ATOM     24  O   UNL     1     -36.415  13.940  55.717  1.00  0.00    -0.507 OA
ATOM     25  H   UNL     1     -37.005  13.140  55.539  1.00  0.00     0.293 HD
ENDBRANCH   6  24
BRANCH   8  26
ATOM     26  O   UNL     1     -36.003  12.936  60.394  1.00  0.00    -0.508 OA
ATOM     27  H   UNL     1     -36.673  13.372  61.016  1.00  0.00     0.293 HD
ENDBRANCH   8  26
TORSDOF 6
ENDMDL
MODEL 6
REMARK VINA RESULT:    -7.621      2.361      7.307
REMARK INTER + INTRA:          -9.464
REMARK INTER:                  -9.233
REMARK INTRA:                  -0.231
REMARK UNBOUND:                -0.284
REMARK SMILES O=c1c(O)c(-c2ccc(O)c(O)c2)oc2cc(O)cc(O)c12
REMARK SMILES IDX 5 1 3 2 2 3 1 4 22 5 20 6 19 7 17 8 16 9 15 10 14 11 6 12
REMARK SMILES IDX 7 13 8 14 9 15 13 16 11 17 10 18 12 20 4 22 21 24 18 26
REMARK H PARENT 10 19 12 21 4 23 21 25 18 27
REMARK Flexibility Score: inf
ROOT
ATOM      1  C   UNL     1     -31.544  15.943  56.949  1.00  0.00     0.180 A 
ATOM      2  C   UNL     1     -32.288  16.144  58.126  1.00  0.00     0.208 A 
ATOM      3  C   UNL     1     -33.335  15.258  58.429  1.00  0.00     0.238 A 
ATOM      4  O   UNL     1     -33.961  15.411  59.510  1.00  0.00    -0.285 OA
ATOM      5  C   UNL     1     -33.636  14.194  57.545  1.00  0.00     0.111 A 
ATOM      6  C   UNL     1     -34.700  13.262  57.732  1.00  0.00     0.134 A 
ATOM      7  C   UNL     1     -34.824  12.171  56.863  1.00  0.00     0.093 A 
ATOM      8  C   UNL     1     -33.962  12.016  55.774  1.00  0.00     0.123 A 
ATOM      9  C   UNL     1     -32.957  12.954  55.550  1.00  0.00     0.094 A 
ATOM     10  C   UNL     1     -32.786  14.032  56.420  1.00  0.00     0.146 A 
ATOM     11  O   UNL     1     -31.808  14.897  56.175  1.00  0.00    -0.452 OA
ENDROOT
BRANCH   1  12
ATOM     12  C   UNL     1     -30.443  16.847  56.550  1.00  0.00     0.025 A 
ATOM     13  C   UNL     1     -29.218  16.858  57.242  1.00  0.00     0.016 A 
ATOM     14  C   UNL     1     -28.201  17.737  56.862  1.00  0.00     0.051 A 
ATOM     15  C   UNL     1     -28.395  18.626  55.797  1.00  0.00     0.157 A 
ATOM     16  C   UNL     1     -30.639  17.754  55.496  1.00  0.00     0.062 A 
ATOM     17  C   UNL     1     -29.622  18.636  55.112  1.00  0.00     0.158 A 
BRANCH  15  18
ATOM     18  O   UNL     1     -27.377  19.501  55.418  1.00  0.00    -0.504 OA
ATOM     19  H   UNL     1     -27.572  20.466  55.173  1.00  0.00     0.293 HD
ENDBRANCH  15  18
BRANCH  17  20
ATOM     20  O   UNL     1     -29.849  19.513  54.053  1.00  0.00    -0.504 OA
ATOM     21  H   UNL     1     -29.319  19.465  53.191  1.00  0.00     0.293 HD
ENDBRANCH  17  20
ENDBRANCH   1  12
BRANCH   2  22
ATOM     22  O   UNL     1     -31.959  17.187  58.995  1.00  0.00    -0.502 OA
ATOM     23  H   UNL     1     -31.640  17.026  59.943  1.00  0.00     0.293 HD
ENDBRANCH   2  22
BRANCH   6  24
ATOM     24  O   UNL     1     -35.671  13.376  58.732  1.00  0.00    -0.507 OA
ATOM     25  H   UNL     1     -36.495  12.797  58.801  1.00  0.00     0.293 HD
ENDBRANCH   6  24
BRANCH   8  26
ATOM     26  O   UNL     1     -34.102  10.936  54.905  1.00  0.00    -0.508 OA
ATOM     27  H   UNL     1     -33.739  10.967  53.961  1.00  0.00     0.293 HD
ENDBRANCH   8  26
TORSDOF 6
ENDMDL
MODEL 7
REMARK VINA RESULT:    -7.585      1.714      6.987
REMARK INTER + INTRA:          -9.420
REMARK INTER:                  -9.114
REMARK INTRA:                  -0.306
REMARK UNBOUND:                -0.284
REMARK SMILES O=c1c(O)c(-c2ccc(O)c(O)c2)oc2cc(O)cc(O)c12
REMARK SMILES IDX 5 1 3 2 2 3 1 4 22 5 20 6 19 7 17 8 16 9 15 10 14 11 6 12
REMARK SMILES IDX 7 13 8 14 9 15 13 16 11 17 10 18 12 20 4 22 21 24 18 26
REMARK H PARENT 10 19 12 21 4 23 21 25 18 27
REMARK Flexibility Score: inf
ROOT
ATOM      1  C   UNL     1     -31.555  16.622  57.515  1.00  0.00     0.180 A 
ATOM      2  C   UNL     1     -31.822  16.150  56.217  1.00  0.00     0.208 A 
ATOM      3  C   UNL     1     -32.835  15.196  56.034  1.00  0.00     0.238 A 
ATOM      4  O   UNL     1     -33.107  14.819  54.864  1.00  0.00    -0.285 OA
ATOM      5  C   UNL     1     -33.558  14.712  57.152  1.00  0.00     0.111 A 
ATOM      6  C   UNL     1     -34.577  13.716  57.088  1.00  0.00     0.134 A 
ATOM      7  C   UNL     1     -35.316  13.408  58.237  1.00  0.00     0.093 A 
ATOM      8  C   UNL     1     -35.027  14.014  59.462  1.00  0.00     0.123 A 
ATOM      9  C   UNL     1     -33.994  14.945  59.547  1.00  0.00     0.094 A 
ATOM     10  C   UNL     1     -33.264  15.298  58.410  1.00  0.00     0.146 A 
ATOM     11  O   UNL     1     -32.294  16.198  58.533  1.00  0.00    -0.452 OA
ENDROOT
BRANCH   1  12
ATOM     12  C   UNL     1     -30.487  17.609  57.790  1.00  0.00     0.025 A 
ATOM     13  C   UNL     1     -29.137  17.224  57.862  1.00  0.00     0.016 A 
ATOM     14  C   UNL     1     -28.148  18.169  58.148  1.00  0.00     0.051 A 
ATOM     15  C   UNL     1     -28.493  19.506  58.379  1.00  0.00     0.157 A 
ATOM     16  C   UNL     1     -30.829  18.947  58.043  1.00  0.00     0.062 A 
ATOM     17  C   UNL     1     -29.842  19.896  58.329  1.00  0.00     0.158 A 
BRANCH  15  18
ATOM     18  O   UNL     1     -27.504  20.448  58.662  1.00  0.00    -0.504 OA
ATOM     19  H   UNL     1     -27.716  21.437  58.724  1.00  0.00     0.293 HD
ENDBRANCH  15  18
BRANCH  17  20
ATOM     20  O   UNL     1     -30.219  21.218  58.561  1.00  0.00    -0.504 OA
ATOM     21  H   UNL     1     -30.956  21.461  59.212  1.00  0.00     0.293 HD
ENDBRANCH  17  20
ENDBRANCH   1  12
BRANCH   2  22
ATOM     22  O   UNL     1     -31.112  16.658  55.125  1.00  0.00    -0.502 OA
ATOM     23  H   UNL     1     -31.323  16.395  54.170  1.00  0.00     0.293 HD
ENDBRANCH   2  22
BRANCH   6  24
ATOM     24  O   UNL     1     -34.884  12.985  55.936  1.00  0.00    -0.507 OA
ATOM     25  H   UNL     1     -34.313  12.243  55.558  1.00  0.00     0.293 HD
ENDBRANCH   6  24
BRANCH   8  26
ATOM     26  O   UNL     1     -35.757  13.691  60.604  1.00  0.00    -0.508 OA
ATOM     27  H   UNL     1     -36.408  14.346  61.019  1.00  0.00     0.293 HD
ENDBRANCH   8  26
TORSDOF 6
ENDMDL
MODEL 8
REMARK VINA RESULT:    -7.545      1.996      7.001
REMARK INTER + INTRA:          -9.373
REMARK INTER:                  -9.050
REMARK INTRA:                  -0.323
REMARK UNBOUND:                -0.284
REMARK SMILES O=c1c(O)c(-c2ccc(O)c(O)c2)oc2cc(O)cc(O)c12
REMARK SMILES IDX 5 1 3 2 2 3 1 4 22 5 20 6 19 7 17 8 16 9 15 10 14 11 6 12
REMARK SMILES IDX 7 13 8 14 9 15 13 16 11 17 10 18 12 20 4 22 21 24 18 26
REMARK H PARENT 10 19 12 21 4 23 21 25 18 27
REMARK Flexibility Score: inf
ROOT
ATOM      1  C   UNL     1     -31.786  16.251  56.373  1.00  0.00     0.180 A 
ATOM      2  C   UNL     1     -31.134  15.030  56.619  1.00  0.00     0.208 A 
ATOM      3  C   UNL     1     -31.844  13.832  56.446  1.00  0.00     0.238 A 
ATOM      4  O   UNL     1     -31.239  12.740  56.614  1.00  0.00    -0.285 OA
ATOM      5  C   UNL     1     -33.202  13.868  56.046  1.00  0.00     0.111 A 
ATOM      6  C   UNL     1     -34.029  12.717  55.881  1.00  0.00     0.134 A 
ATOM      7  C   UNL     1     -35.319  12.864  55.356  1.00  0.00     0.093 A 
ATOM      8  C   UNL     1     -35.835  14.126  55.054  1.00  0.00     0.123 A 
ATOM      9  C   UNL     1     -35.055  15.260  55.268  1.00  0.00     0.094 A 
ATOM     10  C   UNL     1     -33.752  15.143  55.756  1.00  0.00     0.146 A 
ATOM     11  O   UNL     1     -33.040  16.250  55.936  1.00  0.00    -0.452 OA
ENDROOT
BRANCH   1  12
ATOM     12  C   UNL     1     -31.112  17.556  56.557  1.00  0.00     0.025 A 
ATOM     13  C   UNL     1     -30.379  18.153  55.516  1.00  0.00     0.016 A 
ATOM     14  C   UNL     1     -29.730  19.374  55.719  1.00  0.00     0.051 A 
ATOM     15  C   UNL     1     -29.792  20.009  56.966  1.00  0.00     0.157 A 
ATOM     16  C   UNL     1     -31.154  18.187  57.810  1.00  0.00     0.062 A 
ATOM     17  C   UNL     1     -30.507  19.410  58.018  1.00  0.00     0.158 A 
BRANCH  15  18
ATOM     18  O   UNL     1     -29.146  21.228  57.166  1.00  0.00    -0.504 OA
ATOM     19  H   UNL     1     -28.948  21.577  58.097  1.00  0.00     0.293 HD
ENDBRANCH  15  18
BRANCH  17  20
ATOM     20  O   UNL     1     -30.582  20.013  59.272  1.00  0.00    -0.504 OA
ATOM     21  H   UNL     1     -30.691  21.014  59.383  1.00  0.00     0.293 HD
ENDBRANCH  17  20
ENDBRANCH   1  12
BRANCH   2  22
ATOM     22  O   UNL     1     -29.786  15.016  56.990  1.00  0.00    -0.502 OA
ATOM     23  H   UNL     1     -29.264  15.863  57.175  1.00  0.00     0.293 HD
ENDBRANCH   2  22
BRANCH   6  24
ATOM     24  O   UNL     1     -33.645  11.421  56.238  1.00  0.00    -0.507 OA
ATOM     25  H   UNL     1     -32.728  11.166  56.575  1.00  0.00     0.293 HD
ENDBRANCH   6  24
BRANCH   8  26
ATOM     26  O   UNL     1     -37.125  14.264  54.546  1.00  0.00    -0.508 OA
ATOM     27  H   UNL     1     -37.862  13.613  54.789  1.00  0.00     0.293 HD
ENDBRANCH   8  26
TORSDOF 6
ENDMDL
MODEL 9
REMARK VINA RESULT:    -7.392      2.234      7.011
REMARK INTER + INTRA:          -9.188
REMARK INTER:                  -9.156
REMARK INTRA:                  -0.032
REMARK UNBOUND:                -0.284
REMARK SMILES O=c1c(O)c(-c2ccc(O)c(O)c2)oc2cc(O)cc(O)c12
REMARK SMILES IDX 5 1 3 2 2 3 1 4 22 5 20 6 19 7 17 8 16 9 15 10 14 11 6 12
REMARK SMILES IDX 7 13 8 14 9 15 13 16 11 17 10 18 12 20 4 22 21 24 18 26
REMARK H PARENT 10 19 12 21 4 23 21 25 18 27
REMARK Flexibility Score: inf
ROOT
ATOM      1  C   UNL     1     -31.416  16.874  56.294  1.00  0.00     0.180 A 
ATOM      2  C   UNL     1     -31.314  16.282  57.565  1.00  0.00     0.208 A 
ATOM      3  C   UNL     1     -32.345  15.438  58.007  1.00  0.00     0.238 A 
ATOM      4  O   UNL     1     -32.224  14.867  59.122  1.00  0.00    -0.285 OA
ATOM      5  C   UNL     1     -33.473  15.209  57.181  1.00  0.00     0.111 A 
ATOM      6  C   UNL     1     -34.594  14.406  57.544  1.00  0.00     0.134 A 
ATOM      7  C   UNL     1     -35.592  14.144  56.596  1.00  0.00     0.093 A 
ATOM      8  C   UNL     1     -35.541  14.711  55.321  1.00  0.00     0.123 A 
ATOM      9  C   UNL     1     -34.480  15.545  54.978  1.00  0.00     0.094 A 
ATOM     10  C   UNL     1     -33.451  15.796  55.889  1.00  0.00     0.146 A 
ATOM     11  O   UNL     1     -32.453  16.589  55.516  1.00  0.00    -0.452 OA
ENDROOT
BRANCH   1  12
ATOM     12  C   UNL     1     -30.382  17.794  55.769  1.00  0.00     0.025 A 
ATOM     13  C   UNL     1     -30.715  19.076  55.297  1.00  0.00     0.016 A 
ATOM     14  C   UNL     1     -29.725  19.918  54.783  1.00  0.00     0.051 A 
ATOM     15  C   UNL     1     -28.394  19.489  54.720  1.00  0.00     0.157 A 
ATOM     16  C   UNL     1     -29.048  17.362  55.684  1.00  0.00     0.062 A 
ATOM     17  C   UNL     1     -28.055  18.202  55.171  1.00  0.00     0.158 A 
BRANCH  15  18
ATOM     18  O   UNL     1     -27.408  20.332  54.208  1.00  0.00    -0.504 OA
ATOM     19  H   UNL     1     -26.909  20.107  53.355  1.00  0.00     0.293 HD
ENDBRANCH  15  18
BRANCH  17  20
ATOM     20  O   UNL     1     -26.740  17.742  55.115  1.00  0.00    -0.504 OA
ATOM     21  H   UNL     1     -25.954  18.324  55.381  1.00  0.00     0.293 HD
ENDBRANCH  17  20
ENDBRANCH   1  12
BRANCH   2  22
ATOM     22  O   UNL     1     -30.183  16.502  58.355  1.00  0.00    -0.502 OA
ATOM     23  H   UNL     1     -29.266  16.155  58.102  1.00  0.00     0.293 HD
ENDBRANCH   2  22
BRANCH   6  24
ATOM     24  O   UNL     1     -34.788  13.867  58.819  1.00  0.00    -0.507 OA
ATOM     25  H   UNL     1     -35.686  13.611  59.204  1.00  0.00     0.293 HD
ENDBRANCH   6  24
BRANCH   8  26
ATOM     26  O   UNL     1     -36.546  14.458  54.390  1.00  0.00    -0.508 OA
ATOM     27  H   UNL     1     -37.461  14.886  54.469  1.00  0.00     0.293 HD
ENDBRANCH   8  26
TORSDOF 6
ENDMDL
