MODEL 1
REMARK VINA RESULT:    -7.350      0.000      0.000
REMARK INTER + INTRA:          -7.350
REMARK INTER:                  -7.350
REMARK INTRA:                   0.000
REMARK UNBOUND:                 0.000
REMARK SMILES c1ccc2nc3ccccc3cc2c1
REMARK SMILES IDX 1 1 2 2 3 3 4 4 13 5 14 6 12 7 11 8 10 9 9 10 8 11 7 12 6 13
REMARK SMILES IDX 5 14
REMARK H PARENT
REMARK Flexibility Score: inf
ROOT
ATOM      1  C   UNL     1      -7.293   1.089 -41.813  1.00  0.00     0.001 A 
ATOM      2  C   UNL     1      -7.475  -0.103 -41.104  1.00  0.00     0.002 A 
ATOM      3  C   UNL     1      -7.317  -0.126 -39.715  1.00  0.00     0.029 A 
ATOM      4  C   UNL     1      -6.975   1.045 -39.029  1.00  0.00     0.071 A 
ATOM      5  C   UNL     1      -6.791   2.252 -39.743  1.00  0.00     0.001 A 
ATOM      6  C   UNL     1      -6.951   2.265 -41.137  1.00  0.00     0.010 A 
ATOM      7  C   UNL     1      -6.450   3.414 -39.041  1.00  0.00     0.020 A 
ATOM      8  C   UNL     1      -6.296   3.368 -37.649  1.00  0.00     0.001 A 
ATOM      9  C   UNL     1      -5.955   4.515 -36.917  1.00  0.00     0.010 A 
ATOM     10  C   UNL     1      -5.808   4.440 -35.528  1.00  0.00     0.001 A 
ATOM     11  C   UNL     1      -6.001   3.224 -34.865  1.00  0.00     0.002 A 
ATOM     12  C   UNL     1      -6.341   2.075 -35.586  1.00  0.00     0.029 A 
ATOM     13  C   UNL     1      -6.491   2.140 -36.976  1.00  0.00     0.071 A 
ATOM     14  N   UNL     1      -6.821   1.023 -37.678  1.00  0.00    -0.248 NA
ENDROOT
TORSDOF 0
ENDMDL
MODEL 2
REMARK VINA RESULT:    -7.330      0.098      4.830
REMARK INTER + INTRA:          -7.330
REMARK INTER:                  -7.330
REMARK INTRA:                   0.000
REMARK UNBOUND:                 0.000
REMARK SMILES c1ccc2nc3ccccc3cc2c1
REMARK SMILES IDX 1 1 2 2 3 3 4 4 13 5 14 6 12 7 11 8 10 9 9 10 8 11 7 12 6 13
REMARK SMILES IDX 5 14
REMARK H PARENT
REMARK Flexibility Score: inf
ROOT
ATOM      1  C   UNL     1      -5.766   4.335 -35.476  1.00  0.00     0.001 A 
ATOM      2  C   UNL     1      -5.994   3.109 -34.841  1.00  0.00     0.002 A 
ATOM      3  C   UNL     1      -6.373   1.990 -35.590  1.00  0.00     0.029 A 
ATOM      4  C   UNL     1      -6.524   2.093 -36.978  1.00  0.00     0.071 A 
ATOM      5  C   UNL     1      -6.295   3.331 -37.621  1.00  0.00     0.001 A 
ATOM      6  C   UNL     1      -5.915   4.449 -36.861  1.00  0.00     0.010 A 
ATOM      7  C   UNL     1      -6.450   3.417 -39.010  1.00  0.00     0.020 A 
ATOM      8  C   UNL     1      -6.830   2.283 -39.740  1.00  0.00     0.001 A 
ATOM      9  C   UNL     1      -6.995   2.335 -41.132  1.00  0.00     0.010 A 
ATOM     10  C   UNL     1      -7.375   1.188 -41.836  1.00  0.00     0.001 A 
ATOM     11  C   UNL     1      -7.591  -0.015 -41.155  1.00  0.00     0.002 A 
ATOM     12  C   UNL     1      -7.429  -0.078 -39.768  1.00  0.00     0.029 A 
ATOM     13  C   UNL     1      -7.049   1.065 -39.054  1.00  0.00     0.071 A 
ATOM     14  N   UNL     1      -6.892   1.005 -37.705  1.00  0.00    -0.248 NA
ENDROOT
TORSDOF 0
ENDMDL
MODEL 3
REMARK VINA RESULT:    -7.191      0.809      5.275
REMARK INTER + INTRA:          -7.191
REMARK INTER:                  -7.191
REMARK INTRA:                   0.000
REMARK UNBOUND:                 0.000
REMARK SMILES c1ccc2nc3ccccc3cc2c1
REMARK SMILES IDX 1 1 2 2 3 3 4 4 13 5 14 6 12 7 11 8 10 9 9 10 8 11 7 12 6 13
REMARK SMILES IDX 5 14
REMARK H PARENT
REMARK Flexibility Score: inf
ROOT
ATOM      1  C   UNL     1      -6.074   3.182 -34.858  1.00  0.00     0.001 A 
ATOM      2  C   UNL     1      -5.866   4.380 -35.550  1.00  0.00     0.002 A 
ATOM      3  C   UNL     1      -6.002   4.422 -36.941  1.00  0.00     0.029 A 
ATOM      4  C   UNL     1      -6.347   3.263 -37.647  1.00  0.00     0.071 A 
ATOM      5  C   UNL     1      -6.557   2.050 -36.950  1.00  0.00     0.001 A 
ATOM      6  C   UNL     1      -6.419   2.018 -35.554  1.00  0.00     0.010 A 
ATOM      7  C   UNL     1      -6.902   0.901 -37.672  1.00  0.00     0.020 A 
ATOM      8  C   UNL     1      -7.033   0.965 -39.065  1.00  0.00     0.001 A 
ATOM      9  C   UNL     1      -7.376  -0.168 -39.817  1.00  0.00     0.010 A 
ATOM     10  C   UNL     1      -7.499  -0.075 -41.207  1.00  0.00     0.001 A 
ATOM     11  C   UNL     1      -7.281   1.147 -41.852  1.00  0.00     0.002 A 
ATOM     12  C   UNL     1      -6.938   2.282 -41.112  1.00  0.00     0.029 A 
ATOM     13  C   UNL     1      -6.813   2.200 -39.720  1.00  0.00     0.071 A 
ATOM     14  N   UNL     1      -6.479   3.303 -39.000  1.00  0.00    -0.248 NA
ENDROOT
TORSDOF 0
ENDMDL
MODEL 4
REMARK VINA RESULT:    -7.175      0.813      2.120
REMARK INTER + INTRA:          -7.175
REMARK INTER:                  -7.175
REMARK INTRA:                   0.000
REMARK UNBOUND:                 0.000
REMARK SMILES c1ccc2nc3ccccc3cc2c1
REMARK SMILES IDX 1 1 2 2 3 3 4 4 13 5 14 6 12 7 11 8 10 9 9 10 8 11 7 12 6 13
REMARK SMILES IDX 5 14
REMARK H PARENT
REMARK Flexibility Score: inf
ROOT
ATOM      1  C   UNL     1      -7.626  -0.039 -41.178  1.00  0.00     0.001 A 
ATOM      2  C   UNL     1      -7.371   1.174 -41.827  1.00  0.00     0.002 A 
ATOM      3  C   UNL     1      -6.991   2.299 -41.091  1.00  0.00     0.029 A 
ATOM      4  C   UNL     1      -6.863   2.216 -39.699  1.00  0.00     0.071 A 
ATOM      5  C   UNL     1      -7.119   0.992 -39.040  1.00  0.00     0.001 A 
ATOM      6  C   UNL     1      -7.501  -0.133 -39.788  1.00  0.00     0.010 A 
ATOM      7  C   UNL     1      -6.986   0.926 -37.648  1.00  0.00     0.020 A 
ATOM      8  C   UNL     1      -6.603   2.067 -36.930  1.00  0.00     0.001 A 
ATOM      9  C   UNL     1      -6.461   2.034 -35.535  1.00  0.00     0.010 A 
ATOM     10  C   UNL     1      -6.078   3.188 -34.843  1.00  0.00     0.001 A 
ATOM     11  C   UNL     1      -5.835   4.377 -35.538  1.00  0.00     0.002 A 
ATOM     12  C   UNL     1      -5.974   4.419 -36.929  1.00  0.00     0.029 A 
ATOM     13  C   UNL     1      -6.357   3.270 -37.631  1.00  0.00     0.071 A 
ATOM     14  N   UNL     1      -6.492   3.311 -38.983  1.00  0.00    -0.248 NA
ENDROOT
TORSDOF 0
ENDMDL
MODEL 5
REMARK VINA RESULT:    -6.048     16.080     16.778
REMARK INTER + INTRA:          -6.048
REMARK INTER:                  -6.048
REMARK INTRA:                   0.000
REMARK UNBOUND:                 0.000
REMARK SMILES c1ccc2nc3ccccc3cc2c1
REMARK SMILES IDX 1 1 2 2 3 3 4 4 13 5 14 6 12 7 11 8 10 9 9 10 8 11 7 12 6 13
REMARK SMILES IDX 5 14
REMARK H PARENT
REMARK Flexibility Score: inf
ROOT
ATOM      1  C   UNL     1       8.497  -0.871 -37.751  1.00  0.00     0.001 A 
ATOM      2  C   UNL     1       8.827  -0.681 -36.404  1.00  0.00     0.002 A 
ATOM      3  C   UNL     1       8.820  -1.763 -35.519  1.00  0.00     0.029 A 
ATOM      4  C   UNL     1       8.481  -3.042 -35.977  1.00  0.00     0.071 A 
ATOM      5  C   UNL     1       8.147  -3.237 -37.337  1.00  0.00     0.001 A 
ATOM      6  C   UNL     1       8.157  -2.145 -38.218  1.00  0.00     0.010 A 
ATOM      7  C   UNL     1       7.811  -4.523 -37.779  1.00  0.00     0.020 A 
ATOM      8  C   UNL     1       7.810  -5.593 -36.874  1.00  0.00     0.001 A 
ATOM      9  C   UNL     1       7.479  -6.892 -37.284  1.00  0.00     0.010 A 
ATOM     10  C   UNL     1       7.485  -7.942 -36.359  1.00  0.00     0.001 A 
ATOM     11  C   UNL     1       7.823  -7.700 -35.024  1.00  0.00     0.002 A 
ATOM     12  C   UNL     1       8.156  -6.407 -34.605  1.00  0.00     0.029 A 
ATOM     13  C   UNL     1       8.152  -5.350 -35.523  1.00  0.00     0.071 A 
ATOM     14  N   UNL     1       8.474  -4.094 -35.116  1.00  0.00    -0.248 NA
ENDROOT
TORSDOF 0
ENDMDL
MODEL 6
REMARK VINA RESULT:    -6.032     16.744     17.403
REMARK INTER + INTRA:          -6.032
REMARK INTER:                  -6.032
REMARK INTRA:                   0.000
REMARK UNBOUND:                 0.000
REMARK SMILES c1ccc2nc3ccccc3cc2c1
REMARK SMILES IDX 1 1 2 2 3 3 4 4 13 5 14 6 12 7 11 8 10 9 9 10 8 11 7 12 6 13
REMARK SMILES IDX 5 14
REMARK H PARENT
REMARK Flexibility Score: inf
ROOT
ATOM      1  C   UNL     1       6.635 -10.112 -34.978  1.00  0.00     0.001 A 
ATOM      2  C   UNL     1       6.585  -9.547 -33.699  1.00  0.00     0.002 A 
ATOM      3  C   UNL     1       6.928  -8.205 -33.509  1.00  0.00     0.029 A 
ATOM      4  C   UNL     1       7.323  -7.421 -34.599  1.00  0.00     0.071 A 
ATOM      5  C   UNL     1       7.375  -7.989 -35.893  1.00  0.00     0.001 A 
ATOM      6  C   UNL     1       7.029  -9.338 -36.074  1.00  0.00     0.010 A 
ATOM      7  C   UNL     1       7.771  -7.191 -36.973  1.00  0.00     0.020 A 
ATOM      8  C   UNL     1       8.111  -5.848 -36.759  1.00  0.00     0.001 A 
ATOM      9  C   UNL     1       8.512  -5.023 -37.819  1.00  0.00     0.010 A 
ATOM     10  C   UNL     1       8.846  -3.686 -37.578  1.00  0.00     0.001 A 
ATOM     11  C   UNL     1       8.780  -3.168 -36.280  1.00  0.00     0.002 A 
ATOM     12  C   UNL     1       8.380  -3.984 -35.216  1.00  0.00     0.029 A 
ATOM     13  C   UNL     1       8.044  -5.323 -35.448  1.00  0.00     0.071 A 
ATOM     14  N   UNL     1       7.657  -6.116 -34.414  1.00  0.00    -0.248 NA
ENDROOT
TORSDOF 0
ENDMDL
MODEL 7
REMARK VINA RESULT:    -6.029     16.063     16.545
REMARK INTER + INTRA:          -6.029
REMARK INTER:                  -6.029
REMARK INTRA:                   0.000
REMARK UNBOUND:                 0.000
REMARK SMILES c1ccc2nc3ccccc3cc2c1
REMARK SMILES IDX 1 1 2 2 3 3 4 4 13 5 14 6 12 7 11 8 10 9 9 10 8 11 7 12 6 13
REMARK SMILES IDX 5 14
REMARK H PARENT
REMARK Flexibility Score: inf
ROOT
ATOM      1  C   UNL     1       7.393  -7.925 -36.336  1.00  0.00     0.001 A 
ATOM      2  C   UNL     1       7.757  -7.694 -35.004  1.00  0.00     0.002 A 
ATOM      3  C   UNL     1       8.123  -6.410 -34.588  1.00  0.00     0.029 A 
ATOM      4  C   UNL     1       8.126  -5.351 -35.503  1.00  0.00     0.071 A 
ATOM      5  C   UNL     1       7.758  -5.581 -36.849  1.00  0.00     0.001 A 
ATOM      6  C   UNL     1       7.393  -6.873 -37.257  1.00  0.00     0.010 A 
ATOM      7  C   UNL     1       7.766  -4.510 -37.750  1.00  0.00     0.020 A 
ATOM      8  C   UNL     1       8.136  -3.231 -37.311  1.00  0.00     0.001 A 
ATOM      9  C   UNL     1       8.155  -2.138 -38.189  1.00  0.00     0.010 A 
ATOM     10  C   UNL     1       8.529  -0.873 -37.724  1.00  0.00     0.001 A 
ATOM     11  C   UNL     1       8.884  -0.694 -36.383  1.00  0.00     0.002 A 
ATOM     12  C   UNL     1       8.869  -1.778 -35.500  1.00  0.00     0.029 A 
ATOM     13  C   UNL     1       8.496  -3.048 -35.956  1.00  0.00     0.071 A 
ATOM     14  N   UNL     1       8.481  -4.102 -35.097  1.00  0.00    -0.248 NA
ENDROOT
TORSDOF 0
ENDMDL
MODEL 8
REMARK VINA RESULT:    -6.026     16.758     17.532
REMARK INTER + INTRA:          -6.026
REMARK INTER:                  -6.026
REMARK INTRA:                   0.000
REMARK UNBOUND:                 0.000
REMARK SMILES c1ccc2nc3ccccc3cc2c1
REMARK SMILES IDX 1 1 2 2 3 3 4 4 13 5 14 6 12 7 11 8 10 9 9 10 8 11 7 12 6 13
REMARK SMILES IDX 5 14
REMARK H PARENT
REMARK Flexibility Score: inf
ROOT
ATOM      1  C   UNL     1       8.864  -3.684 -37.516  1.00  0.00     0.001 A 
ATOM      2  C   UNL     1       8.838  -3.195 -36.205  1.00  0.00     0.002 A 
ATOM      3  C   UNL     1       8.447  -4.027 -35.152  1.00  0.00     0.029 A 
ATOM      4  C   UNL     1       8.081  -5.355 -35.406  1.00  0.00     0.071 A 
ATOM      5  C   UNL     1       8.107  -5.851 -36.730  1.00  0.00     0.001 A 
ATOM      6  C   UNL     1       8.500  -5.008 -37.781  1.00  0.00     0.010 A 
ATOM      7  C   UNL     1       7.738  -7.181 -36.967  1.00  0.00     0.020 A 
ATOM      8  C   UNL     1       7.350  -7.998 -35.896  1.00  0.00     0.001 A 
ATOM      9  C   UNL     1       6.975  -9.334 -36.099  1.00  0.00     0.010 A 
ATOM     10  C   UNL     1       6.591 -10.127 -35.012  1.00  0.00     0.001 A 
ATOM     11  C   UNL     1       6.581  -9.591 -33.721  1.00  0.00     0.002 A 
ATOM     12  C   UNL     1       6.954  -8.260 -33.508  1.00  0.00     0.029 A 
ATOM     13  C   UNL     1       7.339  -7.458 -34.589  1.00  0.00     0.071 A 
ATOM     14  N   UNL     1       7.701  -6.164 -34.382  1.00  0.00    -0.248 NA
ENDROOT
TORSDOF 0
ENDMDL
MODEL 9
REMARK VINA RESULT:    -5.918     16.026     16.788
REMARK INTER + INTRA:          -5.918
REMARK INTER:                  -5.918
REMARK INTRA:                   0.000
REMARK UNBOUND:                 0.000
REMARK SMILES c1ccc2nc3ccccc3cc2c1
REMARK SMILES IDX 1 1 2 2 3 3 4 4 13 5 14 6 12 7 11 8 10 9 9 10 8 11 7 12 6 13
REMARK SMILES IDX 5 14
REMARK H PARENT
REMARK Flexibility Score: inf
ROOT
ATOM      1  C   UNL     1       8.867  -0.595 -36.505  1.00  0.00     0.001 A 
ATOM      2  C   UNL     1       8.498  -0.811 -37.838  1.00  0.00     0.002 A 
ATOM      3  C   UNL     1       8.141  -2.092 -38.269  1.00  0.00     0.029 A 
ATOM      4  C   UNL     1       8.151  -3.164 -37.368  1.00  0.00     0.071 A 
ATOM      5  C   UNL     1       8.523  -2.948 -36.021  1.00  0.00     0.001 A 
ATOM      6  C   UNL     1       8.880  -1.658 -35.597  1.00  0.00     0.010 A 
ATOM      7  C   UNL     1       8.527  -4.030 -35.133  1.00  0.00     0.020 A 
ATOM      8  C   UNL     1       8.165  -5.306 -35.587  1.00  0.00     0.001 A 
ATOM      9  C   UNL     1       8.159  -6.410 -34.723  1.00  0.00     0.010 A 
ATOM     10  C   UNL     1       7.794  -7.673 -35.203  1.00  0.00     0.001 A 
ATOM     11  C   UNL     1       7.433  -7.837 -36.544  1.00  0.00     0.002 A 
ATOM     12  C   UNL     1       7.436  -6.742 -37.414  1.00  0.00     0.029 A 
ATOM     13  C   UNL     1       7.800  -5.475 -36.943  1.00  0.00     0.071 A 
ATOM     14  N   UNL     1       7.803  -4.410 -37.788  1.00  0.00    -0.248 NA
ENDROOT
TORSDOF 0
ENDMDL
