MODEL 1
REMARK VINA RESULT:    -3.188      0.000      0.000
REMARK INTER + INTRA:          -3.851
REMARK INTER:                  -3.747
REMARK INTRA:                  -0.104
REMARK UNBOUND:                -0.104
REMARK SMILES O=C([O-])CCC(=O)[O-]
REMARK SMILES IDX 4 1 2 2 1 3 3 4 5 5 6 6 7 7 8 8
REMARK H PARENT
REMARK Flexibility Score: inf
ROOT
ATOM      1  C   UNL     1      32.580 -15.073 -19.155  1.00  0.00     0.059 C 
ENDROOT
BRANCH   1   2
ATOM      2  C   UNL     1      32.171 -14.596 -20.514  1.00  0.00     0.042 C 
ATOM      3  O   UNL     1      32.647 -13.527 -20.981  1.00  0.00    -0.550 OA
ATOM      4  O   UNL     1      31.234 -15.311 -21.250  1.00  0.00    -0.550 OA
ENDBRANCH   1   2
BRANCH   1   5
ATOM      5  C   UNL     1      34.105 -15.143 -19.017  1.00  0.00     0.059 C 
BRANCH   5   6
ATOM      6  C   UNL     1      34.630 -14.056 -18.129  1.00  0.00     0.042 C 
ATOM      7  O   UNL     1      34.541 -14.162 -16.877  1.00  0.00    -0.550 OA
ATOM      8  O   UNL     1      35.253 -12.945 -18.683  1.00  0.00    -0.550 OA
ENDBRANCH   5   6
ENDBRANCH   1   5
TORSDOF 3
ENDMDL
MODEL 2
REMARK VINA RESULT:    -3.181      0.138      3.968
REMARK INTER + INTRA:          -3.843
REMARK INTER:                  -3.746
REMARK INTRA:                  -0.097
REMARK UNBOUND:                -0.104
REMARK SMILES O=C([O-])CCC(=O)[O-]
REMARK SMILES IDX 4 1 2 2 1 3 3 4 5 5 6 6 7 7 8 8
REMARK H PARENT
REMARK Flexibility Score: inf
ROOT
ATOM      1  C   UNL     1      34.102 -15.276 -19.034  1.00  0.00     0.059 C 
ENDROOT
BRANCH   1   2
ATOM      2  C   UNL     1      34.640 -14.215 -18.123  1.00  0.00     0.042 C 
ATOM      3  O   UNL     1      34.515 -14.327 -16.875  1.00  0.00    -0.550 OA
ATOM      4  O   UNL     1      35.245 -13.083 -18.655  1.00  0.00    -0.550 OA
ENDBRANCH   1   2
BRANCH   1   5
ATOM      5  C   UNL     1      32.582 -15.163 -19.195  1.00  0.00     0.059 C 
BRANCH   5   6
ATOM      6  C   UNL     1      32.209 -14.606 -20.535  1.00  0.00     0.042 C 
ATOM      7  O   UNL     1      32.822 -13.610 -21.000  1.00  0.00    -0.550 OA
ATOM      8  O   UNL     1      31.211 -15.213 -21.287  1.00  0.00    -0.550 OA
ENDBRANCH   5   6
ENDBRANCH   1   5
TORSDOF 3
ENDMDL
MODEL 3
REMARK VINA RESULT:    -3.179      0.188      3.872
REMARK INTER + INTRA:          -3.841
REMARK INTER:                  -3.731
REMARK INTRA:                  -0.110
REMARK UNBOUND:                -0.104
REMARK SMILES O=C([O-])CCC(=O)[O-]
REMARK SMILES IDX 4 1 2 2 1 3 3 4 5 5 6 6 7 7 8 8
REMARK H PARENT
REMARK Flexibility Score: inf
ROOT
ATOM      1  C   UNL     1      34.126 -15.319 -19.056  1.00  0.00     0.059 C 
ENDROOT
BRANCH   1   2
ATOM      2  C   UNL     1      34.613 -14.255 -18.121  1.00  0.00     0.042 C 
ATOM      3  O   UNL     1      34.555 -14.431 -16.876  1.00  0.00    -0.550 OA
ATOM      4  O   UNL     1      35.093 -13.053 -18.625  1.00  0.00    -0.550 OA
ENDBRANCH   1   2
BRANCH   1   5
ATOM      5  C   UNL     1      32.598 -15.302 -19.183  1.00  0.00     0.059 C 
BRANCH   5   6
ATOM      6  C   UNL     1      32.160 -14.765 -20.511  1.00  0.00     0.042 C 
ATOM      7  O   UNL     1      31.290 -15.375 -21.186  1.00  0.00    -0.550 OA
ATOM      8  O   UNL     1      32.683 -13.568 -20.984  1.00  0.00    -0.550 OA
ENDBRANCH   5   6
ENDBRANCH   1   5
TORSDOF 3
ENDMDL
MODEL 4
REMARK VINA RESULT:    -3.131      1.407      1.727
REMARK INTER + INTRA:          -3.784
REMARK INTER:                  -3.661
REMARK INTRA:                  -0.123
REMARK UNBOUND:                -0.104
REMARK SMILES O=C([O-])CCC(=O)[O-]
REMARK SMILES IDX 4 1 2 2 1 3 3 4 5 5 6 6 7 7 8 8
REMARK H PARENT
REMARK Flexibility Score: inf
ROOT
ATOM      1  C   UNL     1      34.465 -15.263 -18.625  1.00  0.00     0.059 C 
ENDROOT
BRANCH   1   2
ATOM      2  C   UNL     1      33.193 -15.085 -19.397  1.00  0.00     0.042 C 
ATOM      3  O   UNL     1      32.935 -13.982 -19.947  1.00  0.00    -0.550 OA
ATOM      4  O   UNL     1      32.275 -16.125 -19.474  1.00  0.00    -0.550 OA
ENDBRANCH   1   2
BRANCH   1   5
ATOM      5  C   UNL     1      34.581 -14.242 -17.487  1.00  0.00     0.059 C 
BRANCH   5   6
ATOM      6  C   UNL     1      35.730 -13.305 -17.702  1.00  0.00     0.042 C 
ATOM      7  O   UNL     1      36.679 -13.265 -16.876  1.00  0.00    -0.550 OA
ATOM      8  O   UNL     1      35.773 -12.505 -18.837  1.00  0.00    -0.550 OA
ENDBRANCH   5   6
ENDBRANCH   1   5
TORSDOF 3
ENDMDL
MODEL 5
REMARK VINA RESULT:    -3.069     15.969     16.678
REMARK INTER + INTRA:          -3.711
REMARK INTER:                  -3.682
REMARK INTRA:                  -0.029
REMARK UNBOUND:                -0.104
REMARK SMILES O=C([O-])CCC(=O)[O-]
REMARK SMILES IDX 4 1 2 2 1 3 3 4 5 5 6 6 7 7 8 8
REMARK H PARENT
REMARK Flexibility Score: inf
ROOT
ATOM      1  C   UNL     1      22.207  -1.649 -18.412  1.00  0.00     0.059 C 
ENDROOT
BRANCH   1   2
ATOM      2  C   UNL     1      20.775  -1.590 -18.849  1.00  0.00     0.042 C 
ATOM      3  O   UNL     1      20.234  -0.482 -19.103  1.00  0.00    -0.550 OA
ATOM      4  O   UNL     1      20.026  -2.757 -18.935  1.00  0.00    -0.550 OA
ENDBRANCH   1   2
BRANCH   1   5
ATOM      5  C   UNL     1      23.142  -1.958 -19.586  1.00  0.00     0.059 C 
BRANCH   5   6
ATOM      6  C   UNL     1      24.582  -1.815 -19.198  1.00  0.00     0.042 C 
ATOM      7  O   UNL     1      25.010  -0.722 -18.743  1.00  0.00    -0.550 OA
ATOM      8  O   UNL     1      25.442  -2.901 -19.300  1.00  0.00    -0.550 OA
ENDBRANCH   5   6
ENDBRANCH   1   5
TORSDOF 3
ENDMDL
MODEL 6
REMARK VINA RESULT:    -3.029     15.963     16.953
REMARK INTER + INTRA:          -3.664
REMARK INTER:                  -3.636
REMARK INTRA:                  -0.027
REMARK UNBOUND:                -0.104
REMARK SMILES O=C([O-])CCC(=O)[O-]
REMARK SMILES IDX 4 1 2 2 1 3 3 4 5 5 6 6 7 7 8 8
REMARK H PARENT
REMARK Flexibility Score: inf
ROOT
ATOM      1  C   UNL     1      23.157  -1.897 -19.565  1.00  0.00     0.059 C 
ENDROOT
BRANCH   1   2
ATOM      2  C   UNL     1      24.582  -1.798 -19.112  1.00  0.00     0.042 C 
ATOM      3  O   UNL     1      25.043  -0.698 -18.707  1.00  0.00    -0.550 OA
ATOM      4  O   UNL     1      25.411  -2.911 -19.176  1.00  0.00    -0.550 OA
ENDBRANCH   1   2
BRANCH   1   5
ATOM      5  C   UNL     1      22.183  -1.801 -18.386  1.00  0.00     0.059 C 
BRANCH   5   6
ATOM      6  C   UNL     1      20.762  -1.694 -18.851  1.00  0.00     0.042 C 
ATOM      7  O   UNL     1      20.038  -2.721 -18.919  1.00  0.00    -0.550 OA
ATOM      8  O   UNL     1      20.226  -0.452 -19.170  1.00  0.00    -0.550 OA
ENDBRANCH   5   6
ENDBRANCH   1   5
TORSDOF 3
ENDMDL
MODEL 7
REMARK VINA RESULT:    -3.002      1.438      4.120
REMARK INTER + INTRA:          -3.632
REMARK INTER:                  -3.595
REMARK INTRA:                  -0.037
REMARK UNBOUND:                -0.104
REMARK SMILES O=C([O-])CCC(=O)[O-]
REMARK SMILES IDX 4 1 2 2 1 3 3 4 5 5 6 6 7 7 8 8
REMARK H PARENT
REMARK Flexibility Score: inf
ROOT
ATOM      1  C   UNL     1      32.648 -15.011 -19.124  1.00  0.00     0.059 C 
ENDROOT
BRANCH   1   2
ATOM      2  C   UNL     1      34.043 -15.267 -18.639  1.00  0.00     0.042 C 
ATOM      3  O   UNL     1      34.765 -16.125 -19.212  1.00  0.00    -0.550 OA
ATOM      4  O   UNL     1      34.529 -14.587 -17.530  1.00  0.00    -0.550 OA
ENDBRANCH   1   2
BRANCH   1   5
ATOM      5  C   UNL     1      32.629 -14.006 -20.281  1.00  0.00     0.059 C 
BRANCH   5   6
ATOM      6  C   UNL     1      31.410 -14.170 -21.135  1.00  0.00     0.042 C 
ATOM      7  O   UNL     1      31.077 -15.310 -21.553  1.00  0.00    -0.550 OA
ATOM      8  O   UNL     1      30.617 -13.069 -21.436  1.00  0.00    -0.550 OA
ENDBRANCH   5   6
ENDBRANCH   1   5
TORSDOF 3
ENDMDL
MODEL 8
REMARK VINA RESULT:    -2.987      7.392      8.500
REMARK INTER + INTRA:          -3.615
REMARK INTER:                  -3.505
REMARK INTRA:                  -0.110
REMARK UNBOUND:                -0.104
REMARK SMILES O=C([O-])CCC(=O)[O-]
REMARK SMILES IDX 4 1 2 2 1 3 3 4 5 5 6 6 7 7 8 8
REMARK H PARENT
REMARK Flexibility Score: inf
ROOT
ATOM      1  C   UNL     1      24.945 -13.875 -22.300  1.00  0.00     0.059 C 
ENDROOT
BRANCH   1   2
ATOM      2  C   UNL     1      24.605 -13.672 -23.744  1.00  0.00     0.042 C 
ATOM      3  O   UNL     1      24.837 -12.566 -24.301  1.00  0.00    -0.550 OA
ATOM      4  O   UNL     1      23.994 -14.690 -24.465  1.00  0.00    -0.550 OA
ENDBRANCH   1   2
BRANCH   1   5
ATOM      5  C   UNL     1      26.426 -13.593 -22.024  1.00  0.00     0.059 C 
BRANCH   5   6
ATOM      6  C   UNL     1      26.603 -12.439 -21.085  1.00  0.00     0.042 C 
ATOM      7  O   UNL     1      26.759 -12.643 -19.852  1.00  0.00    -0.550 OA
ATOM      8  O   UNL     1      26.636 -11.140 -21.577  1.00  0.00    -0.550 OA
ENDBRANCH   5   6
ENDBRANCH   1   5
TORSDOF 3
ENDMDL
MODEL 9
REMARK VINA RESULT:    -2.984      7.343      9.305
REMARK INTER + INTRA:          -3.611
REMARK INTER:                  -3.500
REMARK INTRA:                  -0.111
REMARK UNBOUND:                -0.104
REMARK SMILES O=C([O-])CCC(=O)[O-]
REMARK SMILES IDX 4 1 2 2 1 3 3 4 5 5 6 6 7 7 8 8
REMARK H PARENT
REMARK Flexibility Score: inf
ROOT
ATOM      1  C   UNL     1      26.408 -13.609 -22.031  1.00  0.00     0.059 C 
ENDROOT
BRANCH   1   2
ATOM      2  C   UNL     1      26.616 -12.445 -21.111  1.00  0.00     0.042 C 
ATOM      3  O   UNL     1      26.616 -11.270 -21.564  1.00  0.00    -0.550 OA
ATOM      4  O   UNL     1      26.852 -12.661 -19.759  1.00  0.00    -0.550 OA
ENDBRANCH   1   2
BRANCH   1   5
ATOM      5  C   UNL     1      24.919 -13.873 -22.278  1.00  0.00     0.059 C 
BRANCH   5   6
ATOM      6  C   UNL     1      24.563 -13.723 -23.725  1.00  0.00     0.042 C 
ATOM      7  O   UNL     1      23.972 -14.654 -24.333  1.00  0.00    -0.550 OA
ATOM      8  O   UNL     1      24.847 -12.538 -24.392  1.00  0.00    -0.550 OA
ENDBRANCH   5   6
ENDBRANCH   1   5
TORSDOF 3
ENDMDL
