MODEL 1
REMARK VINA RESULT:    -4.959      0.000      0.000
REMARK INTER + INTRA:          -5.249
REMARK INTER:                  -5.249
REMARK INTRA:                   0.000
REMARK UNBOUND:                 0.000
REMARK SMILES Cc1cc(O)c(C)c(C)c1O
REMARK SMILES IDX 1 1 2 2 3 3 4 4 6 5 8 6 10 7 9 8 7 9 11 10 5 12
REMARK H PARENT 11 11 5 13
REMARK Flexibility Score: inf
ROOT
ATOM      1  C   UNL     1      24.781   2.627  20.732  1.00  0.00     0.048 C 
ATOM      2  C   UNL     1      24.701   3.658  21.827  1.00  0.00    -0.005 A 
ATOM      3  C   UNL     1      25.781   4.520  22.034  1.00  0.00     0.053 A 
ATOM      4  C   UNL     1      25.755   5.482  23.042  1.00  0.00     0.119 A 
ATOM      5  C   UNL     1      24.630   5.586  23.894  1.00  0.00    -0.003 A 
ATOM      6  C   UNL     1      23.499   4.759  23.653  1.00  0.00    -0.002 A 
ATOM      7  C   UNL     1      23.551   3.778  22.635  1.00  0.00     0.121 A 
ATOM      8  C   UNL     1      22.246   4.896  24.490  1.00  0.00     0.049 C 
ATOM      9  C   UNL     1      24.649   6.596  25.021  1.00  0.00     0.049 C 
ENDROOT
BRANCH   7  10
ATOM     10  O   UNL     1      22.450   2.935  22.444  1.00  0.00    -0.507 OA
ATOM     11  H   UNL     1      22.213   2.176  23.070  1.00  0.00     0.293 HD
ENDBRANCH   7  10
BRANCH   4  12
ATOM     12  O   UNL     1      26.863   6.324  23.163  1.00  0.00    -0.508 OA
ATOM     13  H   UNL     1      27.004   6.958  23.939  1.00  0.00     0.293 HD
ENDBRANCH   4  12
TORSDOF 2
ENDMDL
MODEL 2
REMARK VINA RESULT:    -4.911      4.163      5.424
REMARK INTER + INTRA:          -5.198
REMARK INTER:                  -5.198
REMARK INTRA:                   0.000
REMARK UNBOUND:                 0.000
REMARK SMILES Cc1cc(O)c(C)c(C)c1O
REMARK SMILES IDX 1 1 2 2 3 3 4 4 6 5 8 6 10 7 9 8 7 9 11 10 5 12
REMARK H PARENT 11 11 5 13
REMARK Flexibility Score: inf
ROOT
ATOM      1  C   UNL     1      23.135   9.705  22.172  1.00  0.00     0.048 C 
ATOM      2  C   UNL     1      24.011   8.807  21.340  1.00  0.00    -0.005 A 
ATOM      3  C   UNL     1      25.176   8.276  21.902  1.00  0.00     0.053 A 
ATOM      4  C   UNL     1      26.021   7.448  21.165  1.00  0.00     0.119 A 
ATOM      5  C   UNL     1      25.721   7.148  19.816  1.00  0.00    -0.003 A 
ATOM      6  C   UNL     1      24.506   7.627  19.252  1.00  0.00    -0.002 A 
ATOM      7  C   UNL     1      23.669   8.479  20.011  1.00  0.00     0.121 A 
ATOM      8  C   UNL     1      24.109   7.261  17.839  1.00  0.00     0.049 C 
ATOM      9  C   UNL     1      26.685   6.297  19.017  1.00  0.00     0.049 C 
ENDROOT
BRANCH   7  10
ATOM     10  O   UNL     1      22.504   8.988  19.425  1.00  0.00    -0.507 OA
ATOM     11  H   UNL     1      21.710   8.414  19.172  1.00  0.00     0.293 HD
ENDBRANCH   7  10
BRANCH   4  12
ATOM     12  O   UNL     1      27.149   6.936  21.811  1.00  0.00    -0.508 OA
ATOM     13  H   UNL     1      27.995   7.469  21.970  1.00  0.00     0.293 HD
ENDBRANCH   4  12
TORSDOF 2
ENDMDL
MODEL 3
REMARK VINA RESULT:    -4.905      1.159      4.375
REMARK INTER + INTRA:          -5.191
REMARK INTER:                  -5.191
REMARK INTRA:                   0.000
REMARK UNBOUND:                 0.000
REMARK SMILES Cc1cc(O)c(C)c(C)c1O
REMARK SMILES IDX 1 1 2 2 3 3 4 4 6 5 8 6 10 7 9 8 7 9 11 10 5 12
REMARK H PARENT 11 11 5 13
REMARK Flexibility Score: inf
ROOT
ATOM      1  C   UNL     1      24.395   6.378  25.250  1.00  0.00     0.048 C 
ATOM      2  C   UNL     1      24.008   5.457  24.124  1.00  0.00    -0.005 A 
ATOM      3  C   UNL     1      22.889   4.631  24.271  1.00  0.00     0.053 A 
ATOM      4  C   UNL     1      22.500   3.756  23.259  1.00  0.00     0.119 A 
ATOM      5  C   UNL     1      23.253   3.672  22.065  1.00  0.00    -0.003 A 
ATOM      6  C   UNL     1      24.354   4.552  21.876  1.00  0.00    -0.002 A 
ATOM      7  C   UNL     1      24.743   5.422  22.921  1.00  0.00     0.121 A 
ATOM      8  C   UNL     1      25.135   4.550  20.580  1.00  0.00     0.049 C 
ATOM      9  C   UNL     1      22.848   2.670  21.006  1.00  0.00     0.049 C 
ENDROOT
BRANCH   7  10
ATOM     10  O   UNL     1      25.862   6.245  22.742  1.00  0.00    -0.507 OA
ATOM     11  H   UNL     1      25.952   7.164  23.157  1.00  0.00     0.293 HD
ENDBRANCH   7  10
BRANCH   4  12
ATOM     12  O   UNL     1      21.352   2.987  23.474  1.00  0.00    -0.508 OA
ATOM     13  H   UNL     1      20.828   2.992  24.340  1.00  0.00     0.293 HD
ENDBRANCH   4  12
TORSDOF 2
ENDMDL
MODEL 4
REMARK VINA RESULT:    -4.898      4.517      5.102
REMARK INTER + INTRA:          -5.185
REMARK INTER:                  -5.185
REMARK INTRA:                   0.000
REMARK UNBOUND:                 0.000
REMARK SMILES Cc1cc(O)c(C)c(C)c1O
REMARK SMILES IDX 1 1 2 2 3 3 4 4 6 5 8 6 10 7 9 8 7 9 11 10 5 12
REMARK H PARENT 11 11 5 13
REMARK Flexibility Score: inf
ROOT
ATOM      1  C   UNL     1      26.699   6.371  18.876  1.00  0.00     0.048 C 
ATOM      2  C   UNL     1      25.460   7.083  19.348  1.00  0.00    -0.005 A 
ATOM      3  C   UNL     1      24.549   7.568  18.405  1.00  0.00     0.053 A 
ATOM      4  C   UNL     1      23.394   8.242  18.796  1.00  0.00     0.119 A 
ATOM      5  C   UNL     1      23.134   8.469  20.168  1.00  0.00    -0.003 A 
ATOM      6  C   UNL     1      24.019   7.925  21.140  1.00  0.00    -0.002 A 
ATOM      7  C   UNL     1      25.194   7.257  20.722  1.00  0.00     0.121 A 
ATOM      8  C   UNL     1      23.734   8.075  22.618  1.00  0.00     0.049 C 
ATOM      9  C   UNL     1      21.906   9.257  20.567  1.00  0.00     0.049 C 
ENDROOT
BRANCH   7  10
ATOM     10  O   UNL     1      26.084   6.774  21.690  1.00  0.00    -0.507 OA
ATOM     11  H   UNL     1      26.671   5.962  21.552  1.00  0.00     0.293 HD
ENDBRANCH   7  10
BRANCH   4  12
ATOM     12  O   UNL     1      22.521   8.667  17.791  1.00  0.00    -0.508 OA
ATOM     13  H   UNL     1      21.545   8.402  17.747  1.00  0.00     0.293 HD
ENDBRANCH   4  12
TORSDOF 2
ENDMDL
MODEL 5
REMARK VINA RESULT:    -4.887      1.761      3.025
REMARK INTER + INTRA:          -5.172
REMARK INTER:                  -5.172
REMARK INTRA:                   0.000
REMARK UNBOUND:                 0.000
REMARK SMILES Cc1cc(O)c(C)c(C)c1O
REMARK SMILES IDX 1 1 2 2 3 3 4 4 6 5 8 6 10 7 9 8 7 9 11 10 5 12
REMARK H PARENT 11 11 5 13
REMARK Flexibility Score: inf
ROOT
ATOM      1  C   UNL     1      22.551   2.631  20.910  1.00  0.00     0.048 C 
ATOM      2  C   UNL     1      23.023   3.531  22.021  1.00  0.00    -0.005 A 
ATOM      3  C   UNL     1      22.189   3.756  23.120  1.00  0.00     0.053 A 
ATOM      4  C   UNL     1      22.582   4.590  24.165  1.00  0.00     0.119 A 
ATOM      5  C   UNL     1      23.834   5.246  24.118  1.00  0.00    -0.003 A 
ATOM      6  C   UNL     1      24.719   4.975  23.038  1.00  0.00    -0.002 A 
ATOM      7  C   UNL     1      24.296   4.138  21.979  1.00  0.00     0.121 A 
ATOM      8  C   UNL     1      26.099   5.593  22.992  1.00  0.00     0.049 C 
ATOM      9  C   UNL     1      24.213   6.195  25.235  1.00  0.00     0.049 C 
ENDROOT
BRANCH   7  10
ATOM     10  O   UNL     1      25.156   3.923  20.895  1.00  0.00    -0.507 OA
ATOM     11  H   UNL     1      24.997   3.217  20.188  1.00  0.00     0.293 HD
ENDBRANCH   7  10
BRANCH   4  12
ATOM     12  O   UNL     1      21.701   4.737  25.241  1.00  0.00    -0.508 OA
ATOM     13  H   UNL     1      20.694   4.690  25.152  1.00  0.00     0.293 HD
ENDBRANCH   4  12
TORSDOF 2
ENDMDL
MODEL 6
REMARK VINA RESULT:    -4.864      4.263      5.134
REMARK INTER + INTRA:          -5.148
REMARK INTER:                  -5.148
REMARK INTRA:                   0.000
REMARK UNBOUND:                 0.000
REMARK SMILES Cc1cc(O)c(C)c(C)c1O
REMARK SMILES IDX 1 1 2 2 3 3 4 4 6 5 8 6 10 7 9 8 7 9 11 10 5 12
REMARK H PARENT 11 11 5 13
REMARK Flexibility Score: inf
ROOT
ATOM      1  C   UNL     1      28.349   6.332  21.267  1.00  0.00     0.048 C 
ATOM      2  C   UNL     1      27.034   6.834  20.732  1.00  0.00    -0.005 A 
ATOM      3  C   UNL     1      26.583   6.379  19.490  1.00  0.00     0.053 A 
ATOM      4  C   UNL     1      25.377   6.825  18.952  1.00  0.00     0.119 A 
ATOM      5  C   UNL     1      24.595   7.773  19.652  1.00  0.00    -0.003 A 
ATOM      6  C   UNL     1      25.010   8.195  20.945  1.00  0.00    -0.002 A 
ATOM      7  C   UNL     1      26.244   7.743  21.467  1.00  0.00     0.121 A 
ATOM      8  C   UNL     1      24.161   9.145  21.760  1.00  0.00     0.049 C 
ATOM      9  C   UNL     1      23.321   8.290  19.020  1.00  0.00     0.049 C 
ENDROOT
BRANCH   7  10
ATOM     10  O   UNL     1      26.667   8.208  22.719  1.00  0.00    -0.507 OA
ATOM     11  H   UNL     1      26.076   8.740  23.345  1.00  0.00     0.293 HD
ENDBRANCH   7  10
BRANCH   4  12
ATOM     12  O   UNL     1      24.984   6.297  17.719  1.00  0.00    -0.508 OA
ATOM     13  H   UNL     1      24.900   6.848  16.874  1.00  0.00     0.293 HD
ENDBRANCH   4  12
TORSDOF 2
ENDMDL
MODEL 7
REMARK VINA RESULT:    -4.843      2.784      3.586
REMARK INTER + INTRA:          -5.126
REMARK INTER:                  -5.126
REMARK INTRA:                   0.000
REMARK UNBOUND:                 0.000
REMARK SMILES Cc1cc(O)c(C)c(C)c1O
REMARK SMILES IDX 1 1 2 2 3 3 4 4 6 5 8 6 10 7 9 8 7 9 11 10 5 12
REMARK H PARENT 11 11 5 13
REMARK Flexibility Score: inf
ROOT
ATOM      1  C   UNL     1      22.963   4.906  24.768  1.00  0.00     0.048 C 
ATOM      2  C   UNL     1      23.565   6.046  23.992  1.00  0.00    -0.005 A 
ATOM      3  C   UNL     1      24.941   6.052  23.744  1.00  0.00     0.053 A 
ATOM      4  C   UNL     1      25.543   7.092  23.038  1.00  0.00     0.119 A 
ATOM      5  C   UNL     1      24.766   8.181  22.577  1.00  0.00    -0.003 A 
ATOM      6  C   UNL     1      23.356   8.155  22.765  1.00  0.00    -0.002 A 
ATOM      7  C   UNL     1      22.766   7.098  23.498  1.00  0.00     0.121 A 
ATOM      8  C   UNL     1      22.480   9.259  22.216  1.00  0.00     0.049 C 
ATOM      9  C   UNL     1      25.450   9.329  21.868  1.00  0.00     0.049 C 
ENDROOT
BRANCH   7  10
ATOM     10  O   UNL     1      21.384   7.113  23.723  1.00  0.00    -0.507 OA
ATOM     11  H   UNL     1      20.966   7.004  24.638  1.00  0.00     0.293 HD
ENDBRANCH   7  10
BRANCH   4  12
ATOM     12  O   UNL     1      26.919   7.007  22.808  1.00  0.00    -0.508 OA
ATOM     13  H   UNL     1      27.398   7.518  22.077  1.00  0.00     0.293 HD
ENDBRANCH   4  12
TORSDOF 2
ENDMDL
MODEL 8
REMARK VINA RESULT:    -4.823      2.253      3.603
REMARK INTER + INTRA:          -5.105
REMARK INTER:                  -5.105
REMARK INTRA:                   0.000
REMARK UNBOUND:                 0.000
REMARK SMILES Cc1cc(O)c(C)c(C)c1O
REMARK SMILES IDX 1 1 2 2 3 3 4 4 6 5 8 6 10 7 9 8 7 9 11 10 5 12
REMARK H PARENT 11 11 5 13
REMARK Flexibility Score: inf
ROOT
ATOM      1  C   UNL     1      22.278   5.457  23.917  1.00  0.00     0.048 C 
ATOM      2  C   UNL     1      23.712   5.892  24.054  1.00  0.00    -0.005 A 
ATOM      3  C   UNL     1      24.187   6.297  25.305  1.00  0.00     0.053 A 
ATOM      4  C   UNL     1      25.505   6.717  25.476  1.00  0.00     0.119 A 
ATOM      5  C   UNL     1      26.385   6.761  24.370  1.00  0.00    -0.003 A 
ATOM      6  C   UNL     1      25.935   6.289  23.106  1.00  0.00    -0.002 A 
ATOM      7  C   UNL     1      24.589   5.882  22.949  1.00  0.00     0.121 A 
ATOM      8  C   UNL     1      26.869   6.243  21.918  1.00  0.00     0.049 C 
ATOM      9  C   UNL     1      27.794   7.278  24.567  1.00  0.00     0.049 C 
ENDROOT
BRANCH   7  10
ATOM     10  O   UNL     1      24.144   5.472  21.687  1.00  0.00    -0.507 OA
ATOM     11  H   UNL     1      23.189   5.580  21.368  1.00  0.00     0.293 HD
ENDBRANCH   7  10
BRANCH   4  12
ATOM     12  O   UNL     1      25.907   7.078  26.766  1.00  0.00    -0.508 OA
ATOM     13  H   UNL     1      26.706   6.673  27.237  1.00  0.00     0.293 HD
ENDBRANCH   4  12
TORSDOF 2
ENDMDL
MODEL 9
REMARK VINA RESULT:    -4.794      3.718      5.059
REMARK INTER + INTRA:          -5.074
REMARK INTER:                  -5.074
REMARK INTRA:                   0.000
REMARK UNBOUND:                 0.000
REMARK SMILES Cc1cc(O)c(C)c(C)c1O
REMARK SMILES IDX 1 1 2 2 3 3 4 4 6 5 8 6 10 7 9 8 7 9 11 10 5 12
REMARK H PARENT 11 11 5 13
REMARK Flexibility Score: inf
ROOT
ATOM      1  C   UNL     1      20.097   8.615  22.250  1.00  0.00     0.048 C 
ATOM      2  C   UNL     1      21.515   8.235  22.584  1.00  0.00    -0.005 A 
ATOM      3  C   UNL     1      21.752   7.106  23.373  1.00  0.00     0.053 A 
ATOM      4  C   UNL     1      23.047   6.723  23.715  1.00  0.00     0.119 A 
ATOM      5  C   UNL     1      24.153   7.492  23.283  1.00  0.00    -0.003 A 
ATOM      6  C   UNL     1      23.930   8.605  22.426  1.00  0.00    -0.002 A 
ATOM      7  C   UNL     1      22.607   8.988  22.103  1.00  0.00     0.121 A 
ATOM      8  C   UNL     1      25.090   9.405  21.877  1.00  0.00     0.049 C 
ATOM      9  C   UNL     1      25.546   7.093  23.718  1.00  0.00     0.049 C 
ENDROOT
BRANCH   7  10
ATOM     10  O   UNL     1      22.400  10.118  21.303  1.00  0.00    -0.507 OA
ATOM     11  H   UNL     1      23.117  10.524  20.715  1.00  0.00     0.293 HD
ENDBRANCH   7  10
BRANCH   4  12
ATOM     12  O   UNL     1      23.199   5.564  24.482  1.00  0.00    -0.508 OA
ATOM     13  H   UNL     1      23.488   4.673  24.100  1.00  0.00     0.293 HD
ENDBRANCH   4  12
TORSDOF 2
ENDMDL
