MODEL 1
REMARK VINA RESULT:    -1.453      0.000      0.000
REMARK INTER + INTRA:          -3.513
REMARK INTER:                  -2.218
REMARK INTRA:                  -1.295
REMARK UNBOUND:                -1.295
REMARK SMILES CCCCCCCCCCC(=O)[O-]
REMARK SMILES IDX 7 1 8 2 9 3 10 4 11 5 12 6 13 7 6 8 5 9 4 10 3 11 2 12 1 13
REMARK H PARENT
REMARK Flexibility Score: inf
ROOT
ATOM      1  C   UNL     1     139.653  55.081 -12.586  1.00  0.00     0.000 C 
ENDROOT
BRANCH   1   2
ATOM      2  C   UNL     1     139.505  56.612 -12.531  1.00  0.00     0.000 C 
BRANCH   2   3
ATOM      3  C   UNL     1     139.123  57.125 -11.132  1.00  0.00     0.006 C 
BRANCH   3   4
ATOM      4  C   UNL     1     138.922  55.981 -10.130  1.00  0.00     0.053 C 
BRANCH   4   5
ATOM      5  C   UNL     1     138.077  56.400  -8.967  1.00  0.00     0.041 C 
ATOM      6  O   UNL     1     136.861  56.682  -9.134  1.00  0.00    -0.550 OA
ATOM      7  O   UNL     1     138.640  56.507  -7.702  1.00  0.00    -0.550 OA
ENDBRANCH   4   5
ENDBRANCH   3   4
ENDBRANCH   2   3
ENDBRANCH   1   2
BRANCH   1   8
ATOM      8  C   UNL     1     141.009  54.572 -13.113  1.00  0.00     0.000 C 
BRANCH   8   9
ATOM      9  C   UNL     1     142.062  55.665 -13.372  1.00  0.00    -0.000 C 
BRANCH   9  10
ATOM     10  C   UNL     1     143.098  55.774 -12.243  1.00  0.00    -0.000 C 
BRANCH  10  11
ATOM     11  C   UNL     1     142.885  57.052 -11.424  1.00  0.00    -0.000 C 
BRANCH  11  12
ATOM     12  C   UNL     1     142.637  56.724  -9.947  1.00  0.00    -0.003 C 
ATOM     13  C   UNL     1     142.536  55.218  -9.725  1.00  0.00     0.004 C 
ENDBRANCH  11  12
ENDBRANCH  10  11
ENDBRANCH   9  10
ENDBRANCH   8   9
ENDBRANCH   1   8
TORSDOF 9
ENDMDL
MODEL 2
REMARK VINA RESULT:    -1.445      3.083      4.444
REMARK INTER + INTRA:          -3.500
REMARK INTER:                  -2.120
REMARK INTRA:                  -1.381
REMARK UNBOUND:                -1.295
REMARK SMILES CCCCCCCCCCC(=O)[O-]
REMARK SMILES IDX 7 1 8 2 9 3 10 4 11 5 12 6 13 7 6 8 5 9 4 10 3 11 2 12 1 13
REMARK H PARENT
REMARK Flexibility Score: inf
ROOT
ATOM      1  C   UNL     1     139.854  54.257 -10.488  1.00  0.00     0.000 C 
ENDROOT
BRANCH   1   2
ATOM      2  C   UNL     1     140.942  53.395 -11.152  1.00  0.00     0.000 C 
BRANCH   2   3
ATOM      3  C   UNL     1     140.559  52.936 -12.570  1.00  0.00     0.006 C 
BRANCH   3   4
ATOM      4  C   UNL     1     139.106  53.285 -12.918  1.00  0.00     0.053 C 
BRANCH   4   5
ATOM      5  C   UNL     1     138.258  52.059 -13.064  1.00  0.00     0.041 C 
ATOM      6  O   UNL     1     137.609  51.858 -14.124  1.00  0.00    -0.550 OA
ATOM      7  O   UNL     1     138.161  51.152 -12.016  1.00  0.00    -0.550 OA
ENDBRANCH   4   5
ENDBRANCH   3   4
ENDBRANCH   2   3
ENDBRANCH   1   2
BRANCH   1   8
ATOM      8  C   UNL     1     140.220  55.743 -10.297  1.00  0.00     0.000 C 
BRANCH   8   9
ATOM      9  C   UNL     1     139.349  56.738 -11.085  1.00  0.00    -0.000 C 
BRANCH   9  10
ATOM     10  C   UNL     1     139.780  56.877 -12.552  1.00  0.00    -0.000 C 
BRANCH  10  11
ATOM     11  C   UNL     1     141.293  57.099 -12.660  1.00  0.00    -0.000 C 
BRANCH  11  12
ATOM     12  C   UNL     1     141.899  56.230 -13.768  1.00  0.00    -0.003 C 
ATOM     13  C   UNL     1     143.178  55.545 -13.294  1.00  0.00     0.004 C 
ENDBRANCH  11  12
ENDBRANCH  10  11
ENDBRANCH   9  10
ENDBRANCH   8   9
ENDBRANCH   1   8
TORSDOF 9
ENDMDL
MODEL 3
REMARK VINA RESULT:    -1.349      2.833      4.285
REMARK INTER + INTRA:          -3.355
REMARK INTER:                  -1.984
REMARK INTRA:                  -1.371
REMARK UNBOUND:                -1.295
REMARK SMILES CCCCCCCCCCC(=O)[O-]
REMARK SMILES IDX 7 1 8 2 9 3 10 4 11 5 12 6 13 7 6 8 5 9 4 10 3 11 2 12 1 13
REMARK H PARENT
REMARK Flexibility Score: inf
ROOT
ATOM      1  C   UNL     1     142.314  53.830 -10.837  1.00  0.00     0.000 C 
ENDROOT
BRANCH   1   2
ATOM      2  C   UNL     1     142.563  53.320 -12.268  1.00  0.00     0.000 C 
BRANCH   2   3
ATOM      3  C   UNL     1     141.271  53.212 -13.096  1.00  0.00     0.006 C 
BRANCH   3   4
ATOM      4  C   UNL     1     140.050  52.889 -12.226  1.00  0.00     0.053 C 
BRANCH   4   5
ATOM      5  C   UNL     1     138.797  52.784 -13.040  1.00  0.00     0.041 C 
ATOM      6  O   UNL     1     138.532  53.653 -13.912  1.00  0.00    -0.550 OA
ATOM      7  O   UNL     1     137.907  51.742 -12.815  1.00  0.00    -0.550 OA
ENDBRANCH   4   5
ENDBRANCH   3   4
ENDBRANCH   2   3
ENDBRANCH   1   2
BRANCH   1   8
ATOM      8  C   UNL     1     143.134  55.070 -10.432  1.00  0.00     0.000 C 
BRANCH   8   9
ATOM      9  C   UNL     1     143.279  56.145 -11.524  1.00  0.00    -0.000 C 
BRANCH   9  10
ATOM     10  C   UNL     1     142.096  57.124 -11.558  1.00  0.00    -0.000 C 
BRANCH  10  11
ATOM     11  C   UNL     1     141.394  57.089 -12.920  1.00  0.00    -0.000 C 
BRANCH  11  12
ATOM     12  C   UNL     1     139.938  56.632 -12.778  1.00  0.00    -0.003 C 
ATOM     13  C   UNL     1     139.531  56.534 -11.311  1.00  0.00     0.004 C 
ENDBRANCH  11  12
ENDBRANCH  10  11
ENDBRANCH   9  10
ENDBRANCH   8   9
ENDBRANCH   1   8
TORSDOF 9
ENDMDL
MODEL 4
REMARK VINA RESULT:    -1.315      3.433      4.596
REMARK INTER + INTRA:          -3.302
REMARK INTER:                  -2.044
REMARK INTRA:                  -1.258
REMARK UNBOUND:                -1.295
REMARK SMILES CCCCCCCCCCC(=O)[O-]
REMARK SMILES IDX 7 1 8 2 9 3 10 4 11 5 12 6 13 7 6 8 5 9 4 10 3 11 2 12 1 13
REMARK H PARENT
REMARK Flexibility Score: inf
ROOT
ATOM      1  C   UNL     1     140.577  54.712 -12.928  1.00  0.00     0.000 C 
ENDROOT
BRANCH   1   2
ATOM      2  C   UNL     1     139.219  54.008 -13.099  1.00  0.00     0.000 C 
BRANCH   2   3
ATOM      3  C   UNL     1     139.116  52.704 -12.288  1.00  0.00     0.006 C 
BRANCH   3   4
ATOM      4  C   UNL     1     140.493  52.176 -11.865  1.00  0.00     0.053 C 
BRANCH   4   5
ATOM      5  C   UNL     1     140.408  50.793 -11.296  1.00  0.00     0.041 C 
ATOM      6  O   UNL     1     140.141  49.814 -12.043  1.00  0.00    -0.550 OA
ATOM      7  O   UNL     1     140.596  50.589  -9.935  1.00  0.00    -0.550 OA
ENDBRANCH   4   5
ENDBRANCH   3   4
ENDBRANCH   2   3
ENDBRANCH   1   2
BRANCH   1   8
ATOM      8  C   UNL     1     140.531  56.251 -13.003  1.00  0.00     0.000 C 
BRANCH   8   9
ATOM      9  C   UNL     1     139.481  56.919 -12.096  1.00  0.00    -0.000 C 
BRANCH   9  10
ATOM     10  C   UNL     1     139.783  56.739 -10.601  1.00  0.00    -0.000 C 
BRANCH  10  11
ATOM     11  C   UNL     1     138.569  56.163  -9.863  1.00  0.00    -0.000 C 
BRANCH  11  12
ATOM     12  C   UNL     1     138.895  54.795  -9.252  1.00  0.00    -0.003 C 
ATOM     13  C   UNL     1     140.401  54.596  -9.114  1.00  0.00     0.004 C 
ENDBRANCH  11  12
ENDBRANCH  10  11
ENDBRANCH   9  10
ENDBRANCH   8   9
ENDBRANCH   1   8
TORSDOF 9
ENDMDL
MODEL 5
REMARK VINA RESULT:    -1.313      1.611      2.998
REMARK INTER + INTRA:          -3.299
REMARK INTER:                  -2.152
REMARK INTRA:                  -1.147
REMARK UNBOUND:                -1.295
REMARK SMILES CCCCCCCCCCC(=O)[O-]
REMARK SMILES IDX 7 1 8 2 9 3 10 4 11 5 12 6 13 7 6 8 5 9 4 10 3 11 2 12 1 13
REMARK H PARENT
REMARK Flexibility Score: inf
ROOT
ATOM      1  C   UNL     1     139.940  57.031 -12.822  1.00  0.00     0.000 C 
ENDROOT
BRANCH   1   2
ATOM      2  C   UNL     1     139.385  56.902 -11.392  1.00  0.00     0.000 C 
BRANCH   2   3
ATOM      3  C   UNL     1     140.491  56.888 -10.321  1.00  0.00     0.006 C 
BRANCH   3   4
ATOM      4  C   UNL     1     140.539  55.560  -9.556  1.00  0.00     0.053 C 
BRANCH   4   5
ATOM      5  C   UNL     1     139.249  55.277  -8.849  1.00  0.00     0.041 C 
ATOM      6  O   UNL     1     138.623  54.208  -9.074  1.00  0.00    -0.550 OA
ATOM      7  O   UNL     1     138.724  56.208  -7.962  1.00  0.00    -0.550 OA
ENDBRANCH   4   5
ENDBRANCH   3   4
ENDBRANCH   2   3
ENDBRANCH   1   2
BRANCH   1   8
ATOM      8  C   UNL     1     141.463  56.835 -12.953  1.00  0.00     0.000 C 
BRANCH   8   9
ATOM      9  C   UNL     1     141.897  55.555 -13.690  1.00  0.00    -0.000 C 
BRANCH   9  10
ATOM     10  C   UNL     1     141.662  54.282 -12.864  1.00  0.00    -0.000 C 
BRANCH  10  11
ATOM     11  C   UNL     1     140.517  53.450 -13.453  1.00  0.00    -0.000 C 
BRANCH  11  12
ATOM     12  C   UNL     1     139.337  53.370 -12.479  1.00  0.00    -0.003 C 
ATOM     13  C   UNL     1     138.747  51.963 -12.440  1.00  0.00     0.004 C 
ENDBRANCH  11  12
ENDBRANCH  10  11
ENDBRANCH   9  10
ENDBRANCH   8   9
ENDBRANCH   1   8
TORSDOF 9
ENDMDL
MODEL 6
REMARK VINA RESULT:    -1.290      1.251      2.146
REMARK INTER + INTRA:          -3.264
REMARK INTER:                  -2.041
REMARK INTRA:                  -1.223
REMARK UNBOUND:                -1.295
REMARK SMILES CCCCCCCCCCC(=O)[O-]
REMARK SMILES IDX 7 1 8 2 9 3 10 4 11 5 12 6 13 7 6 8 5 9 4 10 3 11 2 12 1 13
REMARK H PARENT
REMARK Flexibility Score: inf
ROOT
ATOM      1  C   UNL     1     140.022  53.497 -10.834  1.00  0.00     0.000 C 
ENDROOT
BRANCH   1   2
ATOM      2  C   UNL     1     139.283  54.099  -9.626  1.00  0.00     0.000 C 
BRANCH   2   3
ATOM      3  C   UNL     1     139.814  55.488  -9.232  1.00  0.00     0.006 C 
BRANCH   3   4
ATOM      4  C   UNL     1     138.862  56.613  -9.657  1.00  0.00     0.053 C 
BRANCH   4   5
ATOM      5  C   UNL     1     137.684  56.724  -8.738  1.00  0.00     0.041 C 
ATOM      6  O   UNL     1     136.538  56.967  -9.200  1.00  0.00    -0.550 OA
ATOM      7  O   UNL     1     137.859  56.587  -7.367  1.00  0.00    -0.550 OA
ENDBRANCH   4   5
ENDBRANCH   3   4
ENDBRANCH   2   3
ENDBRANCH   1   2
BRANCH   1   8
ATOM      8  C   UNL     1     139.354  53.748 -12.201  1.00  0.00     0.000 C 
BRANCH   8   9
ATOM      9  C   UNL     1     140.201  54.551 -13.205  1.00  0.00    -0.000 C 
BRANCH   9  10
ATOM     10  C   UNL     1     140.100  56.069 -12.991  1.00  0.00    -0.000 C 
BRANCH  10  11
ATOM     11  C   UNL     1     141.467  56.739 -13.162  1.00  0.00    -0.000 C 
BRANCH  11  12
ATOM     12  C   UNL     1     142.065  57.125 -11.804  1.00  0.00    -0.003 C 
ATOM     13  C   UNL     1     142.928  56.000 -11.240  1.00  0.00     0.004 C 
ENDBRANCH  11  12
ENDBRANCH  10  11
ENDBRANCH   9  10
ENDBRANCH   8   9
ENDBRANCH   1   8
TORSDOF 9
ENDMDL
MODEL 7
REMARK VINA RESULT:    -1.262      3.103      4.845
REMARK INTER + INTRA:          -3.222
REMARK INTER:                  -1.803
REMARK INTRA:                  -1.419
REMARK UNBOUND:                -1.295
REMARK SMILES CCCCCCCCCCC(=O)[O-]
REMARK SMILES IDX 7 1 8 2 9 3 10 4 11 5 12 6 13 7 6 8 5 9 4 10 3 11 2 12 1 13
REMARK H PARENT
REMARK Flexibility Score: inf
ROOT
ATOM      1  C   UNL     1     139.976  55.271  -9.102  1.00  0.00     0.000 C 
ENDROOT
BRANCH   1   2
ATOM      2  C   UNL     1     140.508  53.916  -9.600  1.00  0.00     0.000 C 
BRANCH   2   3
ATOM      3  C   UNL     1     142.045  53.842  -9.603  1.00  0.00     0.006 C 
BRANCH   3   4
ATOM      4  C   UNL     1     142.690  55.224  -9.762  1.00  0.00     0.053 C 
BRANCH   4   5
ATOM      5  C   UNL     1     143.835  55.197 -10.728  1.00  0.00     0.041 C 
ATOM      6  O   UNL     1     143.935  54.263 -11.567  1.00  0.00    -0.550 OA
ATOM      7  O   UNL     1     144.806  56.188 -10.683  1.00  0.00    -0.550 OA
ENDBRANCH   4   5
ENDBRANCH   3   4
ENDBRANCH   2   3
ENDBRANCH   1   2
BRANCH   1   8
ATOM      8  C   UNL     1     139.001  55.985 -10.060  1.00  0.00     0.000 C 
BRANCH   8   9
ATOM      9  C   UNL     1     139.655  56.969 -11.046  1.00  0.00    -0.000 C 
BRANCH   9  10
ATOM     10  C   UNL     1     139.567  56.498 -12.505  1.00  0.00    -0.000 C 
BRANCH  10  11
ATOM     11  C   UNL     1     140.895  55.887 -12.966  1.00  0.00    -0.000 C 
BRANCH  11  12
ATOM     12  C   UNL     1     140.754  54.380 -13.206  1.00  0.00    -0.003 C 
ATOM     13  C   UNL     1     139.289  53.954 -13.202  1.00  0.00     0.004 C 
ENDBRANCH  11  12
ENDBRANCH  10  11
ENDBRANCH   9  10
ENDBRANCH   8   9
ENDBRANCH   1   8
TORSDOF 9
ENDMDL
MODEL 8
REMARK VINA RESULT:    -1.252      2.807      4.186
REMARK INTER + INTRA:          -3.207
REMARK INTER:                  -1.914
REMARK INTRA:                  -1.293
REMARK UNBOUND:                -1.295
REMARK SMILES CCCCCCCCCCC(=O)[O-]
REMARK SMILES IDX 7 1 8 2 9 3 10 4 11 5 12 6 13 7 6 8 5 9 4 10 3 11 2 12 1 13
REMARK H PARENT
REMARK Flexibility Score: inf
ROOT
ATOM      1  C   UNL     1     140.180  57.125  -9.537  1.00  0.00     0.000 C 
ENDROOT
BRANCH   1   2
ATOM      2  C   UNL     1     140.579  55.871  -8.739  1.00  0.00     0.000 C 
BRANCH   2   3
ATOM      3  C   UNL     1     141.600  54.990  -9.481  1.00  0.00     0.006 C 
BRANCH   3   4
ATOM      4  C   UNL     1     141.168  53.519  -9.530  1.00  0.00     0.053 C 
BRANCH   4   5
ATOM      5  C   UNL     1     141.332  52.936 -10.900  1.00  0.00     0.041 C 
ATOM      6  O   UNL     1     142.429  53.043 -11.509  1.00  0.00    -0.550 OA
ATOM      7  O   UNL     1     140.263  52.299 -11.517  1.00  0.00    -0.550 OA
ENDBRANCH   4   5
ENDBRANCH   3   4
ENDBRANCH   2   3
ENDBRANCH   1   2
BRANCH   1   8
ATOM      8  C   UNL     1     139.070  56.908 -10.585  1.00  0.00     0.000 C 
BRANCH   8   9
ATOM      9  C   UNL     1     139.511  57.080 -12.050  1.00  0.00    -0.000 C 
BRANCH   9  10
ATOM     10  C   UNL     1     139.918  55.754 -12.709  1.00  0.00    -0.000 C 
BRANCH  10  11
ATOM     11  C   UNL     1     141.315  55.857 -13.333  1.00  0.00    -0.000 C 
BRANCH  11  12
ATOM     12  C   UNL     1     142.043  57.115 -12.847  1.00  0.00    -0.003 C 
ATOM     13  C   UNL     1     143.383  56.765 -12.206  1.00  0.00     0.004 C 
ENDBRANCH  11  12
ENDBRANCH  10  11
ENDBRANCH   9  10
ENDBRANCH   8   9
ENDBRANCH   1   8
TORSDOF 9
ENDMDL
MODEL 9
REMARK VINA RESULT:    -1.230      3.452      4.565
REMARK INTER + INTRA:          -3.173
REMARK INTER:                  -1.805
REMARK INTRA:                  -1.368
REMARK UNBOUND:                -1.295
REMARK SMILES CCCCCCCCCCC(=O)[O-]
REMARK SMILES IDX 7 1 8 2 9 3 10 4 11 5 12 6 13 7 6 8 5 9 4 10 3 11 2 12 1 13
REMARK H PARENT
REMARK Flexibility Score: inf
ROOT
ATOM      1  C   UNL     1     139.585  54.008 -11.768  1.00  0.00     0.000 C 
ENDROOT
BRANCH   1   2
ATOM      2  C   UNL     1     140.816  53.087 -11.697  1.00  0.00     0.000 C 
BRANCH   2   3
ATOM      3  C   UNL     1     141.817  53.340 -12.838  1.00  0.00     0.006 C 
BRANCH   3   4
ATOM      4  C   UNL     1     143.162  52.644 -12.593  1.00  0.00     0.053 C 
BRANCH   4   5
ATOM      5  C   UNL     1     144.020  53.411 -11.634  1.00  0.00     0.041 C 
ATOM      6  O   UNL     1     144.632  54.443 -12.016  1.00  0.00    -0.550 OA
ATOM      7  O   UNL     1     144.167  52.967 -10.326  1.00  0.00    -0.550 OA
ENDBRANCH   4   5
ENDBRANCH   3   4
ENDBRANCH   2   3
ENDBRANCH   1   2
BRANCH   1   8
ATOM      8  C   UNL     1     139.555  54.970 -12.972  1.00  0.00     0.000 C 
BRANCH   8   9
ATOM      9  C   UNL     1     139.721  56.461 -12.623  1.00  0.00    -0.000 C 
BRANCH   9  10
ATOM     10  C   UNL     1     141.020  57.062 -13.178  1.00  0.00    -0.000 C 
BRANCH  10  11
ATOM     11  C   UNL     1     142.146  56.988 -12.141  1.00  0.00    -0.000 C 
BRANCH  11  12
ATOM     12  C   UNL     1     141.591  57.094 -10.717  1.00  0.00    -0.003 C 
ATOM     13  C   UNL     1     142.201  56.033  -9.806  1.00  0.00     0.004 C 
ENDBRANCH  11  12
ENDBRANCH  10  11
ENDBRANCH   9  10
ENDBRANCH   8   9
ENDBRANCH   1   8
TORSDOF 9
ENDMDL
