MODEL 1
REMARK VINA RESULT:    -4.398      0.000      0.000
REMARK INTER + INTRA:          -4.799
REMARK INTER:                  -5.040
REMARK INTRA:                   0.241
REMARK UNBOUND:                 0.241
REMARK SMILES C=C(C)[C@@H]1CC[C@@]2(C(=O)[O-])CC[C@]3(C)[C@@H](CC[C@@H]4[C@]5(C)CC[C@H](O)C(C)(C)[C@@H]5CC[C@]43C)[C@H]12
REMARK SMILES IDX 7 1 6 2 33 3 11 4 5 5 15 6 4 7 12 8 16 9 13 10 17 11 31 12
REMARK SMILES IDX 14 13 18 14 30 15 32 16 19 17 29 18 21 19 20 20 28 21 22 22
REMARK SMILES IDX 25 23 23 24 26 25 27 26 8 27 9 28 10 29 2 30 3 31 1 32 24 33
REMARK H PARENT 24 34
REMARK Flexibility Score: inf
ROOT
ATOM      1  C   UNL     1      -7.371   8.502  -1.629  1.00  0.00     0.014 C 
ATOM      2  C   UNL     1      -6.740   7.568  -0.575  1.00  0.00     0.014 C 
ATOM      3  C   UNL     1      -7.743   7.449  -2.702  1.00  0.00     0.012 C 
ATOM      4  C   UNL     1      -6.392   9.569  -2.210  1.00  0.00     0.014 C 
ATOM      5  C   UNL     1      -7.680   6.348  -0.527  1.00  0.00     0.009 C 
ATOM      6  C   UNL     1      -8.347   8.058  -3.999  1.00  0.00     0.000 C 
ATOM      7  C   UNL     1      -8.303   6.222  -1.936  1.00  0.00     0.018 C 
ATOM      8  C   UNL     1      -6.071   9.385  -3.712  1.00  0.00     0.008 C 
ATOM      9  C   UNL     1      -9.015   6.975  -4.914  1.00  0.00     0.005 C 
ATOM     10  C   UNL     1      -7.320   9.113  -4.666  1.00  0.00    -0.024 C 
ATOM     11  C   UNL     1      -8.566   6.832  -6.370  1.00  0.00     0.005 C 
ATOM     12  C   UNL     1      -6.807   8.636  -6.133  1.00  0.00    -0.024 C 
ATOM     13  C   UNL     1      -8.059  10.495  -4.747  1.00  0.00     0.012 C 
ATOM     14  C   UNL     1      -8.038   8.141  -6.985  1.00  0.00     0.002 C 
ATOM     15  C   UNL     1      -6.130   9.806  -6.893  1.00  0.00     0.008 C 
ATOM     16  C   UNL     1      -5.733   7.505  -5.971  1.00  0.00     0.012 C 
ATOM     17  C   UNL     1      -7.949   8.087  -8.599  1.00  0.00    -0.026 C 
ATOM     18  C   UNL     1      -5.759   9.443  -8.325  1.00  0.00     0.005 C 
ATOM     19  C   UNL     1      -7.455   6.690  -9.110  1.00  0.00     0.010 C 
ATOM     20  C   UNL     1      -9.424   8.293  -9.107  1.00  0.00     0.012 C 
ATOM     21  C   UNL     1      -7.025   9.241  -9.195  1.00  0.00     0.003 C 
ATOM     22  C   UNL     1      -7.216   6.601 -10.623  1.00  0.00     0.033 C 
ATOM     23  C   UNL     1      -6.678   9.109 -10.750  1.00  0.00    -0.006 C 
ATOM     24  C   UNL     1      -6.229   7.661 -11.117  1.00  0.00     0.120 C 
ATOM     25  C   UNL     1      -7.897   9.519 -11.627  1.00  0.00     0.014 C 
ATOM     26  C   UNL     1      -5.552  10.096 -11.180  1.00  0.00     0.014 C 
ENDROOT
BRANCH   1  27
ATOM     27  C   UNL     1      -8.562   9.236  -0.988  1.00  0.00     0.048 C 
ATOM     28  O   UNL     1      -8.529   9.588   0.223  1.00  0.00    -0.550 OA
ATOM     29  O   UNL     1      -9.657   9.633  -1.741  1.00  0.00    -0.550 OA
ENDBRANCH   1  27
BRANCH   7  30
ATOM     30  C   UNL     1      -9.824   6.014  -1.922  1.00  0.00    -0.077 C 
ATOM     31  C   UNL     1     -10.693   6.441  -0.765  1.00  0.00     0.039 C 
ATOM     32  C   UNL     1     -10.411   5.403  -2.968  1.00  0.00     0.008 C 
ENDBRANCH   7  30
BRANCH  24  33
ATOM     33  O   UNL     1      -4.960   7.370 -10.580  1.00  0.00    -0.393 OA
ATOM     34  H   UNL     1      -4.653   6.515 -10.980  1.00  0.00     0.210 HD
ENDBRANCH  24  33
TORSDOF 3
ENDMDL
MODEL 2
REMARK VINA RESULT:    -4.391      1.465      7.987
REMARK INTER + INTRA:          -4.791
REMARK INTER:                  -4.773
REMARK INTRA:                  -0.019
REMARK UNBOUND:                 0.241
REMARK SMILES C=C(C)[C@@H]1CC[C@@]2(C(=O)[O-])CC[C@]3(C)[C@@H](CC[C@@H]4[C@]5(C)CC[C@H](O)C(C)(C)[C@@H]5CC[C@]43C)[C@H]12
REMARK SMILES IDX 7 1 6 2 33 3 11 4 5 5 15 6 4 7 12 8 16 9 13 10 17 11 31 12
REMARK SMILES IDX 14 13 18 14 30 15 32 16 19 17 29 18 21 19 20 20 28 21 22 22
REMARK SMILES IDX 25 23 23 24 26 25 27 26 8 27 9 28 10 29 2 30 3 31 1 32 24 33
REMARK H PARENT 24 34
REMARK Flexibility Score: inf
ROOT
ATOM      1  C   UNL     1      -5.951   9.687 -10.495  1.00  0.00     0.014 C 
ATOM      2  C   UNL     1      -6.819   9.858 -11.760  1.00  0.00     0.014 C 
ATOM      3  C   UNL     1      -6.818   8.653  -9.736  1.00  0.00     0.012 C 
ATOM      4  C   UNL     1      -5.774  10.990  -9.656  1.00  0.00     0.014 C 
ATOM      5  C   UNL     1      -7.257   8.426 -12.125  1.00  0.00     0.009 C 
ATOM      6  C   UNL     1      -6.279   8.293  -8.323  1.00  0.00     0.000 C 
ATOM      7  C   UNL     1      -7.317   7.637 -10.797  1.00  0.00     0.018 C 
ATOM      8  C   UNL     1      -6.430  10.938  -8.256  1.00  0.00     0.008 C 
ATOM      9  C   UNL     1      -6.970   7.021  -7.724  1.00  0.00     0.005 C 
ATOM     10  C   UNL     1      -6.157   9.618  -7.405  1.00  0.00    -0.024 C 
ATOM     11  C   UNL     1      -7.655   7.104  -6.358  1.00  0.00     0.005 C 
ATOM     12  C   UNL     1      -7.147   9.572  -6.116  1.00  0.00    -0.024 C 
ATOM     13  C   UNL     1      -4.657   9.741  -6.961  1.00  0.00     0.012 C 
ATOM     14  C   UNL     1      -7.040   8.160  -5.421  1.00  0.00     0.002 C 
ATOM     15  C   UNL     1      -6.758  10.655  -5.076  1.00  0.00     0.008 C 
ATOM     16  C   UNL     1      -8.617   9.874  -6.572  1.00  0.00     0.012 C 
ATOM     17  C   UNL     1      -7.487   7.970  -3.879  1.00  0.00    -0.026 C 
ATOM     18  C   UNL     1      -7.570  10.558  -3.792  1.00  0.00     0.005 C 
ATOM     19  C   UNL     1      -8.992   7.550  -3.754  1.00  0.00     0.010 C 
ATOM     20  C   UNL     1      -6.608   6.786  -3.330  1.00  0.00     0.012 C 
ATOM     21  C   UNL     1      -7.213   9.273  -3.002  1.00  0.00     0.003 C 
ATOM     22  C   UNL     1      -9.529   7.480  -2.319  1.00  0.00     0.033 C 
ATOM     23  C   UNL     1      -7.854   9.263  -1.538  1.00  0.00    -0.006 C 
ATOM     24  C   UNL     1      -9.343   8.798  -1.566  1.00  0.00     0.120 C 
ATOM     25  C   UNL     1      -7.037   8.347  -0.581  1.00  0.00     0.014 C 
ATOM     26  C   UNL     1      -7.791  10.667  -0.865  1.00  0.00     0.014 C 
ENDROOT
BRANCH   1  27
ATOM     27  C   UNL     1      -4.556   9.190 -10.918  1.00  0.00     0.048 C 
ATOM     28  O   UNL     1      -4.189   9.242 -12.123  1.00  0.00    -0.550 OA
ATOM     29  O   UNL     1      -3.621   8.778  -9.980  1.00  0.00    -0.550 OA
ENDBRANCH   1  27
BRANCH   7  30
ATOM     30  C   UNL     1      -6.629   6.266 -10.861  1.00  0.00    -0.077 C 
ATOM     31  C   UNL     1      -5.198   6.095 -11.309  1.00  0.00     0.039 C 
ATOM     32  C   UNL     1      -7.331   5.166 -10.532  1.00  0.00     0.008 C 
ENDBRANCH   7  30
BRANCH  24  33
ATOM     33  O   UNL     1     -10.168   9.771  -2.164  1.00  0.00    -0.393 OA
ATOM     34  H   UNL     1     -11.065   9.705  -1.742  1.00  0.00     0.210 HD
ENDBRANCH  24  33
TORSDOF 3
ENDMDL
MODEL 3
REMARK VINA RESULT:    -4.319      1.716      3.606
REMARK INTER + INTRA:          -4.710
REMARK INTER:                  -4.930
REMARK INTRA:                   0.221
REMARK UNBOUND:                 0.241
REMARK SMILES C=C(C)[C@@H]1CC[C@@]2(C(=O)[O-])CC[C@]3(C)[C@@H](CC[C@@H]4[C@]5(C)CC[C@H](O)C(C)(C)[C@@H]5CC[C@]43C)[C@H]12
REMARK SMILES IDX 7 1 6 2 33 3 11 4 5 5 15 6 4 7 12 8 16 9 13 10 17 11 31 12
REMARK SMILES IDX 14 13 18 14 30 15 32 16 19 17 29 18 21 19 20 20 28 21 22 22
REMARK SMILES IDX 25 23 23 24 26 25 27 26 8 27 9 28 10 29 2 30 3 31 1 32 24 33
REMARK H PARENT 24 34
REMARK Flexibility Score: inf
ROOT
ATOM      1  C   UNL     1      -8.746   6.914  -2.755  1.00  0.00     0.014 C 
ATOM      2  C   UNL     1     -10.086   7.230  -2.059  1.00  0.00     0.014 C 
ATOM      3  C   UNL     1      -8.477   8.290  -3.413  1.00  0.00     0.012 C 
ATOM      4  C   UNL     1      -8.831   5.788  -3.831  1.00  0.00     0.014 C 
ATOM      5  C   UNL     1      -9.886   8.632  -1.452  1.00  0.00     0.009 C 
ATOM      6  C   UNL     1      -7.203   8.324  -4.305  1.00  0.00     0.000 C 
ATOM      7  C   UNL     1      -8.874   9.362  -2.365  1.00  0.00     0.018 C 
ATOM      8  C   UNL     1      -8.566   6.270  -5.277  1.00  0.00     0.008 C 
ATOM      9  C   UNL     1      -6.774   9.784  -4.679  1.00  0.00     0.005 C 
ATOM     10  C   UNL     1      -7.298   7.216  -5.477  1.00  0.00    -0.024 C 
ATOM     11  C   UNL     1      -6.612  10.172  -6.150  1.00  0.00     0.005 C 
ATOM     12  C   UNL     1      -7.330   7.883  -6.959  1.00  0.00    -0.024 C 
ATOM     13  C   UNL     1      -6.065   6.259  -5.315  1.00  0.00     0.012 C 
ATOM     14  C   UNL     1      -6.215   8.995  -7.060  1.00  0.00     0.002 C 
ATOM     15  C   UNL     1      -7.055   6.821  -8.055  1.00  0.00     0.008 C 
ATOM     16  C   UNL     1      -8.754   8.478  -7.237  1.00  0.00     0.012 C 
ATOM     17  C   UNL     1      -5.661   9.472  -8.502  1.00  0.00    -0.026 C 
ATOM     18  C   UNL     1      -6.937   7.425  -9.448  1.00  0.00     0.005 C 
ATOM     19  C   UNL     1      -6.466  10.696  -9.061  1.00  0.00     0.010 C 
ATOM     20  C   UNL     1      -4.181   9.943  -8.249  1.00  0.00     0.012 C 
ATOM     21  C   UNL     1      -5.658   8.292  -9.573  1.00  0.00     0.003 C 
ATOM     22  C   UNL     1      -6.089  11.125 -10.485  1.00  0.00     0.033 C 
ATOM     23  C   UNL     1      -5.369   8.733 -11.082  1.00  0.00    -0.006 C 
ATOM     24  C   UNL     1      -6.218   9.978 -11.488  1.00  0.00     0.120 C 
ATOM     25  C   UNL     1      -3.858   9.038 -11.292  1.00  0.00     0.014 C 
ATOM     26  C   UNL     1      -5.669   7.584 -12.091  1.00  0.00     0.014 C 
ENDROOT
BRANCH   1  27
ATOM     27  C   UNL     1      -7.724   6.486  -1.686  1.00  0.00     0.048 C 
ATOM     28  O   UNL     1      -8.087   5.835  -0.669  1.00  0.00    -0.550 OA
ATOM     29  O   UNL     1      -6.365   6.700  -1.859  1.00  0.00    -0.550 OA
ENDBRANCH   1  27
BRANCH   7  30
ATOM     30  C   UNL     1      -7.748  10.069  -1.597  1.00  0.00    -0.077 C 
ATOM     31  C   UNL     1      -7.317   9.649  -0.213  1.00  0.00     0.039 C 
ATOM     32  C   UNL     1      -7.133  11.125  -2.162  1.00  0.00     0.008 C 
ENDBRANCH   7  30
BRANCH  24  33
ATOM     33  O   UNL     1      -7.582   9.646 -11.609  1.00  0.00    -0.393 OA
ATOM     34  H   UNL     1      -7.884   9.292 -10.732  1.00  0.00     0.210 HD
ENDBRANCH  24  33
TORSDOF 3
ENDMDL
MODEL 4
REMARK VINA RESULT:    -4.314      1.814      3.534
REMARK INTER + INTRA:          -4.703
REMARK INTER:                  -4.915
REMARK INTRA:                   0.212
REMARK UNBOUND:                 0.241
REMARK SMILES C=C(C)[C@@H]1CC[C@@]2(C(=O)[O-])CC[C@]3(C)[C@@H](CC[C@@H]4[C@]5(C)CC[C@H](O)C(C)(C)[C@@H]5CC[C@]43C)[C@H]12
REMARK SMILES IDX 7 1 6 2 33 3 11 4 5 5 15 6 4 7 12 8 16 9 13 10 17 11 31 12
REMARK SMILES IDX 14 13 18 14 30 15 32 16 19 17 29 18 21 19 20 20 28 21 22 22
REMARK SMILES IDX 25 23 23 24 26 25 27 26 8 27 9 28 10 29 2 30 3 31 1 32 24 33
REMARK H PARENT 24 34
REMARK Flexibility Score: inf
ROOT
ATOM      1  C   UNL     1      -9.283   6.728  -1.524  1.00  0.00     0.014 C 
ATOM      2  C   UNL     1     -10.765   6.463  -1.182  1.00  0.00     0.014 C 
ATOM      3  C   UNL     1      -9.448   8.024  -2.355  1.00  0.00     0.012 C 
ATOM      4  C   UNL     1      -8.608   5.604  -2.369  1.00  0.00     0.014 C 
ATOM      5  C   UNL     1     -11.331   7.848  -0.815  1.00  0.00     0.009 C 
ATOM      6  C   UNL     1      -8.119   8.557  -2.962  1.00  0.00     0.000 C 
ATOM      7  C   UNL     1     -10.513   8.882  -1.623  1.00  0.00     0.018 C 
ATOM      8  C   UNL     1      -8.198   6.042  -3.796  1.00  0.00     0.008 C 
ATOM      9  C   UNL     1      -8.253  10.021  -3.503  1.00  0.00     0.005 C 
ATOM     10  C   UNL     1      -7.434   7.438  -3.906  1.00  0.00    -0.024 C 
ATOM     11  C   UNL     1      -7.888  10.327  -4.958  1.00  0.00     0.005 C 
ATOM     12  C   UNL     1      -7.351   7.905  -5.461  1.00  0.00    -0.024 C 
ATOM     13  C   UNL     1      -6.005   7.148  -3.326  1.00  0.00     0.012 C 
ATOM     14  C   UNL     1      -6.815   9.386  -5.537  1.00  0.00     0.002 C 
ATOM     15  C   UNL     1      -6.384   6.998  -6.265  1.00  0.00     0.008 C 
ATOM     16  C   UNL     1      -8.766   7.776  -6.124  1.00  0.00     0.012 C 
ATOM     17  C   UNL     1      -6.153   9.950  -6.900  1.00  0.00    -0.026 C 
ATOM     18  C   UNL     1      -6.167   7.483  -7.691  1.00  0.00     0.005 C 
ATOM     19  C   UNL     1      -7.216  10.638  -7.824  1.00  0.00     0.010 C 
ATOM     20  C   UNL     1      -5.126  11.050  -6.444  1.00  0.00     0.012 C 
ATOM     21  C   UNL     1      -5.380   8.818  -7.714  1.00  0.00     0.003 C 
ATOM     22  C   UNL     1      -6.693  11.080  -9.197  1.00  0.00     0.033 C 
ATOM     23  C   UNL     1      -4.917   9.225  -9.188  1.00  0.00    -0.006 C 
ATOM     24  C   UNL     1      -6.067   9.923  -9.978  1.00  0.00     0.120 C 
ATOM     25  C   UNL     1      -3.671  10.158  -9.141  1.00  0.00     0.014 C 
ATOM     26  C   UNL     1      -4.436   7.991 -10.009  1.00  0.00     0.014 C 
ENDROOT
BRANCH   1  27
ATOM     27  C   UNL     1      -8.495   6.885  -0.211  1.00  0.00     0.048 C 
ATOM     28  O   UNL     1      -9.083   6.846   0.905  1.00  0.00    -0.550 OA
ATOM     29  O   UNL     1      -7.110   6.960  -0.204  1.00  0.00    -0.550 OA
ENDBRANCH   1  27
BRANCH   7  30
ATOM     30  C   UNL     1     -10.027  10.074  -0.787  1.00  0.00    -0.077 C 
ATOM     31  C   UNL     1      -8.670  10.107  -0.129  1.00  0.00     0.039 C 
ATOM     32  C   UNL     1     -10.848  11.125  -0.607  1.00  0.00     0.008 C 
ENDBRANCH   7  30
BRANCH  24  33
ATOM     33  O   UNL     1      -7.085   9.008 -10.309  1.00  0.00    -0.393 OA
ATOM     34  H   UNL     1      -7.109   8.315  -9.598  1.00  0.00     0.210 HD
ENDBRANCH  24  33
TORSDOF 3
ENDMDL
MODEL 5
REMARK VINA RESULT:    -3.945      1.974      3.126
REMARK INTER + INTRA:          -4.281
REMARK INTER:                  -4.351
REMARK INTRA:                   0.070
REMARK UNBOUND:                 0.241
REMARK SMILES C=C(C)[C@@H]1CC[C@@]2(C(=O)[O-])CC[C@]3(C)[C@@H](CC[C@@H]4[C@]5(C)CC[C@H](O)C(C)(C)[C@@H]5CC[C@]43C)[C@H]12
REMARK SMILES IDX 7 1 6 2 33 3 11 4 5 5 15 6 4 7 12 8 16 9 13 10 17 11 31 12
REMARK SMILES IDX 14 13 18 14 30 15 32 16 19 17 29 18 21 19 20 20 28 21 22 22
REMARK SMILES IDX 25 23 23 24 26 25 27 26 8 27 9 28 10 29 2 30 3 31 1 32 24 33
REMARK H PARENT 24 34
REMARK Flexibility Score: inf
ROOT
ATOM      1  C   UNL     1      -8.058   7.275   1.111  1.00  0.00     0.014 C 
ATOM      2  C   UNL     1      -7.078   6.654   2.129  1.00  0.00     0.014 C 
ATOM      3  C   UNL     1      -7.803   6.328  -0.088  1.00  0.00     0.012 C 
ATOM      4  C   UNL     1      -7.739   8.754   0.732  1.00  0.00     0.014 C 
ATOM      5  C   UNL     1      -7.267   5.133   1.970  1.00  0.00     0.009 C 
ATOM      6  C   UNL     1      -8.585   6.716  -1.375  1.00  0.00     0.000 C 
ATOM      7  C   UNL     1      -7.687   4.898   0.501  1.00  0.00     0.018 C 
ATOM      8  C   UNL     1      -7.314   8.954  -0.742  1.00  0.00     0.008 C 
ATOM      9  C   UNL     1      -8.574   5.575  -2.448  1.00  0.00     0.005 C 
ATOM     10  C   UNL     1      -8.215   8.221  -1.835  1.00  0.00    -0.024 C 
ATOM     11  C   UNL     1      -8.062   5.868  -3.860  1.00  0.00     0.005 C 
ATOM     12  C   UNL     1      -7.477   8.262  -3.283  1.00  0.00    -0.024 C 
ATOM     13  C   UNL     1      -9.551   9.043  -1.858  1.00  0.00     0.012 C 
ATOM     14  C   UNL     1      -8.252   7.333  -4.295  1.00  0.00     0.002 C 
ATOM     15  C   UNL     1      -7.463   9.702  -3.860  1.00  0.00     0.008 C 
ATOM     16  C   UNL     1      -5.983   7.812  -3.124  1.00  0.00     0.012 C 
ATOM     17  C   UNL     1      -8.089   7.543  -5.890  1.00  0.00    -0.026 C 
ATOM     18  C   UNL     1      -6.907   9.765  -5.276  1.00  0.00     0.005 C 
ATOM     19  C   UNL     1      -6.934   6.663  -6.480  1.00  0.00     0.010 C 
ATOM     20  C   UNL     1      -9.443   7.046  -6.519  1.00  0.00     0.012 C 
ATOM     21  C   UNL     1      -7.861   9.071  -6.282  1.00  0.00     0.003 C 
ATOM     22  C   UNL     1      -6.627   6.904  -7.964  1.00  0.00     0.033 C 
ATOM     23  C   UNL     1      -7.439   9.336  -7.800  1.00  0.00    -0.006 C 
ATOM     24  C   UNL     1      -6.301   8.370  -8.257  1.00  0.00     0.120 C 
ATOM     25  C   UNL     1      -8.663   9.190  -8.750  1.00  0.00     0.014 C 
ATOM     26  C   UNL     1      -6.957  10.801  -8.023  1.00  0.00     0.014 C 
ENDROOT
BRANCH   1  27
ATOM     27  C   UNL     1      -9.480   7.222   1.699  1.00  0.00     0.048 C 
ATOM     28  O   UNL     1      -9.693   6.706   2.830  1.00  0.00    -0.550 OA
ATOM     29  O   UNL     1     -10.549   7.835   1.062  1.00  0.00    -0.550 OA
ENDBRANCH   1  27
BRANCH   7  30
ATOM     30  C   UNL     1      -8.889   3.955   0.346  1.00  0.00    -0.077 C 
ATOM     31  C   UNL     1     -10.298   4.370   0.693  1.00  0.00     0.039 C 
ATOM     32  C   UNL     1      -8.684   2.699  -0.091  1.00  0.00     0.008 C 
ENDBRANCH   7  30
BRANCH  24  33
ATOM     33  O   UNL     1      -5.082   8.687  -7.627  1.00  0.00    -0.393 OA
ATOM     34  H   UNL     1      -4.919   9.658  -7.758  1.00  0.00     0.210 HD
ENDBRANCH  24  33
TORSDOF 3
ENDMDL
MODEL 6
REMARK VINA RESULT:    -3.774      2.274      8.078
REMARK INTER + INTRA:          -4.084
REMARK INTER:                  -4.293
REMARK INTRA:                   0.208
REMARK UNBOUND:                 0.241
REMARK SMILES C=C(C)[C@@H]1CC[C@@]2(C(=O)[O-])CC[C@]3(C)[C@@H](CC[C@@H]4[C@]5(C)CC[C@H](O)C(C)(C)[C@@H]5CC[C@]43C)[C@H]12
REMARK SMILES IDX 7 1 6 2 33 3 11 4 5 5 15 6 4 7 12 8 16 9 13 10 17 11 31 12
REMARK SMILES IDX 14 13 18 14 30 15 32 16 19 17 29 18 21 19 20 20 28 21 22 22
REMARK SMILES IDX 25 23 23 24 26 25 27 26 8 27 9 28 10 29 2 30 3 31 1 32 24 33
REMARK H PARENT 24 34
REMARK Flexibility Score: inf
ROOT
ATOM      1  C   UNL     1      -7.855  10.266  -6.388  1.00  0.00     0.014 C 
ATOM      2  C   UNL     1      -8.944  10.370  -7.477  1.00  0.00     0.014 C 
ATOM      3  C   UNL     1      -7.966   8.754  -6.070  1.00  0.00     0.012 C 
ATOM      4  C   UNL     1      -8.135  11.125  -5.117  1.00  0.00     0.014 C 
ATOM      5  C   UNL     1      -8.732   9.122  -8.357  1.00  0.00     0.009 C 
ATOM      6  C   UNL     1      -7.042   8.284  -4.911  1.00  0.00     0.000 C 
ATOM      7  C   UNL     1      -8.143   8.032  -7.432  1.00  0.00     0.018 C 
ATOM      8  C   UNL     1      -8.387  10.298  -3.834  1.00  0.00     0.008 C 
ATOM      9  C   UNL     1      -6.923   6.724  -4.835  1.00  0.00     0.005 C 
ATOM     10  C   UNL     1      -7.363   9.107  -3.557  1.00  0.00    -0.024 C 
ATOM     11  C   UNL     1      -7.270   6.001  -3.531  1.00  0.00     0.005 C 
ATOM     12  C   UNL     1      -7.928   8.151  -2.370  1.00  0.00    -0.024 C 
ATOM     13  C   UNL     1      -6.037   9.824  -3.122  1.00  0.00     0.012 C 
ATOM     14  C   UNL     1      -7.037   6.853  -2.271  1.00  0.00     0.002 C 
ATOM     15  C   UNL     1      -7.881   8.877  -1.000  1.00  0.00     0.008 C 
ATOM     16  C   UNL     1      -9.428   7.793  -2.654  1.00  0.00     0.012 C 
ATOM     17  C   UNL     1      -7.015   5.977  -0.912  1.00  0.00    -0.026 C 
ATOM     18  C   UNL     1      -8.270   7.973   0.161  1.00  0.00     0.005 C 
ATOM     19  C   UNL     1      -8.090   4.836  -0.936  1.00  0.00     0.010 C 
ATOM     20  C   UNL     1      -5.595   5.300  -0.873  1.00  0.00     0.012 C 
ATOM     21  C   UNL     1      -7.203   6.872   0.393  1.00  0.00     0.003 C 
ATOM     22  C   UNL     1      -8.224   4.043   0.371  1.00  0.00     0.033 C 
ATOM     23  C   UNL     1      -7.448   6.066   1.751  1.00  0.00    -0.006 C 
ATOM     24  C   UNL     1      -8.521   4.947   1.569  1.00  0.00     0.120 C 
ATOM     25  C   UNL     1      -6.121   5.440   2.271  1.00  0.00     0.014 C 
ATOM     26  C   UNL     1      -7.907   7.002   2.908  1.00  0.00     0.014 C 
ENDROOT
BRANCH   1  27
ATOM     27  C   UNL     1      -6.511  10.714  -6.989  1.00  0.00     0.048 C 
ATOM     28  O   UNL     1      -6.419  11.021  -8.209  1.00  0.00    -0.550 OA
ATOM     29  O   UNL     1      -5.391  10.903  -6.194  1.00  0.00    -0.550 OA
ENDBRANCH   1  27
BRANCH   7  30
ATOM     30  C   UNL     1      -6.927   7.308  -8.027  1.00  0.00    -0.077 C 
ATOM     31  C   UNL     1      -5.508   7.752  -7.766  1.00  0.00     0.039 C 
ATOM     32  C   UNL     1      -7.126   6.251  -8.836  1.00  0.00     0.008 C 
ENDBRANCH   7  30
BRANCH  24  33
ATOM     33  O   UNL     1      -9.806   5.498   1.401  1.00  0.00    -0.393 OA
ATOM     34  H   UNL     1     -10.397   5.098   2.092  1.00  0.00     0.210 HD
ENDBRANCH  24  33
TORSDOF 3
ENDMDL
MODEL 7
REMARK VINA RESULT:    -3.545      1.336      7.807
REMARK INTER + INTRA:          -3.822
REMARK INTER:                  -3.860
REMARK INTRA:                   0.038
REMARK UNBOUND:                 0.241
REMARK SMILES C=C(C)[C@@H]1CC[C@@]2(C(=O)[O-])CC[C@]3(C)[C@@H](CC[C@@H]4[C@]5(C)CC[C@H](O)C(C)(C)[C@@H]5CC[C@]43C)[C@H]12
REMARK SMILES IDX 7 1 6 2 33 3 11 4 5 5 15 6 4 7 12 8 16 9 13 10 17 11 31 12
REMARK SMILES IDX 14 13 18 14 30 15 32 16 19 17 29 18 21 19 20 20 28 21 22 22
REMARK SMILES IDX 25 23 23 24 26 25 27 26 8 27 9 28 10 29 2 30 3 31 1 32 24 33
REMARK H PARENT 24 34
REMARK Flexibility Score: inf
ROOT
ATOM      1  C   UNL     1      -6.740   9.788  -8.640  1.00  0.00     0.014 C 
ATOM      2  C   UNL     1      -7.343  11.031  -9.329  1.00  0.00     0.014 C 
ATOM      3  C   UNL     1      -8.023   9.220  -7.986  1.00  0.00     0.012 C 
ATOM      4  C   UNL     1      -5.660  10.113  -7.562  1.00  0.00     0.014 C 
ATOM      5  C   UNL     1      -8.666  10.530  -9.940  1.00  0.00     0.009 C 
ATOM      6  C   UNL     1      -7.776   7.965  -7.101  1.00  0.00     0.000 C 
ATOM      7  C   UNL     1      -9.156   9.377  -9.034  1.00  0.00     0.018 C 
ATOM      8  C   UNL     1      -6.072   9.740  -6.118  1.00  0.00     0.008 C 
ATOM      9  C   UNL     1      -9.106   7.223  -6.732  1.00  0.00     0.005 C 
ATOM     10  C   UNL     1      -6.716   8.294  -5.926  1.00  0.00    -0.024 C 
ATOM     11  C   UNL     1      -9.449   6.972  -5.261  1.00  0.00     0.005 C 
ATOM     12  C   UNL     1      -7.374   8.170  -4.445  1.00  0.00    -0.024 C 
ATOM     13  C   UNL     1      -5.511   7.303  -6.094  1.00  0.00     0.012 C 
ATOM     14  C   UNL     1      -8.214   6.838  -4.353  1.00  0.00     0.002 C 
ATOM     15  C   UNL     1      -6.278   8.130  -3.350  1.00  0.00     0.008 C 
ATOM     16  C   UNL     1      -8.268   9.428  -4.161  1.00  0.00     0.012 C 
ATOM     17  C   UNL     1      -8.558   6.184  -2.914  1.00  0.00    -0.026 C 
ATOM     18  C   UNL     1      -6.841   7.874  -1.959  1.00  0.00     0.005 C 
ATOM     19  C   UNL     1      -9.929   6.697  -2.353  1.00  0.00     0.010 C 
ATOM     20  C   UNL     1      -8.691   4.639  -3.176  1.00  0.00     0.012 C 
ATOM     21  C   UNL     1      -7.406   6.435  -1.841  1.00  0.00     0.003 C 
ATOM     22  C   UNL     1     -10.265   6.227  -0.931  1.00  0.00     0.033 C 
ATOM     23  C   UNL     1      -7.773   6.048  -0.335  1.00  0.00    -0.006 C 
ATOM     24  C   UNL     1      -9.174   6.600   0.075  1.00  0.00     0.120 C 
ATOM     25  C   UNL     1      -7.738   4.505  -0.134  1.00  0.00     0.014 C 
ATOM     26  C   UNL     1      -6.719   6.587   0.678  1.00  0.00     0.014 C 
ENDROOT
BRANCH   1  27
ATOM     27  C   UNL     1      -6.097   8.892  -9.714  1.00  0.00     0.048 C 
ATOM     28  O   UNL     1      -5.986   9.289 -10.906  1.00  0.00    -0.550 OA
ATOM     29  O   UNL     1      -5.521   7.673  -9.388  1.00  0.00    -0.550 OA
ENDBRANCH   1  27
BRANCH   7  30
ATOM     30  C   UNL     1      -9.598   8.127  -9.809  1.00  0.00    -0.077 C 
ATOM     31  C   UNL     1      -8.616   7.150 -10.406  1.00  0.00     0.039 C 
ATOM     32  C   UNL     1     -10.912   7.902  -9.990  1.00  0.00     0.008 C 
ENDBRANCH   7  30
BRANCH  24  33
ATOM     33  O   UNL     1      -9.150   8.002   0.203  1.00  0.00    -0.393 OA
ATOM     34  H   UNL     1      -9.599   8.234   1.059  1.00  0.00     0.210 HD
ENDBRANCH  24  33
TORSDOF 3
ENDMDL
MODEL 8
REMARK VINA RESULT:    -3.308      2.247      4.235
REMARK INTER + INTRA:          -3.550
REMARK INTER:                  -3.935
REMARK INTRA:                   0.384
REMARK UNBOUND:                 0.241
REMARK SMILES C=C(C)[C@@H]1CC[C@@]2(C(=O)[O-])CC[C@]3(C)[C@@H](CC[C@@H]4[C@]5(C)CC[C@H](O)C(C)(C)[C@@H]5CC[C@]43C)[C@H]12
REMARK SMILES IDX 7 1 6 2 33 3 11 4 5 5 15 6 4 7 12 8 16 9 13 10 17 11 31 12
REMARK SMILES IDX 14 13 18 14 30 15 32 16 19 17 29 18 21 19 20 20 28 21 22 22
REMARK SMILES IDX 25 23 23 24 26 25 27 26 8 27 9 28 10 29 2 30 3 31 1 32 24 33
REMARK H PARENT 24 34
REMARK Flexibility Score: inf
ROOT
ATOM      1  C   UNL     1      -9.310   5.582   0.299  1.00  0.00     0.014 C 
ATOM      2  C   UNL     1     -10.599   4.788   0.599  1.00  0.00     0.014 C 
ATOM      3  C   UNL     1      -9.911   6.711  -0.573  1.00  0.00     0.012 C 
ATOM      4  C   UNL     1      -8.231   4.780  -0.493  1.00  0.00     0.014 C 
ATOM      5  C   UNL     1     -11.654   5.867   0.909  1.00  0.00     0.009 C 
ATOM      6  C   UNL     1      -8.852   7.693  -1.152  1.00  0.00     0.000 C 
ATOM      7  C   UNL     1     -11.248   7.120   0.100  1.00  0.00     0.018 C 
ATOM      8  C   UNL     1      -7.957   5.319  -1.917  1.00  0.00     0.008 C 
ATOM      9  C   UNL     1      -9.499   8.994  -1.738  1.00  0.00     0.005 C 
ATOM     10  C   UNL     1      -7.763   6.897  -2.041  1.00  0.00    -0.024 C 
ATOM     11  C   UNL     1      -9.216   9.394  -3.187  1.00  0.00     0.005 C 
ATOM     12  C   UNL     1      -7.797   7.340  -3.605  1.00  0.00    -0.024 C 
ATOM     13  C   UNL     1      -6.354   7.169  -1.407  1.00  0.00     0.012 C 
ATOM     14  C   UNL     1      -7.848   8.914  -3.705  1.00  0.00     0.002 C 
ATOM     15  C   UNL     1      -6.529   6.848  -4.351  1.00  0.00     0.008 C 
ATOM     16  C   UNL     1      -9.034   6.683  -4.310  1.00  0.00     0.012 C 
ATOM     17  C   UNL     1      -7.388   9.664  -5.061  1.00  0.00    -0.026 C 
ATOM     18  C   UNL     1      -6.451   7.359  -5.783  1.00  0.00     0.005 C 
ATOM     19  C   UNL     1      -8.593   9.894  -6.038  1.00  0.00     0.010 C 
ATOM     20  C   UNL     1      -6.863  11.075  -4.603  1.00  0.00     0.012 C 
ATOM     21  C   UNL     1      -6.217   8.891  -5.817  1.00  0.00     0.003 C 
ATOM     22  C   UNL     1      -8.217  10.480  -7.405  1.00  0.00     0.033 C 
ATOM     23  C   UNL     1      -5.879   9.422  -7.286  1.00  0.00    -0.006 C 
ATOM     24  C   UNL     1      -7.174   9.630  -8.133  1.00  0.00     0.120 C 
ATOM     25  C   UNL     1      -5.073  10.752  -7.225  1.00  0.00     0.014 C 
ATOM     26  C   UNL     1      -4.942   8.444  -8.056  1.00  0.00     0.014 C 
ENDROOT
BRANCH   1  27
ATOM     27  C   UNL     1      -8.691   6.039   1.631  1.00  0.00     0.048 C 
ATOM     28  O   UNL     1      -8.997   5.472   2.715  1.00  0.00    -0.550 OA
ATOM     29  O   UNL     1      -7.698   7.007   1.673  1.00  0.00    -0.550 OA
ENDBRANCH   1  27
BRANCH   7  30
ATOM     30  C   UNL     1     -11.274   8.419   0.917  1.00  0.00    -0.077 C 
ATOM     31  C   UNL     1     -11.293   9.784   0.275  1.00  0.00     0.039 C 
ATOM     32  C   UNL     1     -11.254   8.347   2.261  1.00  0.00     0.008 C 
ENDBRANCH   7  30
BRANCH  24  33
ATOM     33  O   UNL     1      -7.764   8.396  -8.471  1.00  0.00    -0.393 OA
ATOM     34  H   UNL     1      -8.109   7.989  -7.634  1.00  0.00     0.210 HD
ENDBRANCH  24  33
TORSDOF 3
ENDMDL
MODEL 9
REMARK VINA RESULT:    -2.334      4.620     11.079
REMARK INTER + INTRA:          -2.434
REMARK INTER:                  -2.910
REMARK INTRA:                   0.476
REMARK UNBOUND:                 0.241
REMARK SMILES C=C(C)[C@@H]1CC[C@@]2(C(=O)[O-])CC[C@]3(C)[C@@H](CC[C@@H]4[C@]5(C)CC[C@H](O)C(C)(C)[C@@H]5CC[C@]43C)[C@H]12
REMARK SMILES IDX 7 1 6 2 33 3 11 4 5 5 15 6 4 7 12 8 16 9 13 10 17 11 31 12
REMARK SMILES IDX 14 13 18 14 30 15 32 16 19 17 29 18 21 19 20 20 28 21 22 22
REMARK SMILES IDX 25 23 23 24 26 25 27 26 8 27 9 28 10 29 2 30 3 31 1 32 24 33
REMARK H PARENT 24 34
REMARK Flexibility Score: inf
ROOT
ATOM      1  C   UNL     1      -9.852   6.673  -1.818  1.00  0.00     0.014 C 
ATOM      2  C   UNL     1     -10.028   5.596  -2.910  1.00  0.00     0.014 C 
ATOM      3  C   UNL     1      -8.705   6.019  -1.008  1.00  0.00     0.012 C 
ATOM      4  C   UNL     1     -11.111   6.893  -0.924  1.00  0.00     0.014 C 
ATOM      5  C   UNL     1      -8.590   5.207  -3.305  1.00  0.00     0.009 C 
ATOM      6  C   UNL     1      -8.305   6.811   0.270  1.00  0.00     0.000 C 
ATOM      7  C   UNL     1      -7.718   5.424  -2.047  1.00  0.00     0.018 C 
ATOM      8  C   UNL     1     -10.919   6.484   0.556  1.00  0.00     0.008 C 
ATOM      9  C   UNL     1      -6.946   6.321   0.876  1.00  0.00     0.005 C 
ATOM     10  C   UNL     1      -9.576   6.989   1.252  1.00  0.00    -0.024 C 
ATOM     11  C   UNL     1      -6.888   5.868   2.337  1.00  0.00     0.005 C 
ATOM     12  C   UNL     1      -9.370   6.232   2.676  1.00  0.00    -0.024 C 
ATOM     13  C   UNL     1      -9.795   8.529   1.456  1.00  0.00     0.012 C 
ATOM     14  C   UNL     1      -7.931   6.553   3.238  1.00  0.00     0.002 C 
ATOM     15  C   UNL     1     -10.415   6.710   3.717  1.00  0.00     0.008 C 
ATOM     16  C   UNL     1      -9.577   4.689   2.486  1.00  0.00     0.012 C 
ATOM     17  C   UNL     1      -7.611   6.384   4.814  1.00  0.00    -0.026 C 
ATOM     18  C   UNL     1     -10.173   6.133   5.105  1.00  0.00     0.005 C 
ATOM     19  C   UNL     1      -7.061   4.955   5.148  1.00  0.00     0.010 C 
ATOM     20  C   UNL     1      -6.471   7.424   5.124  1.00  0.00     0.012 C 
ATOM     21  C   UNL     1      -8.875   6.706   5.730  1.00  0.00     0.003 C 
ATOM     22  C   UNL     1      -6.859   4.670   6.642  1.00  0.00     0.033 C 
ATOM     23  C   UNL     1      -8.722   6.320   7.273  1.00  0.00    -0.006 C 
ATOM     24  C   UNL     1      -8.139   4.884   7.451  1.00  0.00     0.120 C 
ATOM     25  C   UNL     1      -7.820   7.349   8.015  1.00  0.00     0.014 C 
ATOM     26  C   UNL     1     -10.083   6.394   8.028  1.00  0.00     0.014 C 
ENDROOT
BRANCH   1  27
ATOM     27  C   UNL     1      -9.499   8.009  -2.495  1.00  0.00     0.048 C 
ATOM     28  O   UNL     1      -9.242   8.061  -3.729  1.00  0.00    -0.550 OA
ATOM     29  O   UNL     1      -9.561   9.209  -1.802  1.00  0.00    -0.550 OA
ENDBRANCH   1  27
BRANCH   7  30
ATOM     30  C   UNL     1      -6.416   6.188  -2.322  1.00  0.00    -0.077 C 
ATOM     31  C   UNL     1      -6.326   7.304  -3.334  1.00  0.00     0.039 C 
ATOM     32  C   UNL     1      -5.299   5.837  -1.659  1.00  0.00     0.008 C 
ENDBRANCH   7  30
BRANCH  24  33
ATOM     33  O   UNL     1      -9.075   3.904   7.067  1.00  0.00    -0.393 OA
ATOM     34  H   UNL     1      -9.366   4.112   6.141  1.00  0.00     0.210 HD
ENDBRANCH  24  33
TORSDOF 3
ENDMDL
