MODEL 1
REMARK VINA RESULT:    -3.864      0.000      0.000
REMARK INTER + INTRA:          -3.926
REMARK INTER:                  -4.767
REMARK INTRA:                   0.842
REMARK UNBOUND:                 0.842
REMARK SMILES CC1=CC=CC(C)(C)CC1=O
REMARK SMILES IDX 1 1 2 2 3 3 10 4 11 5 9 6 4 8 5 9 6 10 7 11 8 12
REMARK H PARENT
REMARK Flexibility Score: 80.00
ROOT
ATOM      1  C   UNL     1      11.226 -29.944  21.923  1.00  0.00     0.048 C 
ATOM      2  C   UNL     1      12.594 -30.555  22.116  1.00  0.00    -0.008 C 
ATOM      3  C   UNL     1      13.076 -31.345  21.133  1.00  0.00     0.007 C 
ENDROOT
BRANCH   2   4
ATOM      4  C   UNL     1      13.274 -30.277  23.410  1.00  0.00     0.159 C 
ATOM      5  O   UNL     1      12.740 -29.459  24.208  1.00  0.00    -0.295 OA
BRANCH   4   6
ATOM      6  C   UNL     1      14.544 -30.940  23.851  1.00  0.00     0.091 CG0
ATOM      7  G   UNL     1      15.700 -30.823  22.831  1.00  0.00     0.000 G0
ENDBRANCH   4   6
ENDBRANCH   2   4
BRANCH   3   8
ATOM      8  C   UNL     1      14.370 -32.059  21.041  1.00  0.00    -0.003 C 
ATOM      9  C   UNL     1      15.499 -31.832  21.721  1.00  0.00    -0.020 C 
BRANCH   9  10
ATOM     10  C   UNL     1      15.688 -30.809  22.816  1.00  0.00    -0.010 CG0
ATOM     11  C   UNL     1      17.011 -31.127  23.551  1.00  0.00     0.016 C 
ATOM     12  C   UNL     1      15.811 -29.392  22.211  1.00  0.00     0.016 C 
ATOM     13  G   UNL     1      14.532 -30.926  23.834  1.00  0.00     0.000 G0
ENDBRANCH   9  10
ENDBRANCH   3   8
TORSDOF 0
ENDMDL
MODEL 2
REMARK VINA RESULT:    -3.772      8.852     10.708
REMARK INTER + INTRA:          -3.812
REMARK INTER:                  -4.650
REMARK INTRA:                   0.838
REMARK UNBOUND:                 0.842
REMARK SMILES CC1=CC=CC(C)(C)CC1=O
REMARK SMILES IDX 1 1 2 2 3 3 10 4 11 5 9 6 4 8 5 9 6 10 7 11 8 12
REMARK H PARENT
REMARK Flexibility Score: 80.00
ROOT
ATOM      1  C   UNL     1      24.373 -22.127  22.505  1.00  0.00     0.048 C 
ATOM      2  C   UNL     1      23.513 -23.100  21.733  1.00  0.00    -0.008 C 
ATOM      3  C   UNL     1      23.930 -23.473  20.503  1.00  0.00     0.007 C 
ENDROOT
BRANCH   2   4
ATOM      4  C   UNL     1      22.242 -23.526  22.377  1.00  0.00     0.159 C 
ATOM      5  O   UNL     1      21.992 -23.119  23.545  1.00  0.00    -0.295 OA
BRANCH   4   6
ATOM      6  C   UNL     1      21.208 -24.384  21.711  1.00  0.00     0.091 CG0
ATOM      7  G   UNL     1      21.774 -25.682  21.092  1.00  0.00     0.000 G0
ENDBRANCH   4   6
ENDBRANCH   2   4
BRANCH   3   8
ATOM      8  C   UNL     1      23.309 -24.406  19.535  1.00  0.00    -0.003 C 
ATOM      9  C   UNL     1      22.408 -25.368  19.764  1.00  0.00    -0.020 C 
BRANCH   9  10
ATOM     10  C   UNL     1      21.755 -25.679  21.089  1.00  0.00    -0.010 CG0
ATOM     11  C   UNL     1      20.550 -26.611  20.826  1.00  0.00     0.016 C 
ATOM     12  C   UNL     1      22.743 -26.430  22.011  1.00  0.00     0.016 C 
ATOM     13  G   UNL     1      21.224 -24.372  21.720  1.00  0.00     0.000 G0
ENDBRANCH   9  10
ENDBRANCH   3   8
TORSDOF 0
ENDMDL
MODEL 3
REMARK VINA RESULT:    -3.771      1.602      2.742
REMARK INTER + INTRA:          -3.811
REMARK INTER:                  -4.659
REMARK INTRA:                   0.849
REMARK UNBOUND:                 0.842
REMARK SMILES CC1=CC=CC(C)(C)CC1=O
REMARK SMILES IDX 1 1 2 2 3 3 10 4 11 5 9 6 4 8 5 9 6 10 7 11 8 12
REMARK H PARENT
REMARK Flexibility Score: 80.00
ROOT
ATOM      1  C   UNL     1      12.759 -29.019  23.904  1.00  0.00     0.048 C 
ATOM      2  C   UNL     1      13.670 -29.857  23.038  1.00  0.00    -0.008 C 
ATOM      3  C   UNL     1      15.001 -29.645  23.131  1.00  0.00     0.007 C 
ENDROOT
BRANCH   2   4
ATOM      4  C   UNL     1      13.013 -30.813  22.106  1.00  0.00     0.159 C 
ATOM      5  O   UNL     1      11.756 -30.924  22.143  1.00  0.00    -0.295 OA
BRANCH   4   6
ATOM      6  C   UNL     1      13.746 -31.635  21.089  1.00  0.00     0.091 CG0
ATOM      7  G   UNL     1      14.936 -32.434  21.668  1.00  0.00     0.000 G0
ENDBRANCH   4   6
ENDBRANCH   2   4
BRANCH   3   8
ATOM      8  C   UNL     1      16.117 -30.313  22.423  1.00  0.00    -0.003 C 
ATOM      9  C   UNL     1      16.128 -31.506  21.819  1.00  0.00    -0.020 C 
BRANCH   9  10
ATOM     10  C   UNL     1      14.948 -32.434  21.660  1.00  0.00    -0.010 CG0
ATOM     11  C   UNL     1      15.324 -33.522  20.628  1.00  0.00     0.016 C 
ATOM     12  C   UNL     1      14.636 -33.139  23.000  1.00  0.00     0.016 C 
ATOM     13  G   UNL     1      13.741 -31.643  21.107  1.00  0.00     0.000 G0
ENDBRANCH   9  10
ENDBRANCH   3   8
TORSDOF 0
ENDMDL
MODEL 4
REMARK VINA RESULT:    -3.746      2.915      3.624
REMARK INTER + INTRA:          -3.780
REMARK INTER:                  -4.622
REMARK INTRA:                   0.841
REMARK UNBOUND:                 0.842
REMARK SMILES CC1=CC=CC(C)(C)CC1=O
REMARK SMILES IDX 1 1 2 2 3 3 10 4 11 5 9 6 4 8 5 9 6 10 7 11 8 12
REMARK H PARENT
REMARK Flexibility Score: 80.00
ROOT
ATOM      1  C   UNL     1      13.479 -31.738  20.706  1.00  0.00     0.048 C 
ATOM      2  C   UNL     1      14.430 -32.875  20.996  1.00  0.00    -0.008 C 
ATOM      3  C   UNL     1      14.607 -33.810  20.038  1.00  0.00     0.007 C 
ENDROOT
BRANCH   2   4
ATOM      4  C   UNL     1      15.054 -32.897  22.346  1.00  0.00     0.159 C 
ATOM      5  O   UNL     1      14.819 -31.940  23.135  1.00  0.00    -0.295 OA
BRANCH   4   6
ATOM      6  C   UNL     1      15.922 -34.009  22.854  1.00  0.00     0.091 CG0
ATOM      7  G   UNL     1      17.070 -34.397  21.894  1.00  0.00     0.000 G0
ENDBRANCH   4   6
ENDBRANCH   2   4
BRANCH   3   8
ATOM      8  C   UNL     1      15.471 -35.013  20.036  1.00  0.00    -0.003 C 
ATOM      9  C   UNL     1      16.538 -35.274  20.798  1.00  0.00    -0.020 C 
BRANCH   9  10
ATOM     10  C   UNL     1      17.073 -34.404  21.911  1.00  0.00    -0.010 CG0
ATOM     11  C   UNL     1      18.082 -35.237  22.734  1.00  0.00     0.016 C 
ATOM     12  C   UNL     1      17.827 -33.188  21.325  1.00  0.00     0.016 C 
ATOM     13  G   UNL     1      15.913 -33.994  22.846  1.00  0.00     0.000 G0
ENDBRANCH   9  10
ENDBRANCH   3   8
TORSDOF 0
ENDMDL
MODEL 5
REMARK VINA RESULT:    -3.679      8.348     10.265
REMARK INTER + INTRA:          -3.698
REMARK INTER:                  -4.549
REMARK INTRA:                   0.851
REMARK UNBOUND:                 0.842
REMARK SMILES CC1=CC=CC(C)(C)CC1=O
REMARK SMILES IDX 1 1 2 2 3 3 10 4 11 5 9 6 4 8 5 9 6 10 7 11 8 12
REMARK H PARENT
REMARK Flexibility Score: 80.00
ROOT
ATOM      1  C   UNL     1      24.065 -22.969  20.262  1.00  0.00     0.048 C 
ATOM      2  C   UNL     1      23.355 -24.194  20.788  1.00  0.00    -0.008 C 
ATOM      3  C   UNL     1      23.031 -24.222  22.098  1.00  0.00     0.007 C 
ENDROOT
BRANCH   2   4
ATOM      4  C   UNL     1      23.121 -25.299  19.819  1.00  0.00     0.159 C 
ATOM      5  O   UNL     1      23.428 -25.114  18.609  1.00  0.00    -0.295 OA
BRANCH   4   6
ATOM      6  C   UNL     1      22.577 -26.644  20.193  1.00  0.00     0.091 CG0
ATOM      7  G   UNL     1      21.256 -26.586  20.993  1.00  0.00     0.000 G0
ENDBRANCH   4   6
ENDBRANCH   2   4
BRANCH   3   8
ATOM      8  C   UNL     1      22.333 -25.269  22.879  1.00  0.00    -0.003 C 
ATOM      9  C   UNL     1      21.552 -26.260  22.435  1.00  0.00    -0.020 C 
BRANCH   9  10
ATOM     10  C   UNL     1      21.256 -26.581  20.990  1.00  0.00    -0.010 CG0
ATOM     11  C   UNL     1      20.601 -27.980  20.930  1.00  0.00     0.016 C 
ATOM     12  C   UNL     1      20.250 -25.561  20.409  1.00  0.00     0.016 C 
ATOM     13  G   UNL     1      22.579 -26.634  20.193  1.00  0.00     0.000 G0
ENDBRANCH   9  10
ENDBRANCH   3   8
TORSDOF 0
ENDMDL
MODEL 6
REMARK VINA RESULT:    -3.638      1.803      2.783
REMARK INTER + INTRA:          -3.647
REMARK INTER:                  -4.498
REMARK INTRA:                   0.852
REMARK UNBOUND:                 0.842
REMARK SMILES CC1=CC=CC(C)(C)CC1=O
REMARK SMILES IDX 1 1 2 2 3 3 10 4 11 5 9 6 4 8 5 9 6 10 7 11 8 12
REMARK H PARENT
REMARK Flexibility Score: 80.00
ROOT
ATOM      1  C   UNL     1      13.100 -29.529  23.486  1.00  0.00     0.048 C 
ATOM      2  C   UNL     1      14.057 -30.678  23.270  1.00  0.00    -0.008 C 
ATOM      3  C   UNL     1      13.844 -31.816  23.964  1.00  0.00     0.007 C 
ENDROOT
BRANCH   2   4
ATOM      4  C   UNL     1      15.196 -30.434  22.344  1.00  0.00     0.159 C 
ATOM      5  O   UNL     1      15.255 -29.328  21.739  1.00  0.00    -0.295 OA
BRANCH   4   6
ATOM      6  C   UNL     1      16.311 -31.407  22.108  1.00  0.00     0.091 CG0
ATOM      7  G   UNL     1      15.834 -32.831  21.741  1.00  0.00     0.000 G0
ENDBRANCH   4   6
ENDBRANCH   2   4
BRANCH   3   8
ATOM      8  C   UNL     1      14.599 -33.090  23.949  1.00  0.00    -0.003 C 
ATOM      9  C   UNL     1      15.427 -33.558  23.009  1.00  0.00    -0.020 C 
BRANCH   9  10
ATOM     10  C   UNL     1      15.841 -32.838  21.748  1.00  0.00    -0.010 CG0
ATOM     11  C   UNL     1      17.042 -33.591  21.133  1.00  0.00     0.016 C 
ATOM     12  C   UNL     1      14.690 -32.858  20.716  1.00  0.00     0.016 C 
ATOM     13  G   UNL     1      16.301 -31.405  22.101  1.00  0.00     0.000 G0
ENDBRANCH   9  10
ENDBRANCH   3   8
TORSDOF 0
ENDMDL
MODEL 7
REMARK VINA RESULT:    -3.610      2.819      4.155
REMARK INTER + INTRA:          -3.613
REMARK INTER:                  -4.454
REMARK INTRA:                   0.841
REMARK UNBOUND:                 0.842
REMARK SMILES CC1=CC=CC(C)(C)CC1=O
REMARK SMILES IDX 1 1 2 2 3 3 10 4 11 5 9 6 4 8 5 9 6 10 7 11 8 12
REMARK H PARENT
REMARK Flexibility Score: 80.00
ROOT
ATOM      1  C   UNL     1      16.247 -35.544  19.752  1.00  0.00     0.048 C 
ATOM      2  C   UNL     1      16.005 -34.642  20.940  1.00  0.00    -0.008 C 
ATOM      3  C   UNL     1      16.751 -34.842  22.047  1.00  0.00     0.007 C 
ENDROOT
BRANCH   2   4
ATOM      4  C   UNL     1      14.915 -33.637  20.805  1.00  0.00     0.159 C 
ATOM      5  O   UNL     1      14.320 -33.539  19.697  1.00  0.00    -0.295 OA
BRANCH   4   6
ATOM      6  C   UNL     1      14.447 -32.751  21.919  1.00  0.00     0.091 CG0
ATOM      7  G   UNL     1      15.584 -31.980  22.628  1.00  0.00     0.000 G0
ENDBRANCH   4   6
ENDBRANCH   2   4
BRANCH   3   8
ATOM      8  C   UNL     1      16.743 -34.117  23.338  1.00  0.00    -0.003 C 
ATOM      9  C   UNL     1      16.277 -32.892  23.605  1.00  0.00    -0.020 C 
BRANCH   9  10
ATOM     10  C   UNL     1      15.574 -31.976  22.632  1.00  0.00    -0.010 CG0
ATOM     11  C   UNL     1      14.913 -30.833  23.436  1.00  0.00     0.016 C 
ATOM     12  C   UNL     1      16.593 -31.343  21.658  1.00  0.00     0.016 C 
ATOM     13  G   UNL     1      14.458 -32.759  21.903  1.00  0.00     0.000 G0
ENDBRANCH   9  10
ENDBRANCH   3   8
TORSDOF 0
ENDMDL
MODEL 8
REMARK VINA RESULT:    -3.566      2.445      3.729
REMARK INTER + INTRA:          -3.559
REMARK INTER:                  -4.410
REMARK INTRA:                   0.852
REMARK UNBOUND:                 0.842
REMARK SMILES CC1=CC=CC(C)(C)CC1=O
REMARK SMILES IDX 1 1 2 2 3 3 10 4 11 5 9 6 4 8 5 9 6 10 7 11 8 12
REMARK H PARENT
REMARK Flexibility Score: 80.00
ROOT
ATOM      1  C   UNL     1      15.455 -35.127  20.137  1.00  0.00     0.048 C 
ATOM      2  C   UNL     1      15.228 -33.680  20.508  1.00  0.00    -0.008 C 
ATOM      3  C   UNL     1      14.022 -33.140  20.232  1.00  0.00     0.007 C 
ENDROOT
BRANCH   2   4
ATOM      4  C   UNL     1      16.382 -32.953  21.103  1.00  0.00     0.159 C 
ATOM      5  O   UNL     1      17.446 -33.593  21.330  1.00  0.00    -0.295 OA
BRANCH   4   6
ATOM      6  C   UNL     1      16.380 -31.488  21.418  1.00  0.00     0.091 CG0
ATOM      7  G   UNL     1      15.164 -31.027  22.253  1.00  0.00     0.000 G0
ENDBRANCH   4   6
ENDBRANCH   2   4
BRANCH   3   8
ATOM      8  C   UNL     1      13.516 -31.772  20.488  1.00  0.00    -0.003 C 
ATOM      9  C   UNL     1      13.969 -30.864  21.359  1.00  0.00    -0.020 C 
BRANCH   9  10
ATOM     10  C   UNL     1      15.177 -31.013  22.254  1.00  0.00    -0.010 CG0
ATOM     11  C   UNL     1      15.522 -29.623  22.836  1.00  0.00     0.016 C 
ATOM     12  C   UNL     1      14.855 -31.956  23.436  1.00  0.00     0.016 C 
ATOM     13  G   UNL     1      16.381 -31.496  21.415  1.00  0.00     0.000 G0
ENDBRANCH   9  10
ENDBRANCH   3   8
TORSDOF 0
ENDMDL
MODEL 9
REMARK VINA RESULT:    -3.533      2.979      4.535
REMARK INTER + INTRA:          -3.517
REMARK INTER:                  -4.378
REMARK INTRA:                   0.861
REMARK UNBOUND:                 0.842
REMARK SMILES CC1=CC=CC(C)(C)CC1=O
REMARK SMILES IDX 1 1 2 2 3 3 10 4 11 5 9 6 4 8 5 9 6 10 7 11 8 12
REMARK H PARENT
REMARK Flexibility Score: 80.00
ROOT
ATOM      1  C   UNL     1      17.764 -33.983  18.976  1.00  0.00     0.048 C 
ATOM      2  C   UNL     1      17.110 -33.332  20.173  1.00  0.00    -0.008 C 
ATOM      3  C   UNL     1      17.575 -32.128  20.569  1.00  0.00     0.007 C 
ENDROOT
BRANCH   2   4
ATOM      4  C   UNL     1      16.037 -34.108  20.851  1.00  0.00     0.159 C 
ATOM      5  O   UNL     1      15.659 -35.195  20.334  1.00  0.00    -0.295 OA
BRANCH   4   6
ATOM      6  C   UNL     1      15.394 -33.700  22.143  1.00  0.00     0.091 CG0
ATOM      7  G   UNL     1      14.836 -32.259  22.139  1.00  0.00     0.000 G0
ENDBRANCH   4   6
ENDBRANCH   2   4
BRANCH   3   8
ATOM      8  C   UNL     1      17.129 -31.261  21.684  1.00  0.00    -0.003 C 
ATOM      9  C   UNL     1      15.965 -31.281  22.343  1.00  0.00    -0.020 C 
BRANCH   9  10
ATOM     10  C   UNL     1      14.841 -32.267  22.134  1.00  0.00    -0.010 CG0
ATOM     11  C   UNL     1      13.852 -32.129  23.314  1.00  0.00     0.016 C 
ATOM     12  C   UNL     1      14.075 -31.940  20.831  1.00  0.00     0.016 C 
ATOM     13  G   UNL     1      15.409 -33.705  22.148  1.00  0.00     0.000 G0
ENDBRANCH   9  10
ENDBRANCH   3   8
TORSDOF 0
ENDMDL
