MODEL 1
REMARK VINA RESULT:    -9.102      0.000      0.000
REMARK INTER + INTRA:         -10.996
REMARK INTER:                 -10.698
REMARK INTRA:                  -0.298
REMARK UNBOUND:                -0.298
REMARK SMILES O=c1cc(-c2ccc(O)c(O)c2)oc2cc(O)cc(O)c12
REMARK SMILES IDX 4 1 3 2 2 3 1 4 21 5 19 6 18 7 16 8 15 9 14 10 13 11 5 12
REMARK SMILES IDX 6 13 7 14 8 15 12 16 10 17 9 18 11 20 20 22 17 24
REMARK H PARENT 9 19 11 21 20 23 17 25
REMARK Flexibility Score: inf
ROOT
ATOM      1  C   UNL     1     135.203 134.882 113.730  1.00  0.00     0.138 A 
ATOM      2  C   UNL     1     134.873 134.849 112.365  1.00  0.00     0.100 A 
ATOM      3  C   UNL     1     133.540 134.991 111.977  1.00  0.00     0.197 A 
ATOM      4  O   UNL     1     133.253 134.960 110.749  1.00  0.00    -0.289 OA
ATOM      5  C   UNL     1     132.545 135.170 112.959  1.00  0.00     0.107 A 
ATOM      6  C   UNL     1     131.172 135.320 112.652  1.00  0.00     0.134 A 
ATOM      7  C   UNL     1     130.243 135.501 113.688  1.00  0.00     0.093 A 
ATOM      8  C   UNL     1     130.664 135.532 115.024  1.00  0.00     0.123 A 
ATOM      9  C   UNL     1     132.018 135.383 115.330  1.00  0.00     0.094 A 
ATOM     10  C   UNL     1     132.958 135.202 114.312  1.00  0.00     0.146 A 
ATOM     11  O   UNL     1     134.240 135.062 114.632  1.00  0.00    -0.456 OA
ENDROOT
BRANCH   1  12
ATOM     12  C   UNL     1     136.604 134.737 114.200  1.00  0.00     0.021 A 
ATOM     13  C   UNL     1     136.872 134.732 115.578  1.00  0.00     0.016 A 
ATOM     14  C   UNL     1     138.180 134.591 116.046  1.00  0.00     0.051 A 
ATOM     15  C   UNL     1     139.246 134.441 115.153  1.00  0.00     0.157 A 
ATOM     16  C   UNL     1     137.674 134.572 113.301  1.00  0.00     0.062 A 
ATOM     17  C   UNL     1     138.988 134.426 113.763  1.00  0.00     0.158 A 
BRANCH  15  18
ATOM     18  O   UNL     1     140.529 134.310 115.687  1.00  0.00    -0.504 OA
ATOM     19  H   UNL     1     140.970 133.423 115.883  1.00  0.00     0.293 HD
ENDBRANCH  15  18
BRANCH  17  20
ATOM     20  O   UNL     1     139.999 134.264 112.812  1.00  0.00    -0.504 OA
ATOM     21  H   UNL     1     140.981 134.396 113.003  1.00  0.00     0.293 HD
ENDBRANCH  17  20
ENDBRANCH   1  12
BRANCH   6  22
ATOM     22  O   UNL     1     130.724 135.293 111.330  1.00  0.00    -0.507 OA
ATOM     23  H   UNL     1     130.388 134.441 110.899  1.00  0.00     0.293 HD
ENDBRANCH   6  22
BRANCH   8  24
ATOM     24  O   UNL     1     129.742 135.711 116.052  1.00  0.00    -0.508 OA
ATOM     25  H   UNL     1     129.098 134.976 116.322  1.00  0.00     0.293 HD
ENDBRANCH   8  24
TORSDOF 5
ENDMDL
MODEL 2
REMARK VINA RESULT:    -8.772      1.693      2.862
REMARK INTER + INTRA:         -10.608
REMARK INTER:                 -10.306
REMARK INTRA:                  -0.302
REMARK UNBOUND:                -0.298
REMARK SMILES O=c1cc(-c2ccc(O)c(O)c2)oc2cc(O)cc(O)c12
REMARK SMILES IDX 4 1 3 2 2 3 1 4 21 5 19 6 18 7 16 8 15 9 14 10 13 11 5 12
REMARK SMILES IDX 6 13 7 14 8 15 12 16 10 17 9 18 11 20 20 22 17 24
REMARK H PARENT 9 19 11 21 20 23 17 25
REMARK Flexibility Score: inf
ROOT
ATOM      1  C   UNL     1     134.884 134.633 113.415  1.00  0.00     0.138 A 
ATOM      2  C   UNL     1     133.937 135.417 114.094  1.00  0.00     0.100 A 
ATOM      3  C   UNL     1     132.599 135.377 113.697  1.00  0.00     0.197 A 
ATOM      4  O   UNL     1     131.756 136.084 114.312  1.00  0.00    -0.289 OA
ATOM      5  C   UNL     1     132.218 134.548 112.623  1.00  0.00     0.107 A 
ATOM      6  C   UNL     1     130.886 134.449 112.156  1.00  0.00     0.134 A 
ATOM      7  C   UNL     1     130.587 133.594 111.083  1.00  0.00     0.093 A 
ATOM      8  C   UNL     1     131.595 132.839 110.472  1.00  0.00     0.123 A 
ATOM      9  C   UNL     1     132.910 132.934 110.930  1.00  0.00     0.094 A 
ATOM     10  C   UNL     1     133.228 133.780 111.996  1.00  0.00     0.146 A 
ATOM     11  O   UNL     1     134.489 133.853 112.411  1.00  0.00    -0.456 OA
ENDROOT
BRANCH   1  12
ATOM     12  C   UNL     1     136.319 134.636 113.795  1.00  0.00     0.021 A 
ATOM     13  C   UNL     1     136.674 134.753 115.149  1.00  0.00     0.016 A 
ATOM     14  C   UNL     1     138.016 134.752 115.533  1.00  0.00     0.051 A 
ATOM     15  C   UNL     1     139.032 134.625 114.581  1.00  0.00     0.157 A 
ATOM     16  C   UNL     1     137.340 134.494 112.838  1.00  0.00     0.062 A 
ATOM     17  C   UNL     1     138.688 134.489 113.216  1.00  0.00     0.158 A 
BRANCH  15  18
ATOM     18  O   UNL     1     140.353 134.638 115.031  1.00  0.00    -0.504 OA
ATOM     19  H   UNL     1     140.617 134.613 116.006  1.00  0.00     0.293 HD
ENDBRANCH  15  18
BRANCH  17  20
ATOM     20  O   UNL     1     139.647 134.341 112.210  1.00  0.00    -0.504 OA
ATOM     21  H   UNL     1     140.315 133.586 112.172  1.00  0.00     0.293 HD
ENDBRANCH  17  20
ENDBRANCH   1  12
BRANCH   6  22
ATOM     22  O   UNL     1     129.861 135.189 112.746  1.00  0.00    -0.507 OA
ATOM     23  H   UNL     1     129.989 136.157 113.017  1.00  0.00     0.293 HD
ENDBRANCH   6  22
BRANCH   8  24
ATOM     24  O   UNL     1     131.297 131.991 109.408  1.00  0.00    -0.508 OA
ATOM     25  H   UNL     1     130.418 132.054 108.908  1.00  0.00     0.293 HD
ENDBRANCH   8  24
TORSDOF 5
ENDMDL
MODEL 3
REMARK VINA RESULT:    -8.634      1.845      3.406
REMARK INTER + INTRA:         -10.445
REMARK INTER:                 -10.177
REMARK INTRA:                  -0.269
REMARK UNBOUND:                -0.298
REMARK SMILES O=c1cc(-c2ccc(O)c(O)c2)oc2cc(O)cc(O)c12
REMARK SMILES IDX 4 1 3 2 2 3 1 4 21 5 19 6 18 7 16 8 15 9 14 10 13 11 5 12
REMARK SMILES IDX 6 13 7 14 8 15 12 16 10 17 9 18 11 20 20 22 17 24
REMARK H PARENT 9 19 11 21 20 23 17 25
REMARK Flexibility Score: inf
ROOT
ATOM      1  C   UNL     1     135.361 134.566 114.321  1.00  0.00     0.138 A 
ATOM      2  C   UNL     1     134.307 135.419 114.691  1.00  0.00     0.100 A 
ATOM      3  C   UNL     1     133.112 135.387 113.971  1.00  0.00     0.197 A 
ATOM      4  O   UNL     1     132.172 136.156 114.310  1.00  0.00    -0.289 OA
ATOM      5  C   UNL     1     132.978 134.497 112.886  1.00  0.00     0.107 A 
ATOM      6  C   UNL     1     131.803 134.403 112.104  1.00  0.00     0.134 A 
ATOM      7  C   UNL     1     131.746 133.486 111.042  1.00  0.00     0.093 A 
ATOM      8  C   UNL     1     132.843 132.665 110.751  1.00  0.00     0.123 A 
ATOM      9  C   UNL     1     134.004 132.756 111.521  1.00  0.00     0.094 A 
ATOM     10  C   UNL     1     134.080 133.663 112.581  1.00  0.00     0.146 A 
ATOM     11  O   UNL     1     135.198 133.731 113.298  1.00  0.00    -0.456 OA
ENDROOT
BRANCH   1  12
ATOM     12  C   UNL     1     136.653 134.557 115.052  1.00  0.00     0.021 A 
ATOM     13  C   UNL     1     137.839 134.850 114.360  1.00  0.00     0.016 A 
ATOM     14  C   UNL     1     139.066 134.853 115.025  1.00  0.00     0.051 A 
ATOM     15  C   UNL     1     139.138 134.576 116.393  1.00  0.00     0.157 A 
ATOM     16  C   UNL     1     136.723 134.291 116.432  1.00  0.00     0.062 A 
ATOM     17  C   UNL     1     137.950 134.297 117.107  1.00  0.00     0.158 A 
BRANCH  15  18
ATOM     18  O   UNL     1     140.397 134.591 116.996  1.00  0.00    -0.504 OA
ATOM     19  H   UNL     1     141.268 134.566 116.485  1.00  0.00     0.293 HD
ENDBRANCH  15  18
BRANCH  17  20
ATOM     20  O   UNL     1     137.941 134.027 118.478  1.00  0.00    -0.504 OA
ATOM     21  H   UNL     1     137.260 134.400 119.123  1.00  0.00     0.293 HD
ENDBRANCH  17  20
ENDBRANCH   1  12
BRANCH   6  22
ATOM     22  O   UNL     1     130.695 135.208 112.370  1.00  0.00    -0.507 OA
ATOM     23  H   UNL     1     130.085 135.032 113.160  1.00  0.00     0.293 HD
ENDBRANCH   6  22
BRANCH   8  24
ATOM     24  O   UNL     1     132.787 131.755 109.698  1.00  0.00    -0.508 OA
ATOM     25  H   UNL     1     132.115 130.996 109.688  1.00  0.00     0.293 HD
ENDBRANCH   8  24
TORSDOF 5
ENDMDL
MODEL 4
REMARK VINA RESULT:    -8.581      1.533      6.872
REMARK INTER + INTRA:         -10.384
REMARK INTER:                 -10.096
REMARK INTRA:                  -0.288
REMARK UNBOUND:                -0.298
REMARK SMILES O=c1cc(-c2ccc(O)c(O)c2)oc2cc(O)cc(O)c12
REMARK SMILES IDX 4 1 3 2 2 3 1 4 21 5 19 6 18 7 16 8 15 9 14 10 13 11 5 12
REMARK SMILES IDX 6 13 7 14 8 15 12 16 10 17 9 18 11 20 20 22 17 24
REMARK H PARENT 9 19 11 21 20 23 17 25
REMARK Flexibility Score: inf
ROOT
ATOM      1  C   UNL     1     134.535 134.762 114.844  1.00  0.00     0.138 A 
ATOM      2  C   UNL     1     134.805 134.717 113.466  1.00  0.00     0.100 A 
ATOM      3  C   UNL     1     136.127 134.637 113.027  1.00  0.00     0.197 A 
ATOM      4  O   UNL     1     136.360 134.596 111.788  1.00  0.00    -0.289 OA
ATOM      5  C   UNL     1     137.172 134.598 113.972  1.00  0.00     0.107 A 
ATOM      6  C   UNL     1     138.538 134.519 113.613  1.00  0.00     0.134 A 
ATOM      7  C   UNL     1     139.520 134.479 114.616  1.00  0.00     0.093 A 
ATOM      8  C   UNL     1     139.158 134.518 115.968  1.00  0.00     0.123 A 
ATOM      9  C   UNL     1     137.811 134.597 116.326  1.00  0.00     0.094 A 
ATOM     10  C   UNL     1     136.819 134.638 115.342  1.00  0.00     0.146 A 
ATOM     11  O   UNL     1     135.544 134.714 115.710  1.00  0.00    -0.456 OA
ENDROOT
BRANCH   1  12
ATOM     12  C   UNL     1     133.148 134.847 115.367  1.00  0.00     0.021 A 
ATOM     13  C   UNL     1     132.847 134.284 116.617  1.00  0.00     0.016 A 
ATOM     14  C   UNL     1     131.552 134.356 117.134  1.00  0.00     0.051 A 
ATOM     15  C   UNL     1     130.533 134.997 116.423  1.00  0.00     0.157 A 
ATOM     16  C   UNL     1     132.127 135.505 114.656  1.00  0.00     0.062 A 
ATOM     17  C   UNL     1     130.826 135.585 115.170  1.00  0.00     0.158 A 
BRANCH  15  18
ATOM     18  O   UNL     1     129.259 135.029 116.993  1.00  0.00    -0.504 OA
ATOM     19  H   UNL     1     129.012 135.599 117.790  1.00  0.00     0.293 HD
ENDBRANCH  15  18
BRANCH  17  20
ATOM     20  O   UNL     1     129.865 136.256 114.410  1.00  0.00    -0.504 OA
ATOM     21  H   UNL     1     129.844 137.256 114.281  1.00  0.00     0.293 HD
ENDBRANCH  17  20
ENDBRANCH   1  12
BRANCH   6  22
ATOM     22  O   UNL     1     138.928 134.478 112.274  1.00  0.00    -0.507 OA
ATOM     23  H   UNL     1     139.592 133.794 111.932  1.00  0.00     0.293 HD
ENDBRANCH   6  22
BRANCH   8  24
ATOM     24  O   UNL     1     140.132 134.478 116.963  1.00  0.00    -0.508 OA
ATOM     25  H   UNL     1     140.458 133.600 117.352  1.00  0.00     0.293 HD
ENDBRANCH   8  24
TORSDOF 5
ENDMDL
MODEL 5
REMARK VINA RESULT:    -8.483      8.597     10.395
REMARK INTER + INTRA:         -10.269
REMARK INTER:                  -9.975
REMARK INTRA:                  -0.294
REMARK UNBOUND:                -0.298
REMARK SMILES O=c1cc(-c2ccc(O)c(O)c2)oc2cc(O)cc(O)c12
REMARK SMILES IDX 4 1 3 2 2 3 1 4 21 5 19 6 18 7 16 8 15 9 14 10 13 11 5 12
REMARK SMILES IDX 6 13 7 14 8 15 12 16 10 17 9 18 11 20 20 22 17 24
REMARK H PARENT 9 19 11 21 20 23 17 25
REMARK Flexibility Score: inf
ROOT
ATOM      1  C   UNL     1     126.323 135.128 110.987  1.00  0.00     0.138 A 
ATOM      2  C   UNL     1     127.095 134.807 112.116  1.00  0.00     0.100 A 
ATOM      3  C   UNL     1     126.466 134.619 113.348  1.00  0.00     0.197 A 
ATOM      4  O   UNL     1     127.167 134.332 114.356  1.00  0.00    -0.289 OA
ATOM      5  C   UNL     1     125.066 134.750 113.440  1.00  0.00     0.107 A 
ATOM      6  C   UNL     1     124.351 134.577 114.648  1.00  0.00     0.134 A 
ATOM      7  C   UNL     1     122.954 134.719 114.656  1.00  0.00     0.093 A 
ATOM      8  C   UNL     1     122.263 135.029 113.478  1.00  0.00     0.123 A 
ATOM      9  C   UNL     1     122.966 135.201 112.284  1.00  0.00     0.094 A 
ATOM     10  C   UNL     1     124.357 135.065 112.256  1.00  0.00     0.146 A 
ATOM     11  O   UNL     1     125.002 135.234 111.106  1.00  0.00    -0.456 OA
ENDROOT
BRANCH   1  12
ATOM     12  C   UNL     1     126.939 135.338 109.652  1.00  0.00     0.021 A 
ATOM     13  C   UNL     1     127.922 134.444 109.198  1.00  0.00     0.016 A 
ATOM     14  C   UNL     1     128.512 134.617 107.944  1.00  0.00     0.051 A 
ATOM     15  C   UNL     1     128.130 135.674 107.114  1.00  0.00     0.157 A 
ATOM     16  C   UNL     1     126.543 136.395 108.811  1.00  0.00     0.062 A 
ATOM     17  C   UNL     1     127.128 136.571 107.551  1.00  0.00     0.158 A 
BRANCH  15  18
ATOM     18  O   UNL     1     128.763 135.793 105.875  1.00  0.00    -0.504 OA
ATOM     19  H   UNL     1     129.603 135.292 105.621  1.00  0.00     0.293 HD
ENDBRANCH  15  18
BRANCH  17  20
ATOM     20  O   UNL     1     126.683 137.641 106.770  1.00  0.00    -0.504 OA
ATOM     21  H   UNL     1     127.043 137.860 105.853  1.00  0.00     0.293 HD
ENDBRANCH  17  20
ENDBRANCH   1  12
BRANCH   6  22
ATOM     22  O   UNL     1     125.012 134.267 115.837  1.00  0.00    -0.507 OA
ATOM     23  H   UNL     1     124.819 133.415 116.348  1.00  0.00     0.293 HD
ENDBRANCH   6  22
BRANCH   8  24
ATOM     24  O   UNL     1     120.878 135.169 113.485  1.00  0.00    -0.508 OA
ATOM     25  H   UNL     1     120.383 135.514 114.301  1.00  0.00     0.293 HD
ENDBRANCH   8  24
TORSDOF 5
ENDMDL
MODEL 6
REMARK VINA RESULT:    -8.460      4.298      9.559
REMARK INTER + INTRA:         -10.241
REMARK INTER:                  -9.933
REMARK INTRA:                  -0.308
REMARK UNBOUND:                -0.298
REMARK SMILES O=c1cc(-c2ccc(O)c(O)c2)oc2cc(O)cc(O)c12
REMARK SMILES IDX 4 1 3 2 2 3 1 4 21 5 19 6 18 7 16 8 15 9 14 10 13 11 5 12
REMARK SMILES IDX 6 13 7 14 8 15 12 16 10 17 9 18 11 20 20 22 17 24
REMARK H PARENT 9 19 11 21 20 23 17 25
REMARK Flexibility Score: inf
ROOT
ATOM      1  C   UNL     1     128.404 134.780 112.065  1.00  0.00     0.138 A 
ATOM      2  C   UNL     1     129.180 135.632 112.870  1.00  0.00     0.100 A 
ATOM      3  C   UNL     1     130.569 135.492 112.878  1.00  0.00     0.197 A 
ATOM      4  O   UNL     1     131.257 136.261 113.603  1.00  0.00    -0.289 OA
ATOM      5  C   UNL     1     131.173 134.503 112.077  1.00  0.00     0.107 A 
ATOM      6  C   UNL     1     132.571 134.294 112.028  1.00  0.00     0.134 A 
ATOM      7  C   UNL     1     133.096 133.290 111.198  1.00  0.00     0.093 A 
ATOM      8  C   UNL     1     132.247 132.493 110.420  1.00  0.00     0.123 A 
ATOM      9  C   UNL     1     130.866 132.696 110.467  1.00  0.00     0.094 A 
ATOM     10  C   UNL     1     130.325 133.690 111.287  1.00  0.00     0.146 A 
ATOM     11  O   UNL     1     129.007 133.862 111.313  1.00  0.00    -0.456 OA
ENDROOT
BRANCH   1  12
ATOM     12  C   UNL     1     126.924 134.884 112.017  1.00  0.00     0.021 A 
ATOM     13  C   UNL     1     126.231 135.390 113.128  1.00  0.00     0.016 A 
ATOM     14  C   UNL     1     124.840 135.503 113.106  1.00  0.00     0.051 A 
ATOM     15  C   UNL     1     124.111 135.125 111.974  1.00  0.00     0.157 A 
ATOM     16  C   UNL     1     126.192 134.517 110.872  1.00  0.00     0.062 A 
ATOM     17  C   UNL     1     124.797 134.632 110.841  1.00  0.00     0.158 A 
BRANCH  15  18
ATOM     18  O   UNL     1     122.722 135.259 112.019  1.00  0.00    -0.504 OA
ATOM     19  H   UNL     1     122.100 134.562 112.406  1.00  0.00     0.293 HD
ENDBRANCH  15  18
BRANCH  17  20
ATOM     20  O   UNL     1     124.138 134.251 109.669  1.00  0.00    -0.504 OA
ATOM     21  H   UNL     1     123.963 134.870 108.892  1.00  0.00     0.293 HD
ENDBRANCH  17  20
ENDBRANCH   1  12
BRANCH   6  22
ATOM     22  O   UNL     1     133.442 135.072 112.792  1.00  0.00    -0.507 OA
ATOM     23  H   UNL     1     134.438 135.091 112.611  1.00  0.00     0.293 HD
ENDBRANCH   6  22
BRANCH   8  24
ATOM     24  O   UNL     1     132.767 131.497 109.597  1.00  0.00    -0.508 OA
ATOM     25  H   UNL     1     132.219 131.086 108.850  1.00  0.00     0.293 HD
ENDBRANCH   8  24
TORSDOF 5
ENDMDL
MODEL 7
REMARK VINA RESULT:    -8.410      4.413      6.821
REMARK INTER + INTRA:         -10.183
REMARK INTER:                  -9.899
REMARK INTRA:                  -0.283
REMARK UNBOUND:                -0.298
REMARK SMILES O=c1cc(-c2ccc(O)c(O)c2)oc2cc(O)cc(O)c12
REMARK SMILES IDX 4 1 3 2 2 3 1 4 21 5 19 6 18 7 16 8 15 9 14 10 13 11 5 12
REMARK SMILES IDX 6 13 7 14 8 15 12 16 10 17 9 18 11 20 20 22 17 24
REMARK H PARENT 9 19 11 21 20 23 17 25
REMARK Flexibility Score: inf
ROOT
ATOM      1  C   UNL     1     128.955 134.020 111.144  1.00  0.00     0.138 A 
ATOM      2  C   UNL     1     128.243 134.042 109.933  1.00  0.00     0.100 A 
ATOM      3  C   UNL     1     126.883 134.356 109.941  1.00  0.00     0.197 A 
ATOM      4  O   UNL     1     126.252 134.374 108.850  1.00  0.00    -0.289 OA
ATOM      5  C   UNL     1     126.245 134.650 111.163  1.00  0.00     0.107 A 
ATOM      6  C   UNL     1     124.872 134.976 111.260  1.00  0.00     0.134 A 
ATOM      7  C   UNL     1     124.312 135.262 112.515  1.00  0.00     0.093 A 
ATOM      8  C   UNL     1     125.101 135.227 113.672  1.00  0.00     0.123 A 
ATOM      9  C   UNL     1     126.456 134.905 113.580  1.00  0.00     0.094 A 
ATOM     10  C   UNL     1     127.032 134.616 112.339  1.00  0.00     0.146 A 
ATOM     11  O   UNL     1     128.324 134.312 112.280  1.00  0.00    -0.456 OA
ENDROOT
BRANCH   1  12
ATOM     12  C   UNL     1     130.402 133.693 111.195  1.00  0.00     0.021 A 
ATOM     13  C   UNL     1     131.233 134.377 112.097  1.00  0.00     0.016 A 
ATOM     14  C   UNL     1     132.595 134.084 112.168  1.00  0.00     0.051 A 
ATOM     15  C   UNL     1     133.159 133.100 111.351  1.00  0.00     0.157 A 
ATOM     16  C   UNL     1     130.965 132.692 110.382  1.00  0.00     0.062 A 
ATOM     17  C   UNL     1     132.331 132.390 110.451  1.00  0.00     0.158 A 
BRANCH  15  18
ATOM     18  O   UNL     1     134.529 132.860 111.469  1.00  0.00    -0.504 OA
ATOM     19  H   UNL     1     135.049 132.246 110.857  1.00  0.00     0.293 HD
ENDBRANCH  15  18
BRANCH  17  20
ATOM     20  O   UNL     1     132.819 131.382 109.614  1.00  0.00    -0.504 OA
ATOM     21  H   UNL     1     133.608 131.494 108.996  1.00  0.00     0.293 HD
ENDBRANCH  17  20
ENDBRANCH   1  12
BRANCH   6  22
ATOM     22  O   UNL     1     124.061 135.019 110.125  1.00  0.00    -0.507 OA
ATOM     23  H   UNL     1     124.399 135.381 109.241  1.00  0.00     0.293 HD
ENDBRANCH   6  22
BRANCH   8  24
ATOM     24  O   UNL     1     124.545 135.511 114.917  1.00  0.00    -0.508 OA
ATOM     25  H   UNL     1     124.219 136.442 115.152  1.00  0.00     0.293 HD
ENDBRANCH   8  24
TORSDOF 5
ENDMDL
MODEL 8
REMARK VINA RESULT:    -8.410      3.756      6.654
REMARK INTER + INTRA:         -10.183
REMARK INTER:                  -9.919
REMARK INTRA:                  -0.264
REMARK UNBOUND:                -0.298
REMARK SMILES O=c1cc(-c2ccc(O)c(O)c2)oc2cc(O)cc(O)c12
REMARK SMILES IDX 4 1 3 2 2 3 1 4 21 5 19 6 18 7 16 8 15 9 14 10 13 11 5 12
REMARK SMILES IDX 6 13 7 14 8 15 12 16 10 17 9 18 11 20 20 22 17 24
REMARK H PARENT 9 19 11 21 20 23 17 25
REMARK Flexibility Score: inf
ROOT
ATOM      1  C   UNL     1     129.840 134.658 111.838  1.00  0.00     0.138 A 
ATOM      2  C   UNL     1     128.487 134.566 112.205  1.00  0.00     0.100 A 
ATOM      3  C   UNL     1     127.499 134.726 111.233  1.00  0.00     0.197 A 
ATOM      4  O   UNL     1     126.287 134.641 111.571  1.00  0.00    -0.289 OA
ATOM      5  C   UNL     1     127.872 134.973 109.896  1.00  0.00     0.107 A 
ATOM      6  C   UNL     1     126.936 135.148 108.850  1.00  0.00     0.134 A 
ATOM      7  C   UNL     1     127.389 135.384 107.543  1.00  0.00     0.093 A 
ATOM      8  C   UNL     1     128.760 135.449 107.265  1.00  0.00     0.123 A 
ATOM      9  C   UNL     1     129.687 135.277 108.295  1.00  0.00     0.094 A 
ATOM     10  C   UNL     1     129.255 135.041 109.603  1.00  0.00     0.146 A 
ATOM     11  O   UNL     1     130.159 134.882 110.565  1.00  0.00    -0.456 OA
ENDROOT
BRANCH   1  12
ATOM     12  C   UNL     1     130.932 134.496 112.830  1.00  0.00     0.021 A 
ATOM     13  C   UNL     1     131.566 133.250 112.961  1.00  0.00     0.016 A 
ATOM     14  C   UNL     1     132.600 133.073 113.882  1.00  0.00     0.051 A 
ATOM     15  C   UNL     1     133.031 134.134 114.685  1.00  0.00     0.157 A 
ATOM     16  C   UNL     1     131.375 135.567 113.628  1.00  0.00     0.062 A 
ATOM     17  C   UNL     1     132.414 135.399 114.551  1.00  0.00     0.158 A 
BRANCH  15  18
ATOM     18  O   UNL     1     134.066 133.888 115.590  1.00  0.00    -0.504 OA
ATOM     19  H   UNL     1     133.929 133.763 116.583  1.00  0.00     0.293 HD
ENDBRANCH  15  18
BRANCH  17  20
ATOM     20  O   UNL     1     132.801 136.509 115.307  1.00  0.00    -0.504 OA
ATOM     21  H   UNL     1     132.991 136.480 116.297  1.00  0.00     0.293 HD
ENDBRANCH  17  20
ENDBRANCH   1  12
BRANCH   6  22
ATOM     22  O   UNL     1     125.564 135.088 109.097  1.00  0.00    -0.507 OA
ATOM     23  H   UNL     1     125.084 134.207 109.237  1.00  0.00     0.293 HD
ENDBRANCH   6  22
BRANCH   8  24
ATOM     24  O   UNL     1     129.210 135.684 105.968  1.00  0.00    -0.508 OA
ATOM     25  H   UNL     1     129.592 134.939 105.396  1.00  0.00     0.293 HD
ENDBRANCH   8  24
TORSDOF 5
ENDMDL
MODEL 9
REMARK VINA RESULT:    -8.284      3.254      7.830
REMARK INTER + INTRA:         -10.034
REMARK INTER:                  -9.770
REMARK INTRA:                  -0.264
REMARK UNBOUND:                -0.298
REMARK SMILES O=c1cc(-c2ccc(O)c(O)c2)oc2cc(O)cc(O)c12
REMARK SMILES IDX 4 1 3 2 2 3 1 4 21 5 19 6 18 7 16 8 15 9 14 10 13 11 5 12
REMARK SMILES IDX 6 13 7 14 8 15 12 16 10 17 9 18 11 20 20 22 17 24
REMARK H PARENT 9 19 11 21 20 23 17 25
REMARK Flexibility Score: inf
ROOT
ATOM      1  C   UNL     1     130.910 134.548 111.151  1.00  0.00     0.138 A 
ATOM      2  C   UNL     1     130.169 135.117 112.200  1.00  0.00     0.100 A 
ATOM      3  C   UNL     1     130.820 135.499 113.373  1.00  0.00     0.197 A 
ATOM      4  O   UNL     1     130.147 136.009 114.309  1.00  0.00    -0.289 OA
ATOM      5  C   UNL     1     132.212 135.313 113.488  1.00  0.00     0.107 A 
ATOM      6  C   UNL     1     132.949 135.671 114.641  1.00  0.00     0.134 A 
ATOM      7  C   UNL     1     134.336 135.459 114.674  1.00  0.00     0.093 A 
ATOM      8  C   UNL     1     134.997 134.895 113.576  1.00  0.00     0.123 A 
ATOM      9  C   UNL     1     134.273 134.540 112.436  1.00  0.00     0.094 A 
ATOM     10  C   UNL     1     132.891 134.743 112.384  1.00  0.00     0.146 A 
ATOM     11  O   UNL     1     132.226 134.395 111.287  1.00  0.00    -0.456 OA
ENDROOT
BRANCH   1  12
ATOM     12  C   UNL     1     130.270 134.124 109.880  1.00  0.00     0.021 A 
ATOM     13  C   UNL     1     129.878 132.786 109.719  1.00  0.00     0.016 A 
ATOM     14  C   UNL     1     129.269 132.363 108.536  1.00  0.00     0.051 A 
ATOM     15  C   UNL     1     129.027 133.264 107.495  1.00  0.00     0.157 A 
ATOM     16  C   UNL     1     130.015 135.035 108.839  1.00  0.00     0.062 A 
ATOM     17  C   UNL     1     129.400 134.619 107.651  1.00  0.00     0.158 A 
BRANCH  15  18
ATOM     18  O   UNL     1     128.419 132.775 106.337  1.00  0.00    -0.504 OA
ATOM     19  H   UNL     1     127.605 133.192 105.908  1.00  0.00     0.293 HD
ENDBRANCH  15  18
BRANCH  17  20
ATOM     20  O   UNL     1     129.176 135.580 106.661  1.00  0.00    -0.504 OA
ATOM     21  H   UNL     1     129.197 136.575 106.826  1.00  0.00     0.293 HD
ENDBRANCH  17  20
ENDBRANCH   1  12
BRANCH   6  22
ATOM     22  O   UNL     1     132.318 136.235 115.751  1.00  0.00    -0.507 OA
ATOM     23  H   UNL     1     131.309 136.245 115.843  1.00  0.00     0.293 HD
ENDBRANCH   6  22
BRANCH   8  24
ATOM     24  O   UNL     1     136.373 134.684 113.609  1.00  0.00    -0.508 OA
ATOM     25  H   UNL     1     136.766 133.753 113.684  1.00  0.00     0.293 HD
ENDBRANCH   8  24
TORSDOF 5
ENDMDL
