MODEL 1
REMARK VINA RESULT:    -3.535      0.000      0.000
REMARK INTER + INTRA:          -4.837
REMARK INTER:                  -4.569
REMARK INTRA:                  -0.268
REMARK UNBOUND:                -0.268
REMARK SMILES CCCCCCC(=O)[O-]
REMARK SMILES IDX 5 1 6 2 7 3 8 4 9 5 4 6 3 7 2 8 1 9
REMARK H PARENT
REMARK Flexibility Score: inf
ROOT
ATOM      1  C   UNL     1       5.400  48.237  31.729  1.00  0.00     0.006 C 
ENDROOT
BRANCH   1   2
ATOM      2  C   UNL     1       6.233  47.846  30.506  1.00  0.00     0.053 C 
BRANCH   2   3
ATOM      3  C   UNL     1       5.820  48.645  29.311  1.00  0.00     0.041 C 
ATOM      4  O   UNL     1       5.887  49.903  29.336  1.00  0.00    -0.550 OA
ATOM      5  O   UNL     1       5.407  48.002  28.151  1.00  0.00    -0.550 OA
ENDBRANCH   2   3
ENDBRANCH   1   2
BRANCH   1   6
ATOM      6  C   UNL     1       6.235  48.147  33.015  1.00  0.00     0.000 C 
BRANCH   6   7
ATOM      7  C   UNL     1       7.391  49.160  33.043  1.00  0.00    -0.000 C 
BRANCH   7   8
ATOM      8  C   UNL     1       8.768  48.484  33.125  1.00  0.00    -0.003 C 
ATOM      9  C   UNL     1       9.619  48.825  31.906  1.00  0.00     0.004 C 
ENDBRANCH   7   8
ENDBRANCH   6   7
ENDBRANCH   1   6
TORSDOF 5
ENDMDL
MODEL 2
REMARK VINA RESULT:    -3.509      3.287      4.673
REMARK INTER + INTRA:          -4.802
REMARK INTER:                  -4.585
REMARK INTRA:                  -0.217
REMARK UNBOUND:                -0.268
REMARK SMILES CCCCCCC(=O)[O-]
REMARK SMILES IDX 5 1 6 2 7 3 8 4 9 5 4 6 3 7 2 8 1 9
REMARK H PARENT
REMARK Flexibility Score: inf
ROOT
ATOM      1  C   UNL     1       6.215  47.552  32.285  1.00  0.00     0.006 C 
ENDROOT
BRANCH   1   2
ATOM      2  C   UNL     1       7.112  48.467  33.123  1.00  0.00     0.053 C 
BRANCH   2   3
ATOM      3  C   UNL     1       6.758  48.364  34.573  1.00  0.00     0.041 C 
ATOM      4  O   UNL     1       7.422  47.613  35.335  1.00  0.00    -0.550 OA
ATOM      5  O   UNL     1       5.728  49.136  35.095  1.00  0.00    -0.550 OA
ENDBRANCH   2   3
ENDBRANCH   1   2
BRANCH   1   6
ATOM      6  C   UNL     1       5.029  48.332  31.698  1.00  0.00     0.000 C 
BRANCH   6   7
ATOM      7  C   UNL     1       5.404  49.114  30.429  1.00  0.00    -0.000 C 
BRANCH   7   8
ATOM      8  C   UNL     1       6.273  48.294  29.465  1.00  0.00    -0.003 C 
ATOM      9  C   UNL     1       5.462  47.819  28.263  1.00  0.00     0.004 C 
ENDBRANCH   7   8
ENDBRANCH   6   7
ENDBRANCH   1   6
TORSDOF 5
ENDMDL
MODEL 3
REMARK VINA RESULT:    -3.334      2.969      3.694
REMARK INTER + INTRA:          -4.577
REMARK INTER:                  -4.218
REMARK INTRA:                  -0.359
REMARK UNBOUND:                -0.268
REMARK SMILES CCCCCCC(=O)[O-]
REMARK SMILES IDX 5 1 6 2 7 3 8 4 9 5 4 6 3 7 2 8 1 9
REMARK H PARENT
REMARK Flexibility Score: inf
ROOT
ATOM      1  C   UNL     1       5.085  48.320  31.667  1.00  0.00     0.006 C 
ENDROOT
BRANCH   1   2
ATOM      2  C   UNL     1       6.116  47.446  32.386  1.00  0.00     0.053 C 
BRANCH   2   3
ATOM      3  C   UNL     1       6.519  48.069  33.685  1.00  0.00     0.041 C 
ATOM      4  O   UNL     1       7.710  47.981  34.086  1.00  0.00    -0.550 OA
ATOM      5  O   UNL     1       5.594  48.790  34.428  1.00  0.00    -0.550 OA
ENDBRANCH   2   3
ENDBRANCH   1   2
BRANCH   1   6
ATOM      6  C   UNL     1       5.775  49.381  30.797  1.00  0.00     0.000 C 
BRANCH   6   7
ATOM      7  C   UNL     1       6.917  48.800  29.948  1.00  0.00    -0.000 C 
BRANCH   7   8
ATOM      8  C   UNL     1       8.179  49.674  29.976  1.00  0.00    -0.003 C 
ATOM      9  C   UNL     1       9.040  49.355  31.195  1.00  0.00     0.004 C 
ENDBRANCH   7   8
ENDBRANCH   6   7
ENDBRANCH   1   6
TORSDOF 5
ENDMDL
MODEL 4
REMARK VINA RESULT:    -3.334     16.855     17.888
REMARK INTER + INTRA:          -4.577
REMARK INTER:                  -4.335
REMARK INTRA:                  -0.241
REMARK UNBOUND:                -0.268
REMARK SMILES CCCCCCC(=O)[O-]
REMARK SMILES IDX 5 1 6 2 7 3 8 4 9 5 4 6 3 7 2 8 1 9
REMARK H PARENT
REMARK Flexibility Score: inf
ROOT
ATOM      1  C   UNL     1      12.867  35.990  21.142  1.00  0.00     0.006 C 
ENDROOT
BRANCH   1   2
ATOM      2  C   UNL     1      13.499  35.107  20.063  1.00  0.00     0.053 C 
BRANCH   2   3
ATOM      3  C   UNL     1      14.278  33.992  20.686  1.00  0.00     0.041 C 
ATOM      4  O   UNL     1      13.683  33.083  21.324  1.00  0.00    -0.550 OA
ATOM      5  O   UNL     1      15.655  33.926  20.520  1.00  0.00    -0.550 OA
ENDBRANCH   2   3
ENDBRANCH   1   2
BRANCH   1   6
ATOM      6  C   UNL     1      11.400  36.300  20.810  1.00  0.00     0.000 C 
BRANCH   6   7
ATOM      7  C   UNL     1      10.466  36.103  22.014  1.00  0.00    -0.000 C 
BRANCH   7   8
ATOM      8  C   UNL     1      11.162  35.413  23.197  1.00  0.00    -0.003 C 
ATOM      9  C   UNL     1      11.083  36.269  24.456  1.00  0.00     0.004 C 
ENDBRANCH   7   8
ENDBRANCH   6   7
ENDBRANCH   1   6
TORSDOF 5
ENDMDL
MODEL 5
REMARK VINA RESULT:    -3.334     16.347     17.362
REMARK INTER + INTRA:          -4.576
REMARK INTER:                  -4.323
REMARK INTRA:                  -0.253
REMARK UNBOUND:                -0.268
REMARK SMILES CCCCCCC(=O)[O-]
REMARK SMILES IDX 5 1 6 2 7 3 8 4 9 5 4 6 3 7 2 8 1 9
REMARK H PARENT
REMARK Flexibility Score: inf
ROOT
ATOM      1  C   UNL     1      10.363  36.111  22.025  1.00  0.00     0.006 C 
ENDROOT
BRANCH   1   2
ATOM      2  C   UNL     1       9.660  36.269  20.674  1.00  0.00     0.053 C 
BRANCH   2   3
ATOM      3  C   UNL     1       8.791  35.084  20.392  1.00  0.00     0.041 C 
ATOM      4  O   UNL     1       9.306  33.948  20.221  1.00  0.00    -0.550 OA
ATOM      5  O   UNL     1       7.410  35.224  20.368  1.00  0.00    -0.550 OA
ENDBRANCH   2   3
ENDBRANCH   1   2
BRANCH   1   6
ATOM      6  C   UNL     1      11.888  36.194  21.865  1.00  0.00     0.000 C 
BRANCH   6   7
ATOM      7  C   UNL     1      12.326  36.256  20.393  1.00  0.00    -0.000 C 
BRANCH   7   8
ATOM      8  C   UNL     1      13.770  35.774  20.185  1.00  0.00    -0.003 C 
ATOM      9  C   UNL     1      13.977  34.388  20.787  1.00  0.00     0.004 C 
ENDBRANCH   7   8
ENDBRANCH   6   7
ENDBRANCH   1   6
TORSDOF 5
ENDMDL
MODEL 6
REMARK VINA RESULT:    -3.300     16.575     17.757
REMARK INTER + INTRA:          -4.533
REMARK INTER:                  -4.157
REMARK INTRA:                  -0.376
REMARK UNBOUND:                -0.268
REMARK SMILES CCCCCCC(=O)[O-]
REMARK SMILES IDX 5 1 6 2 7 3 8 4 9 5 4 6 3 7 2 8 1 9
REMARK H PARENT
REMARK Flexibility Score: inf
ROOT
ATOM      1  C   UNL     1      11.772  35.983  22.507  1.00  0.00     0.006 C 
ENDROOT
BRANCH   1   2
ATOM      2  C   UNL     1      12.555  35.973  21.191  1.00  0.00     0.053 C 
BRANCH   2   3
ATOM      3  C   UNL     1      13.307  34.689  21.037  1.00  0.00     0.041 C 
ATOM      4  O   UNL     1      14.496  34.697  20.622  1.00  0.00    -0.550 OA
ATOM      5  O   UNL     1      12.713  33.487  21.400  1.00  0.00    -0.550 OA
ENDBRANCH   2   3
ENDBRANCH   1   2
BRANCH   1   6
ATOM      6  C   UNL     1      10.304  36.367  22.269  1.00  0.00     0.000 C 
BRANCH   6   7
ATOM      7  C   UNL     1       9.930  36.385  20.778  1.00  0.00    -0.000 C 
BRANCH   7   8
ATOM      8  C   UNL     1       8.832  35.368  20.432  1.00  0.00    -0.003 C 
ATOM      9  C   UNL     1       9.435  34.024  20.036  1.00  0.00     0.004 C 
ENDBRANCH   7   8
ENDBRANCH   6   7
ENDBRANCH   1   6
TORSDOF 5
ENDMDL
MODEL 7
REMARK VINA RESULT:    -3.290     17.388     18.474
REMARK INTER + INTRA:          -4.520
REMARK INTER:                  -4.248
REMARK INTRA:                  -0.272
REMARK UNBOUND:                -0.268
REMARK SMILES CCCCCCC(=O)[O-]
REMARK SMILES IDX 5 1 6 2 7 3 8 4 9 5 4 6 3 7 2 8 1 9
REMARK H PARENT
REMARK Flexibility Score: inf
ROOT
ATOM      1  C   UNL     1      13.734  34.953  20.807  1.00  0.00     0.006 C 
ENDROOT
BRANCH   1   2
ATOM      2  C   UNL     1      13.192  33.576  20.413  1.00  0.00     0.053 C 
BRANCH   2   3
ATOM      3  C   UNL     1      13.461  32.576  21.492  1.00  0.00     0.041 C 
ATOM      4  O   UNL     1      14.635  32.174  21.704  1.00  0.00    -0.550 OA
ATOM      5  O   UNL     1      12.424  32.126  22.299  1.00  0.00    -0.550 OA
ENDBRANCH   2   3
ENDBRANCH   1   2
BRANCH   1   6
ATOM      6  C   UNL     1      12.593  35.968  20.967  1.00  0.00     0.000 C 
BRANCH   6   7
ATOM      7  C   UNL     1      11.956  35.929  22.366  1.00  0.00    -0.000 C 
BRANCH   7   8
ATOM      8  C   UNL     1      10.455  36.253  22.341  1.00  0.00    -0.003 C 
ATOM      9  C   UNL     1       9.930  36.313  20.911  1.00  0.00     0.004 C 
ENDBRANCH   7   8
ENDBRANCH   6   7
ENDBRANCH   1   6
TORSDOF 5
ENDMDL
MODEL 8
REMARK VINA RESULT:    -3.280     16.534     17.482
REMARK INTER + INTRA:          -4.507
REMARK INTER:                  -4.310
REMARK INTRA:                  -0.197
REMARK UNBOUND:                -0.268
REMARK SMILES CCCCCCC(=O)[O-]
REMARK SMILES IDX 5 1 6 2 7 3 8 4 9 5 4 6 3 7 2 8 1 9
REMARK H PARENT
REMARK Flexibility Score: inf
ROOT
ATOM      1  C   UNL     1      11.205  35.652  22.569  1.00  0.00     0.006 C 
ENDROOT
BRANCH   1   2
ATOM      2  C   UNL     1       9.986  36.435  22.071  1.00  0.00     0.053 C 
BRANCH   2   3
ATOM      3  C   UNL     1       9.542  35.925  20.737  1.00  0.00     0.041 C 
ATOM      4  O   UNL     1       9.488  36.702  19.748  1.00  0.00    -0.550 OA
ATOM      5  O   UNL     1       9.236  34.580  20.573  1.00  0.00    -0.550 OA
ENDBRANCH   2   3
ENDBRANCH   1   2
BRANCH   1   6
ATOM      6  C   UNL     1      12.416  35.880  21.652  1.00  0.00     0.000 C 
BRANCH   6   7
ATOM      7  C   UNL     1      12.993  34.568  21.096  1.00  0.00    -0.000 C 
BRANCH   7   8
ATOM      8  C   UNL     1      14.335  34.771  20.377  1.00  0.00    -0.003 C 
ATOM      9  C   UNL     1      15.260  33.577  20.594  1.00  0.00     0.004 C 
ENDBRANCH   7   8
ENDBRANCH   6   7
ENDBRANCH   1   6
TORSDOF 5
ENDMDL
MODEL 9
REMARK VINA RESULT:    -3.217      1.566      2.519
REMARK INTER + INTRA:          -4.425
REMARK INTER:                  -4.076
REMARK INTRA:                  -0.349
REMARK UNBOUND:                -0.268
REMARK SMILES CCCCCCC(=O)[O-]
REMARK SMILES IDX 5 1 6 2 7 3 8 4 9 5 4 6 3 7 2 8 1 9
REMARK H PARENT
REMARK Flexibility Score: inf
ROOT
ATOM      1  C   UNL     1       8.395  49.756  29.851  1.00  0.00     0.006 C 
ENDROOT
BRANCH   1   2
ATOM      2  C   UNL     1       6.910  49.760  30.225  1.00  0.00     0.053 C 
BRANCH   2   3
ATOM      3  C   UNL     1       6.271  48.460  29.852  1.00  0.00     0.041 C 
ATOM      4  O   UNL     1       6.276  47.497  30.664  1.00  0.00    -0.550 OA
ATOM      5  O   UNL     1       5.625  48.327  28.630  1.00  0.00    -0.550 OA
ENDBRANCH   2   3
ENDBRANCH   1   2
BRANCH   1   6
ATOM      6  C   UNL     1       9.274  49.992  31.088  1.00  0.00     0.000 C 
BRANCH   6   7
ATOM      7  C   UNL     1       9.455  48.723  31.937  1.00  0.00    -0.000 C 
BRANCH   7   8
ATOM      8  C   UNL     1       8.892  48.878  33.359  1.00  0.00    -0.003 C 
ATOM      9  C   UNL     1       7.962  47.721  33.710  1.00  0.00     0.004 C 
ENDBRANCH   7   8
ENDBRANCH   6   7
ENDBRANCH   1   6
TORSDOF 5
ENDMDL
