MODEL 1
REMARK VINA RESULT:    -1.406      0.000      0.000
REMARK INTER + INTRA:          -2.387
REMARK INTER:                  -1.899
REMARK INTRA:                  -0.488
REMARK UNBOUND:                -0.488
REMARK SMILES O=c1c(-c2ccc(O)cc2)coc2c([C@@H]3O[C@H](CO)[C@H](O)[C@H](O)[C@@H]3O)c(O)ccc12
REMARK SMILES IDX 3 1 11 2 12 3 13 4 30 5 2 6 1 7 29 8 28 9 26 10 14 11 4 12
REMARK SMILES IDX 5 13 6 14 7 15 10 16 9 17 8 18 15 20 24 21 16 22 22 23 17 24
REMARK SMILES IDX 20 25 25 26 23 28 18 30 19 31 21 33 27 35
REMARK H PARENT 8 19 25 27 23 29 19 32 21 34 27 36
REMARK Flexibility Score: inf
ROOT
ATOM      1  C   UNL     1      36.186 -31.705  11.922  1.00  0.00     0.065 A 
ATOM      2  C   UNL     1      37.279 -32.206  12.643  1.00  0.00     0.208 A 
ATOM      3  O   UNL     1      38.511 -31.780  12.396  1.00  0.00    -0.463 OA
ATOM      4  C   UNL     1      38.797 -30.869  11.470  1.00  0.00     0.147 A 
ATOM      5  C   UNL     1      37.751 -30.298  10.706  1.00  0.00     0.066 A 
ATOM      6  C   UNL     1      36.432 -30.727  10.942  1.00  0.00     0.200 A 
ATOM      7  O   UNL     1      35.473 -30.220  10.296  1.00  0.00    -0.288 OA
ATOM      8  C   UNL     1      38.048 -29.315   9.748  1.00  0.00     0.020 A 
ATOM      9  C   UNL     1      39.361 -28.896   9.556  1.00  0.00     0.047 A 
ATOM     10  C   UNL     1      40.404 -29.453  10.305  1.00  0.00     0.125 A 
ATOM     11  C   UNL     1      40.139 -30.464  11.256  1.00  0.00     0.069 A 
ENDROOT
BRANCH   1  12
ATOM     12  C   UNL     1      34.817 -32.204  12.208  1.00  0.00    -0.011 A 
ATOM     13  C   UNL     1      33.874 -31.367  12.831  1.00  0.00     0.013 A 
ATOM     14  C   UNL     1      32.587 -31.837  13.110  1.00  0.00     0.047 A 
ATOM     15  C   UNL     1      32.227 -33.145  12.776  1.00  0.00     0.115 A 
ATOM     16  C   UNL     1      34.451 -33.521  11.882  1.00  0.00     0.013 A 
ATOM     17  C   UNL     1      33.163 -33.987  12.161  1.00  0.00     0.047 A 
BRANCH  15  18
ATOM     18  O   UNL     1      30.941 -33.600  13.060  1.00  0.00    -0.508 OA
ATOM     19  H   UNL     1      30.279 -33.030  13.575  1.00  0.00     0.293 HD
ENDBRANCH  15  18
ENDBRANCH   1  12
BRANCH  11  20
ATOM     20  C   UNL     1      41.284 -31.034  12.086  1.00  0.00     0.188 C 
ATOM     21  C   UNL     1      41.552 -32.511  11.710  1.00  0.00     0.179 C 
ATOM     22  O   UNL     1      42.457 -30.251  11.921  1.00  0.00    -0.362 OA
ATOM     23  C   UNL     1      42.702 -33.052  12.575  1.00  0.00     0.177 C 
ATOM     24  C   UNL     1      43.469 -30.662  12.827  1.00  0.00     0.176 C 
ATOM     25  C   UNL     1      43.922 -32.110  12.519  1.00  0.00     0.177 C 
BRANCH  21  26
ATOM     26  O   UNL     1      41.888 -32.627  10.350  1.00  0.00    -0.387 OA
ATOM     27  H   UNL     1      42.844 -32.370  10.261  1.00  0.00     0.211 HD
ENDBRANCH  21  26
BRANCH  23  28
ATOM     28  O   UNL     1      43.055 -34.343  12.144  1.00  0.00    -0.387 OA
ATOM     29  H   UNL     1      43.756 -34.671  12.767  1.00  0.00     0.211 HD
ENDBRANCH  23  28
BRANCH  24  30
ATOM     30  C   UNL     1      44.636 -29.671  12.735  1.00  0.00     0.191 C 
BRANCH  30  31
ATOM     31  O   UNL     1      45.839 -30.305  13.075  1.00  0.00    -0.394 OA
ATOM     32  H   UNL     1      46.369 -29.637  13.582  1.00  0.00     0.210 HD
ENDBRANCH  30  31
ENDBRANCH  24  30
BRANCH  25  33
ATOM     33  O   UNL     1      44.516 -32.175  11.244  1.00  0.00    -0.388 OA
ATOM     34  H   UNL     1      45.495 -32.260  11.380  1.00  0.00     0.211 HD
ENDBRANCH  25  33
ENDBRANCH  11  20
BRANCH  10  35
ATOM     35  O   UNL     1      41.708 -28.997  10.107  1.00  0.00    -0.507 OA
ATOM     36  H   UNL     1      42.436 -29.150  10.796  1.00  0.00     0.293 HD
ENDBRANCH  10  35
TORSDOF 9
ENDMDL
MODEL 2
REMARK VINA RESULT:    -0.095      2.650      3.751
REMARK INTER + INTRA:          -0.617
REMARK INTER:                  -1.093
REMARK INTRA:                   0.476
REMARK UNBOUND:                -0.488
REMARK SMILES O=c1c(-c2ccc(O)cc2)coc2c([C@@H]3O[C@H](CO)[C@H](O)[C@H](O)[C@@H]3O)c(O)ccc12
REMARK SMILES IDX 3 1 11 2 12 3 13 4 30 5 2 6 1 7 29 8 28 9 26 10 14 11 4 12
REMARK SMILES IDX 5 13 6 14 7 15 10 16 9 17 8 18 15 20 24 21 16 22 22 23 17 24
REMARK SMILES IDX 20 25 25 26 23 28 18 30 19 31 21 33 27 35
REMARK H PARENT 8 19 25 27 23 29 19 32 21 34 27 36
REMARK Flexibility Score: inf
ROOT
ATOM      1  C   UNL     1      37.918 -30.683  10.101  1.00  0.00     0.065 A 
ATOM      2  C   UNL     1      38.845 -31.653   9.695  1.00  0.00     0.208 A 
ATOM      3  O   UNL     1      40.075 -31.673  10.194  1.00  0.00    -0.463 OA
ATOM      4  C   UNL     1      40.511 -30.798  11.096  1.00  0.00     0.147 A 
ATOM      5  C   UNL     1      39.635 -29.793  11.574  1.00  0.00     0.066 A 
ATOM      6  C   UNL     1      38.324 -29.743  11.065  1.00  0.00     0.200 A 
ATOM      7  O   UNL     1      37.510 -28.876  11.488  1.00  0.00    -0.288 OA
ATOM      8  C   UNL     1      40.085 -28.885  12.546  1.00  0.00     0.020 A 
ATOM      9  C   UNL     1      41.380 -28.978  13.046  1.00  0.00     0.047 A 
ATOM     10  C   UNL     1      42.256 -29.966  12.581  1.00  0.00     0.125 A 
ATOM     11  C   UNL     1      41.840 -30.875  11.582  1.00  0.00     0.069 A 
ENDROOT
BRANCH   1  12
ATOM     12  C   UNL     1      36.552 -30.674   9.521  1.00  0.00    -0.011 A 
ATOM     13  C   UNL     1      36.359 -30.950   8.156  1.00  0.00     0.013 A 
ATOM     14  C   UNL     1      35.074 -30.932   7.606  1.00  0.00     0.047 A 
ATOM     15  C   UNL     1      33.968 -30.636   8.407  1.00  0.00     0.115 A 
ATOM     16  C   UNL     1      35.436 -30.369  10.320  1.00  0.00     0.013 A 
ATOM     17  C   UNL     1      34.152 -30.354   9.767  1.00  0.00     0.047 A 
BRANCH  15  18
ATOM     18  O   UNL     1      32.693 -30.623   7.845  1.00  0.00    -0.508 OA
ATOM     19  H   UNL     1      31.880 -30.350   8.384  1.00  0.00     0.293 HD
ENDBRANCH  15  18
ENDBRANCH   1  12
BRANCH  11  20
ATOM     20  C   UNL     1      42.797 -31.966  11.114  1.00  0.00     0.188 C 
ATOM     21  C   UNL     1      44.006 -31.352  10.370  1.00  0.00     0.179 C 
ATOM     22  O   UNL     1      43.228 -32.756  12.212  1.00  0.00    -0.362 OA
ATOM     23  C   UNL     1      44.940 -32.481   9.904  1.00  0.00     0.177 C 
ATOM     24  C   UNL     1      43.967 -33.881  11.764  1.00  0.00     0.176 C 
ATOM     25  C   UNL     1      45.277 -33.432  11.070  1.00  0.00     0.177 C 
BRANCH  21  26
ATOM     26  O   UNL     1      44.713 -30.470  11.208  1.00  0.00    -0.387 OA
ATOM     27  H   UNL     1      45.332 -31.021  11.757  1.00  0.00     0.211 HD
ENDBRANCH  21  26
BRANCH  23  28
ATOM     28  O   UNL     1      46.114 -31.933   9.358  1.00  0.00    -0.387 OA
ATOM     29  H   UNL     1      45.984 -30.948   9.331  1.00  0.00     0.211 HD
ENDBRANCH  23  28
BRANCH  24  30
ATOM     30  C   UNL     1      44.246 -34.791  12.967  1.00  0.00     0.191 C 
BRANCH  30  31
ATOM     31  O   UNL     1      45.443 -35.494  12.776  1.00  0.00    -0.394 OA
ATOM     32  H   UNL     1      46.171 -34.875  13.040  1.00  0.00     0.210 HD
ENDBRANCH  30  31
ENDBRANCH  24  30
BRANCH  25  33
ATOM     33  O   UNL     1      46.117 -32.778  11.991  1.00  0.00    -0.388 OA
ATOM     34  H   UNL     1      45.575 -32.078  12.438  1.00  0.00     0.211 HD
ENDBRANCH  25  33
ENDBRANCH  11  20
BRANCH  10  35
ATOM     35  O   UNL     1      43.542 -30.049  13.117  1.00  0.00    -0.507 OA
ATOM     36  H   UNL     1      43.805 -30.789  13.758  1.00  0.00     0.293 HD
ENDBRANCH  10  35
TORSDOF 9
ENDMDL
MODEL 3
REMARK VINA RESULT:     1.237      1.641      2.328
REMARK INTER + INTRA:           1.182
REMARK INTER:                   1.496
REMARK INTRA:                  -0.314
REMARK UNBOUND:                -0.488
REMARK SMILES O=c1c(-c2ccc(O)cc2)coc2c([C@@H]3O[C@H](CO)[C@H](O)[C@H](O)[C@@H]3O)c(O)ccc12
REMARK SMILES IDX 3 1 11 2 12 3 13 4 30 5 2 6 1 7 29 8 28 9 26 10 14 11 4 12
REMARK SMILES IDX 5 13 6 14 7 15 10 16 9 17 8 18 15 20 24 21 16 22 22 23 17 24
REMARK SMILES IDX 20 25 25 26 23 28 18 30 19 31 21 33 27 35
REMARK H PARENT 8 19 25 27 23 29 19 32 21 34 27 36
REMARK Flexibility Score: inf
ROOT
ATOM      1  C   UNL     1      34.567 -31.865  11.471  1.00  0.00     0.065 A 
ATOM      2  C   UNL     1      35.705 -31.951  12.286  1.00  0.00     0.208 A 
ATOM      3  O   UNL     1      36.856 -31.408  11.909  1.00  0.00    -0.463 OA
ATOM      4  C   UNL     1      37.015 -30.758  10.760  1.00  0.00     0.147 A 
ATOM      5  C   UNL     1      35.913 -30.611   9.883  1.00  0.00     0.066 A 
ATOM      6  C   UNL     1      34.677 -31.174  10.252  1.00  0.00     0.200 A 
ATOM      7  O   UNL     1      33.669 -31.039   9.504  1.00  0.00    -0.288 OA
ATOM      8  C   UNL     1      36.072 -29.900   8.682  1.00  0.00     0.020 A 
ATOM      9  C   UNL     1      37.301 -29.335   8.359  1.00  0.00     0.047 A 
ATOM     10  C   UNL     1      38.399 -29.474   9.217  1.00  0.00     0.125 A 
ATOM     11  C   UNL     1      38.276 -30.208  10.418  1.00  0.00     0.069 A 
ENDROOT
BRANCH   1  12
ATOM     12  C   UNL     1      33.293 -32.488  11.909  1.00  0.00    -0.011 A 
ATOM     13  C   UNL     1      33.031 -33.841  11.625  1.00  0.00     0.013 A 
ATOM     14  C   UNL     1      31.827 -34.427  12.028  1.00  0.00     0.047 A 
ATOM     15  C   UNL     1      30.871 -33.674  12.712  1.00  0.00     0.115 A 
ATOM     16  C   UNL     1      32.322 -31.734  12.590  1.00  0.00     0.013 A 
ATOM     17  C   UNL     1      31.121 -32.324  12.993  1.00  0.00     0.047 A 
BRANCH  15  18
ATOM     18  O   UNL     1      29.676 -34.272  13.107  1.00  0.00    -0.508 OA
ATOM     19  H   UNL     1      29.208 -34.956  12.524  1.00  0.00     0.293 HD
ENDBRANCH  15  18
ENDBRANCH   1  12
BRANCH  11  20
ATOM     20  C   UNL     1      39.473 -30.319  11.356  1.00  0.00     0.188 C 
ATOM     21  C   UNL     1      39.666 -31.780  11.829  1.00  0.00     0.179 C 
ATOM     22  O   UNL     1      40.648 -29.834  10.724  1.00  0.00    -0.362 OA
ATOM     23  C   UNL     1      40.872 -31.849  12.780  1.00  0.00     0.177 C 
ATOM     24  C   UNL     1      41.723 -29.761  11.648  1.00  0.00     0.176 C 
ATOM     25  C   UNL     1      42.107 -31.174  12.150  1.00  0.00     0.177 C 
BRANCH  21  26
ATOM     26  O   UNL     1      39.879 -32.635  10.733  1.00  0.00    -0.387 OA
ATOM     27  H   UNL     1      40.094 -33.533  11.099  1.00  0.00     0.211 HD
ENDBRANCH  21  26
BRANCH  23  28
ATOM     28  O   UNL     1      41.149 -33.189  13.100  1.00  0.00    -0.387 OA
ATOM     29  H   UNL     1      41.224 -33.237  14.090  1.00  0.00     0.211 HD
ENDBRANCH  23  28
BRANCH  24  30
ATOM     30  C   UNL     1      42.905 -29.061  10.965  1.00  0.00     0.191 C 
BRANCH  30  31
ATOM     31  O   UNL     1      42.692 -28.989   9.581  1.00  0.00    -0.394 OA
ATOM     32  H   UNL     1      42.102 -29.751   9.353  1.00  0.00     0.210 HD
ENDBRANCH  30  31
ENDBRANCH  24  30
BRANCH  25  33
ATOM     33  O   UNL     1      42.586 -31.959  11.083  1.00  0.00    -0.388 OA
ATOM     34  H   UNL     1      42.212 -32.870  11.197  1.00  0.00     0.211 HD
ENDBRANCH  25  33
ENDBRANCH  11  20
BRANCH  10  35
ATOM     35  O   UNL     1      39.614 -28.877   8.878  1.00  0.00    -0.507 OA
ATOM     36  H   UNL     1      39.858 -28.677   7.914  1.00  0.00     0.293 HD
ENDBRANCH  10  35
TORSDOF 9
ENDMDL
MODEL 4
REMARK VINA RESULT:     1.493     15.689     18.728
REMARK INTER + INTRA:           1.528
REMARK INTER:                   0.192
REMARK INTRA:                   1.336
REMARK UNBOUND:                -0.488
REMARK SMILES O=c1c(-c2ccc(O)cc2)coc2c([C@@H]3O[C@H](CO)[C@H](O)[C@H](O)[C@@H]3O)c(O)ccc12
REMARK SMILES IDX 3 1 11 2 12 3 13 4 30 5 2 6 1 7 29 8 28 9 26 10 14 11 4 12
REMARK SMILES IDX 5 13 6 14 7 15 10 16 9 17 8 18 15 20 24 21 16 22 22 23 17 24
REMARK SMILES IDX 20 25 25 26 23 28 18 30 19 31 21 33 27 35
REMARK H PARENT 8 19 25 27 23 29 19 32 21 34 27 36
REMARK Flexibility Score: inf
ROOT
ATOM      1  C   UNL     1      25.895 -40.258   5.258  1.00  0.00     0.065 A 
ATOM      2  C   UNL     1      25.875 -39.240   4.295  1.00  0.00     0.208 A 
ATOM      3  O   UNL     1      25.888 -39.526   2.999  1.00  0.00    -0.463 OA
ATOM      4  C   UNL     1      25.919 -40.768   2.526  1.00  0.00     0.147 A 
ATOM      5  C   UNL     1      25.924 -41.859   3.429  1.00  0.00     0.066 A 
ATOM      6  C   UNL     1      25.911 -41.592   4.810  1.00  0.00     0.200 A 
ATOM      7  O   UNL     1      25.890 -42.541   5.642  1.00  0.00    -0.288 OA
ATOM      8  C   UNL     1      25.928 -43.172   2.931  1.00  0.00     0.020 A 
ATOM      9  C   UNL     1      25.916 -43.402   1.558  1.00  0.00     0.047 A 
ATOM     10  C   UNL     1      25.911 -42.332   0.656  1.00  0.00     0.125 A 
ATOM     11  C   UNL     1      25.936 -41.000   1.128  1.00  0.00     0.069 A 
ENDROOT
BRANCH   1  12
ATOM     12  C   UNL     1      25.890 -39.915   6.702  1.00  0.00    -0.011 A 
ATOM     13  C   UNL     1      25.923 -38.570   7.111  1.00  0.00     0.013 A 
ATOM     14  C   UNL     1      25.928 -38.244   8.471  1.00  0.00     0.047 A 
ATOM     15  C   UNL     1      25.906 -39.253   9.437  1.00  0.00     0.115 A 
ATOM     16  C   UNL     1      25.877 -40.926   7.679  1.00  0.00     0.013 A 
ATOM     17  C   UNL     1      25.881 -40.596   9.038  1.00  0.00     0.047 A 
BRANCH  15  18
ATOM     18  O   UNL     1      25.912 -38.914  10.788  1.00  0.00    -0.508 OA
ATOM     19  H   UNL     1      26.406 -39.475  11.473  1.00  0.00     0.293 HD
ENDBRANCH  15  18
ENDBRANCH   1  12
BRANCH  11  20
ATOM     20  C   UNL     1      25.896 -39.849   0.129  1.00  0.00     0.188 C 
ATOM     21  C   UNL     1      26.268 -38.513   0.817  1.00  0.00     0.179 C 
ATOM     22  O   UNL     1      26.759 -40.109  -0.968  1.00  0.00    -0.362 OA
ATOM     23  C   UNL     1      26.205 -37.377  -0.217  1.00  0.00     0.177 C 
ATOM     24  C   UNL     1      26.588 -39.135  -1.985  1.00  0.00     0.176 C 
ATOM     25  C   UNL     1      27.016 -37.736  -1.478  1.00  0.00     0.177 C 
BRANCH  21  26
ATOM     26  O   UNL     1      27.560 -38.579   1.368  1.00  0.00    -0.387 OA
ATOM     27  H   UNL     1      28.170 -38.894   0.649  1.00  0.00     0.211 HD
ENDBRANCH  21  26
BRANCH  23  28
ATOM     28  O   UNL     1      26.682 -36.186   0.356  1.00  0.00    -0.387 OA
ATOM     29  H   UNL     1      27.547 -35.981  -0.090  1.00  0.00     0.211 HD
ENDBRANCH  23  28
BRANCH  24  30
ATOM     30  C   UNL     1      27.401 -39.566  -3.213  1.00  0.00     0.191 C 
BRANCH  30  31
ATOM     31  O   UNL     1      27.575 -40.956  -3.216  1.00  0.00    -0.394 OA
ATOM     32  H   UNL     1      26.735 -41.340  -2.854  1.00  0.00     0.210 HD
ENDBRANCH  30  31
ENDBRANCH  24  30
BRANCH  25  33
ATOM     33  O   UNL     1      28.391 -37.724  -1.179  1.00  0.00    -0.388 OA
ATOM     34  H   UNL     1      28.877 -37.911  -2.023  1.00  0.00     0.211 HD
ENDBRANCH  25  33
ENDBRANCH  11  20
BRANCH  10  35
ATOM     35  O   UNL     1      25.877 -42.593  -0.715  1.00  0.00    -0.507 OA
ATOM     36  H   UNL     1      26.645 -43.054  -1.189  1.00  0.00     0.293 HD
ENDBRANCH  10  35
TORSDOF 9
ENDMDL
