MODEL 1
REMARK VINA RESULT:    -6.410      0.000      0.000
REMARK INTER + INTRA:          -8.118
REMARK INTER:                  -7.721
REMARK INTRA:                  -0.397
REMARK UNBOUND:                -0.397
REMARK SMILES O=c1c(O)c(-c2ccc(O)cc2O)oc2cc(O)cc(O)c12
REMARK SMILES IDX 5 1 3 2 2 3 1 4 22 5 20 6 19 7 17 8 16 9 15 10 14 11 6 12
REMARK SMILES IDX 8 13 7 14 9 15 11 16 12 17 10 18 13 20 4 22 21 24 18 26
REMARK H PARENT 10 19 13 21 4 23 21 25 18 27
REMARK Flexibility Score: inf
ROOT
ATOM      1  C   UNL     1     134.973 136.359 142.569  1.00  0.00     0.184 A 
ATOM      2  C   UNL     1     135.071 137.656 143.099  1.00  0.00     0.208 A 
ATOM      3  C   UNL     1     136.342 138.220 143.283  1.00  0.00     0.238 A 
ATOM      4  O   UNL     1     136.426 139.361 143.808  1.00  0.00    -0.285 OA
ATOM      5  C   UNL     1     137.497 137.487 142.920  1.00  0.00     0.111 A 
ATOM      6  C   UNL     1     138.835 137.976 143.025  1.00  0.00     0.134 A 
ATOM      7  C   UNL     1     139.907 137.117 142.757  1.00  0.00     0.093 A 
ATOM      8  C   UNL     1     139.692 135.809 142.327  1.00  0.00     0.123 A 
ATOM      9  C   UNL     1     138.389 135.338 142.164  1.00  0.00     0.094 A 
ATOM     10  C   UNL     1     137.298 136.160 142.458  1.00  0.00     0.146 A 
ATOM     11  O   UNL     1     136.073 135.670 142.299  1.00  0.00    -0.451 OA
ENDROOT
BRANCH   1  12
ATOM     12  C   UNL     1     133.664 135.712 142.336  1.00  0.00     0.063 A 
ATOM     13  C   UNL     1     131.658 134.690 143.254  1.00  0.00     0.047 A 
ATOM     14  C   UNL     1     132.897 135.310 143.439  1.00  0.00     0.020 A 
ATOM     15  C   UNL     1     131.179 134.453 141.960  1.00  0.00     0.119 A 
ATOM     16  C   UNL     1     131.946 134.829 140.855  1.00  0.00     0.093 A 
ATOM     17  C   UNL     1     133.193 135.447 141.032  1.00  0.00     0.130 A 
BRANCH  15  18
ATOM     18  O   UNL     1     129.943 133.839 141.763  1.00  0.00    -0.508 OA
ATOM     19  H   UNL     1     129.628 133.080 142.355  1.00  0.00     0.293 HD
ENDBRANCH  15  18
BRANCH  17  20
ATOM     20  O   UNL     1     133.971 135.772 139.922  1.00  0.00    -0.507 OA
ATOM     21  H   UNL     1     133.714 135.476 138.987  1.00  0.00     0.293 HD
ENDBRANCH  17  20
ENDBRANCH   1  12
BRANCH   2  22
ATOM     22  O   UNL     1     133.915 138.350 143.467  1.00  0.00    -0.502 OA
ATOM     23  H   UNL     1     133.723 139.292 143.149  1.00  0.00     0.293 HD
ENDBRANCH   2  22
BRANCH   6  24
ATOM     24  O   UNL     1     139.159 139.294 143.357  1.00  0.00    -0.507 OA
ATOM     25  H   UNL     1     139.591 139.579 144.223  1.00  0.00     0.293 HD
ENDBRANCH   6  24
BRANCH   8  26
ATOM     26  O   UNL     1     140.783 134.985 142.055  1.00  0.00    -0.508 OA
ATOM     27  H   UNL     1     141.528 135.280 141.435  1.00  0.00     0.293 HD
ENDBRANCH   8  26
TORSDOF 6
ENDMDL
MODEL 2
REMARK VINA RESULT:    -6.383      1.695      6.497
REMARK INTER + INTRA:          -8.085
REMARK INTER:                  -7.666
REMARK INTRA:                  -0.420
REMARK UNBOUND:                -0.397
REMARK SMILES O=c1c(O)c(-c2ccc(O)cc2O)oc2cc(O)cc(O)c12
REMARK SMILES IDX 5 1 3 2 2 3 1 4 22 5 20 6 19 7 17 8 16 9 15 10 14 11 6 12
REMARK SMILES IDX 8 13 7 14 9 15 11 16 12 17 10 18 13 20 4 22 21 24 18 26
REMARK H PARENT 10 19 13 21 4 23 21 25 18 27
REMARK Flexibility Score: inf
ROOT
ATOM      1  C   UNL     1     136.234 135.962 141.909  1.00  0.00     0.184 A 
ATOM      2  C   UNL     1     135.587 136.574 142.993  1.00  0.00     0.208 A 
ATOM      3  C   UNL     1     134.186 136.524 143.065  1.00  0.00     0.238 A 
ATOM      4  O   UNL     1     133.608 137.121 144.010  1.00  0.00    -0.285 OA
ATOM      5  C   UNL     1     133.454 135.848 142.060  1.00  0.00     0.111 A 
ATOM      6  C   UNL     1     132.033 135.700 142.053  1.00  0.00     0.134 A 
ATOM      7  C   UNL     1     131.405 135.124 140.942  1.00  0.00     0.093 A 
ATOM      8  C   UNL     1     132.147 134.633 139.869  1.00  0.00     0.123 A 
ATOM      9  C   UNL     1     133.539 134.719 139.891  1.00  0.00     0.094 A 
ATOM     10  C   UNL     1     134.193 135.321 140.969  1.00  0.00     0.146 A 
ATOM     11  O   UNL     1     135.519 135.393 140.947  1.00  0.00    -0.451 OA
ENDROOT
BRANCH   1  12
ATOM     12  C   UNL     1     137.707 135.964 141.781  1.00  0.00     0.063 A 
ATOM     13  C   UNL     1     139.853 135.040 142.453  1.00  0.00     0.047 A 
ATOM     14  C   UNL     1     138.459 135.060 142.546  1.00  0.00     0.020 A 
ATOM     15  C   UNL     1     140.513 135.936 141.604  1.00  0.00     0.119 A 
ATOM     16  C   UNL     1     139.774 136.856 140.856  1.00  0.00     0.093 A 
ATOM     17  C   UNL     1     138.375 136.886 140.946  1.00  0.00     0.130 A 
BRANCH  15  18
ATOM     18  O   UNL     1     141.903 135.922 141.500  1.00  0.00    -0.508 OA
ATOM     19  H   UNL     1     142.481 136.546 142.051  1.00  0.00     0.293 HD
ENDBRANCH  15  18
BRANCH  17  20
ATOM     20  O   UNL     1     137.653 137.842 140.232  1.00  0.00    -0.507 OA
ATOM     21  H   UNL     1     137.552 137.790 139.225  1.00  0.00     0.293 HD
ENDBRANCH  17  20
ENDBRANCH   1  12
BRANCH   2  22
ATOM     22  O   UNL     1     136.333 137.251 143.961  1.00  0.00    -0.502 OA
ATOM     23  H   UNL     1     135.951 138.011 144.509  1.00  0.00     0.293 HD
ENDBRANCH   2  22
BRANCH   6  24
ATOM     24  O   UNL     1     131.205 136.073 143.115  1.00  0.00    -0.507 OA
ATOM     25  H   UNL     1     131.301 135.741 144.062  1.00  0.00     0.293 HD
ENDBRANCH   6  24
BRANCH   8  26
ATOM     26  O   UNL     1     131.489 134.052 138.786  1.00  0.00    -0.508 OA
ATOM     27  H   UNL     1     131.080 133.127 138.849  1.00  0.00     0.293 HD
ENDBRANCH   8  26
TORSDOF 6
ENDMDL
MODEL 3
REMARK VINA RESULT:    -6.231      5.055      6.566
REMARK INTER + INTRA:          -7.903
REMARK INTER:                  -7.546
REMARK INTRA:                  -0.358
REMARK UNBOUND:                -0.397
REMARK SMILES O=c1c(O)c(-c2ccc(O)cc2O)oc2cc(O)cc(O)c12
REMARK SMILES IDX 5 1 3 2 2 3 1 4 22 5 20 6 19 7 17 8 16 9 15 10 14 11 6 12
REMARK SMILES IDX 8 13 7 14 9 15 11 16 12 17 10 18 13 20 4 22 21 24 18 26
REMARK H PARENT 10 19 13 21 4 23 21 25 18 27
REMARK Flexibility Score: inf
ROOT
ATOM      1  C   UNL     1     131.195 137.723 141.967  1.00  0.00     0.184 A 
ATOM      2  C   UNL     1     130.120 137.814 141.068  1.00  0.00     0.208 A 
ATOM      3  C   UNL     1     130.100 138.863 140.136  1.00  0.00     0.238 A 
ATOM      4  O   UNL     1     129.109 138.970 139.369  1.00  0.00    -0.285 OA
ATOM      5  C   UNL     1     131.163 139.797 140.106  1.00  0.00     0.111 A 
ATOM      6  C   UNL     1     131.267 140.877 139.177  1.00  0.00     0.134 A 
ATOM      7  C   UNL     1     132.295 141.816 139.322  1.00  0.00     0.093 A 
ATOM      8  C   UNL     1     133.259 141.680 140.320  1.00  0.00     0.123 A 
ATOM      9  C   UNL     1     133.202 140.596 141.196  1.00  0.00     0.094 A 
ATOM     10  C   UNL     1     132.167 139.662 141.099  1.00  0.00     0.146 A 
ATOM     11  O   UNL     1     132.143 138.651 141.960  1.00  0.00    -0.451 OA
ENDROOT
BRANCH   1  12
ATOM     12  C   UNL     1     131.285 136.634 142.963  1.00  0.00     0.063 A 
ATOM     13  C   UNL     1     131.448 134.254 143.431  1.00  0.00     0.047 A 
ATOM     14  C   UNL     1     131.368 135.307 142.516  1.00  0.00     0.020 A 
ATOM     15  C   UNL     1     131.432 134.516 144.806  1.00  0.00     0.119 A 
ATOM     16  C   UNL     1     131.326 135.833 145.261  1.00  0.00     0.093 A 
ATOM     17  C   UNL     1     131.240 136.895 144.349  1.00  0.00     0.130 A 
BRANCH  15  18
ATOM     18  O   UNL     1     131.517 133.474 145.728  1.00  0.00    -0.508 OA
ATOM     19  H   UNL     1     132.047 132.634 145.530  1.00  0.00     0.293 HD
ENDBRANCH  15  18
BRANCH  17  20
ATOM     20  O   UNL     1     131.085 138.200 144.817  1.00  0.00    -0.507 OA
ATOM     21  H   UNL     1     131.159 138.424 145.802  1.00  0.00     0.293 HD
ENDBRANCH  17  20
ENDBRANCH   1  12
BRANCH   2  22
ATOM     22  O   UNL     1     129.076 136.888 141.132  1.00  0.00    -0.502 OA
ATOM     23  H   UNL     1     128.220 136.997 140.603  1.00  0.00     0.293 HD
ENDBRANCH   2  22
BRANCH   6  24
ATOM     24  O   UNL     1     130.409 141.054 138.088  1.00  0.00    -0.507 OA
ATOM     25  H   UNL     1     130.580 141.682 137.317  1.00  0.00     0.293 HD
ENDBRANCH   6  24
BRANCH   8  26
ATOM     26  O   UNL     1     134.278 142.625 140.425  1.00  0.00    -0.508 OA
ATOM     27  H   UNL     1     134.404 143.177 141.265  1.00  0.00     0.293 HD
ENDBRANCH   8  26
TORSDOF 6
ENDMDL
MODEL 4
REMARK VINA RESULT:    -6.123      4.444      5.890
REMARK INTER + INTRA:          -7.773
REMARK INTER:                  -7.350
REMARK INTRA:                  -0.422
REMARK UNBOUND:                -0.397
REMARK SMILES O=c1c(O)c(-c2ccc(O)cc2O)oc2cc(O)cc(O)c12
REMARK SMILES IDX 5 1 3 2 2 3 1 4 22 5 20 6 19 7 17 8 16 9 15 10 14 11 6 12
REMARK SMILES IDX 8 13 7 14 9 15 11 16 12 17 10 18 13 20 4 22 21 24 18 26
REMARK H PARENT 10 19 13 21 4 23 21 25 18 27
REMARK Flexibility Score: inf
ROOT
ATOM      1  C   UNL     1     130.657 138.216 141.912  1.00  0.00     0.184 A 
ATOM      2  C   UNL     1     131.218 139.321 141.254  1.00  0.00     0.208 A 
ATOM      3  C   UNL     1     132.279 139.114 140.360  1.00  0.00     0.238 A 
ATOM      4  O   UNL     1     132.813 140.114 139.814  1.00  0.00    -0.285 OA
ATOM      5  C   UNL     1     132.755 137.802 140.125  1.00  0.00     0.111 A 
ATOM      6  C   UNL     1     133.800 137.470 139.209  1.00  0.00     0.134 A 
ATOM      7  C   UNL     1     134.276 136.154 139.153  1.00  0.00     0.093 A 
ATOM      8  C   UNL     1     133.705 135.147 139.929  1.00  0.00     0.123 A 
ATOM      9  C   UNL     1     132.644 135.449 140.784  1.00  0.00     0.094 A 
ATOM     10  C   UNL     1     132.171 136.758 140.889  1.00  0.00     0.146 A 
ATOM     11  O   UNL     1     131.166 137.005 141.723  1.00  0.00    -0.451 OA
ENDROOT
BRANCH   1  12
ATOM     12  C   UNL     1     129.527 138.362 142.854  1.00  0.00     0.063 A 
ATOM     13  C   UNL     1     127.143 138.689 143.205  1.00  0.00     0.047 A 
ATOM     14  C   UNL     1     128.233 138.541 142.342  1.00  0.00     0.020 A 
ATOM     15  C   UNL     1     127.338 138.675 144.591  1.00  0.00     0.119 A 
ATOM     16  C   UNL     1     128.626 138.522 145.110  1.00  0.00     0.093 A 
ATOM     17  C   UNL     1     129.726 138.377 144.251  1.00  0.00     0.130 A 
BRANCH  15  18
ATOM     18  O   UNL     1     126.258 138.817 145.461  1.00  0.00    -0.508 OA
ATOM     19  H   UNL     1     125.302 138.728 145.137  1.00  0.00     0.293 HD
ENDBRANCH  15  18
BRANCH  17  20
ATOM     20  O   UNL     1     131.012 138.275 144.781  1.00  0.00    -0.507 OA
ATOM     21  H   UNL     1     131.463 137.377 144.913  1.00  0.00     0.293 HD
ENDBRANCH  17  20
ENDBRANCH   1  12
BRANCH   2  22
ATOM     22  O   UNL     1     130.741 140.608 141.519  1.00  0.00    -0.502 OA
ATOM     23  H   UNL     1     130.366 141.208 140.795  1.00  0.00     0.293 HD
ENDBRANCH   2  22
BRANCH   6  24
ATOM     24  O   UNL     1     134.377 138.382 138.322  1.00  0.00    -0.507 OA
ATOM     25  H   UNL     1     134.375 139.383 138.444  1.00  0.00     0.293 HD
ENDBRANCH   6  24
BRANCH   8  26
ATOM     26  O   UNL     1     134.194 133.846 139.836  1.00  0.00    -0.508 OA
ATOM     27  H   UNL     1     133.574 133.052 139.732  1.00  0.00     0.293 HD
ENDBRANCH   8  26
TORSDOF 6
ENDMDL
MODEL 5
REMARK VINA RESULT:    -6.074      5.417      8.940
REMARK INTER + INTRA:          -7.714
REMARK INTER:                  -7.427
REMARK INTRA:                  -0.287
REMARK UNBOUND:                -0.397
REMARK SMILES O=c1c(O)c(-c2ccc(O)cc2O)oc2cc(O)cc(O)c12
REMARK SMILES IDX 5 1 3 2 2 3 1 4 22 5 20 6 19 7 17 8 16 9 15 10 14 11 6 12
REMARK SMILES IDX 8 13 7 14 9 15 11 16 12 17 10 18 13 20 4 22 21 24 18 26
REMARK H PARENT 10 19 13 21 4 23 21 25 18 27
REMARK Flexibility Score: inf
ROOT
ATOM      1  C   UNL     1     133.522 141.819 140.668  1.00  0.00     0.184 A 
ATOM      2  C   UNL     1     132.962 142.202 139.439  1.00  0.00     0.208 A 
ATOM      3  C   UNL     1     131.786 141.573 139.002  1.00  0.00     0.238 A 
ATOM      4  O   UNL     1     131.318 141.882 137.875  1.00  0.00    -0.285 OA
ATOM      5  C   UNL     1     131.177 140.581 139.808  1.00  0.00     0.111 A 
ATOM      6  C   UNL     1     129.962 139.906 139.484  1.00  0.00     0.134 A 
ATOM      7  C   UNL     1     129.520 138.851 140.292  1.00  0.00     0.093 A 
ATOM      8  C   UNL     1     130.214 138.490 141.446  1.00  0.00     0.123 A 
ATOM      9  C   UNL     1     131.371 139.181 141.805  1.00  0.00     0.094 A 
ATOM     10  C   UNL     1     131.856 140.214 141.000  1.00  0.00     0.146 A 
ATOM     11  O   UNL     1     132.967 140.841 141.371  1.00  0.00    -0.451 OA
ENDROOT
BRANCH   1  12
ATOM     12  C   UNL     1     134.750 142.453 141.193  1.00  0.00     0.063 A 
ATOM     13  C   UNL     1     137.075 142.234 141.869  1.00  0.00     0.047 A 
ATOM     14  C   UNL     1     135.900 141.668 141.369  1.00  0.00     0.020 A 
ATOM     15  C   UNL     1     137.110 143.590 142.213  1.00  0.00     0.119 A 
ATOM     16  C   UNL     1     135.963 144.375 142.064  1.00  0.00     0.093 A 
ATOM     17  C   UNL     1     134.777 143.813 141.567  1.00  0.00     0.130 A 
BRANCH  15  18
ATOM     18  O   UNL     1     138.279 144.166 142.709  1.00  0.00    -0.508 OA
ATOM     19  H   UNL     1     139.175 143.701 142.626  1.00  0.00     0.293 HD
ENDBRANCH  15  18
BRANCH  17  20
ATOM     20  O   UNL     1     133.627 144.595 141.470  1.00  0.00    -0.507 OA
ATOM     21  H   UNL     1     132.860 144.496 142.125  1.00  0.00     0.293 HD
ENDBRANCH  17  20
ENDBRANCH   1  12
BRANCH   2  22
ATOM     22  O   UNL     1     133.593 143.171 138.655  1.00  0.00    -0.502 OA
ATOM     23  H   UNL     1     134.563 143.429 138.787  1.00  0.00     0.293 HD
ENDBRANCH   2  22
BRANCH   6  24
ATOM     24  O   UNL     1     129.143 140.249 138.404  1.00  0.00    -0.507 OA
ATOM     25  H   UNL     1     129.350 140.975 137.734  1.00  0.00     0.293 HD
ENDBRANCH   6  24
BRANCH   8  26
ATOM     26  O   UNL     1     129.737 137.445 142.236  1.00  0.00    -0.508 OA
ATOM     27  H   UNL     1     130.366 136.782 142.674  1.00  0.00     0.293 HD
ENDBRANCH   8  26
TORSDOF 6
ENDMDL
MODEL 6
REMARK VINA RESULT:    -6.014      2.287      3.839
REMARK INTER + INTRA:          -7.641
REMARK INTER:                  -7.231
REMARK INTRA:                  -0.410
REMARK UNBOUND:                -0.397
REMARK SMILES O=c1c(O)c(-c2ccc(O)cc2O)oc2cc(O)cc(O)c12
REMARK SMILES IDX 5 1 3 2 2 3 1 4 22 5 20 6 19 7 17 8 16 9 15 10 14 11 6 12
REMARK SMILES IDX 8 13 7 14 9 15 11 16 12 17 10 18 13 20 4 22 21 24 18 26
REMARK H PARENT 10 19 13 21 4 23 21 25 18 27
REMARK Flexibility Score: inf
ROOT
ATOM      1  C   UNL     1     133.369 135.759 142.344  1.00  0.00     0.184 A 
ATOM      2  C   UNL     1     132.745 136.266 141.193  1.00  0.00     0.208 A 
ATOM      3  C   UNL     1     133.542 136.737 140.139  1.00  0.00     0.238 A 
ATOM      4  O   UNL     1     132.977 137.240 139.132  1.00  0.00    -0.285 OA
ATOM      5  C   UNL     1     134.952 136.679 140.242  1.00  0.00     0.111 A 
ATOM      6  C   UNL     1     135.858 137.090 139.218  1.00  0.00     0.134 A 
ATOM      7  C   UNL     1     137.234 137.108 139.479  1.00  0.00     0.093 A 
ATOM      8  C   UNL     1     137.741 136.670 140.701  1.00  0.00     0.123 A 
ATOM      9  C   UNL     1     136.869 136.210 141.689  1.00  0.00     0.094 A 
ATOM     10  C   UNL     1     135.489 136.213 141.471  1.00  0.00     0.146 A 
ATOM     11  O   UNL     1     134.692 135.777 142.441  1.00  0.00    -0.451 OA
ENDROOT
BRANCH   1  12
ATOM     12  C   UNL     1     132.589 135.233 143.484  1.00  0.00     0.063 A 
ATOM     13  C   UNL     1     131.490 133.348 144.557  1.00  0.00     0.047 A 
ATOM     14  C   UNL     1     132.233 133.876 143.498  1.00  0.00     0.020 A 
ATOM     15  C   UNL     1     131.083 134.176 145.610  1.00  0.00     0.119 A 
ATOM     16  C   UNL     1     131.412 135.534 145.593  1.00  0.00     0.093 A 
ATOM     17  C   UNL     1     132.153 136.073 144.531  1.00  0.00     0.130 A 
BRANCH  15  18
ATOM     18  O   UNL     1     130.346 133.660 146.674  1.00  0.00    -0.508 OA
ATOM     19  H   UNL     1     130.510 132.725 147.027  1.00  0.00     0.293 HD
ENDBRANCH  15  18
BRANCH  17  20
ATOM     20  O   UNL     1     132.432 137.439 144.502  1.00  0.00    -0.507 OA
ATOM     21  H   UNL     1     132.270 138.032 145.307  1.00  0.00     0.293 HD
ENDBRANCH  17  20
ENDBRANCH   1  12
BRANCH   2  22
ATOM     22  O   UNL     1     131.350 136.329 141.125  1.00  0.00    -0.502 OA
ATOM     23  H   UNL     1     130.779 135.517 140.929  1.00  0.00     0.293 HD
ENDBRANCH   2  22
BRANCH   6  24
ATOM     24  O   UNL     1     135.463 137.460 137.930  1.00  0.00    -0.507 OA
ATOM     25  H   UNL     1     135.772 137.009 137.082  1.00  0.00     0.293 HD
ENDBRANCH   6  24
BRANCH   8  26
ATOM     26  O   UNL     1     139.116 136.687 140.922  1.00  0.00    -0.508 OA
ATOM     27  H   UNL     1     139.567 137.456 141.403  1.00  0.00     0.293 HD
ENDBRANCH   8  26
TORSDOF 6
ENDMDL
MODEL 7
REMARK VINA RESULT:    -5.974      3.719      5.818
REMARK INTER + INTRA:          -7.593
REMARK INTER:                  -7.174
REMARK INTRA:                  -0.419
REMARK UNBOUND:                -0.397
REMARK SMILES O=c1c(O)c(-c2ccc(O)cc2O)oc2cc(O)cc(O)c12
REMARK SMILES IDX 5 1 3 2 2 3 1 4 22 5 20 6 19 7 17 8 16 9 15 10 14 11 6 12
REMARK SMILES IDX 8 13 7 14 9 15 11 16 12 17 10 18 13 20 4 22 21 24 18 26
REMARK H PARENT 10 19 13 21 4 23 21 25 18 27
REMARK Flexibility Score: inf
ROOT
ATOM      1  C   UNL     1     132.301 137.383 142.642  1.00  0.00     0.184 A 
ATOM      2  C   UNL     1     133.561 138.000 142.669  1.00  0.00     0.208 A 
ATOM      3  C   UNL     1     133.804 139.087 141.814  1.00  0.00     0.238 A 
ATOM      4  O   UNL     1     134.953 139.602 141.804  1.00  0.00    -0.285 OA
ATOM      5  C   UNL     1     132.779 139.550 140.956  1.00  0.00     0.111 A 
ATOM      6  C   UNL     1     132.901 140.669 140.077  1.00  0.00     0.134 A 
ATOM      7  C   UNL     1     131.865 140.959 139.181  1.00  0.00     0.093 A 
ATOM      8  C   UNL     1     130.688 140.213 139.174  1.00  0.00     0.123 A 
ATOM      9  C   UNL     1     130.533 139.154 140.070  1.00  0.00     0.094 A 
ATOM     10  C   UNL     1     131.563 138.818 140.952  1.00  0.00     0.146 A 
ATOM     11  O   UNL     1     131.380 137.796 141.781  1.00  0.00    -0.451 OA
ENDROOT
BRANCH   1  12
ATOM     12  C   UNL     1     131.975 136.244 143.526  1.00  0.00     0.063 A 
ATOM     13  C   UNL     1     131.498 135.421 145.764  1.00  0.00     0.047 A 
ATOM     14  C   UNL     1     131.801 136.476 144.899  1.00  0.00     0.020 A 
ATOM     15  C   UNL     1     131.378 134.118 145.267  1.00  0.00     0.119 A 
ATOM     16  C   UNL     1     131.572 133.874 143.905  1.00  0.00     0.093 A 
ATOM     17  C   UNL     1     131.882 134.926 143.031  1.00  0.00     0.130 A 
BRANCH  15  18
ATOM     18  O   UNL     1     131.071 133.059 146.120  1.00  0.00    -0.508 OA
ATOM     19  H   UNL     1     130.953 133.199 147.116  1.00  0.00     0.293 HD
ENDBRANCH  15  18
BRANCH  17  20
ATOM     20  O   UNL     1     132.122 134.661 141.683  1.00  0.00    -0.507 OA
ATOM     21  H   UNL     1     131.998 133.734 141.293  1.00  0.00     0.293 HD
ENDBRANCH  17  20
ENDBRANCH   1  12
BRANCH   2  22
ATOM     22  O   UNL     1     134.562 137.510 143.512  1.00  0.00    -0.502 OA
ATOM     23  H   UNL     1     135.232 138.116 143.970  1.00  0.00     0.293 HD
ENDBRANCH   2  22
BRANCH   6  24
ATOM     24  O   UNL     1     133.997 141.536 140.066  1.00  0.00    -0.507 OA
ATOM     25  H   UNL     1     134.055 142.382 139.520  1.00  0.00     0.293 HD
ENDBRANCH   6  24
BRANCH   8  26
ATOM     26  O   UNL     1     129.671 140.539 138.279  1.00  0.00    -0.508 OA
ATOM     27  H   UNL     1     129.432 139.932 137.504  1.00  0.00     0.293 HD
ENDBRANCH   8  26
TORSDOF 6
ENDMDL
MODEL 8
REMARK VINA RESULT:    -5.941      3.751      7.319
REMARK INTER + INTRA:          -7.554
REMARK INTER:                  -7.136
REMARK INTRA:                  -0.418
REMARK UNBOUND:                -0.397
REMARK SMILES O=c1c(O)c(-c2ccc(O)cc2O)oc2cc(O)cc(O)c12
REMARK SMILES IDX 5 1 3 2 2 3 1 4 22 5 20 6 19 7 17 8 16 9 15 10 14 11 6 12
REMARK SMILES IDX 8 13 7 14 9 15 11 16 12 17 10 18 13 20 4 22 21 24 18 26
REMARK H PARENT 10 19 13 21 4 23 21 25 18 27
REMARK Flexibility Score: inf
ROOT
ATOM      1  C   UNL     1     132.334 137.343 142.264  1.00  0.00     0.184 A 
ATOM      2  C   UNL     1     131.506 137.373 143.398  1.00  0.00     0.208 A 
ATOM      3  C   UNL     1     130.235 137.959 143.295  1.00  0.00     0.238 A 
ATOM      4  O   UNL     1     129.518 138.032 144.327  1.00  0.00    -0.285 OA
ATOM      5  C   UNL     1     129.803 138.493 142.057  1.00  0.00     0.111 A 
ATOM      6  C   UNL     1     128.519 139.074 141.828  1.00  0.00     0.134 A 
ATOM      7  C   UNL     1     128.248 139.687 140.598  1.00  0.00     0.093 A 
ATOM      8  C   UNL     1     129.188 139.682 139.569  1.00  0.00     0.123 A 
ATOM      9  C   UNL     1     130.424 139.065 139.761  1.00  0.00     0.094 A 
ATOM     10  C   UNL     1     130.738 138.477 140.989  1.00  0.00     0.146 A 
ATOM     11  O   UNL     1     131.930 137.909 141.135  1.00  0.00    -0.451 OA
ENDROOT
BRANCH   1  12
ATOM     12  C   UNL     1     133.677 136.727 142.300  1.00  0.00     0.063 A 
ATOM     13  C   UNL     1     136.007 136.859 142.984  1.00  0.00     0.047 A 
ATOM     14  C   UNL     1     134.723 137.411 142.938  1.00  0.00     0.020 A 
ATOM     15  C   UNL     1     136.262 135.623 142.379  1.00  0.00     0.119 A 
ATOM     16  C   UNL     1     135.232 134.946 141.721  1.00  0.00     0.093 A 
ATOM     17  C   UNL     1     133.942 135.494 141.666  1.00  0.00     0.130 A 
BRANCH  15  18
ATOM     18  O   UNL     1     137.537 135.061 142.423  1.00  0.00    -0.508 OA
ATOM     19  H   UNL     1     138.086 134.928 141.582  1.00  0.00     0.293 HD
ENDBRANCH  15  18
BRANCH  17  20
ATOM     20  O   UNL     1     132.935 134.832 140.964  1.00  0.00    -0.507 OA
ATOM     21  H   UNL     1     132.224 135.338 140.450  1.00  0.00     0.293 HD
ENDBRANCH  17  20
ENDBRANCH   1  12
BRANCH   2  22
ATOM     22  O   UNL     1     131.964 136.856 144.612  1.00  0.00    -0.502 OA
ATOM     23  H   UNL     1     132.580 136.054 144.663  1.00  0.00     0.293 HD
ENDBRANCH   2  22
BRANCH   6  24
ATOM     24  O   UNL     1     127.476 139.052 142.758  1.00  0.00    -0.507 OA
ATOM     25  H   UNL     1     126.927 138.237 142.986  1.00  0.00     0.293 HD
ENDBRANCH   6  24
BRANCH   8  26
ATOM     26  O   UNL     1     128.878 140.288 138.352  1.00  0.00    -0.508 OA
ATOM     27  H   UNL     1     129.599 140.541 137.687  1.00  0.00     0.293 HD
ENDBRANCH   8  26
TORSDOF 6
ENDMDL
MODEL 9
REMARK VINA RESULT:    -5.938      2.112      6.921
REMARK INTER + INTRA:          -7.550
REMARK INTER:                  -7.136
REMARK INTRA:                  -0.414
REMARK UNBOUND:                -0.397
REMARK SMILES O=c1c(O)c(-c2ccc(O)cc2O)oc2cc(O)cc(O)c12
REMARK SMILES IDX 5 1 3 2 2 3 1 4 22 5 20 6 19 7 17 8 16 9 15 10 14 11 6 12
REMARK SMILES IDX 8 13 7 14 9 15 11 16 12 17 10 18 13 20 4 22 21 24 18 26
REMARK H PARENT 10 19 13 21 4 23 21 25 18 27
REMARK Flexibility Score: inf
ROOT
ATOM      1  C   UNL     1     134.753 136.090 141.433  1.00  0.00     0.184 A 
ATOM      2  C   UNL     1     133.999 135.171 140.687  1.00  0.00     0.208 A 
ATOM      3  C   UNL     1     132.598 135.248 140.730  1.00  0.00     0.238 A 
ATOM      4  O   UNL     1     131.926 134.388 140.103  1.00  0.00    -0.285 OA
ATOM      5  C   UNL     1     131.972 136.253 141.506  1.00  0.00     0.111 A 
ATOM      6  C   UNL     1     130.560 136.449 141.591  1.00  0.00     0.134 A 
ATOM      7  C   UNL     1     130.047 137.393 142.490  1.00  0.00     0.093 A 
ATOM      8  C   UNL     1     130.894 138.190 143.258  1.00  0.00     0.123 A 
ATOM      9  C   UNL     1     132.277 138.048 143.140  1.00  0.00     0.094 A 
ATOM     10  C   UNL     1     132.818 137.090 142.278  1.00  0.00     0.146 A 
ATOM     11  O   UNL     1     134.140 136.979 142.203  1.00  0.00    -0.451 OA
ENDROOT
BRANCH   1  12
ATOM     12  C   UNL     1     136.232 136.074 141.419  1.00  0.00     0.063 A 
ATOM     13  C   UNL     1     138.311 135.299 142.413  1.00  0.00     0.047 A 
ATOM     14  C   UNL     1     136.914 135.331 142.394  1.00  0.00     0.020 A 
ATOM     15  C   UNL     1     139.043 136.024 141.465  1.00  0.00     0.119 A 
ATOM     16  C   UNL     1     138.372 136.786 140.504  1.00  0.00     0.093 A 
ATOM     17  C   UNL     1     136.970 136.827 140.481  1.00  0.00     0.130 A 
BRANCH  15  18
ATOM     18  O   UNL     1     140.436 135.996 141.471  1.00  0.00    -0.508 OA
ATOM     19  H   UNL     1     140.951 135.456 142.156  1.00  0.00     0.293 HD
ENDBRANCH  15  18
BRANCH  17  20
ATOM     20  O   UNL     1     136.315 137.631 139.549  1.00  0.00    -0.507 OA
ATOM     21  H   UNL     1     135.532 138.219 139.810  1.00  0.00     0.293 HD
ENDBRANCH  17  20
ENDBRANCH   1  12
BRANCH   2  22
ATOM     22  O   UNL     1     134.642 134.177 139.945  1.00  0.00    -0.502 OA
ATOM     23  H   UNL     1     135.565 133.834 140.181  1.00  0.00     0.293 HD
ENDBRANCH   2  22
BRANCH   6  24
ATOM     24  O   UNL     1     129.629 135.769 140.801  1.00  0.00    -0.507 OA
ATOM     25  H   UNL     1     129.310 136.078 139.895  1.00  0.00     0.293 HD
ENDBRANCH   6  24
BRANCH   8  26
ATOM     26  O   UNL     1     130.350 139.130 144.131  1.00  0.00    -0.508 OA
ATOM     27  H   UNL     1     129.544 138.915 144.706  1.00  0.00     0.293 HD
ENDBRANCH   8  26
TORSDOF 6
ENDMDL
