MODEL 1
REMARK VINA RESULT:    -4.685      0.000      0.000
REMARK INTER + INTRA:          -5.174
REMARK INTER:                  -4.959
REMARK INTRA:                  -0.215
REMARK UNBOUND:                -0.215
REMARK SMILES C=C(C)[C@@H]1CC=C(C)CC1
REMARK SMILES IDX 8 1 7 2 6 3 5 4 4 5 10 6 9 7 2 8 1 9 3 10
REMARK H PARENT
REMARK Flexibility Score: inf
ROOT
ATOM      1  C   UNL     1     140.689 147.654 164.745  1.00  0.00     0.039 C 
ATOM      2  C   UNL     1     142.076 147.480 164.193  1.00  0.00    -0.077 C 
ATOM      3  C   UNL     1     142.306 147.643 162.880  1.00  0.00    -0.027 C 
ATOM      4  C   UNL     1     143.701 147.489 162.336  1.00  0.00     0.035 C 
ATOM      5  C   UNL     1     144.773 148.152 163.250  1.00  0.00     0.018 C 
ATOM      6  C   UNL     1     144.389 148.178 164.764  1.00  0.00     0.013 C 
ATOM      7  C   UNL     1     143.251 147.205 165.102  1.00  0.00     0.031 C 
ENDROOT
BRANCH   5   8
ATOM      8  C   UNL     1     145.138 149.546 162.754  1.00  0.00    -0.077 C 
ATOM      9  C   UNL     1     144.955 149.891 161.467  1.00  0.00     0.008 C 
ATOM     10  C   UNL     1     145.722 150.563 163.700  1.00  0.00     0.039 C 
ENDBRANCH   5   8
TORSDOF 1
ENDMDL
MODEL 2
REMARK VINA RESULT:    -4.674      6.339      7.832
REMARK INTER + INTRA:          -5.162
REMARK INTER:                  -4.944
REMARK INTRA:                  -0.219
REMARK UNBOUND:                -0.215
REMARK SMILES C=C(C)[C@@H]1CC=C(C)CC1
REMARK SMILES IDX 8 1 7 2 6 3 5 4 4 5 10 6 9 7 2 8 1 9 3 10
REMARK H PARENT
REMARK Flexibility Score: inf
ROOT
ATOM      1  C   UNL     1     150.039 143.098 164.862  1.00  0.00     0.039 C 
ATOM      2  C   UNL     1     148.676 143.284 164.255  1.00  0.00    -0.077 C 
ATOM      3  C   UNL     1     148.493 143.099 162.937  1.00  0.00    -0.027 C 
ATOM      4  C   UNL     1     147.122 143.266 162.338  1.00  0.00     0.035 C 
ATOM      5  C   UNL     1     146.006 142.638 163.223  1.00  0.00     0.018 C 
ATOM      6  C   UNL     1     146.332 142.635 164.750  1.00  0.00     0.013 C 
ATOM      7  C   UNL     1     147.473 143.595 165.113  1.00  0.00     0.031 C 
ENDROOT
BRANCH   5   8
ATOM      8  C   UNL     1     145.635 141.241 162.739  1.00  0.00    -0.077 C 
ATOM      9  C   UNL     1     145.818 140.884 161.455  1.00  0.00     0.008 C 
ATOM     10  C   UNL     1     145.047 140.235 163.693  1.00  0.00     0.039 C 
ENDBRANCH   5   8
TORSDOF 1
ENDMDL
MODEL 3
REMARK VINA RESULT:    -4.670      4.305      5.584
REMARK INTER + INTRA:          -5.158
REMARK INTER:                  -4.940
REMARK INTRA:                  -0.218
REMARK UNBOUND:                -0.215
REMARK SMILES C=C(C)[C@@H]1CC=C(C)CC1
REMARK SMILES IDX 8 1 7 2 6 3 5 4 4 5 10 6 9 7 2 8 1 9 3 10
REMARK H PARENT
REMARK Flexibility Score: inf
ROOT
ATOM      1  C   UNL     1     147.626 149.895 164.868  1.00  0.00     0.039 C 
ATOM      2  C   UNL     1     147.480 148.522 164.275  1.00  0.00    -0.077 C 
ATOM      3  C   UNL     1     147.639 148.336 162.954  1.00  0.00    -0.027 C 
ATOM      4  C   UNL     1     147.513 146.955 162.369  1.00  0.00     0.035 C 
ATOM      5  C   UNL     1     148.208 145.872 163.245  1.00  0.00     0.018 C 
ATOM      6  C   UNL     1     148.236 146.210 164.769  1.00  0.00     0.013 C 
ATOM      7  C   UNL     1     147.240 147.314 165.149  1.00  0.00     0.031 C 
ENDROOT
BRANCH   5   8
ATOM      8  C   UNL     1     149.606 145.554 162.728  1.00  0.00    -0.077 C 
ATOM      9  C   UNL     1     149.927 145.752 161.438  1.00  0.00     0.008 C 
ATOM     10  C   UNL     1     150.655 145.002 163.658  1.00  0.00     0.039 C 
ENDBRANCH   5   8
TORSDOF 1
ENDMDL
MODEL 4
REMARK VINA RESULT:    -4.666      4.168      5.479
REMARK INTER + INTRA:          -5.153
REMARK INTER:                  -4.933
REMARK INTRA:                  -0.220
REMARK UNBOUND:                -0.215
REMARK SMILES C=C(C)[C@@H]1CC=C(C)CC1
REMARK SMILES IDX 8 1 7 2 6 3 5 4 4 5 10 6 9 7 2 8 1 9 3 10
REMARK H PARENT
REMARK Flexibility Score: inf
ROOT
ATOM      1  C   UNL     1     143.125 140.866 164.937  1.00  0.00     0.039 C 
ATOM      2  C   UNL     1     143.280 142.224 164.311  1.00  0.00    -0.077 C 
ATOM      3  C   UNL     1     143.099 142.383 162.989  1.00  0.00    -0.027 C 
ATOM      4  C   UNL     1     143.235 143.749 162.371  1.00  0.00     0.035 C 
ATOM      5  C   UNL     1     142.571 144.861 163.236  1.00  0.00     0.018 C 
ATOM      6  C   UNL     1     142.566 144.557 164.768  1.00  0.00     0.013 C 
ATOM      7  C   UNL     1     143.554 143.447 165.153  1.00  0.00     0.031 C 
ENDROOT
BRANCH   5   8
ATOM      8  C   UNL     1     141.168 145.188 162.737  1.00  0.00    -0.077 C 
ATOM      9  C   UNL     1     140.831 144.996 161.450  1.00  0.00     0.008 C 
ATOM     10  C   UNL     1     140.134 145.743 163.682  1.00  0.00     0.039 C 
ENDBRANCH   5   8
TORSDOF 1
ENDMDL
MODEL 5
REMARK VINA RESULT:    -4.580      1.317      4.370
REMARK INTER + INTRA:          -5.063
REMARK INTER:                  -4.812
REMARK INTRA:                  -0.251
REMARK UNBOUND:                -0.215
REMARK SMILES C=C(C)[C@@H]1CC=C(C)CC1
REMARK SMILES IDX 8 1 7 2 6 3 5 4 4 5 10 6 9 7 2 8 1 9 3 10
REMARK H PARENT
REMARK Flexibility Score: inf
ROOT
ATOM      1  C   UNL     1     145.314 149.125 164.588  1.00  0.00     0.039 C 
ATOM      2  C   UNL     1     144.398 148.008 164.172  1.00  0.00    -0.077 C 
ATOM      3  C   UNL     1     143.970 147.113 165.078  1.00  0.00    -0.027 C 
ATOM      4  C   UNL     1     143.036 146.009 164.660  1.00  0.00     0.035 C 
ATOM      5  C   UNL     1     141.923 146.506 163.692  1.00  0.00     0.018 C 
ATOM      6  C   UNL     1     142.349 147.716 162.802  1.00  0.00     0.013 C 
ATOM      7  C   UNL     1     143.870 147.913 162.760  1.00  0.00     0.031 C 
ENDROOT
BRANCH   5   8
ATOM      8  C   UNL     1     140.629 146.805 164.442  1.00  0.00    -0.077 C 
ATOM      9  C   UNL     1     139.663 145.877 164.550  1.00  0.00     0.008 C 
ATOM     10  C   UNL     1     140.408 148.157 165.069  1.00  0.00     0.039 C 
ENDBRANCH   5   8
TORSDOF 1
ENDMDL
MODEL 6
REMARK VINA RESULT:    -4.563      3.201      4.789
REMARK INTER + INTRA:          -5.045
REMARK INTER:                  -4.788
REMARK INTRA:                  -0.257
REMARK UNBOUND:                -0.215
REMARK SMILES C=C(C)[C@@H]1CC=C(C)CC1
REMARK SMILES IDX 8 1 7 2 6 3 5 4 4 5 10 6 9 7 2 8 1 9 3 10
REMARK H PARENT
REMARK Flexibility Score: inf
ROOT
ATOM      1  C   UNL     1     149.264 145.521 164.417  1.00  0.00     0.039 C 
ATOM      2  C   UNL     1     148.095 146.406 164.086  1.00  0.00    -0.077 C 
ATOM      3  C   UNL     1     147.225 146.761 165.046  1.00  0.00    -0.027 C 
ATOM      4  C   UNL     1     146.067 147.665 164.714  1.00  0.00     0.035 C 
ATOM      5  C   UNL     1     146.477 148.834 163.771  1.00  0.00     0.018 C 
ATOM      6  C   UNL     1     147.662 148.492 162.813  1.00  0.00     0.013 C 
ATOM      7  C   UNL     1     147.916 146.982 162.702  1.00  0.00     0.031 C 
ENDROOT
BRANCH   5   8
ATOM      8  C   UNL     1     146.759 150.109 164.558  1.00  0.00    -0.077 C 
ATOM      9  C   UNL     1     145.782 150.999 164.802  1.00  0.00     0.008 C 
ATOM     10  C   UNL     1     148.145 150.397 165.070  1.00  0.00     0.039 C 
ENDBRANCH   5   8
TORSDOF 1
ENDMDL
MODEL 7
REMARK VINA RESULT:    -4.553      5.167      6.881
REMARK INTER + INTRA:          -5.034
REMARK INTER:                  -4.774
REMARK INTRA:                  -0.260
REMARK UNBOUND:                -0.215
REMARK SMILES C=C(C)[C@@H]1CC=C(C)CC1
REMARK SMILES IDX 8 1 7 2 6 3 5 4 4 5 10 6 9 7 2 8 1 9 3 10
REMARK H PARENT
REMARK Flexibility Score: inf
ROOT
ATOM      1  C   UNL     1     141.774 145.357 164.675  1.00  0.00     0.039 C 
ATOM      2  C   UNL     1     142.866 144.414 164.253  1.00  0.00    -0.077 C 
ATOM      3  C   UNL     1     143.771 143.986 165.148  1.00  0.00    -0.027 C 
ATOM      4  C   UNL     1     144.850 143.025 164.724  1.00  0.00     0.035 C 
ATOM      5  C   UNL     1     144.313 141.904 163.787  1.00  0.00     0.018 C 
ATOM      6  C   UNL     1     143.092 142.336 162.914  1.00  0.00     0.013 C 
ATOM      7  C   UNL     1     142.922 143.860 162.849  1.00  0.00     0.031 C 
ENDROOT
BRANCH   5   8
ATOM      8  C   UNL     1     144.007 140.630 164.565  1.00  0.00    -0.077 C 
ATOM      9  C   UNL     1     144.968 139.723 164.811  1.00  0.00     0.008 C 
ATOM     10  C   UNL     1     142.613 140.360 165.067  1.00  0.00     0.039 C 
ENDBRANCH   5   8
TORSDOF 1
ENDMDL
MODEL 8
REMARK VINA RESULT:    -4.419      6.494      8.131
REMARK INTER + INTRA:          -4.892
REMARK INTER:                  -4.749
REMARK INTRA:                  -0.143
REMARK UNBOUND:                -0.215
REMARK SMILES C=C(C)[C@@H]1CC=C(C)CC1
REMARK SMILES IDX 8 1 7 2 6 3 5 4 4 5 10 6 9 7 2 8 1 9 3 10
REMARK H PARENT
REMARK Flexibility Score: inf
ROOT
ATOM      1  C   UNL     1     143.048 141.067 159.530  1.00  0.00     0.039 C 
ATOM      2  C   UNL     1     143.698 141.536 160.802  1.00  0.00    -0.077 C 
ATOM      3  C   UNL     1     142.949 142.025 161.803  1.00  0.00    -0.027 C 
ATOM      4  C   UNL     1     143.604 142.473 163.082  1.00  0.00     0.035 C 
ATOM      5  C   UNL     1     144.722 141.497 163.552  1.00  0.00     0.018 C 
ATOM      6  C   UNL     1     145.435 140.740 162.387  1.00  0.00     0.013 C 
ATOM      7  C   UNL     1     145.186 141.391 161.019  1.00  0.00     0.031 C 
ENDROOT
BRANCH   5   8
ATOM      8  C   UNL     1     144.202 140.522 164.601  1.00  0.00    -0.077 C 
ATOM      9  C   UNL     1     145.028 139.646 165.200  1.00  0.00     0.008 C 
ATOM     10  C   UNL     1     142.744 140.518 164.982  1.00  0.00     0.039 C 
ENDBRANCH   5   8
TORSDOF 1
ENDMDL
MODEL 9
REMARK VINA RESULT:    -4.362      3.090      4.370
REMARK INTER + INTRA:          -4.832
REMARK INTER:                  -4.603
REMARK INTRA:                  -0.229
REMARK UNBOUND:                -0.215
REMARK SMILES C=C(C)[C@@H]1CC=C(C)CC1
REMARK SMILES IDX 8 1 7 2 6 3 5 4 4 5 10 6 9 7 2 8 1 9 3 10
REMARK H PARENT
REMARK Flexibility Score: inf
ROOT
ATOM      1  C   UNL     1     148.365 150.652 165.259  1.00  0.00     0.039 C 
ATOM      2  C   UNL     1     147.276 149.958 164.490  1.00  0.00    -0.077 C 
ATOM      3  C   UNL     1     146.346 150.675 163.839  1.00  0.00    -0.027 C 
ATOM      4  C   UNL     1     145.270 149.973 163.053  1.00  0.00     0.035 C 
ATOM      5  C   UNL     1     145.821 148.767 162.237  1.00  0.00     0.018 C 
ATOM      6  C   UNL     1     147.065 148.079 162.881  1.00  0.00     0.013 C 
ATOM      7  C   UNL     1     147.249 148.453 164.358  1.00  0.00     0.031 C 
ENDROOT
BRANCH   5   8
ATOM      8  C   UNL     1     146.098 149.157 160.790  1.00  0.00    -0.077 C 
ATOM      9  C   UNL     1     145.243 148.822 159.808  1.00  0.00     0.008 C 
ATOM     10  C   UNL     1     147.346 149.922 160.433  1.00  0.00     0.039 C 
ENDBRANCH   5   8
TORSDOF 1
ENDMDL
