MODEL 1
REMARK VINA RESULT:    -7.213      0.000      0.000
REMARK INTER + INTRA:         -10.892
REMARK INTER:                 -10.164
REMARK INTRA:                  -0.728
REMARK UNBOUND:                -0.728
REMARK SMILES O=c1cc(-c2ccc(O)c(O)c2)oc2cc(O)c([C@@H]3O[C@@H](CO)[C@H](O)[C@H](O)[C@H]3O)c(O)c12
REMARK SMILES IDX 4 1 3 2 2 3 1 4 32 5 14 6 13 7 15 8 16 9 18 10 30 11 5 12
REMARK SMILES IDX 6 13 7 14 8 15 12 16 10 17 9 18 11 20 31 22 17 24 19 26
REMARK SMILES IDX 28 27 20 28 26 29 21 30 24 31 29 32 27 34 22 36 23 37 25 39
REMARK H PARENT 9 19 11 21 31 23 17 25 29 33 27 35 23 38 25 40
REMARK Flexibility Score: inf
ROOT
ATOM      1  C   UNL     1     -25.184  29.102 -17.962  1.00  0.00     0.138 A 
ATOM      2  C   UNL     1     -25.686  28.794 -16.687  1.00  0.00     0.100 A 
ATOM      3  C   UNL     1     -25.181  29.451 -15.569  1.00  0.00     0.197 A 
ATOM      4  O   UNL     1     -25.655  29.148 -14.444  1.00  0.00    -0.289 OA
ATOM      5  C   UNL     1     -24.175  30.435 -15.718  1.00  0.00     0.107 A 
ATOM      6  C   UNL     1     -23.650  30.609 -17.019  1.00  0.00     0.146 A 
ATOM      7  O   UNL     1     -24.181  29.976 -18.063  1.00  0.00    -0.456 OA
ATOM      8  C   UNL     1     -22.544  31.435 -17.221  1.00  0.00     0.094 A 
ATOM      9  C   UNL     1     -22.029  32.209 -16.177  1.00  0.00     0.128 A 
ATOM     10  C   UNL     1     -22.698  32.249 -14.933  1.00  0.00     0.068 A 
ATOM     11  C   UNL     1     -23.670  31.249 -14.659  1.00  0.00     0.140 A 
ENDROOT
BRANCH   1  12
ATOM     12  C   UNL     1     -25.682  28.431 -19.206  1.00  0.00     0.021 A 
ATOM     13  C   UNL     1     -27.014  27.962 -19.326  1.00  0.00     0.016 A 
ATOM     14  C   UNL     1     -27.412  27.213 -20.437  1.00  0.00     0.051 A 
ATOM     15  C   UNL     1     -26.524  26.989 -21.493  1.00  0.00     0.157 A 
ATOM     16  C   UNL     1     -24.812  28.240 -20.303  1.00  0.00     0.062 A 
ATOM     17  C   UNL     1     -25.228  27.530 -21.441  1.00  0.00     0.158 A 
BRANCH  15  18
ATOM     18  O   UNL     1     -26.922  26.197 -22.576  1.00  0.00    -0.504 OA
ATOM     19  H   UNL     1     -27.146  26.613 -23.474  1.00  0.00     0.293 HD
ENDBRANCH  15  18
BRANCH  17  20
ATOM     20  O   UNL     1     -24.333  27.357 -22.497  1.00  0.00    -0.504 OA
ATOM     21  H   UNL     1     -24.513  26.690 -23.242  1.00  0.00     0.293 HD
ENDBRANCH  17  20
ENDBRANCH   1  12
BRANCH  11  22
ATOM     22  O   UNL     1     -24.095  31.105 -13.337  1.00  0.00    -0.506 OA
ATOM     23  H   UNL     1     -23.740  31.616 -12.547  1.00  0.00     0.293 HD
ENDBRANCH  11  22
BRANCH   9  24
ATOM     24  O   UNL     1     -20.845  32.917 -16.375  1.00  0.00    -0.507 OA
ATOM     25  H   UNL     1     -20.372  33.406 -15.623  1.00  0.00     0.293 HD
ENDBRANCH   9  24
BRANCH  10  26
ATOM     26  C   UNL     1     -22.703  33.530 -14.066  1.00  0.00     0.188 C 
ATOM     27  C   UNL     1     -21.323  34.169 -13.711  1.00  0.00     0.179 C 
ATOM     28  O   UNL     1     -23.659  34.473 -14.558  1.00  0.00    -0.362 OA
ATOM     29  C   UNL     1     -21.474  35.704 -13.700  1.00  0.00     0.177 C 
ATOM     30  C   UNL     1     -23.159  35.324 -15.584  1.00  0.00     0.176 C 
ATOM     31  C   UNL     1     -21.912  36.152 -15.127  1.00  0.00     0.177 C 
BRANCH  27  32
ATOM     32  O   UNL     1     -20.815  33.707 -12.480  1.00  0.00    -0.387 OA
ATOM     33  H   UNL     1     -20.213  34.402 -12.094  1.00  0.00     0.211 HD
ENDBRANCH  27  32
BRANCH  29  34
ATOM     34  O   UNL     1     -20.276  36.317 -13.272  1.00  0.00    -0.387 OA
ATOM     35  H   UNL     1     -19.536  35.867 -13.768  1.00  0.00     0.211 HD
ENDBRANCH  29  34
BRANCH  30  36
ATOM     36  C   UNL     1     -24.312  36.227 -16.074  1.00  0.00     0.191 C 
BRANCH  36  37
ATOM     37  O   UNL     1     -25.520  35.883 -15.428  1.00  0.00    -0.394 OA
ATOM     38  H   UNL     1     -25.637  36.526 -14.680  1.00  0.00     0.210 HD
ENDBRANCH  36  37
ENDBRANCH  30  36
BRANCH  31  39
ATOM     39  O   UNL     1     -20.873  35.963 -16.068  1.00  0.00    -0.388 OA
ATOM     40  H   UNL     1     -21.195  36.232 -16.969  1.00  0.00     0.211 HD
ENDBRANCH  31  39
ENDBRANCH  10  26
TORSDOF 11
ENDMDL
MODEL 2
REMARK VINA RESULT:    -7.211      1.850      3.147
REMARK INTER + INTRA:         -10.890
REMARK INTER:                 -10.167
REMARK INTRA:                  -0.723
REMARK UNBOUND:                -0.728
REMARK SMILES O=c1cc(-c2ccc(O)c(O)c2)oc2cc(O)c([C@@H]3O[C@@H](CO)[C@H](O)[C@H](O)[C@H]3O)c(O)c12
REMARK SMILES IDX 4 1 3 2 2 3 1 4 32 5 14 6 13 7 15 8 16 9 18 10 30 11 5 12
REMARK SMILES IDX 6 13 7 14 8 15 12 16 10 17 9 18 11 20 31 22 17 24 19 26
REMARK SMILES IDX 28 27 20 28 26 29 21 30 24 31 29 32 27 34 22 36 23 37 25 39
REMARK H PARENT 9 19 11 21 31 23 17 25 29 33 27 35 23 38 25 40
REMARK Flexibility Score: inf
ROOT
ATOM      1  C   UNL     1     -26.280  28.845 -18.566  1.00  0.00     0.138 A 
ATOM      2  C   UNL     1     -26.458  28.488 -17.219  1.00  0.00     0.100 A 
ATOM      3  C   UNL     1     -25.636  29.045 -16.243  1.00  0.00     0.197 A 
ATOM      4  O   UNL     1     -25.825  28.700 -15.049  1.00  0.00    -0.289 OA
ATOM      5  C   UNL     1     -24.634  29.975 -16.606  1.00  0.00     0.107 A 
ATOM      6  C   UNL     1     -24.450  30.198 -17.989  1.00  0.00     0.146 A 
ATOM      7  O   UNL     1     -25.276  29.664 -18.886  1.00  0.00    -0.456 OA
ATOM      8  C   UNL     1     -23.376  30.969 -18.436  1.00  0.00     0.094 A 
ATOM      9  C   UNL     1     -22.555  31.646 -17.530  1.00  0.00     0.128 A 
ATOM     10  C   UNL     1     -22.877  31.648 -16.153  1.00  0.00     0.068 A 
ATOM     11  C   UNL     1     -23.816  30.692 -15.680  1.00  0.00     0.140 A 
ENDROOT
BRANCH   1  12
ATOM     12  C   UNL     1     -27.129  28.282 -19.666  1.00  0.00     0.021 A 
ATOM     13  C   UNL     1     -28.539  28.426 -19.676  1.00  0.00     0.016 A 
ATOM     14  C   UNL     1     -29.318  27.770 -20.633  1.00  0.00     0.051 A 
ATOM     15  C   UNL     1     -28.711  27.031 -21.652  1.00  0.00     0.157 A 
ATOM     16  C   UNL     1     -26.527  27.574 -20.731  1.00  0.00     0.062 A 
ATOM     17  C   UNL     1     -27.309  26.957 -21.721  1.00  0.00     0.158 A 
BRANCH  15  18
ATOM     18  O   UNL     1     -29.506  26.341 -22.574  1.00  0.00    -0.504 OA
ATOM     19  H   UNL     1     -30.139  25.607 -22.275  1.00  0.00     0.293 HD
ENDBRANCH  15  18
BRANCH  17  20
ATOM     20  O   UNL     1     -26.675  26.259 -22.748  1.00  0.00    -0.504 OA
ATOM     21  H   UNL     1     -27.201  25.841 -23.511  1.00  0.00     0.293 HD
ENDBRANCH  17  20
ENDBRANCH   1  12
BRANCH  11  22
ATOM     22  O   UNL     1     -23.896  30.491 -14.301  1.00  0.00    -0.506 OA
ATOM     23  H   UNL     1     -24.553  29.890 -13.831  1.00  0.00     0.293 HD
ENDBRANCH  11  22
BRANCH   9  24
ATOM     24  O   UNL     1     -21.414  32.294 -17.998  1.00  0.00    -0.507 OA
ATOM     25  H   UNL     1     -20.847  31.921 -18.752  1.00  0.00     0.293 HD
ENDBRANCH   9  24
BRANCH  10  26
ATOM     26  C   UNL     1     -22.566  32.871 -15.258  1.00  0.00     0.188 C 
ATOM     27  C   UNL     1     -23.572  33.204 -14.112  1.00  0.00     0.179 C 
ATOM     28  O   UNL     1     -21.201  32.852 -14.831  1.00  0.00    -0.362 OA
ATOM     29  C   UNL     1     -22.784  33.727 -12.894  1.00  0.00     0.177 C 
ATOM     30  C   UNL     1     -20.973  32.089 -13.650  1.00  0.00     0.176 C 
ATOM     31  C   UNL     1     -21.813  32.600 -12.432  1.00  0.00     0.177 C 
BRANCH  27  32
ATOM     32  O   UNL     1     -24.554  34.134 -14.510  1.00  0.00    -0.387 OA
ATOM     33  H   UNL     1     -24.428  34.981 -13.999  1.00  0.00     0.211 HD
ENDBRANCH  27  32
BRANCH  29  34
ATOM     34  O   UNL     1     -23.667  34.149 -11.875  1.00  0.00    -0.387 OA
ATOM     35  H   UNL     1     -23.159  34.800 -11.315  1.00  0.00     0.211 HD
ENDBRANCH  29  34
BRANCH  30  36
ATOM     36  C   UNL     1     -19.457  32.089 -13.354  1.00  0.00     0.191 C 
BRANCH  36  37
ATOM     37  O   UNL     1     -19.130  31.062 -12.441  1.00  0.00    -0.394 OA
ATOM     38  H   UNL     1     -19.129  31.473 -11.537  1.00  0.00     0.210 HD
ENDBRANCH  36  37
ENDBRANCH  30  36
BRANCH  31  39
ATOM     39  O   UNL     1     -22.520  31.505 -11.880  1.00  0.00    -0.388 OA
ATOM     40  H   UNL     1     -22.137  30.659 -12.231  1.00  0.00     0.211 HD
ENDBRANCH  31  39
ENDBRANCH  10  26
TORSDOF 11
ENDMDL
MODEL 3
REMARK VINA RESULT:    -7.182      3.849      8.185
REMARK INTER + INTRA:         -10.849
REMARK INTER:                 -10.239
REMARK INTRA:                  -0.609
REMARK UNBOUND:                -0.728
REMARK SMILES O=c1cc(-c2ccc(O)c(O)c2)oc2cc(O)c([C@@H]3O[C@@H](CO)[C@H](O)[C@H](O)[C@H]3O)c(O)c12
REMARK SMILES IDX 4 1 3 2 2 3 1 4 32 5 14 6 13 7 15 8 16 9 18 10 30 11 5 12
REMARK SMILES IDX 6 13 7 14 8 15 12 16 10 17 9 18 11 20 31 22 17 24 19 26
REMARK SMILES IDX 28 27 20 28 26 29 21 30 24 31 29 32 27 34 22 36 23 37 25 39
REMARK H PARENT 9 19 11 21 31 23 17 25 29 33 27 35 23 38 25 40
REMARK Flexibility Score: inf
ROOT
ATOM      1  C   UNL     1     -23.201  33.285 -15.240  1.00  0.00     0.138 A 
ATOM      2  C   UNL     1     -21.830  33.321 -14.934  1.00  0.00     0.100 A 
ATOM      3  C   UNL     1     -20.912  32.755 -15.815  1.00  0.00     0.197 A 
ATOM      4  O   UNL     1     -19.694  32.806 -15.506  1.00  0.00    -0.289 OA
ATOM      5  C   UNL     1     -21.357  32.158 -17.017  1.00  0.00     0.107 A 
ATOM      6  C   UNL     1     -22.756  32.069 -17.198  1.00  0.00     0.146 A 
ATOM      7  O   UNL     1     -23.597  32.647 -16.343  1.00  0.00    -0.456 OA
ATOM      8  C   UNL     1     -23.277  31.348 -18.273  1.00  0.00     0.094 A 
ATOM      9  C   UNL     1     -22.436  30.826 -19.260  1.00  0.00     0.128 A 
ATOM     10  C   UNL     1     -21.055  31.126 -19.238  1.00  0.00     0.068 A 
ATOM     11  C   UNL     1     -20.499  31.654 -18.042  1.00  0.00     0.140 A 
ENDROOT
BRANCH   1  12
ATOM     12  C   UNL     1     -24.242  33.874 -14.336  1.00  0.00     0.021 A 
ATOM     13  C   UNL     1     -24.211  33.688 -12.931  1.00  0.00     0.016 A 
ATOM     14  C   UNL     1     -25.268  34.123 -12.129  1.00  0.00     0.051 A 
ATOM     15  C   UNL     1     -26.337  34.830 -12.688  1.00  0.00     0.157 A 
ATOM     16  C   UNL     1     -25.301  34.634 -14.880  1.00  0.00     0.062 A 
ATOM     17  C   UNL     1     -26.339  35.114 -14.065  1.00  0.00     0.158 A 
BRANCH  15  18
ATOM     18  O   UNL     1     -27.410  35.218 -11.879  1.00  0.00    -0.504 OA
ATOM     19  H   UNL     1     -28.366  35.152 -12.212  1.00  0.00     0.293 HD
ENDBRANCH  15  18
BRANCH  17  20
ATOM     20  O   UNL     1     -27.372  35.851 -14.646  1.00  0.00    -0.504 OA
ATOM     21  H   UNL     1     -27.187  36.563 -15.347  1.00  0.00     0.293 HD
ENDBRANCH  17  20
ENDBRANCH   1  12
BRANCH  11  22
ATOM     22  O   UNL     1     -19.109  31.655 -17.919  1.00  0.00    -0.506 OA
ATOM     23  H   UNL     1     -18.591  31.384 -17.099  1.00  0.00     0.293 HD
ENDBRANCH  11  22
BRANCH   9  24
ATOM     24  O   UNL     1     -22.972  29.998 -20.243  1.00  0.00    -0.507 OA
ATOM     25  H   UNL     1     -22.414  29.312 -20.740  1.00  0.00     0.293 HD
ENDBRANCH   9  24
BRANCH  10  26
ATOM     26  C   UNL     1     -20.246  31.277 -20.548  1.00  0.00     0.188 C 
ATOM     27  C   UNL     1     -19.202  32.437 -20.625  1.00  0.00     0.179 C 
ATOM     28  O   UNL     1     -19.726  30.014 -20.973  1.00  0.00    -0.362 OA
ATOM     29  C   UNL     1     -17.981  31.955 -21.435  1.00  0.00     0.177 C 
ATOM     30  C   UNL     1     -18.473  29.676 -20.387  1.00  0.00     0.176 C 
ATOM     31  C   UNL     1     -17.362  30.737 -20.687  1.00  0.00     0.177 C 
BRANCH  27  32
ATOM     32  O   UNL     1     -19.743  33.612 -21.185  1.00  0.00    -0.387 OA
ATOM     33  H   UNL     1     -20.733  33.516 -21.254  1.00  0.00     0.211 HD
ENDBRANCH  27  32
BRANCH  29  34
ATOM     34  O   UNL     1     -17.064  33.012 -21.626  1.00  0.00    -0.387 OA
ATOM     35  H   UNL     1     -16.162  32.642 -21.412  1.00  0.00     0.211 HD
ENDBRANCH  29  34
BRANCH  30  36
ATOM     36  C   UNL     1     -18.076  28.263 -20.867  1.00  0.00     0.191 C 
BRANCH  36  37
ATOM     37  O   UNL     1     -18.247  27.320 -19.829  1.00  0.00    -0.394 OA
ATOM     38  H   UNL     1     -19.159  27.461 -19.463  1.00  0.00     0.210 HD
ENDBRANCH  36  37
ENDBRANCH  30  36
BRANCH  31  39
ATOM     39  O   UNL     1     -16.770  31.130 -19.463  1.00  0.00    -0.388 OA
ATOM     40  H   UNL     1     -17.474  31.485 -18.859  1.00  0.00     0.211 HD
ENDBRANCH  31  39
ENDBRANCH  10  26
TORSDOF 11
ENDMDL
MODEL 4
REMARK VINA RESULT:    -7.142      1.691      2.576
REMARK INTER + INTRA:         -10.793
REMARK INTER:                 -10.261
REMARK INTRA:                  -0.532
REMARK UNBOUND:                -0.728
REMARK SMILES O=c1cc(-c2ccc(O)c(O)c2)oc2cc(O)c([C@@H]3O[C@@H](CO)[C@H](O)[C@H](O)[C@H]3O)c(O)c12
REMARK SMILES IDX 4 1 3 2 2 3 1 4 32 5 14 6 13 7 15 8 16 9 18 10 30 11 5 12
REMARK SMILES IDX 6 13 7 14 8 15 12 16 10 17 9 18 11 20 31 22 17 24 19 26
REMARK SMILES IDX 28 27 20 28 26 29 21 30 24 31 29 32 27 34 22 36 23 37 25 39
REMARK H PARENT 9 19 11 21 31 23 17 25 29 33 27 35 23 38 25 40
REMARK Flexibility Score: inf
ROOT
ATOM      1  C   UNL     1     -25.543  30.032 -17.906  1.00  0.00     0.138 A 
ATOM      2  C   UNL     1     -25.968  31.366 -17.790  1.00  0.00     0.100 A 
ATOM      3  C   UNL     1     -25.518  32.143 -16.726  1.00  0.00     0.197 A 
ATOM      4  O   UNL     1     -25.921  33.332 -16.655  1.00  0.00    -0.289 OA
ATOM      5  C   UNL     1     -24.627  31.595 -15.774  1.00  0.00     0.107 A 
ATOM      6  C   UNL     1     -24.332  30.219 -15.903  1.00  0.00     0.146 A 
ATOM      7  O   UNL     1     -24.765  29.520 -16.951  1.00  0.00    -0.456 OA
ATOM      8  C   UNL     1     -23.599  29.566 -14.912  1.00  0.00     0.094 A 
ATOM      9  C   UNL     1     -23.025  30.281 -13.857  1.00  0.00     0.128 A 
ATOM     10  C   UNL     1     -23.086  31.693 -13.849  1.00  0.00     0.068 A 
ATOM     11  C   UNL     1     -24.015  32.332 -14.715  1.00  0.00     0.140 A 
ENDROOT
BRANCH   1  12
ATOM     12  C   UNL     1     -25.989  29.141 -19.026  1.00  0.00     0.021 A 
ATOM     13  C   UNL     1     -27.347  29.054 -19.423  1.00  0.00     0.016 A 
ATOM     14  C   UNL     1     -27.757  28.111 -20.368  1.00  0.00     0.051 A 
ATOM     15  C   UNL     1     -26.818  27.294 -21.006  1.00  0.00     0.157 A 
ATOM     16  C   UNL     1     -25.046  28.345 -19.714  1.00  0.00     0.062 A 
ATOM     17  C   UNL     1     -25.453  27.432 -20.701  1.00  0.00     0.158 A 
BRANCH  15  18
ATOM     18  O   UNL     1     -27.250  26.322 -21.915  1.00  0.00    -0.504 OA
ATOM     19  H   UNL     1     -26.700  26.092 -22.736  1.00  0.00     0.293 HD
ENDBRANCH  15  18
BRANCH  17  20
ATOM     20  O   UNL     1     -24.489  26.659 -21.348  1.00  0.00    -0.504 OA
ATOM     21  H   UNL     1     -24.596  26.381 -22.320  1.00  0.00     0.293 HD
ENDBRANCH  17  20
ENDBRANCH   1  12
BRANCH  11  22
ATOM     22  O   UNL     1     -24.292  33.681 -14.485  1.00  0.00    -0.506 OA
ATOM     23  H   UNL     1     -24.115  34.179 -13.629  1.00  0.00     0.293 HD
ENDBRANCH  11  22
BRANCH   9  24
ATOM     24  O   UNL     1     -22.417  29.585 -12.815  1.00  0.00    -0.507 OA
ATOM     25  H   UNL     1     -22.203  30.020 -11.923  1.00  0.00     0.293 HD
ENDBRANCH   9  24
BRANCH  10  26
ATOM     26  C   UNL     1     -21.939  32.542 -13.253  1.00  0.00     0.188 C 
ATOM     27  C   UNL     1     -20.532  31.876 -13.134  1.00  0.00     0.179 C 
ATOM     28  O   UNL     1     -21.907  33.842 -13.849  1.00  0.00    -0.362 OA
ATOM     29  C   UNL     1     -19.452  32.942 -13.415  1.00  0.00     0.177 C 
ATOM     30  C   UNL     1     -21.156  33.907 -15.058  1.00  0.00     0.176 C 
ATOM     31  C   UNL     1     -19.666  33.468 -14.865  1.00  0.00     0.177 C 
BRANCH  27  32
ATOM     32  O   UNL     1     -20.325  31.272 -11.877  1.00  0.00    -0.387 OA
ATOM     33  H   UNL     1     -20.040  30.326 -12.012  1.00  0.00     0.211 HD
ENDBRANCH  27  32
BRANCH  29  34
ATOM     34  O   UNL     1     -18.162  32.407 -13.205  1.00  0.00    -0.387 OA
ATOM     35  H   UNL     1     -17.543  32.928 -13.791  1.00  0.00     0.211 HD
ENDBRANCH  29  34
BRANCH  30  36
ATOM     36  C   UNL     1     -21.275  35.337 -15.629  1.00  0.00     0.191 C 
BRANCH  36  37
ATOM     37  O   UNL     1     -22.463  35.954 -15.178  1.00  0.00    -0.394 OA
ATOM     38  H   UNL     1     -22.405  36.910 -15.437  1.00  0.00     0.210 HD
ENDBRANCH  36  37
ENDBRANCH  30  36
BRANCH  31  39
ATOM     39  O   UNL     1     -19.359  32.475 -15.825  1.00  0.00    -0.388 OA
ATOM     40  H   UNL     1     -18.429  32.611 -16.149  1.00  0.00     0.211 HD
ENDBRANCH  31  39
ENDBRANCH  10  26
TORSDOF 11
ENDMDL
MODEL 5
REMARK VINA RESULT:    -7.126      1.727      3.033
REMARK INTER + INTRA:         -10.770
REMARK INTER:                 -10.049
REMARK INTRA:                  -0.720
REMARK UNBOUND:                -0.728
REMARK SMILES O=c1cc(-c2ccc(O)c(O)c2)oc2cc(O)c([C@@H]3O[C@@H](CO)[C@H](O)[C@H](O)[C@H]3O)c(O)c12
REMARK SMILES IDX 4 1 3 2 2 3 1 4 32 5 14 6 13 7 15 8 16 9 18 10 30 11 5 12
REMARK SMILES IDX 6 13 7 14 8 15 12 16 10 17 9 18 11 20 31 22 17 24 19 26
REMARK SMILES IDX 28 27 20 28 26 29 21 30 24 31 29 32 27 34 22 36 23 37 25 39
REMARK H PARENT 9 19 11 21 31 23 17 25 29 33 27 35 23 38 25 40
REMARK Flexibility Score: inf
ROOT
ATOM      1  C   UNL     1     -24.898  29.436 -17.962  1.00  0.00     0.138 A 
ATOM      2  C   UNL     1     -24.961  29.418 -16.559  1.00  0.00     0.100 A 
ATOM      3  C   UNL     1     -24.019  30.125 -15.817  1.00  0.00     0.197 A 
ATOM      4  O   UNL     1     -24.107  30.084 -14.563  1.00  0.00    -0.289 OA
ATOM      5  C   UNL     1     -23.010  30.869 -16.474  1.00  0.00     0.107 A 
ATOM      6  C   UNL     1     -22.953  30.749 -17.881  1.00  0.00     0.146 A 
ATOM      7  O   UNL     1     -23.890  30.082 -18.552  1.00  0.00    -0.456 OA
ATOM      8  C   UNL     1     -21.889  31.312 -18.587  1.00  0.00     0.094 A 
ATOM      9  C   UNL     1     -20.949  32.119 -17.941  1.00  0.00     0.128 A 
ATOM     10  C   UNL     1     -21.133  32.467 -16.583  1.00  0.00     0.068 A 
ATOM     11  C   UNL     1     -22.069  31.719 -15.818  1.00  0.00     0.140 A 
ENDROOT
BRANCH   1  12
ATOM     12  C   UNL     1     -25.879  28.697 -18.821  1.00  0.00     0.021 A 
ATOM     13  C   UNL     1     -27.241  28.554 -18.455  1.00  0.00     0.016 A 
ATOM     14  C   UNL     1     -28.100  27.740 -19.197  1.00  0.00     0.051 A 
ATOM     15  C   UNL     1     -27.651  27.121 -20.368  1.00  0.00     0.157 A 
ATOM     16  C   UNL     1     -25.454  28.107 -20.032  1.00  0.00     0.062 A 
ATOM     17  C   UNL     1     -26.332  27.329 -20.805  1.00  0.00     0.158 A 
BRANCH  15  18
ATOM     18  O   UNL     1     -28.510  26.271 -21.074  1.00  0.00    -0.504 OA
ATOM     19  H   UNL     1     -29.445  26.073 -20.736  1.00  0.00     0.293 HD
ENDBRANCH  15  18
BRANCH  17  20
ATOM     20  O   UNL     1     -25.867  26.757 -21.989  1.00  0.00    -0.504 OA
ATOM     21  H   UNL     1     -26.504  26.353 -22.670  1.00  0.00     0.293 HD
ENDBRANCH  17  20
ENDBRANCH   1  12
BRANCH  11  22
ATOM     22  O   UNL     1     -22.023  31.852 -14.429  1.00  0.00    -0.506 OA
ATOM     23  H   UNL     1     -21.226  32.153 -13.894  1.00  0.00     0.293 HD
ENDBRANCH  11  22
BRANCH   9  24
ATOM     24  O   UNL     1     -19.827  32.554 -18.644  1.00  0.00    -0.507 OA
ATOM     25  H   UNL     1     -19.479  33.505 -18.578  1.00  0.00     0.293 HD
ENDBRANCH   9  24
BRANCH  10  26
ATOM     26  C   UNL     1     -20.672  33.838 -16.036  1.00  0.00     0.188 C 
ATOM     27  C   UNL     1     -21.561  34.520 -14.948  1.00  0.00     0.179 C 
ATOM     28  O   UNL     1     -19.282  33.808 -15.699  1.00  0.00    -0.362 OA
ATOM     29  C   UNL     1     -20.647  35.253 -13.945  1.00  0.00     0.177 C 
ATOM     30  C   UNL     1     -19.014  33.335 -14.383  1.00  0.00     0.176 C 
ATOM     31  C   UNL     1     -19.721  34.192 -13.279  1.00  0.00     0.177 C 
BRANCH  27  32
ATOM     32  O   UNL     1     -22.507  35.405 -15.503  1.00  0.00    -0.387 OA
ATOM     33  H   UNL     1     -23.271  35.506 -14.870  1.00  0.00     0.211 HD
ENDBRANCH  27  32
BRANCH  29  34
ATOM     34  O   UNL     1     -21.417  35.978 -13.010  1.00  0.00    -0.387 OA
ATOM     35  H   UNL     1     -20.830  36.709 -12.669  1.00  0.00     0.211 HD
ENDBRANCH  29  34
BRANCH  30  36
ATOM     36  C   UNL     1     -17.483  33.279 -14.187  1.00  0.00     0.191 C 
BRANCH  36  37
ATOM     37  O   UNL     1     -16.849  34.287 -14.947  1.00  0.00    -0.394 OA
ATOM     38  H   UNL     1     -15.953  34.429 -14.542  1.00  0.00     0.210 HD
ENDBRANCH  36  37
ENDBRANCH  30  36
BRANCH  31  39
ATOM     39  O   UNL     1     -20.453  33.325 -12.434  1.00  0.00    -0.388 OA
ATOM     40  H   UNL     1     -20.577  33.760 -11.549  1.00  0.00     0.211 HD
ENDBRANCH  31  39
ENDBRANCH  10  26
TORSDOF 11
ENDMDL
MODEL 6
REMARK VINA RESULT:    -7.120      1.812      3.253
REMARK INTER + INTRA:         -10.761
REMARK INTER:                 -10.406
REMARK INTRA:                  -0.355
REMARK UNBOUND:                -0.728
REMARK SMILES O=c1cc(-c2ccc(O)c(O)c2)oc2cc(O)c([C@@H]3O[C@@H](CO)[C@H](O)[C@H](O)[C@H]3O)c(O)c12
REMARK SMILES IDX 4 1 3 2 2 3 1 4 32 5 14 6 13 7 15 8 16 9 18 10 30 11 5 12
REMARK SMILES IDX 6 13 7 14 8 15 12 16 10 17 9 18 11 20 31 22 17 24 19 26
REMARK SMILES IDX 28 27 20 28 26 29 21 30 24 31 29 32 27 34 22 36 23 37 25 39
REMARK H PARENT 9 19 11 21 31 23 17 25 29 33 27 35 23 38 25 40
REMARK Flexibility Score: inf
ROOT
ATOM      1  C   UNL     1     -24.281  29.852 -18.627  1.00  0.00     0.138 A 
ATOM      2  C   UNL     1     -23.243  30.649 -19.139  1.00  0.00     0.100 A 
ATOM      3  C   UNL     1     -22.621  31.583 -18.315  1.00  0.00     0.197 A 
ATOM      4  O   UNL     1     -21.697  32.279 -18.809  1.00  0.00    -0.289 OA
ATOM      5  C   UNL     1     -23.024  31.719 -16.966  1.00  0.00     0.107 A 
ATOM      6  C   UNL     1     -24.142  30.957 -16.561  1.00  0.00     0.146 A 
ATOM      7  O   UNL     1     -24.691  30.058 -17.374  1.00  0.00    -0.456 OA
ATOM      8  C   UNL     1     -24.705  31.159 -15.299  1.00  0.00     0.094 A 
ATOM      9  C   UNL     1     -24.094  32.004 -14.370  1.00  0.00     0.128 A 
ATOM     10  C   UNL     1     -22.833  32.575 -14.659  1.00  0.00     0.068 A 
ATOM     11  C   UNL     1     -22.380  32.559 -16.006  1.00  0.00     0.140 A 
ENDROOT
BRANCH   1  12
ATOM     12  C   UNL     1     -24.993  28.828 -19.459  1.00  0.00     0.021 A 
ATOM     13  C   UNL     1     -24.384  28.215 -20.582  1.00  0.00     0.016 A 
ATOM     14  C   UNL     1     -25.117  27.375 -21.424  1.00  0.00     0.051 A 
ATOM     15  C   UNL     1     -26.444  27.054 -21.122  1.00  0.00     0.157 A 
ATOM     16  C   UNL     1     -26.318  28.456 -19.138  1.00  0.00     0.062 A 
ATOM     17  C   UNL     1     -27.039  27.572 -19.959  1.00  0.00     0.158 A 
BRANCH  15  18
ATOM     18  O   UNL     1     -27.179  26.250 -22.000  1.00  0.00    -0.504 OA
ATOM     19  H   UNL     1     -27.954  26.630 -22.533  1.00  0.00     0.293 HD
ENDBRANCH  15  18
BRANCH  17  20
ATOM     20  O   UNL     1     -28.348  27.239 -19.610  1.00  0.00    -0.504 OA
ATOM     21  H   UNL     1     -28.923  27.862 -19.050  1.00  0.00     0.293 HD
ENDBRANCH  17  20
ENDBRANCH   1  12
BRANCH  11  22
ATOM     22  O   UNL     1     -21.304  33.383 -16.337  1.00  0.00    -0.506 OA
ATOM     23  H   UNL     1     -21.365  34.352 -16.603  1.00  0.00     0.293 HD
ENDBRANCH  11  22
BRANCH   9  24
ATOM     24  O   UNL     1     -24.750  32.289 -13.174  1.00  0.00    -0.507 OA
ATOM     25  H   UNL     1     -25.242  31.580 -12.642  1.00  0.00     0.293 HD
ENDBRANCH   9  24
BRANCH  10  26
ATOM     26  C   UNL     1     -21.796  32.837 -13.543  1.00  0.00     0.188 C 
ATOM     27  C   UNL     1     -20.413  32.121 -13.657  1.00  0.00     0.179 C 
ATOM     28  O   UNL     1     -21.692  34.236 -13.264  1.00  0.00    -0.362 OA
ATOM     29  C   UNL     1     -19.316  33.069 -13.129  1.00  0.00     0.177 C 
ATOM     30  C   UNL     1     -20.773  34.928 -14.105  1.00  0.00     0.176 C 
ATOM     31  C   UNL     1     -19.322  34.348 -14.017  1.00  0.00     0.177 C 
BRANCH  27  32
ATOM     32  O   UNL     1     -20.384  30.890 -12.970  1.00  0.00    -0.387 OA
ATOM     33  H   UNL     1     -20.879  30.207 -13.502  1.00  0.00     0.211 HD
ENDBRANCH  27  32
BRANCH  29  34
ATOM     34  O   UNL     1     -18.064  32.416 -13.108  1.00  0.00    -0.387 OA
ATOM     35  H   UNL     1     -17.379  33.127 -12.963  1.00  0.00     0.211 HD
ENDBRANCH  29  34
BRANCH  30  36
ATOM     36  C   UNL     1     -20.825  36.431 -13.750  1.00  0.00     0.191 C 
BRANCH  36  37
ATOM     37  O   UNL     1     -19.768  37.125 -14.380  1.00  0.00    -0.394 OA
ATOM     38  H   UNL     1     -19.793  36.874 -15.340  1.00  0.00     0.210 HD
ENDBRANCH  36  37
ENDBRANCH  30  36
BRANCH  31  39
ATOM     39  O   UNL     1     -18.866  34.069 -15.327  1.00  0.00    -0.388 OA
ATOM     40  H   UNL     1     -19.405  34.592 -15.978  1.00  0.00     0.211 HD
ENDBRANCH  31  39
ENDBRANCH  10  26
TORSDOF 11
ENDMDL
MODEL 7
REMARK VINA RESULT:    -7.071      1.833      3.180
REMARK INTER + INTRA:         -10.693
REMARK INTER:                 -10.035
REMARK INTRA:                  -0.658
REMARK UNBOUND:                -0.728
REMARK SMILES O=c1cc(-c2ccc(O)c(O)c2)oc2cc(O)c([C@@H]3O[C@@H](CO)[C@H](O)[C@H](O)[C@H]3O)c(O)c12
REMARK SMILES IDX 4 1 3 2 2 3 1 4 32 5 14 6 13 7 15 8 16 9 18 10 30 11 5 12
REMARK SMILES IDX 6 13 7 14 8 15 12 16 10 17 9 18 11 20 31 22 17 24 19 26
REMARK SMILES IDX 28 27 20 28 26 29 21 30 24 31 29 32 27 34 22 36 23 37 25 39
REMARK H PARENT 9 19 11 21 31 23 17 25 29 33 27 35 23 38 25 40
REMARK Flexibility Score: inf
ROOT
ATOM      1  C   UNL     1     -25.976  29.427 -18.840  1.00  0.00     0.138 A 
ATOM      2  C   UNL     1     -24.635  29.575 -19.231  1.00  0.00     0.100 A 
ATOM      3  C   UNL     1     -23.771  30.344 -18.455  1.00  0.00     0.197 A 
ATOM      4  O   UNL     1     -22.578  30.454 -18.837  1.00  0.00    -0.289 OA
ATOM      5  C   UNL     1     -24.240  30.962 -17.272  1.00  0.00     0.107 A 
ATOM      6  C   UNL     1     -25.624  30.852 -17.008  1.00  0.00     0.146 A 
ATOM      7  O   UNL     1     -26.408  30.086 -17.763  1.00  0.00    -0.456 OA
ATOM      8  C   UNL     1     -26.194  31.571 -15.956  1.00  0.00     0.094 A 
ATOM      9  C   UNL     1     -25.394  32.293 -15.066  1.00  0.00     0.128 A 
ATOM     10  C   UNL     1     -23.986  32.205 -15.156  1.00  0.00     0.068 A 
ATOM     11  C   UNL     1     -23.418  31.673 -16.345  1.00  0.00     0.140 A 
ENDROOT
BRANCH   1  12
ATOM     12  C   UNL     1     -26.958  28.615 -19.630  1.00  0.00     0.021 A 
ATOM     13  C   UNL     1     -28.340  28.594 -19.317  1.00  0.00     0.016 A 
ATOM     14  C   UNL     1     -29.209  27.719 -19.974  1.00  0.00     0.051 A 
ATOM     15  C   UNL     1     -28.745  26.911 -21.016  1.00  0.00     0.157 A 
ATOM     16  C   UNL     1     -26.513  27.831 -20.718  1.00  0.00     0.062 A 
ATOM     17  C   UNL     1     -27.398  26.988 -21.411  1.00  0.00     0.158 A 
BRANCH  15  18
ATOM     18  O   UNL     1     -29.616  26.006 -21.632  1.00  0.00    -0.504 OA
ATOM     19  H   UNL     1     -30.399  25.606 -21.126  1.00  0.00     0.293 HD
ENDBRANCH  15  18
BRANCH  17  20
ATOM     20  O   UNL     1     -26.914  26.223 -22.472  1.00  0.00    -0.504 OA
ATOM     21  H   UNL     1     -25.932  26.237 -22.733  1.00  0.00     0.293 HD
ENDBRANCH  17  20
ENDBRANCH   1  12
BRANCH  11  22
ATOM     22  O   UNL     1     -22.053  31.873 -16.557  1.00  0.00    -0.506 OA
ATOM     23  H   UNL     1     -21.534  31.576 -17.367  1.00  0.00     0.293 HD
ENDBRANCH  11  22
BRANCH   9  24
ATOM     24  O   UNL     1     -26.000  33.107 -14.113  1.00  0.00    -0.507 OA
ATOM     25  H   UNL     1     -25.581  33.974 -13.792  1.00  0.00     0.293 HD
ENDBRANCH   9  24
BRANCH  10  26
ATOM     26  C   UNL     1     -23.095  32.286 -13.894  1.00  0.00     0.188 C 
ATOM     27  C   UNL     1     -21.872  31.318 -13.807  1.00  0.00     0.179 C 
ATOM     28  O   UNL     1     -22.769  33.645 -13.589  1.00  0.00    -0.362 OA
ATOM     29  C   UNL     1     -20.706  32.050 -13.112  1.00  0.00     0.177 C 
ATOM     30  C   UNL     1     -21.621  34.134 -14.275  1.00  0.00     0.176 C 
ATOM     31  C   UNL     1     -20.336  33.291 -13.978  1.00  0.00     0.177 C 
BRANCH  27  32
ATOM     32  O   UNL     1     -22.182  30.117 -13.137  1.00  0.00    -0.387 OA
ATOM     33  H   UNL     1     -21.601  29.387 -13.489  1.00  0.00     0.211 HD
ENDBRANCH  27  32
BRANCH  29  34
ATOM     34  O   UNL     1     -19.619  31.172 -12.911  1.00  0.00    -0.387 OA
ATOM     35  H   UNL     1     -19.498  31.095 -11.923  1.00  0.00     0.211 HD
ENDBRANCH  29  34
BRANCH  30  36
ATOM     36  C   UNL     1     -21.437  35.625 -13.917  1.00  0.00     0.191 C 
BRANCH  36  37
ATOM     37  O   UNL     1     -20.185  35.836 -13.297  1.00  0.00    -0.394 OA
ATOM     38  H   UNL     1     -19.503  35.407 -13.877  1.00  0.00     0.210 HD
ENDBRANCH  36  37
ENDBRANCH  30  36
BRANCH  31  39
ATOM     39  O   UNL     1     -19.752  32.906 -15.208  1.00  0.00    -0.388 OA
ATOM     40  H   UNL     1     -19.433  31.968 -15.138  1.00  0.00     0.211 HD
ENDBRANCH  31  39
ENDBRANCH  10  26
TORSDOF 11
ENDMDL
MODEL 8
REMARK VINA RESULT:    -7.041      2.539      3.451
REMARK INTER + INTRA:         -10.650
REMARK INTER:                 -10.125
REMARK INTRA:                  -0.525
REMARK UNBOUND:                -0.728
REMARK SMILES O=c1cc(-c2ccc(O)c(O)c2)oc2cc(O)c([C@@H]3O[C@@H](CO)[C@H](O)[C@H](O)[C@H]3O)c(O)c12
REMARK SMILES IDX 4 1 3 2 2 3 1 4 32 5 14 6 13 7 15 8 16 9 18 10 30 11 5 12
REMARK SMILES IDX 6 13 7 14 8 15 12 16 10 17 9 18 11 20 31 22 17 24 19 26
REMARK SMILES IDX 28 27 20 28 26 29 21 30 24 31 29 32 27 34 22 36 23 37 25 39
REMARK H PARENT 9 19 11 21 31 23 17 25 29 33 27 35 23 38 25 40
REMARK Flexibility Score: inf
ROOT
ATOM      1  C   UNL     1     -24.806  30.326 -15.785  1.00  0.00     0.138 A 
ATOM      2  C   UNL     1     -24.659  29.997 -14.427  1.00  0.00     0.100 A 
ATOM      3  C   UNL     1     -23.459  30.270 -13.777  1.00  0.00     0.197 A 
ATOM      4  O   UNL     1     -23.365  29.959 -12.562  1.00  0.00    -0.289 OA
ATOM      5  C   UNL     1     -22.397  30.888 -14.477  1.00  0.00     0.107 A 
ATOM      6  C   UNL     1     -22.587  31.089 -15.863  1.00  0.00     0.146 A 
ATOM      7  O   UNL     1     -23.760  30.836 -16.438  1.00  0.00    -0.456 OA
ATOM      8  C   UNL     1     -21.529  31.536 -16.656  1.00  0.00     0.094 A 
ATOM      9  C   UNL     1     -20.317  31.926 -16.078  1.00  0.00     0.128 A 
ATOM     10  C   UNL     1     -20.193  31.981 -14.672  1.00  0.00     0.068 A 
ATOM     11  C   UNL     1     -21.171  31.316 -13.883  1.00  0.00     0.140 A 
ENDROOT
BRANCH   1  12
ATOM     12  C   UNL     1     -26.070  30.059 -16.545  1.00  0.00     0.021 A 
ATOM     13  C   UNL     1     -27.238  30.841 -16.362  1.00  0.00     0.016 A 
ATOM     14  C   UNL     1     -28.442  30.482 -16.972  1.00  0.00     0.051 A 
ATOM     15  C   UNL     1     -28.494  29.394 -17.848  1.00  0.00     0.157 A 
ATOM     16  C   UNL     1     -26.125  28.993 -17.471  1.00  0.00     0.062 A 
ATOM     17  C   UNL     1     -27.325  28.664 -18.123  1.00  0.00     0.158 A 
BRANCH  15  18
ATOM     18  O   UNL     1     -29.717  29.019 -18.415  1.00  0.00    -0.504 OA
ATOM     19  H   UNL     1     -29.828  28.947 -19.421  1.00  0.00     0.293 HD
ENDBRANCH  15  18
BRANCH  17  20
ATOM     20  O   UNL     1     -27.337  27.597 -19.022  1.00  0.00    -0.504 OA
ATOM     21  H   UNL     1     -28.011  26.841 -18.940  1.00  0.00     0.293 HD
ENDBRANCH  17  20
ENDBRANCH   1  12
BRANCH  11  22
ATOM     22  O   UNL     1     -20.881  31.107 -12.534  1.00  0.00    -0.506 OA
ATOM     23  H   UNL     1     -21.529  31.213 -11.770  1.00  0.00     0.293 HD
ENDBRANCH  11  22
BRANCH   9  24
ATOM     24  O   UNL     1     -19.239  32.238 -16.904  1.00  0.00    -0.507 OA
ATOM     25  H   UNL     1     -19.002  31.685 -17.721  1.00  0.00     0.293 HD
ENDBRANCH   9  24
BRANCH  10  26
ATOM     26  C   UNL     1     -19.297  33.039 -13.986  1.00  0.00     0.188 C 
ATOM     27  C   UNL     1     -17.937  33.389 -14.669  1.00  0.00     0.179 C 
ATOM     28  O   UNL     1     -20.062  34.190 -13.617  1.00  0.00    -0.362 OA
ATOM     29  C   UNL     1     -17.655  34.893 -14.476  1.00  0.00     0.177 C 
ATOM     30  C   UNL     1     -20.192  35.157 -14.654  1.00  0.00     0.176 C 
ATOM     31  C   UNL     1     -18.808  35.686 -15.160  1.00  0.00     0.177 C 
BRANCH  27  32
ATOM     32  O   UNL     1     -16.870  32.612 -14.174  1.00  0.00    -0.387 OA
ATOM     33  H   UNL     1     -16.032  33.152 -14.200  1.00  0.00     0.211 HD
ENDBRANCH  27  32
BRANCH  29  34
ATOM     34  O   UNL     1     -16.379  35.227 -14.980  1.00  0.00    -0.387 OA
ATOM     35  H   UNL     1     -15.742  35.129 -14.218  1.00  0.00     0.211 HD
ENDBRANCH  29  34
BRANCH  30  36
ATOM     36  C   UNL     1     -21.103  36.297 -14.147  1.00  0.00     0.191 C 
BRANCH  36  37
ATOM     37  O   UNL     1     -21.716  35.935 -12.926  1.00  0.00    -0.394 OA
ATOM     38  H   UNL     1     -22.639  35.642 -13.146  1.00  0.00     0.210 HD
ENDBRANCH  36  37
ENDBRANCH  30  36
BRANCH  31  39
ATOM     39  O   UNL     1     -18.761  35.554 -16.568  1.00  0.00    -0.388 OA
ATOM     40  H   UNL     1     -19.225  34.716 -16.833  1.00  0.00     0.211 HD
ENDBRANCH  31  39
ENDBRANCH  10  26
TORSDOF 11
ENDMDL
MODEL 9
REMARK VINA RESULT:    -6.985      2.004      3.553
REMARK INTER + INTRA:         -10.571
REMARK INTER:                 -10.357
REMARK INTRA:                  -0.214
REMARK UNBOUND:                -0.728
REMARK SMILES O=c1cc(-c2ccc(O)c(O)c2)oc2cc(O)c([C@@H]3O[C@@H](CO)[C@H](O)[C@H](O)[C@H]3O)c(O)c12
REMARK SMILES IDX 4 1 3 2 2 3 1 4 32 5 14 6 13 7 15 8 16 9 18 10 30 11 5 12
REMARK SMILES IDX 6 13 7 14 8 15 12 16 10 17 9 18 11 20 31 22 17 24 19 26
REMARK SMILES IDX 28 27 20 28 26 29 21 30 24 31 29 32 27 34 22 36 23 37 25 39
REMARK H PARENT 9 19 11 21 31 23 17 25 29 33 27 35 23 38 25 40
REMARK Flexibility Score: inf
ROOT
ATOM      1  C   UNL     1     -25.164  29.445 -19.171  1.00  0.00     0.138 A 
ATOM      2  C   UNL     1     -24.053  29.775 -19.964  1.00  0.00     0.100 A 
ATOM      3  C   UNL     1     -23.046  30.580 -19.438  1.00  0.00     0.197 A 
ATOM      4  O   UNL     1     -22.067  30.855 -20.178  1.00  0.00    -0.289 OA
ATOM      5  C   UNL     1     -23.136  31.052 -18.108  1.00  0.00     0.107 A 
ATOM      6  C   UNL     1     -24.334  30.763 -17.415  1.00  0.00     0.146 A 
ATOM      7  O   UNL     1     -25.259  29.968 -17.947  1.00  0.00    -0.456 OA
ATOM      8  C   UNL     1     -24.572  31.333 -16.163  1.00  0.00     0.094 A 
ATOM      9  C   UNL     1     -23.581  32.075 -15.515  1.00  0.00     0.128 A 
ATOM     10  C   UNL     1     -22.285  32.158 -16.073  1.00  0.00     0.068 A 
ATOM     11  C   UNL     1     -22.112  31.783 -17.433  1.00  0.00     0.140 A 
ENDROOT
BRANCH   1  12
ATOM     12  C   UNL     1     -26.284  28.584 -19.675  1.00  0.00     0.021 A 
ATOM     13  C   UNL     1     -27.515  28.470 -18.983  1.00  0.00     0.016 A 
ATOM     14  C   UNL     1     -28.485  27.552 -19.394  1.00  0.00     0.051 A 
ATOM     15  C   UNL     1     -28.293  26.791 -20.551  1.00  0.00     0.157 A 
ATOM     16  C   UNL     1     -26.125  27.847 -20.870  1.00  0.00     0.062 A 
ATOM     17  C   UNL     1     -27.122  26.961 -21.310  1.00  0.00     0.158 A 
BRANCH  15  18
ATOM     18  O   UNL     1     -29.251  25.843 -20.924  1.00  0.00    -0.504 OA
ATOM     19  H   UNL     1     -29.597  25.794 -21.876  1.00  0.00     0.293 HD
ENDBRANCH  15  18
BRANCH  17  20
ATOM     20  O   UNL     1     -26.919  26.245 -22.490  1.00  0.00    -0.504 OA
ATOM     21  H   UNL     1     -26.792  25.236 -22.485  1.00  0.00     0.293 HD
ENDBRANCH  17  20
ENDBRANCH   1  12
BRANCH  11  22
ATOM     22  O   UNL     1     -20.922  32.156 -18.060  1.00  0.00    -0.506 OA
ATOM     23  H   UNL     1     -20.836  32.827 -18.806  1.00  0.00     0.293 HD
ENDBRANCH  11  22
BRANCH   9  24
ATOM     24  O   UNL     1     -23.895  32.742 -14.333  1.00  0.00    -0.507 OA
ATOM     25  H   UNL     1     -23.298  33.462 -13.940  1.00  0.00     0.293 HD
ENDBRANCH   9  24
BRANCH  10  26
ATOM     26  C   UNL     1     -21.029  32.250 -15.175  1.00  0.00     0.188 C 
ATOM     27  C   UNL     1     -20.535  33.673 -14.763  1.00  0.00     0.179 C 
ATOM     28  O   UNL     1     -21.124  31.340 -14.075  1.00  0.00    -0.362 OA
ATOM     29  C   UNL     1     -19.988  33.613 -13.322  1.00  0.00     0.177 C 
ATOM     30  C   UNL     1     -21.814  31.865 -12.945  1.00  0.00     0.176 C 
ATOM     31  C   UNL     1     -21.152  33.168 -12.387  1.00  0.00     0.177 C 
BRANCH  27  32
ATOM     32  O   UNL     1     -19.562  34.182 -15.648  1.00  0.00    -0.387 OA
ATOM     33  H   UNL     1     -18.820  34.587 -15.119  1.00  0.00     0.211 HD
ENDBRANCH  27  32
BRANCH  29  34
ATOM     34  O   UNL     1     -19.425  34.854 -12.953  1.00  0.00    -0.387 OA
ATOM     35  H   UNL     1     -19.386  35.404 -13.785  1.00  0.00     0.211 HD
ENDBRANCH  29  34
BRANCH  30  36
ATOM     36  C   UNL     1     -21.913  30.755 -11.875  1.00  0.00     0.191 C 
BRANCH  36  37
ATOM     37  O   UNL     1     -22.601  29.633 -12.387  1.00  0.00    -0.394 OA
ATOM     38  H   UNL     1     -22.050  28.836 -12.168  1.00  0.00     0.210 HD
ENDBRANCH  36  37
ENDBRANCH  30  36
BRANCH  31  39
ATOM     39  O   UNL     1     -22.144  34.172 -12.286  1.00  0.00    -0.388 OA
ATOM     40  H   UNL     1     -22.897  33.949 -12.895  1.00  0.00     0.211 HD
ENDBRANCH  31  39
ENDBRANCH  10  26
TORSDOF 11
ENDMDL
