MODEL 1
REMARK VINA RESULT:    -6.109      0.000      0.000
REMARK INTER + INTRA:          -7.637
REMARK INTER:                  -7.359
REMARK INTRA:                  -0.278
REMARK UNBOUND:                -0.278
REMARK SMILES O=c1c(O)c(-c2ccc(O)cc2O)oc2cc(O)cc(O)c12
REMARK SMILES IDX 5 1 3 2 2 3 1 4 22 5 20 6 19 7 17 8 16 9 15 10 14 11 6 12
REMARK SMILES IDX 8 13 7 14 9 15 11 16 12 17 10 18 13 20 4 22 21 24 18 26
REMARK H PARENT 10 19 13 21 4 23 21 25 18 27
REMARK Flexibility Score: inf
ROOT
ATOM      1  C   UNL     1      15.563  -7.524 -31.256  1.00  0.00     0.184 A 
ATOM      2  C   UNL     1      14.971  -7.180 -32.483  1.00  0.00     0.208 A 
ATOM      3  C   UNL     1      15.794  -6.776 -33.546  1.00  0.00     0.238 A 
ATOM      4  O   UNL     1      15.263  -6.524 -34.660  1.00  0.00    -0.285 OA
ATOM      5  C   UNL     1      17.196  -6.700 -33.363  1.00  0.00     0.111 A 
ATOM      6  C   UNL     1      18.122  -6.266 -34.359  1.00  0.00     0.134 A 
ATOM      7  C   UNL     1      19.497  -6.354 -34.110  1.00  0.00     0.093 A 
ATOM      8  C   UNL     1      19.978  -6.799 -32.875  1.00  0.00     0.123 A 
ATOM      9  C   UNL     1      19.081  -7.170 -31.876  1.00  0.00     0.094 A 
ATOM     10  C   UNL     1      17.705  -7.128 -32.108  1.00  0.00     0.146 A 
ATOM     11  O   UNL     1      16.885  -7.502 -31.133  1.00  0.00    -0.451 OA
ENDROOT
BRANCH   1  12
ATOM     12  C   UNL     1      14.753  -7.936 -30.086  1.00  0.00     0.063 A 
ATOM     13  C   UNL     1      13.989  -9.667 -28.553  1.00  0.00     0.047 A 
ATOM     14  C   UNL     1      14.773  -9.270 -29.640  1.00  0.00     0.020 A 
ATOM     15  C   UNL     1      13.165  -8.739 -27.905  1.00  0.00     0.119 A 
ATOM     16  C   UNL     1      13.128  -7.415 -28.350  1.00  0.00     0.093 A 
ATOM     17  C   UNL     1      13.914  -7.007 -29.438  1.00  0.00     0.130 A 
BRANCH  15  18
ATOM     18  O   UNL     1      12.379  -9.124 -26.822  1.00  0.00    -0.508 OA
ATOM     19  H   UNL     1      11.380  -9.264 -26.916  1.00  0.00     0.293 HD
ENDBRANCH  15  18
BRANCH  17  20
ATOM     20  O   UNL     1      13.871  -5.680 -29.867  1.00  0.00    -0.507 OA
ATOM     21  H   UNL     1      14.662  -5.059 -29.750  1.00  0.00     0.293 HD
ENDBRANCH  17  20
ENDBRANCH   1  12
BRANCH   2  22
ATOM     22  O   UNL     1      13.586  -7.276 -32.644  1.00  0.00    -0.502 OA
ATOM     23  H   UNL     1      13.159  -7.538 -33.524  1.00  0.00     0.293 HD
ENDBRANCH   2  22
BRANCH   6  24
ATOM     24  O   UNL     1      17.745  -5.719 -35.589  1.00  0.00    -0.507 OA
ATOM     25  H   UNL     1      18.147  -5.973 -36.478  1.00  0.00     0.293 HD
ENDBRANCH   6  24
BRANCH   8  26
ATOM     26  O   UNL     1      21.348  -6.869 -32.630  1.00  0.00    -0.508 OA
ATOM     27  H   UNL     1      21.863  -7.734 -32.742  1.00  0.00     0.293 HD
ENDBRANCH   8  26
TORSDOF 6
ENDMDL
MODEL 2
REMARK VINA RESULT:    -5.850      1.466      6.648
REMARK INTER + INTRA:          -7.325
REMARK INTER:                  -6.973
REMARK INTRA:                  -0.352
REMARK UNBOUND:                -0.278
REMARK SMILES O=c1c(O)c(-c2ccc(O)cc2O)oc2cc(O)cc(O)c12
REMARK SMILES IDX 5 1 3 2 2 3 1 4 22 5 20 6 19 7 17 8 16 9 15 10 14 11 6 12
REMARK SMILES IDX 8 13 7 14 9 15 11 16 12 17 10 18 13 20 4 22 21 24 18 26
REMARK H PARENT 10 19 13 21 4 23 21 25 18 27
REMARK Flexibility Score: inf
ROOT
ATOM      1  C   UNL     1      16.545  -6.862 -30.797  1.00  0.00     0.184 A 
ATOM      2  C   UNL     1      15.692  -5.747 -30.743  1.00  0.00     0.208 A 
ATOM      3  C   UNL     1      14.495  -5.841 -30.017  1.00  0.00     0.238 A 
ATOM      4  O   UNL     1      13.761  -4.821 -29.925  1.00  0.00    -0.285 OA
ATOM      5  C   UNL     1      14.155  -7.055 -29.372  1.00  0.00     0.111 A 
ATOM      6  C   UNL     1      12.948  -7.275 -28.642  1.00  0.00     0.134 A 
ATOM      7  C   UNL     1      12.776  -8.473 -27.937  1.00  0.00     0.093 A 
ATOM      8  C   UNL     1      13.739  -9.484 -27.989  1.00  0.00     0.123 A 
ATOM      9  C   UNL     1      14.894  -9.302 -28.747  1.00  0.00     0.094 A 
ATOM     10  C   UNL     1      15.110  -8.104 -29.431  1.00  0.00     0.146 A 
ATOM     11  O   UNL     1      16.229  -7.967 -30.131  1.00  0.00    -0.451 OA
ENDROOT
BRANCH   1  12
ATOM     12  C   UNL     1      17.813  -6.840 -31.564  1.00  0.00     0.063 A 
ATOM     13  C   UNL     1      20.229  -6.544 -31.639  1.00  0.00     0.047 A 
ATOM     14  C   UNL     1      19.035  -6.593 -30.914  1.00  0.00     0.020 A 
ATOM     15  C   UNL     1      20.215  -6.730 -33.027  1.00  0.00     0.119 A 
ATOM     16  C   UNL     1      19.004  -6.962 -33.684  1.00  0.00     0.093 A 
ATOM     17  C   UNL     1      17.802  -7.015 -32.963  1.00  0.00     0.130 A 
BRANCH  15  18
ATOM     18  O   UNL     1      21.398  -6.683 -33.760  1.00  0.00    -0.508 OA
ATOM     19  H   UNL     1      21.936  -5.828 -33.844  1.00  0.00     0.293 HD
ENDBRANCH  15  18
BRANCH  17  20
ATOM     20  O   UNL     1      16.601  -7.254 -33.632  1.00  0.00    -0.507 OA
ATOM     21  H   UNL     1      15.738  -6.806 -33.351  1.00  0.00     0.293 HD
ENDBRANCH  17  20
ENDBRANCH   1  12
BRANCH   2  22
ATOM     22  O   UNL     1      16.055  -4.555 -31.377  1.00  0.00    -0.502 OA
ATOM     23  H   UNL     1      15.499  -3.712 -31.307  1.00  0.00     0.293 HD
ENDBRANCH   2  22
BRANCH   6  24
ATOM     24  O   UNL     1      11.885  -6.369 -28.600  1.00  0.00    -0.507 OA
ATOM     25  H   UNL     1      10.970  -6.573 -28.227  1.00  0.00     0.293 HD
ENDBRANCH   6  24
BRANCH   8  26
ATOM     26  O   UNL     1      13.552 -10.679 -27.297  1.00  0.00    -0.508 OA
ATOM     27  H   UNL     1      12.823 -11.332 -27.555  1.00  0.00     0.293 HD
ENDBRANCH   8  26
TORSDOF 6
ENDMDL
MODEL 3
REMARK VINA RESULT:    -5.791      1.626      6.631
REMARK INTER + INTRA:          -7.254
REMARK INTER:                  -6.904
REMARK INTRA:                  -0.351
REMARK UNBOUND:                -0.278
REMARK SMILES O=c1c(O)c(-c2ccc(O)cc2O)oc2cc(O)cc(O)c12
REMARK SMILES IDX 5 1 3 2 2 3 1 4 22 5 20 6 19 7 17 8 16 9 15 10 14 11 6 12
REMARK SMILES IDX 8 13 7 14 9 15 11 16 12 17 10 18 13 20 4 22 21 24 18 26
REMARK H PARENT 10 19 13 21 4 23 21 25 18 27
REMARK Flexibility Score: inf
ROOT
ATOM      1  C   UNL     1      14.812  -7.540 -31.181  1.00  0.00     0.184 A 
ATOM      2  C   UNL     1      13.743  -6.768 -30.695  1.00  0.00     0.208 A 
ATOM      3  C   UNL     1      13.148  -7.123 -29.474  1.00  0.00     0.238 A 
ATOM      4  O   UNL     1      12.229  -6.394 -29.015  1.00  0.00    -0.285 OA
ATOM      5  C   UNL     1      13.615  -8.256 -28.764  1.00  0.00     0.111 A 
ATOM      6  C   UNL     1      13.061  -8.730 -27.538  1.00  0.00     0.134 A 
ATOM      7  C   UNL     1      13.686  -9.784 -26.859  1.00  0.00     0.093 A 
ATOM      8  C   UNL     1      14.806 -10.423 -27.396  1.00  0.00     0.123 A 
ATOM      9  C   UNL     1      15.319 -10.006 -28.622  1.00  0.00     0.094 A 
ATOM     10  C   UNL     1      14.740  -8.933 -29.305  1.00  0.00     0.146 A 
ATOM     11  O   UNL     1      15.268  -8.560 -30.464  1.00  0.00    -0.451 OA
ENDROOT
BRANCH   1  12
ATOM     12  C   UNL     1      15.470  -7.237 -32.474  1.00  0.00     0.063 A 
ATOM     13  C   UNL     1      15.342  -6.940 -34.887  1.00  0.00     0.047 A 
ATOM     14  C   UNL     1      14.719  -7.199 -33.663  1.00  0.00     0.020 A 
ATOM     15  C   UNL     1      16.725  -6.727 -34.941  1.00  0.00     0.119 A 
ATOM     16  C   UNL     1      17.481  -6.778 -33.766  1.00  0.00     0.093 A 
ATOM     17  C   UNL     1      16.863  -7.034 -32.533  1.00  0.00     0.130 A 
BRANCH  15  18
ATOM     18  O   UNL     1      17.356  -6.470 -36.156  1.00  0.00    -0.508 OA
ATOM     19  H   UNL     1      18.337  -6.680 -36.299  1.00  0.00     0.293 HD
ENDBRANCH  15  18
BRANCH  17  20
ATOM     20  O   UNL     1      17.630  -7.074 -31.369  1.00  0.00    -0.507 OA
ATOM     21  H   UNL     1      17.354  -7.631 -30.570  1.00  0.00     0.293 HD
ENDBRANCH  17  20
ENDBRANCH   1  12
BRANCH   2  22
ATOM     22  O   UNL     1      13.308  -5.646 -31.406  1.00  0.00    -0.502 OA
ATOM     23  H   UNL     1      13.871  -5.206 -32.122  1.00  0.00     0.293 HD
ENDBRANCH   2  22
BRANCH   6  24
ATOM     24  O   UNL     1      11.893  -8.223 -26.961  1.00  0.00    -0.507 OA
ATOM     25  H   UNL     1      11.827  -7.340 -26.478  1.00  0.00     0.293 HD
ENDBRANCH   6  24
BRANCH   8  26
ATOM     26  O   UNL     1      15.412 -11.482 -26.722  1.00  0.00    -0.508 OA
ATOM     27  H   UNL     1      14.904 -12.039 -26.046  1.00  0.00     0.293 HD
ENDBRANCH   8  26
TORSDOF 6
ENDMDL
MODEL 4
REMARK VINA RESULT:    -5.707      2.189      6.718
REMARK INTER + INTRA:          -7.152
REMARK INTER:                  -6.671
REMARK INTRA:                  -0.482
REMARK UNBOUND:                -0.278
REMARK SMILES O=c1c(O)c(-c2ccc(O)cc2O)oc2cc(O)cc(O)c12
REMARK SMILES IDX 5 1 3 2 2 3 1 4 22 5 20 6 19 7 17 8 16 9 15 10 14 11 6 12
REMARK SMILES IDX 8 13 7 14 9 15 11 16 12 17 10 18 13 20 4 22 21 24 18 26
REMARK H PARENT 10 19 13 21 4 23 21 25 18 27
REMARK Flexibility Score: inf
ROOT
ATOM      1  C   UNL     1      15.765  -6.578 -30.772  1.00  0.00     0.184 A 
ATOM      2  C   UNL     1      15.182  -7.537 -29.926  1.00  0.00     0.208 A 
ATOM      3  C   UNL     1      13.893  -7.307 -29.423  1.00  0.00     0.238 A 
ATOM      4  O   UNL     1      13.353  -8.195 -28.712  1.00  0.00    -0.285 OA
ATOM      5  C   UNL     1      13.210  -6.111 -29.753  1.00  0.00     0.111 A 
ATOM      6  C   UNL     1      11.916  -5.755 -29.267  1.00  0.00     0.134 A 
ATOM      7  C   UNL     1      11.284  -4.608 -29.761  1.00  0.00     0.093 A 
ATOM      8  C   UNL     1      11.926  -3.768 -30.676  1.00  0.00     0.123 A 
ATOM      9  C   UNL     1      13.213  -4.076 -31.111  1.00  0.00     0.094 A 
ATOM     10  C   UNL     1      13.855  -5.233 -30.664  1.00  0.00     0.146 A 
ATOM     11  O   UNL     1      15.076  -5.495 -31.113  1.00  0.00    -0.451 OA
ENDROOT
BRANCH   1  12
ATOM     12  C   UNL     1      17.131  -6.746 -31.320  1.00  0.00     0.063 A 
ATOM     13  C   UNL     1      19.547  -6.662 -31.027  1.00  0.00     0.047 A 
ATOM     14  C   UNL     1      18.257  -6.531 -30.505  1.00  0.00     0.020 A 
ATOM     15  C   UNL     1      19.729  -7.000 -32.374  1.00  0.00     0.119 A 
ATOM     16  C   UNL     1      18.616  -7.201 -33.195  1.00  0.00     0.093 A 
ATOM     17  C   UNL     1      17.318  -7.074 -32.679  1.00  0.00     0.130 A 
BRANCH  15  18
ATOM     18  O   UNL     1      21.010  -7.132 -32.905  1.00  0.00    -0.508 OA
ATOM     19  H   UNL     1      21.835  -7.049 -32.324  1.00  0.00     0.293 HD
ENDBRANCH  15  18
BRANCH  17  20
ATOM     20  O   UNL     1      16.218  -7.285 -33.509  1.00  0.00    -0.507 OA
ATOM     21  H   UNL     1      16.153  -8.098 -34.109  1.00  0.00     0.293 HD
ENDBRANCH  17  20
ENDBRANCH   1  12
BRANCH   2  22
ATOM     22  O   UNL     1      15.870  -8.716 -29.625  1.00  0.00    -0.502 OA
ATOM     23  H   UNL     1      15.467  -9.449 -29.054  1.00  0.00     0.293 HD
ENDBRANCH   2  22
BRANCH   6  24
ATOM     24  O   UNL     1      11.226  -6.473 -28.286  1.00  0.00    -0.507 OA
ATOM     25  H   UNL     1      10.427  -7.063 -28.462  1.00  0.00     0.293 HD
ENDBRANCH   6  24
BRANCH   8  26
ATOM     26  O   UNL     1      11.296  -2.620 -31.151  1.00  0.00    -0.508 OA
ATOM     27  H   UNL     1      10.303  -2.604 -31.348  1.00  0.00     0.293 HD
ENDBRANCH   8  26
TORSDOF 6
ENDMDL
MODEL 5
REMARK VINA RESULT:    -5.626      2.530      6.955
REMARK INTER + INTRA:          -7.055
REMARK INTER:                  -6.681
REMARK INTRA:                  -0.374
REMARK UNBOUND:                -0.278
REMARK SMILES O=c1c(O)c(-c2ccc(O)cc2O)oc2cc(O)cc(O)c12
REMARK SMILES IDX 5 1 3 2 2 3 1 4 22 5 20 6 19 7 17 8 16 9 15 10 14 11 6 12
REMARK SMILES IDX 8 13 7 14 9 15 11 16 12 17 10 18 13 20 4 22 21 24 18 26
REMARK H PARENT 10 19 13 21 4 23 21 25 18 27
REMARK Flexibility Score: inf
ROOT
ATOM      1  C   UNL     1      16.988  -5.533 -30.971  1.00  0.00     0.184 A 
ATOM      2  C   UNL     1      16.926  -4.630 -29.895  1.00  0.00     0.208 A 
ATOM      3  C   UNL     1      15.699  -4.432 -29.243  1.00  0.00     0.238 A 
ATOM      4  O   UNL     1      15.663  -3.666 -28.244  1.00  0.00    -0.285 OA
ATOM      5  C   UNL     1      14.545  -5.121 -29.687  1.00  0.00     0.111 A 
ATOM      6  C   UNL     1      13.242  -4.966 -29.126  1.00  0.00     0.134 A 
ATOM      7  C   UNL     1      12.199  -5.794 -29.561  1.00  0.00     0.093 A 
ATOM      8  C   UNL     1      12.398  -6.726 -30.583  1.00  0.00     0.123 A 
ATOM      9  C   UNL     1      13.653  -6.844 -31.178  1.00  0.00     0.094 A 
ATOM     10  C   UNL     1      14.721  -6.057 -30.740  1.00  0.00     0.146 A 
ATOM     11  O   UNL     1      15.902  -6.210 -31.326  1.00  0.00    -0.451 OA
ENDROOT
BRANCH   1  12
ATOM     12  C   UNL     1      18.244  -5.772 -31.718  1.00  0.00     0.063 A 
ATOM     13  C   UNL     1      20.273  -7.072 -32.074  1.00  0.00     0.047 A 
ATOM     14  C   UNL     1      19.074  -6.860 -31.388  1.00  0.00     0.020 A 
ATOM     15  C   UNL     1      20.665  -6.194 -33.091  1.00  0.00     0.119 A 
ATOM     16  C   UNL     1      19.855  -5.102 -33.416  1.00  0.00     0.093 A 
ATOM     17  C   UNL     1      18.649  -4.884 -32.735  1.00  0.00     0.130 A 
BRANCH  15  18
ATOM     18  O   UNL     1      21.859  -6.395 -33.780  1.00  0.00    -0.508 OA
ATOM     19  H   UNL     1      22.234  -7.324 -33.929  1.00  0.00     0.293 HD
ENDBRANCH  15  18
BRANCH  17  20
ATOM     20  O   UNL     1      17.847  -3.794 -33.076  1.00  0.00    -0.507 OA
ATOM     21  H   UNL     1      17.108  -3.467 -32.467  1.00  0.00     0.293 HD
ENDBRANCH  17  20
ENDBRANCH   1  12
BRANCH   2  22
ATOM     22  O   UNL     1      18.082  -3.972 -29.465  1.00  0.00    -0.502 OA
ATOM     23  H   UNL     1      18.251  -3.752 -28.491  1.00  0.00     0.293 HD
ENDBRANCH   2  22
BRANCH   6  24
ATOM     24  O   UNL     1      12.914  -4.004 -28.167  1.00  0.00    -0.507 OA
ATOM     25  H   UNL     1      13.568  -3.594 -27.517  1.00  0.00     0.293 HD
ENDBRANCH   6  24
BRANCH   8  26
ATOM     26  O   UNL     1      11.352  -7.534 -31.021  1.00  0.00    -0.508 OA
ATOM     27  H   UNL     1      10.988  -7.465 -31.964  1.00  0.00     0.293 HD
ENDBRANCH   8  26
TORSDOF 6
ENDMDL
MODEL 6
REMARK VINA RESULT:    -5.588      3.116      6.823
REMARK INTER + INTRA:          -7.010
REMARK INTER:                  -6.528
REMARK INTRA:                  -0.482
REMARK UNBOUND:                -0.278
REMARK SMILES O=c1c(O)c(-c2ccc(O)cc2O)oc2cc(O)cc(O)c12
REMARK SMILES IDX 5 1 3 2 2 3 1 4 22 5 20 6 19 7 17 8 16 9 15 10 14 11 6 12
REMARK SMILES IDX 8 13 7 14 9 15 11 16 12 17 10 18 13 20 4 22 21 24 18 26
REMARK H PARENT 10 19 13 21 4 23 21 25 18 27
REMARK Flexibility Score: inf
ROOT
ATOM      1  C   UNL     1      16.729  -5.115 -30.556  1.00  0.00     0.184 A 
ATOM      2  C   UNL     1      15.437  -5.422 -31.014  1.00  0.00     0.208 A 
ATOM      3  C   UNL     1      14.330  -4.984 -30.272  1.00  0.00     0.238 A 
ATOM      4  O   UNL     1      13.174  -5.212 -30.717  1.00  0.00    -0.285 OA
ATOM      5  C   UNL     1      14.527  -4.263 -29.069  1.00  0.00     0.111 A 
ATOM      6  C   UNL     1      13.479  -3.805 -28.216  1.00  0.00     0.134 A 
ATOM      7  C   UNL     1      13.787  -2.991 -27.119  1.00  0.00     0.093 A 
ATOM      8  C   UNL     1      15.111  -2.673 -26.807  1.00  0.00     0.123 A 
ATOM      9  C   UNL     1      16.146  -3.164 -27.600  1.00  0.00     0.094 A 
ATOM     10  C   UNL     1      15.868  -3.948 -28.722  1.00  0.00     0.146 A 
ATOM     11  O   UNL     1      16.882  -4.385 -29.457  1.00  0.00    -0.451 OA
ENDROOT
BRANCH   1  12
ATOM     12  C   UNL     1      17.942  -5.566 -31.278  1.00  0.00     0.063 A 
ATOM     13  C   UNL     1      19.528  -7.324 -31.844  1.00  0.00     0.047 A 
ATOM     14  C   UNL     1      18.369  -6.903 -31.187  1.00  0.00     0.020 A 
ATOM     15  C   UNL     1      20.282  -6.412 -32.593  1.00  0.00     0.119 A 
ATOM     16  C   UNL     1      19.874  -5.079 -32.678  1.00  0.00     0.093 A 
ATOM     17  C   UNL     1      18.710  -4.648 -32.023  1.00  0.00     0.130 A 
BRANCH  15  18
ATOM     18  O   UNL     1      21.439  -6.821 -33.252  1.00  0.00    -0.508 OA
ATOM     19  H   UNL     1      21.399  -7.372 -34.101  1.00  0.00     0.293 HD
ENDBRANCH  15  18
BRANCH  17  20
ATOM     20  O   UNL     1      18.311  -3.315 -32.122  1.00  0.00    -0.507 OA
ATOM     21  H   UNL     1      17.494  -3.043 -32.654  1.00  0.00     0.293 HD
ENDBRANCH  17  20
ENDBRANCH   1  12
BRANCH   2  22
ATOM     22  O   UNL     1      15.266  -6.123 -32.212  1.00  0.00    -0.502 OA
ATOM     23  H   UNL     1      14.616  -6.894 -32.301  1.00  0.00     0.293 HD
ENDBRANCH   2  22
BRANCH   6  24
ATOM     24  O   UNL     1      12.133  -4.141 -28.384  1.00  0.00    -0.507 OA
ATOM     25  H   UNL     1      11.667  -4.217 -29.275  1.00  0.00     0.293 HD
ENDBRANCH   6  24
BRANCH   8  26
ATOM     26  O   UNL     1      15.410  -1.875 -25.704  1.00  0.00    -0.508 OA
ATOM     27  H   UNL     1      16.160  -1.195 -25.730  1.00  0.00     0.293 HD
ENDBRANCH   8  26
TORSDOF 6
ENDMDL
MODEL 7
REMARK VINA RESULT:    -5.436      2.081      6.608
REMARK INTER + INTRA:          -6.827
REMARK INTER:                  -6.428
REMARK INTRA:                  -0.399
REMARK UNBOUND:                -0.278
REMARK SMILES O=c1c(O)c(-c2ccc(O)cc2O)oc2cc(O)cc(O)c12
REMARK SMILES IDX 5 1 3 2 2 3 1 4 22 5 20 6 19 7 17 8 16 9 15 10 14 11 6 12
REMARK SMILES IDX 8 13 7 14 9 15 11 16 12 17 10 18 13 20 4 22 21 24 18 26
REMARK H PARENT 10 19 13 21 4 23 21 25 18 27
REMARK Flexibility Score: inf
ROOT
ATOM      1  C   UNL     1      16.456  -6.832 -32.075  1.00  0.00     0.184 A 
ATOM      2  C   UNL     1      15.980  -6.250 -30.887  1.00  0.00     0.208 A 
ATOM      3  C   UNL     1      14.621  -6.382 -30.563  1.00  0.00     0.238 A 
ATOM      4  O   UNL     1      14.212  -5.908 -29.470  1.00  0.00    -0.285 OA
ATOM      5  C   UNL     1      13.751  -7.074 -31.439  1.00  0.00     0.111 A 
ATOM      6  C   UNL     1      12.348  -7.234 -31.230  1.00  0.00     0.134 A 
ATOM      7  C   UNL     1      11.608  -8.048 -32.097  1.00  0.00     0.093 A 
ATOM      8  C   UNL     1      12.209  -8.655 -33.203  1.00  0.00     0.123 A 
ATOM      9  C   UNL     1      13.566  -8.457 -33.449  1.00  0.00     0.094 A 
ATOM     10  C   UNL     1      14.337  -7.680 -32.581  1.00  0.00     0.146 A 
ATOM     11  O   UNL     1      15.629  -7.527 -32.846  1.00  0.00    -0.451 OA
ENDROOT
BRANCH   1  12
ATOM     12  C   UNL     1      17.873  -6.712 -32.490  1.00  0.00     0.063 A 
ATOM     13  C   UNL     1      20.229  -7.212 -32.125  1.00  0.00     0.047 A 
ATOM     14  C   UNL     1      18.889  -7.347 -31.751  1.00  0.00     0.020 A 
ATOM     15  C   UNL     1      20.573  -6.432 -33.235  1.00  0.00     0.119 A 
ATOM     16  C   UNL     1      19.573  -5.785 -33.966  1.00  0.00     0.093 A 
ATOM     17  C   UNL     1      18.225  -5.917 -33.599  1.00  0.00     0.130 A 
BRANCH  15  18
ATOM     18  O   UNL     1      21.905  -6.290 -33.616  1.00  0.00    -0.508 OA
ATOM     19  H   UNL     1      22.464  -5.504 -33.306  1.00  0.00     0.293 HD
ENDBRANCH  15  18
BRANCH  17  20
ATOM     20  O   UNL     1      17.238  -5.271 -34.343  1.00  0.00    -0.507 OA
ATOM     21  H   UNL     1      17.045  -4.284 -34.226  1.00  0.00     0.293 HD
ENDBRANCH  17  20
ENDBRANCH   1  12
BRANCH   2  22
ATOM     22  O   UNL     1      16.861  -5.583 -30.031  1.00  0.00    -0.502 OA
ATOM     23  H   UNL     1      16.855  -4.577 -29.923  1.00  0.00     0.293 HD
ENDBRANCH   2  22
BRANCH   6  24
ATOM     24  O   UNL     1      11.633  -6.599 -30.210  1.00  0.00    -0.507 OA
ATOM     25  H   UNL     1      11.225  -7.068 -29.416  1.00  0.00     0.293 HD
ENDBRANCH   6  24
BRANCH   8  26
ATOM     26  O   UNL     1      11.462  -9.450 -34.070  1.00  0.00    -0.508 OA
ATOM     27  H   UNL     1      11.446 -10.459 -33.982  1.00  0.00     0.293 HD
ENDBRANCH   8  26
TORSDOF 6
ENDMDL
MODEL 8
REMARK VINA RESULT:    -5.365      2.359      3.628
REMARK INTER + INTRA:          -6.741
REMARK INTER:                  -6.460
REMARK INTRA:                  -0.281
REMARK UNBOUND:                -0.278
REMARK SMILES O=c1c(O)c(-c2ccc(O)cc2O)oc2cc(O)cc(O)c12
REMARK SMILES IDX 5 1 3 2 2 3 1 4 22 5 20 6 19 7 17 8 16 9 15 10 14 11 6 12
REMARK SMILES IDX 8 13 7 14 9 15 11 16 12 17 10 18 13 20 4 22 21 24 18 26
REMARK H PARENT 10 19 13 21 4 23 21 25 18 27
REMARK Flexibility Score: inf
ROOT
ATOM      1  C   UNL     1      15.273  -7.212 -31.824  1.00  0.00     0.184 A 
ATOM      2  C   UNL     1      15.087  -6.118 -30.961  1.00  0.00     0.208 A 
ATOM      3  C   UNL     1      16.203  -5.359 -30.576  1.00  0.00     0.238 A 
ATOM      4  O   UNL     1      16.023  -4.346 -29.849  1.00  0.00    -0.285 OA
ATOM      5  C   UNL     1      17.493  -5.714 -31.038  1.00  0.00     0.111 A 
ATOM      6  C   UNL     1      18.698  -5.040 -30.679  1.00  0.00     0.134 A 
ATOM      7  C   UNL     1      19.902  -5.399 -31.299  1.00  0.00     0.093 A 
ATOM      8  C   UNL     1      19.954  -6.451 -32.216  1.00  0.00     0.123 A 
ATOM      9  C   UNL     1      18.793  -7.154 -32.530  1.00  0.00     0.094 A 
ATOM     10  C   UNL     1      17.571  -6.796 -31.955  1.00  0.00     0.146 A 
ATOM     11  O   UNL     1      16.486  -7.484 -32.290  1.00  0.00    -0.451 OA
ENDROOT
BRANCH   1  12
ATOM     12  C   UNL     1      14.144  -8.070 -32.253  1.00  0.00     0.063 A 
ATOM     13  C   UNL     1      12.596  -8.813 -33.979  1.00  0.00     0.047 A 
ATOM     14  C   UNL     1      13.678  -8.025 -33.579  1.00  0.00     0.020 A 
ATOM     15  C   UNL     1      11.956  -9.649 -33.055  1.00  0.00     0.119 A 
ATOM     16  C   UNL     1      12.402  -9.689 -31.731  1.00  0.00     0.093 A 
ATOM     17  C   UNL     1      13.490  -8.903 -31.323  1.00  0.00     0.130 A 
BRANCH  15  18
ATOM     18  O   UNL     1      10.876 -10.437 -33.442  1.00  0.00    -0.508 OA
ATOM     19  H   UNL     1      10.198 -10.776 -32.769  1.00  0.00     0.293 HD
ENDBRANCH  15  18
BRANCH  17  20
ATOM     20  O   UNL     1      13.928  -8.960 -30.000  1.00  0.00    -0.507 OA
ATOM     21  H   UNL     1      13.290  -8.838 -29.223  1.00  0.00     0.293 HD
ENDBRANCH  17  20
ENDBRANCH   1  12
BRANCH   2  22
ATOM     22  O   UNL     1      13.803  -5.778 -30.528  1.00  0.00    -0.502 OA
ATOM     23  H   UNL     1      13.639  -5.235 -29.689  1.00  0.00     0.293 HD
ENDBRANCH   2  22
BRANCH   6  24
ATOM     24  O   UNL     1      18.772  -4.038 -29.708  1.00  0.00    -0.507 OA
ATOM     25  H   UNL     1      18.342  -4.088 -28.796  1.00  0.00     0.293 HD
ENDBRANCH   6  24
BRANCH   8  26
ATOM     26  O   UNL     1      21.158  -6.812 -32.816  1.00  0.00    -0.508 OA
ATOM     27  H   UNL     1      21.819  -6.116 -33.139  1.00  0.00     0.293 HD
ENDBRANCH   8  26
TORSDOF 6
ENDMDL
MODEL 9
REMARK VINA RESULT:    -5.282      2.264      6.543
REMARK INTER + INTRA:          -6.641
REMARK INTER:                  -6.230
REMARK INTRA:                  -0.411
REMARK UNBOUND:                -0.278
REMARK SMILES O=c1c(O)c(-c2ccc(O)cc2O)oc2cc(O)cc(O)c12
REMARK SMILES IDX 5 1 3 2 2 3 1 4 22 5 20 6 19 7 17 8 16 9 15 10 14 11 6 12
REMARK SMILES IDX 8 13 7 14 9 15 11 16 12 17 10 18 13 20 4 22 21 24 18 26
REMARK H PARENT 10 19 13 21 4 23 21 25 18 27
REMARK Flexibility Score: inf
ROOT
ATOM      1  C   UNL     1      16.417  -6.066 -31.677  1.00  0.00     0.184 A 
ATOM      2  C   UNL     1      15.380  -6.751 -32.332  1.00  0.00     0.208 A 
ATOM      3  C   UNL     1      14.077  -6.666 -31.818  1.00  0.00     0.238 A 
ATOM      4  O   UNL     1      13.142  -7.234 -32.442  1.00  0.00    -0.285 OA
ATOM      5  C   UNL     1      13.830  -5.916 -30.643  1.00  0.00     0.111 A 
ATOM      6  C   UNL     1      12.557  -5.794 -30.011  1.00  0.00     0.134 A 
ATOM      7  C   UNL     1      12.404  -4.922 -28.926  1.00  0.00     0.093 A 
ATOM      8  C   UNL     1      13.495  -4.217 -28.409  1.00  0.00     0.123 A 
ATOM      9  C   UNL     1      14.754  -4.374 -28.982  1.00  0.00     0.094 A 
ATOM     10  C   UNL     1      14.930  -5.209 -30.089  1.00  0.00     0.146 A 
ATOM     11  O   UNL     1      16.145  -5.321 -30.612  1.00  0.00    -0.451 OA
ENDROOT
BRANCH   1  12
ATOM     12  C   UNL     1      17.819  -6.132 -32.152  1.00  0.00     0.063 A 
ATOM     13  C   UNL     1      19.509  -5.588 -33.818  1.00  0.00     0.047 A 
ATOM     14  C   UNL     1      18.194  -5.505 -33.354  1.00  0.00     0.020 A 
ATOM     15  C   UNL     1      20.466  -6.309 -33.093  1.00  0.00     0.119 A 
ATOM     16  C   UNL     1      20.099  -6.947 -31.905  1.00  0.00     0.093 A 
ATOM     17  C   UNL     1      18.782  -6.866 -31.430  1.00  0.00     0.130 A 
BRANCH  15  18
ATOM     18  O   UNL     1      21.780  -6.400 -33.546  1.00  0.00    -0.508 OA
ATOM     19  H   UNL     1      22.033  -6.138 -34.492  1.00  0.00     0.293 HD
ENDBRANCH  15  18
BRANCH  17  20
ATOM     20  O   UNL     1      18.433  -7.503 -30.239  1.00  0.00    -0.507 OA
ATOM     21  H   UNL     1      17.669  -8.165 -30.195  1.00  0.00     0.293 HD
ENDBRANCH  17  20
ENDBRANCH   1  12
BRANCH   2  22
ATOM     22  O   UNL     1      15.645  -7.474 -33.499  1.00  0.00    -0.502 OA
ATOM     23  H   UNL     1      14.949  -7.613 -34.221  1.00  0.00     0.293 HD
ENDBRANCH   2  22
BRANCH   6  24
ATOM     24  O   UNL     1      11.425  -6.521 -30.389  1.00  0.00    -0.507 OA
ATOM     25  H   UNL     1      10.473  -6.220 -30.244  1.00  0.00     0.293 HD
ENDBRANCH   6  24
BRANCH   8  26
ATOM     26  O   UNL     1      13.338  -3.363 -27.319  1.00  0.00    -0.508 OA
ATOM     27  H   UNL     1      12.950  -2.434 -27.426  1.00  0.00     0.293 HD
ENDBRANCH   8  26
TORSDOF 6
ENDMDL
