MODEL 1
REMARK VINA RESULT:    -3.205      0.000      0.000
REMARK INTER + INTRA:          -3.814
REMARK INTER:                  -3.767
REMARK INTRA:                  -0.047
REMARK UNBOUND:                -0.047
REMARK SMILES O=C([O-])CCC(=O)[O-]
REMARK SMILES IDX 4 1 2 2 1 3 3 4 5 5 6 6 7 7 8 8
REMARK H PARENT
REMARK Flexibility Score: inf
ROOT
ATOM      1  C   UNL     1      25.024   0.747  18.292  1.00  0.00     0.059 C 
ENDROOT
BRANCH   1   2
ATOM      2  C   UNL     1      25.019  -0.533  17.518  1.00  0.00     0.042 C 
ATOM      3  O   UNL     1      24.766  -0.527  16.285  1.00  0.00    -0.550 OA
ATOM      4  O   UNL     1      25.244  -1.740  18.168  1.00  0.00    -0.550 OA
ENDBRANCH   1   2
BRANCH   1   5
ATOM      5  C   UNL     1      25.472   1.909  17.403  1.00  0.00     0.059 C 
BRANCH   5   6
ATOM      6  C   UNL     1      24.810   3.181  17.831  1.00  0.00     0.042 C 
ATOM      7  O   UNL     1      24.490   3.354  19.037  1.00  0.00    -0.550 OA
ATOM      8  O   UNL     1      24.501   4.155  16.891  1.00  0.00    -0.550 OA
ENDBRANCH   5   6
ENDBRANCH   1   5
TORSDOF 3
ENDMDL
MODEL 2
REMARK VINA RESULT:    -3.186      0.087      4.346
REMARK INTER + INTRA:          -3.792
REMARK INTER:                  -3.742
REMARK INTRA:                  -0.050
REMARK UNBOUND:                -0.047
REMARK SMILES O=C([O-])CCC(=O)[O-]
REMARK SMILES IDX 4 1 2 2 1 3 3 4 5 5 6 6 7 7 8 8
REMARK H PARENT
REMARK Flexibility Score: inf
ROOT
ATOM      1  C   UNL     1      25.468   1.969  17.411  1.00  0.00     0.059 C 
ENDROOT
BRANCH   1   2
ATOM      2  C   UNL     1      24.787   3.230  17.838  1.00  0.00     0.042 C 
ATOM      3  O   UNL     1      24.455   3.394  19.041  1.00  0.00    -0.550 OA
ATOM      4  O   UNL     1      24.473   4.204  16.899  1.00  0.00    -0.550 OA
ENDBRANCH   1   2
BRANCH   1   5
ATOM      5  C   UNL     1      25.025   0.796  18.287  1.00  0.00     0.059 C 
BRANCH   5   6
ATOM      6  C   UNL     1      24.961  -0.464  17.482  1.00  0.00     0.042 C 
ATOM      7  O   UNL     1      24.701  -0.416  16.251  1.00  0.00    -0.550 OA
ATOM      8  O   UNL     1      25.138  -1.694  18.102  1.00  0.00    -0.550 OA
ENDBRANCH   5   6
ENDBRANCH   1   5
TORSDOF 3
ENDMDL
MODEL 3
REMARK VINA RESULT:    -3.083      1.590      2.410
REMARK INTER + INTRA:          -3.670
REMARK INTER:                  -3.498
REMARK INTRA:                  -0.173
REMARK UNBOUND:                -0.047
REMARK SMILES O=C([O-])CCC(=O)[O-]
REMARK SMILES IDX 4 1 2 2 1 3 3 4 5 5 6 6 7 7 8 8
REMARK H PARENT
REMARK Flexibility Score: inf
ROOT
ATOM      1  C   UNL     1      25.281   2.400  17.381  1.00  0.00     0.059 C 
ENDROOT
BRANCH   1   2
ATOM      2  C   UNL     1      25.110   0.919  17.499  1.00  0.00     0.042 C 
ATOM      3  O   UNL     1      25.539   0.311  18.514  1.00  0.00    -0.550 OA
ATOM      4  O   UNL     1      24.522   0.202  16.464  1.00  0.00    -0.550 OA
ENDBRANCH   1   2
BRANCH   1   5
ATOM      5  C   UNL     1      24.633   3.111  18.570  1.00  0.00     0.059 C 
BRANCH   5   6
ATOM      6  C   UNL     1      23.143   2.986  18.506  1.00  0.00     0.042 C 
ATOM      7  O   UNL     1      22.493   3.601  17.619  1.00  0.00    -0.550 OA
ATOM      8  O   UNL     1      22.467   2.232  19.456  1.00  0.00    -0.550 OA
ENDBRANCH   5   6
ENDBRANCH   1   5
TORSDOF 3
ENDMDL
MODEL 4
REMARK VINA RESULT:    -3.012      8.677      9.903
REMARK INTER + INTRA:          -3.587
REMARK INTER:                  -3.459
REMARK INTRA:                  -0.128
REMARK UNBOUND:                -0.047
REMARK SMILES O=C([O-])CCC(=O)[O-]
REMARK SMILES IDX 4 1 2 2 1 3 3 4 5 5 6 6 7 7 8 8
REMARK H PARENT
REMARK Flexibility Score: inf
ROOT
ATOM      1  C   UNL     1      27.153   4.113   8.496  1.00  0.00     0.059 C 
ENDROOT
BRANCH   1   2
ATOM      2  C   UNL     1      26.861   5.439   9.121  1.00  0.00     0.042 C 
ATOM      3  O   UNL     1      27.088   6.502   8.487  1.00  0.00    -0.550 OA
ATOM      4  O   UNL     1      26.386   5.504  10.425  1.00  0.00    -0.550 OA
ENDBRANCH   1   2
BRANCH   1   5
ATOM      5  C   UNL     1      28.629   3.751   8.668  1.00  0.00     0.059 C 
BRANCH   5   6
ATOM      6  C   UNL     1      28.808   2.816   9.823  1.00  0.00     0.042 C 
ATOM      7  O   UNL     1      28.795   1.570   9.637  1.00  0.00    -0.550 OA
ATOM      8  O   UNL     1      28.939   3.319  11.111  1.00  0.00    -0.550 OA
ENDBRANCH   5   6
ENDBRANCH   1   5
TORSDOF 3
ENDMDL
MODEL 5
REMARK VINA RESULT:    -3.011      9.563     10.009
REMARK INTER + INTRA:          -3.587
REMARK INTER:                  -3.465
REMARK INTRA:                  -0.122
REMARK UNBOUND:                -0.047
REMARK SMILES O=C([O-])CCC(=O)[O-]
REMARK SMILES IDX 4 1 2 2 1 3 3 4 5 5 6 6 7 7 8 8
REMARK H PARENT
REMARK Flexibility Score: inf
ROOT
ATOM      1  C   UNL     1      27.706   1.259   7.953  1.00  0.00     0.059 C 
ENDROOT
BRANCH   1   2
ATOM      2  C   UNL     1      28.690   0.185   8.291  1.00  0.00     0.042 C 
ATOM      3  O   UNL     1      29.114  -0.591   7.395  1.00  0.00    -0.550 OA
ATOM      4  O   UNL     1      29.102   0.006   9.606  1.00  0.00    -0.550 OA
ENDBRANCH   1   2
BRANCH   1   5
ATOM      5  C   UNL     1      28.432   2.540   7.541  1.00  0.00     0.059 C 
BRANCH   5   6
ATOM      6  C   UNL     1      28.349   3.563   8.630  1.00  0.00     0.042 C 
ATOM      7  O   UNL     1      27.609   4.574   8.494  1.00  0.00    -0.550 OA
ATOM      8  O   UNL     1      29.125   3.427   9.773  1.00  0.00    -0.550 OA
ENDBRANCH   5   6
ENDBRANCH   1   5
TORSDOF 3
ENDMDL
MODEL 6
REMARK VINA RESULT:    -3.005      9.411     10.401
REMARK INTER + INTRA:          -3.579
REMARK INTER:                  -3.528
REMARK INTRA:                  -0.051
REMARK UNBOUND:                -0.047
REMARK SMILES O=C([O-])CCC(=O)[O-]
REMARK SMILES IDX 4 1 2 2 1 3 3 4 5 5 6 6 7 7 8 8
REMARK H PARENT
REMARK Flexibility Score: inf
ROOT
ATOM      1  C   UNL     1      26.860   5.318   8.343  1.00  0.00     0.059 C 
ENDROOT
BRANCH   1   2
ATOM      2  C   UNL     1      27.711   4.354   9.106  1.00  0.00     0.042 C 
ATOM      3  O   UNL     1      28.634   3.726   8.525  1.00  0.00    -0.550 OA
ATOM      4  O   UNL     1      27.453   4.110  10.449  1.00  0.00    -0.550 OA
ENDBRANCH   1   2
BRANCH   1   5
ATOM      5  C   UNL     1      26.429   6.480   9.240  1.00  0.00     0.059 C 
BRANCH   5   6
ATOM      6  C   UNL     1      26.481   7.771   8.486  1.00  0.00     0.042 C 
ATOM      7  O   UNL     1      27.288   7.914   7.529  1.00  0.00    -0.550 OA
ATOM      8  O   UNL     1      25.675   8.835   8.872  1.00  0.00    -0.550 OA
ENDBRANCH   5   6
ENDBRANCH   1   5
TORSDOF 3
ENDMDL
MODEL 7
REMARK VINA RESULT:    -2.998      9.390     10.224
REMARK INTER + INTRA:          -3.571
REMARK INTER:                  -3.473
REMARK INTRA:                  -0.098
REMARK UNBOUND:                -0.047
REMARK SMILES O=C([O-])CCC(=O)[O-]
REMARK SMILES IDX 4 1 2 2 1 3 3 4 5 5 6 6 7 7 8 8
REMARK H PARENT
REMARK Flexibility Score: inf
ROOT
ATOM      1  C   UNL     1      27.652   3.232   7.758  1.00  0.00     0.059 C 
ENDROOT
BRANCH   1   2
ATOM      2  C   UNL     1      28.153   2.105   6.913  1.00  0.00     0.042 C 
ATOM      3  O   UNL     1      28.751   1.132   7.443  1.00  0.00    -0.550 OA
ATOM      4  O   UNL     1      28.006   2.152   5.532  1.00  0.00    -0.550 OA
ENDBRANCH   1   2
BRANCH   1   5
ATOM      5  C   UNL     1      28.749   3.720   8.706  1.00  0.00     0.059 C 
BRANCH   5   6
ATOM      6  C   UNL     1      28.439   3.324  10.115  1.00  0.00     0.042 C 
ATOM      7  O   UNL     1      27.587   3.970  10.782  1.00  0.00    -0.550 OA
ATOM      8  O   UNL     1      29.125   2.273  10.709  1.00  0.00    -0.550 OA
ENDBRANCH   5   6
ENDBRANCH   1   5
TORSDOF 3
ENDMDL
MODEL 8
REMARK VINA RESULT:    -2.994      9.693     11.023
REMARK INTER + INTRA:          -3.566
REMARK INTER:                  -3.456
REMARK INTRA:                  -0.110
REMARK UNBOUND:                -0.047
REMARK SMILES O=C([O-])CCC(=O)[O-]
REMARK SMILES IDX 4 1 2 2 1 3 3 4 5 5 6 6 7 7 8 8
REMARK H PARENT
REMARK Flexibility Score: inf
ROOT
ATOM      1  C   UNL     1      27.702   1.256   8.482  1.00  0.00     0.059 C 
ENDROOT
BRANCH   1   2
ATOM      2  C   UNL     1      28.360   2.417   7.808  1.00  0.00     0.042 C 
ATOM      3  O   UNL     1      28.606   2.377   6.574  1.00  0.00    -0.550 OA
ATOM      4  O   UNL     1      28.748   3.525   8.551  1.00  0.00    -0.550 OA
ENDBRANCH   1   2
BRANCH   1   5
ATOM      5  C   UNL     1      28.747   0.233   8.929  1.00  0.00     0.059 C 
BRANCH   5   6
ATOM      6  C   UNL     1      28.488  -1.095   8.289  1.00  0.00     0.042 C 
ATOM      7  O   UNL     1      28.314  -1.174   7.044  1.00  0.00    -0.550 OA
ATOM      8  O   UNL     1      28.390  -2.237   9.072  1.00  0.00    -0.550 OA
ENDBRANCH   5   6
ENDBRANCH   1   5
TORSDOF 3
ENDMDL
MODEL 9
REMARK VINA RESULT:    -2.978      9.362     10.090
REMARK INTER + INTRA:          -3.547
REMARK INTER:                  -3.507
REMARK INTRA:                  -0.040
REMARK UNBOUND:                -0.047
REMARK SMILES O=C([O-])CCC(=O)[O-]
REMARK SMILES IDX 4 1 2 2 1 3 3 4 5 5 6 6 7 7 8 8
REMARK H PARENT
REMARK Flexibility Score: inf
ROOT
ATOM      1  C   UNL     1      28.774   0.035   8.091  1.00  0.00     0.059 C 
ENDROOT
BRANCH   1   2
ATOM      2  C   UNL     1      28.414  -1.176   8.890  1.00  0.00     0.042 C 
ATOM      3  O   UNL     1      28.368  -1.116  10.147  1.00  0.00    -0.550 OA
ATOM      4  O   UNL     1      28.178  -2.387   8.250  1.00  0.00    -0.550 OA
ENDBRANCH   1   2
BRANCH   1   5
ATOM      5  C   UNL     1      28.381   1.309   8.841  1.00  0.00     0.059 C 
BRANCH   5   6
ATOM      6  C   UNL     1      28.495   2.502   7.945  1.00  0.00     0.042 C 
ATOM      7  O   UNL     1      28.611   2.349   6.700  1.00  0.00    -0.550 OA
ATOM      8  O   UNL     1      28.522   3.780   8.488  1.00  0.00    -0.550 OA
ENDBRANCH   5   6
ENDBRANCH   1   5
TORSDOF 3
ENDMDL
