MODEL 1
REMARK VINA RESULT:    -3.906      0.000      0.000
REMARK INTER + INTRA:          -4.626
REMARK INTER:                  -4.591
REMARK INTRA:                  -0.035
REMARK UNBOUND:                -0.035
REMARK SMILES O=C([O-])CCC(=O)[O-]
REMARK SMILES IDX 4 1 2 2 1 3 3 4 5 5 6 6 7 7 8 8
REMARK H PARENT
REMARK Flexibility Score: inf
ROOT
ATOM      1  C   UNL     1     101.622  53.018  47.855  1.00  0.00     0.059 C 
ENDROOT
BRANCH   1   2
ATOM      2  C   UNL     1     101.378  51.748  47.105  1.00  0.00     0.042 C 
ATOM      3  O   UNL     1     100.508  51.706  46.194  1.00  0.00    -0.550 OA
ATOM      4  O   UNL     1     102.075  50.595  47.442  1.00  0.00    -0.550 OA
ENDBRANCH   1   2
BRANCH   1   5
ATOM      5  C   UNL     1     100.817  53.034  49.156  1.00  0.00     0.059 C 
BRANCH   5   6
ATOM      6  C   UNL     1     101.282  54.143  50.046  1.00  0.00     0.042 C 
ATOM      7  O   UNL     1     102.155  54.955  49.642  1.00  0.00    -0.550 OA
ATOM      8  O   UNL     1     100.717  54.309  51.304  1.00  0.00    -0.550 OA
ENDBRANCH   5   6
ENDBRANCH   1   5
TORSDOF 3
ENDMDL
MODEL 2
REMARK VINA RESULT:    -3.905      1.990      2.819
REMARK INTER + INTRA:          -4.625
REMARK INTER:                  -4.582
REMARK INTRA:                  -0.042
REMARK UNBOUND:                -0.035
REMARK SMILES O=C([O-])CCC(=O)[O-]
REMARK SMILES IDX 4 1 2 2 1 3 3 4 5 5 6 6 7 7 8 8
REMARK H PARENT
REMARK Flexibility Score: inf
ROOT
ATOM      1  C   UNL     1     101.302  54.505  50.217  1.00  0.00     0.059 C 
ENDROOT
BRANCH   1   2
ATOM      2  C   UNL     1     101.340  53.850  48.874  1.00  0.00     0.042 C 
ATOM      3  O   UNL     1     101.744  54.491  47.867  1.00  0.00    -0.550 OA
ATOM      4  O   UNL     1     100.883  52.547  48.721  1.00  0.00    -0.550 OA
ENDBRANCH   1   2
BRANCH   1   5
ATOM      5  C   UNL     1     100.370  53.740  51.160  1.00  0.00     0.059 C 
BRANCH   5   6
ATOM      6  C   UNL     1     100.728  54.013  52.586  1.00  0.00     0.042 C 
ATOM      7  O   UNL     1     101.446  55.006  52.880  1.00  0.00    -0.550 OA
ATOM      8  O   UNL     1     100.230  53.201  53.596  1.00  0.00    -0.550 OA
ENDBRANCH   5   6
ENDBRANCH   1   5
TORSDOF 3
ENDMDL
MODEL 3
REMARK VINA RESULT:    -3.905      0.096      4.270
REMARK INTER + INTRA:          -4.624
REMARK INTER:                  -4.590
REMARK INTRA:                  -0.035
REMARK UNBOUND:                -0.035
REMARK SMILES O=C([O-])CCC(=O)[O-]
REMARK SMILES IDX 4 1 2 2 1 3 3 4 5 5 6 6 7 7 8 8
REMARK H PARENT
REMARK Flexibility Score: inf
ROOT
ATOM      1  C   UNL     1     100.837  52.999  49.110  1.00  0.00     0.059 C 
ENDROOT
BRANCH   1   2
ATOM      2  C   UNL     1     101.282  54.149  49.956  1.00  0.00     0.042 C 
ATOM      3  O   UNL     1     102.227  54.889  49.573  1.00  0.00    -0.550 OA
ATOM      4  O   UNL     1     100.686  54.377  51.190  1.00  0.00    -0.550 OA
ENDBRANCH   1   2
BRANCH   1   5
ATOM      5  C   UNL     1     101.623  52.963  47.798  1.00  0.00     0.059 C 
BRANCH   5   6
ATOM      6  C   UNL     1     101.357  51.689  47.063  1.00  0.00     0.042 C 
ATOM      7  O   UNL     1     100.488  51.651  46.152  1.00  0.00    -0.550 OA
ATOM      8  O   UNL     1     102.103  50.552  47.349  1.00  0.00    -0.550 OA
ENDBRANCH   5   6
ENDBRANCH   1   5
TORSDOF 3
ENDMDL
MODEL 4
REMARK VINA RESULT:    -3.904      2.005      4.746
REMARK INTER + INTRA:          -4.624
REMARK INTER:                  -4.581
REMARK INTRA:                  -0.043
REMARK UNBOUND:                -0.035
REMARK SMILES O=C([O-])CCC(=O)[O-]
REMARK SMILES IDX 4 1 2 2 1 3 3 4 5 5 6 6 7 7 8 8
REMARK H PARENT
REMARK Flexibility Score: inf
ROOT
ATOM      1  C   UNL     1     100.384  53.747  51.168  1.00  0.00     0.059 C 
ENDROOT
BRANCH   1   2
ATOM      2  C   UNL     1     100.720  54.055  52.592  1.00  0.00     0.042 C 
ATOM      3  O   UNL     1     101.444  55.048  52.872  1.00  0.00    -0.550 OA
ATOM      4  O   UNL     1     100.277  53.220  53.609  1.00  0.00    -0.550 OA
ENDBRANCH   1   2
BRANCH   1   5
ATOM      5  C   UNL     1     101.372  54.434  50.223  1.00  0.00     0.059 C 
BRANCH   5   6
ATOM      6  C   UNL     1     101.346  53.786  48.876  1.00  0.00     0.042 C 
ATOM      7  O   UNL     1     100.892  52.618  48.743  1.00  0.00    -0.550 OA
ATOM      8  O   UNL     1     101.779  54.487  47.757  1.00  0.00    -0.550 OA
ENDBRANCH   5   6
ENDBRANCH   1   5
TORSDOF 3
ENDMDL
MODEL 5
REMARK VINA RESULT:    -3.809      1.486      4.477
REMARK INTER + INTRA:          -4.512
REMARK INTER:                  -4.476
REMARK INTRA:                  -0.036
REMARK UNBOUND:                -0.035
REMARK SMILES O=C([O-])CCC(=O)[O-]
REMARK SMILES IDX 4 1 2 2 1 3 3 4 5 5 6 6 7 7 8 8
REMARK H PARENT
REMARK Flexibility Score: inf
ROOT
ATOM      1  C   UNL     1     101.199  54.433  50.490  1.00  0.00     0.059 C 
ENDROOT
BRANCH   1   2
ATOM      2  C   UNL     1     100.909  54.359  51.955  1.00  0.00     0.042 C 
ATOM      3  O   UNL     1     101.575  55.053  52.769  1.00  0.00    -0.550 OA
ATOM      4  O   UNL     1      99.937  53.488  52.429  1.00  0.00    -0.550 OA
ENDBRANCH   1   2
BRANCH   1   5
ATOM      5  C   UNL     1     100.581  53.238  49.761  1.00  0.00     0.059 C 
BRANCH   5   6
ATOM      6  C   UNL     1     101.215  53.058  48.419  1.00  0.00     0.042 C 
ATOM      7  O   UNL     1     101.662  54.054  47.790  1.00  0.00    -0.550 OA
ATOM      8  O   UNL     1     101.358  51.785  47.882  1.00  0.00    -0.550 OA
ENDBRANCH   5   6
ENDBRANCH   1   5
TORSDOF 3
ENDMDL
MODEL 6
REMARK VINA RESULT:    -3.768      3.764      5.130
REMARK INTER + INTRA:          -4.463
REMARK INTER:                  -4.400
REMARK INTRA:                  -0.063
REMARK UNBOUND:                -0.035
REMARK SMILES O=C([O-])CCC(=O)[O-]
REMARK SMILES IDX 4 1 2 2 1 3 3 4 5 5 6 6 7 7 8 8
REMARK H PARENT
REMARK Flexibility Score: inf
ROOT
ATOM      1  C   UNL     1      99.771  52.212  53.296  1.00  0.00     0.059 C 
ENDROOT
BRANCH   1   2
ATOM      2  C   UNL     1      98.532  51.383  53.180  1.00  0.00     0.042 C 
ATOM      3  O   UNL     1      97.407  51.936  53.057  1.00  0.00    -0.550 OA
ATOM      4  O   UNL     1      98.612  49.998  53.258  1.00  0.00    -0.550 OA
ENDBRANCH   1   2
BRANCH   1   5
ATOM      5  C   UNL     1      99.484  53.662  52.900  1.00  0.00     0.059 C 
BRANCH   5   6
ATOM      6  C   UNL     1     100.501  54.148  51.917  1.00  0.00     0.042 C 
ATOM      7  O   UNL     1     101.381  54.975  52.273  1.00  0.00    -0.550 OA
ATOM      8  O   UNL     1     100.508  53.651  50.620  1.00  0.00    -0.550 OA
ENDBRANCH   5   6
ENDBRANCH   1   5
TORSDOF 3
ENDMDL
MODEL 7
REMARK VINA RESULT:    -3.703      4.082      5.671
REMARK INTER + INTRA:          -4.387
REMARK INTER:                  -4.351
REMARK INTRA:                  -0.036
REMARK UNBOUND:                -0.035
REMARK SMILES O=C([O-])CCC(=O)[O-]
REMARK SMILES IDX 4 1 2 2 1 3 3 4 5 5 6 6 7 7 8 8
REMARK H PARENT
REMARK Flexibility Score: inf
ROOT
ATOM      1  C   UNL     1      99.963  53.415  53.150  1.00  0.00     0.059 C 
ENDROOT
BRANCH   1   2
ATOM      2  C   UNL     1     100.803  54.340  52.330  1.00  0.00     0.042 C 
ATOM      3  O   UNL     1     101.615  55.125  52.890  1.00  0.00    -0.550 OA
ATOM      4  O   UNL     1     100.656  54.374  50.949  1.00  0.00    -0.550 OA
ENDBRANCH   1   2
BRANCH   1   5
ATOM      5  C   UNL     1      99.684  52.121  52.382  1.00  0.00     0.059 C 
BRANCH   5   6
ATOM      6  C   UNL     1      98.560  51.367  53.017  1.00  0.00     0.042 C 
ATOM      7  O   UNL     1      98.730  50.179  53.399  1.00  0.00    -0.550 OA
ATOM      8  O   UNL     1      97.337  51.991  53.234  1.00  0.00    -0.550 OA
ENDBRANCH   5   6
ENDBRANCH   1   5
TORSDOF 3
ENDMDL
MODEL 8
REMARK VINA RESULT:    -3.409      1.701      3.945
REMARK INTER + INTRA:          -4.042
REMARK INTER:                  -3.940
REMARK INTRA:                  -0.102
REMARK UNBOUND:                -0.035
REMARK SMILES O=C([O-])CCC(=O)[O-]
REMARK SMILES IDX 4 1 2 2 1 3 3 4 5 5 6 6 7 7 8 8
REMARK H PARENT
REMARK Flexibility Score: inf
ROOT
ATOM      1  C   UNL     1     101.753  52.977  47.289  1.00  0.00     0.059 C 
ENDROOT
BRANCH   1   2
ATOM      2  C   UNL     1     101.474  53.520  48.654  1.00  0.00     0.042 C 
ATOM      3  O   UNL     1     102.097  54.532  49.074  1.00  0.00    -0.550 OA
ATOM      4  O   UNL     1     100.561  52.882  49.484  1.00  0.00    -0.550 OA
ENDBRANCH   1   2
BRANCH   1   5
ATOM      5  C   UNL     1     101.332  51.509  47.200  1.00  0.00     0.059 C 
BRANCH   5   6
ATOM      6  C   UNL     1     102.495  50.613  47.484  1.00  0.00     0.042 C 
ATOM      7  O   UNL     1     103.670  51.011  47.266  1.00  0.00    -0.550 OA
ATOM      8  O   UNL     1     102.286  49.355  48.036  1.00  0.00    -0.550 OA
ENDBRANCH   5   6
ENDBRANCH   1   5
TORSDOF 3
ENDMDL
MODEL 9
REMARK VINA RESULT:    -3.192      2.219      2.941
REMARK INTER + INTRA:          -3.787
REMARK INTER:                  -3.734
REMARK INTRA:                  -0.053
REMARK UNBOUND:                -0.035
REMARK SMILES O=C([O-])CCC(=O)[O-]
REMARK SMILES IDX 4 1 2 2 1 3 3 4 5 5 6 6 7 7 8 8
REMARK H PARENT
REMARK Flexibility Score: inf
ROOT
ATOM      1  C   UNL     1     103.140  51.108  47.309  1.00  0.00     0.059 C 
ENDROOT
BRANCH   1   2
ATOM      2  C   UNL     1     103.466  49.721  47.763  1.00  0.00     0.042 C 
ATOM      3  O   UNL     1     102.686  49.108  48.539  1.00  0.00    -0.550 OA
ATOM      4  O   UNL     1     104.656  49.122  47.370  1.00  0.00    -0.550 OA
ENDBRANCH   1   2
BRANCH   1   5
ATOM      5  C   UNL     1     101.627  51.336  47.327  1.00  0.00     0.059 C 
BRANCH   5   6
ATOM      6  C   UNL     1     101.306  52.680  47.899  1.00  0.00     0.042 C 
ATOM      7  O   UNL     1     101.641  53.727  47.284  1.00  0.00    -0.550 OA
ATOM      8  O   UNL     1     100.595  52.778  49.088  1.00  0.00    -0.550 OA
ENDBRANCH   5   6
ENDBRANCH   1   5
TORSDOF 3
ENDMDL
