MODEL 1
REMARK VINA RESULT:    -3.944      0.000      0.000
REMARK INTER + INTRA:          -4.670
REMARK INTER:                  -4.521
REMARK INTRA:                  -0.149
REMARK UNBOUND:                -0.149
REMARK SMILES O=C([O-])C=Cc1ccc(O)cc1
REMARK SMILES IDX 6 1 7 2 12 3 8 4 11 5 9 6 5 7 4 8 2 9 1 10 3 11 10 12
REMARK H PARENT 10 13
REMARK Flexibility Score: inf
ROOT
ATOM      1  C   UNL     1     146.984 160.493 161.453  1.00  0.00    -0.025 A 
ATOM      2  C   UNL     1     145.938 160.368 162.391  1.00  0.00     0.012 A 
ATOM      3  C   UNL     1     147.666 159.335 161.040  1.00  0.00     0.012 A 
ATOM      4  C   UNL     1     145.606 159.116 162.917  1.00  0.00     0.047 A 
ATOM      5  C   UNL     1     147.331 158.085 161.569  1.00  0.00     0.047 A 
ATOM      6  C   UNL     1     146.301 157.973 162.511  1.00  0.00     0.115 A 
ENDROOT
BRANCH   1   7
ATOM      7  C   UNL     1     147.370 161.795 160.855  1.00  0.00     0.010 C 
ATOM      8  C   UNL     1     148.567 162.036 160.302  1.00  0.00     0.025 C 
BRANCH   8   9
ATOM      9  C   UNL     1     148.902 163.341 159.710  1.00  0.00     0.064 C 
ATOM     10  O   UNL     1     149.786 164.057 160.248  1.00  0.00    -0.545 OA
ATOM     11  O   UNL     1     148.255 163.799 158.567  1.00  0.00    -0.545 OA
ENDBRANCH   8   9
ENDBRANCH   1   7
BRANCH   6  12
ATOM     12  O   UNL     1     145.958 156.732 163.045  1.00  0.00    -0.508 OA
ATOM     13  H   UNL     1     145.277 156.647 163.791  1.00  0.00     0.293 HD
ENDBRANCH   6  12
TORSDOF 3
ENDMDL
MODEL 2
REMARK VINA RESULT:    -3.686     21.579     23.684
REMARK INTER + INTRA:          -4.373
REMARK INTER:                  -4.225
REMARK INTRA:                  -0.148
REMARK UNBOUND:                -0.149
REMARK SMILES O=C([O-])C=Cc1ccc(O)cc1
REMARK SMILES IDX 6 1 7 2 12 3 8 4 11 5 9 6 5 7 4 8 2 9 1 10 3 11 10 12
REMARK H PARENT 10 13
REMARK Flexibility Score: inf
ROOT
ATOM      1  C   UNL     1     160.826 145.894 172.452  1.00  0.00    -0.025 A 
ATOM      2  C   UNL     1     160.647 147.050 171.664  1.00  0.00     0.012 A 
ATOM      3  C   UNL     1     160.254 144.685 172.022  1.00  0.00     0.012 A 
ATOM      4  C   UNL     1     159.891 146.993 170.488  1.00  0.00     0.047 A 
ATOM      5  C   UNL     1     159.500 144.633 170.847  1.00  0.00     0.047 A 
ATOM      6  C   UNL     1     159.314 145.788 170.078  1.00  0.00     0.115 A 
ENDROOT
BRANCH   1   7
ATOM      7  C   UNL     1     161.628 145.896 173.701  1.00  0.00     0.010 C 
ATOM      8  C   UNL     1     161.395 145.078 174.737  1.00  0.00     0.025 C 
BRANCH   8   9
ATOM      9  C   UNL     1     162.224 145.108 175.953  1.00  0.00     0.064 C 
ATOM     10  O   UNL     1     162.066 144.223 176.834  1.00  0.00    -0.545 OA
ATOM     11  O   UNL     1     163.179 146.100 176.146  1.00  0.00    -0.545 OA
ENDBRANCH   8   9
ENDBRANCH   1   7
BRANCH   6  12
ATOM     12  O   UNL     1     158.563 145.748 168.905  1.00  0.00    -0.508 OA
ATOM     13  H   UNL     1     158.977 145.480 168.020  1.00  0.00     0.293 HD
ENDBRANCH   6  12
TORSDOF 3
ENDMDL
MODEL 3
REMARK VINA RESULT:    -3.542     21.586     23.702
REMARK INTER + INTRA:          -4.209
REMARK INTER:                  -4.067
REMARK INTRA:                  -0.141
REMARK UNBOUND:                -0.149
REMARK SMILES O=C([O-])C=Cc1ccc(O)cc1
REMARK SMILES IDX 6 1 7 2 12 3 8 4 11 5 9 6 5 7 4 8 2 9 1 10 3 11 10 12
REMARK H PARENT 10 13
REMARK Flexibility Score: inf
ROOT
ATOM      1  C   UNL     1     160.848 145.805 172.420  1.00  0.00    -0.025 A 
ATOM      2  C   UNL     1     160.231 144.626 171.950  1.00  0.00     0.012 A 
ATOM      3  C   UNL     1     160.686 146.993 171.688  1.00  0.00     0.012 A 
ATOM      4  C   UNL     1     159.493 144.640 170.762  1.00  0.00     0.047 A 
ATOM      5  C   UNL     1     159.947 147.002 170.501  1.00  0.00     0.047 A 
ATOM      6  C   UNL     1     159.351 145.825 170.034  1.00  0.00     0.115 A 
ENDROOT
BRANCH   1   7
ATOM      7  C   UNL     1     161.633 145.848 173.679  1.00  0.00     0.010 C 
ATOM      8  C   UNL     1     161.420 145.028 174.718  1.00  0.00     0.025 C 
BRANCH   8   9
ATOM      9  C   UNL     1     162.231 145.100 175.944  1.00  0.00     0.064 C 
ATOM     10  O   UNL     1     162.051 144.254 176.858  1.00  0.00    -0.545 OA
ATOM     11  O   UNL     1     163.195 146.090 176.110  1.00  0.00    -0.545 OA
ENDBRANCH   8   9
ENDBRANCH   1   7
BRANCH   6  12
ATOM     12  O   UNL     1     158.613 145.822 168.852  1.00  0.00    -0.508 OA
ATOM     13  H   UNL     1     158.838 146.446 168.086  1.00  0.00     0.293 HD
ENDBRANCH   6  12
TORSDOF 3
ENDMDL
MODEL 4
REMARK VINA RESULT:    -3.273     13.928     14.802
REMARK INTER + INTRA:          -3.901
REMARK INTER:                  -3.758
REMARK INTRA:                  -0.142
REMARK UNBOUND:                -0.149
REMARK SMILES O=C([O-])C=Cc1ccc(O)cc1
REMARK SMILES IDX 6 1 7 2 12 3 8 4 11 5 9 6 5 7 4 8 2 9 1 10 3 11 10 12
REMARK H PARENT 10 13
REMARK Flexibility Score: inf
ROOT
ATOM      1  C   UNL     1     161.262 163.226 164.849  1.00  0.00    -0.025 A 
ATOM      2  C   UNL     1     161.563 163.902 166.049  1.00  0.00     0.012 A 
ATOM      3  C   UNL     1     160.511 162.040 164.909  1.00  0.00     0.012 A 
ATOM      4  C   UNL     1     161.140 163.385 167.277  1.00  0.00     0.047 A 
ATOM      5  C   UNL     1     160.090 161.526 166.139  1.00  0.00     0.047 A 
ATOM      6  C   UNL     1     160.406 162.196 167.327  1.00  0.00     0.115 A 
ENDROOT
BRANCH   1   7
ATOM      7  C   UNL     1     161.678 163.737 163.518  1.00  0.00     0.010 C 
ATOM      8  C   UNL     1     162.258 162.980 162.577  1.00  0.00     0.025 C 
BRANCH   8   9
ATOM      9  C   UNL     1     162.643 163.528 161.267  1.00  0.00     0.064 C 
ATOM     10  O   UNL     1     163.844 163.462 160.895  1.00  0.00    -0.545 OA
ATOM     11  O   UNL     1     161.701 164.118 160.431  1.00  0.00    -0.545 OA
ENDBRANCH   8   9
ENDBRANCH   1   7
BRANCH   6  12
ATOM     12  O   UNL     1     159.992 161.693 168.559  1.00  0.00    -0.508 OA
ATOM     13  H   UNL     1     160.636 161.602 169.336  1.00  0.00     0.293 HD
ENDBRANCH   6  12
TORSDOF 3
ENDMDL
MODEL 5
REMARK VINA RESULT:    -3.242     18.418     19.934
REMARK INTER + INTRA:          -3.865
REMARK INTER:                  -3.728
REMARK INTRA:                  -0.137
REMARK UNBOUND:                -0.149
REMARK SMILES O=C([O-])C=Cc1ccc(O)cc1
REMARK SMILES IDX 6 1 7 2 12 3 8 4 11 5 9 6 5 7 4 8 2 9 1 10 3 11 10 12
REMARK H PARENT 10 13
REMARK Flexibility Score: inf
ROOT
ATOM      1  C   UNL     1     159.794 147.968 170.797  1.00  0.00    -0.025 A 
ATOM      2  C   UNL     1     160.695 147.554 171.800  1.00  0.00     0.012 A 
ATOM      3  C   UNL     1     159.122 146.991 170.044  1.00  0.00     0.012 A 
ATOM      4  C   UNL     1     160.929 146.193 172.022  1.00  0.00     0.047 A 
ATOM      5  C   UNL     1     159.360 145.632 170.268  1.00  0.00     0.047 A 
ATOM      6  C   UNL     1     160.266 145.230 171.257  1.00  0.00     0.115 A 
ENDROOT
BRANCH   1   7
ATOM      7  C   UNL     1     159.501 149.398 170.528  1.00  0.00     0.010 C 
ATOM      8  C   UNL     1     159.810 150.020 169.382  1.00  0.00     0.025 C 
BRANCH   8   9
ATOM      9  C   UNL     1     159.489 151.438 169.155  1.00  0.00     0.064 C 
ATOM     10  O   UNL     1     158.481 151.744 168.466  1.00  0.00    -0.545 OA
ATOM     11  O   UNL     1     160.282 152.448 169.691  1.00  0.00    -0.545 OA
ENDBRANCH   8   9
ENDBRANCH   1   7
BRANCH   6  12
ATOM     12  O   UNL     1     160.512 143.878 171.489  1.00  0.00    -0.508 OA
ATOM     13  H   UNL     1     160.865 143.549 172.380  1.00  0.00     0.293 HD
ENDBRANCH   6  12
TORSDOF 3
ENDMDL
MODEL 6
REMARK VINA RESULT:    -2.762     20.259     21.915
REMARK INTER + INTRA:          -3.314
REMARK INTER:                  -3.176
REMARK INTRA:                  -0.138
REMARK UNBOUND:                -0.149
REMARK SMILES O=C([O-])C=Cc1ccc(O)cc1
REMARK SMILES IDX 6 1 7 2 12 3 8 4 11 5 9 6 5 7 4 8 2 9 1 10 3 11 10 12
REMARK H PARENT 10 13
REMARK Flexibility Score: inf
ROOT
ATOM      1  C   UNL     1     159.915 145.720 170.560  1.00  0.00    -0.025 A 
ATOM      2  C   UNL     1     159.899 144.608 171.427  1.00  0.00     0.012 A 
ATOM      3  C   UNL     1     160.483 146.923 171.012  1.00  0.00     0.012 A 
ATOM      4  C   UNL     1     160.420 144.712 172.721  1.00  0.00     0.047 A 
ATOM      5  C   UNL     1     161.002 147.024 172.306  1.00  0.00     0.047 A 
ATOM      6  C   UNL     1     160.969 145.919 173.165  1.00  0.00     0.115 A 
ENDROOT
BRANCH   1   7
ATOM      7  C   UNL     1     159.387 145.660 169.174  1.00  0.00     0.010 C 
ATOM      8  C   UNL     1     160.133 145.347 168.106  1.00  0.00     0.025 C 
BRANCH   8   9
ATOM      9  C   UNL     1     159.563 145.289 166.750  1.00  0.00     0.064 C 
ATOM     10  O   UNL     1     158.474 145.873 166.509  1.00  0.00    -0.545 OA
ATOM     11  O   UNL     1     160.207 144.598 165.730  1.00  0.00    -0.545 OA
ENDBRANCH   8   9
ENDBRANCH   1   7
BRANCH   6  12
ATOM     12  O   UNL     1     161.482 146.007 174.458  1.00  0.00    -0.508 OA
ATOM     13  H   UNL     1     162.297 145.475 174.741  1.00  0.00     0.293 HD
ENDBRANCH   6  12
TORSDOF 3
ENDMDL
MODEL 7
REMARK VINA RESULT:    -2.367     22.156     24.058
REMARK INTER + INTRA:          -2.862
REMARK INTER:                  -2.713
REMARK INTRA:                  -0.149
REMARK UNBOUND:                -0.149
REMARK SMILES O=C([O-])C=Cc1ccc(O)cc1
REMARK SMILES IDX 6 1 7 2 12 3 8 4 11 5 9 6 5 7 4 8 2 9 1 10 3 11 10 12
REMARK H PARENT 10 13
REMARK Flexibility Score: inf
ROOT
ATOM      1  C   UNL     1     161.064 145.359 173.719  1.00  0.00    -0.025 A 
ATOM      2  C   UNL     1     162.301 145.771 174.257  1.00  0.00     0.012 A 
ATOM      3  C   UNL     1     160.231 144.533 174.492  1.00  0.00     0.012 A 
ATOM      4  C   UNL     1     162.698 145.343 175.528  1.00  0.00     0.047 A 
ATOM      5  C   UNL     1     160.631 144.107 175.762  1.00  0.00     0.047 A 
ATOM      6  C   UNL     1     161.867 144.510 176.282  1.00  0.00     0.115 A 
ENDROOT
BRANCH   1   7
ATOM      7  C   UNL     1     160.590 145.792 172.381  1.00  0.00     0.010 C 
ATOM      8  C   UNL     1     159.767 145.067 171.611  1.00  0.00     0.025 C 
BRANCH   8   9
ATOM      9  C   UNL     1     159.314 145.543 170.294  1.00  0.00     0.064 C 
ATOM     10  O   UNL     1     158.407 144.917 169.686  1.00  0.00    -0.545 OA
ATOM     11  O   UNL     1     159.873 146.674 169.709  1.00  0.00    -0.545 OA
ENDBRANCH   8   9
ENDBRANCH   1   7
BRANCH   6  12
ATOM     12  O   UNL     1     162.277 144.091 177.547  1.00  0.00    -0.508 OA
ATOM     13  H   UNL     1     163.092 144.491 177.998  1.00  0.00     0.293 HD
ENDBRANCH   6  12
TORSDOF 3
ENDMDL
