MODEL 1
REMARK VINA RESULT:    -2.152      0.000      0.000
REMARK INTER + INTRA:          -2.152
REMARK INTER:                  -2.152
REMARK INTRA:                   0.000
REMARK UNBOUND:                 0.000
REMARK SMILES CC(=O)[O-]
REMARK SMILES IDX 1 1 2 2 3 3 4 4
REMARK H PARENT
REMARK Flexibility Score: inf
ROOT
ATOM      1  C   UNL     1      24.758  17.959  15.550  1.00  0.00     0.063 C 
ATOM      2  C   UNL     1      25.097  19.075  16.478  1.00  0.00     0.038 C 
ATOM      3  O   UNL     1      24.288  20.024  16.648  1.00  0.00    -0.550 OA
ATOM      4  O   UNL     1      26.284  19.044  17.199  1.00  0.00    -0.550 OA
ENDROOT
TORSDOF 0
ENDMDL
MODEL 2
REMARK VINA RESULT:    -2.137     10.538     10.795
REMARK INTER + INTRA:          -2.137
REMARK INTER:                  -2.137
REMARK INTRA:                   0.000
REMARK UNBOUND:                 0.000
REMARK SMILES CC(=O)[O-]
REMARK SMILES IDX 1 1 2 2 3 3 4 4
REMARK H PARENT
REMARK Flexibility Score: inf
ROOT
ATOM      1  C   UNL     1      33.958  26.115  17.875  1.00  0.00     0.063 C 
ATOM      2  C   UNL     1      33.522  25.498  16.590  1.00  0.00     0.038 C 
ATOM      3  O   UNL     1      32.661  26.074  15.874  1.00  0.00    -0.550 OA
ATOM      4  O   UNL     1      34.102  24.314  16.154  1.00  0.00    -0.550 OA
ENDROOT
TORSDOF 0
ENDMDL
MODEL 3
REMARK VINA RESULT:    -2.124     10.910     11.217
REMARK INTER + INTRA:          -2.124
REMARK INTER:                  -2.124
REMARK INTRA:                   0.000
REMARK UNBOUND:                 0.000
REMARK SMILES CC(=O)[O-]
REMARK SMILES IDX 1 1 2 2 3 3 4 4
REMARK H PARENT
REMARK Flexibility Score: inf
ROOT
ATOM      1  C   UNL     1      16.322  21.205  10.498  1.00  0.00     0.063 C 
ATOM      2  C   UNL     1      16.742  20.275   9.411  1.00  0.00     0.038 C 
ATOM      3  O   UNL     1      17.774  20.520   8.734  1.00  0.00    -0.550 OA
ATOM      4  O   UNL     1      16.026  19.107   9.179  1.00  0.00    -0.550 OA
ENDROOT
TORSDOF 0
ENDMDL
MODEL 4
REMARK VINA RESULT:    -2.107     19.490     19.749
REMARK INTER + INTRA:          -2.107
REMARK INTER:                  -2.107
REMARK INTRA:                   0.000
REMARK UNBOUND:                 0.000
REMARK SMILES CC(=O)[O-]
REMARK SMILES IDX 1 1 2 2 3 3 4 4
REMARK H PARENT
REMARK Flexibility Score: inf
ROOT
ATOM      1  C   UNL     1      28.292  34.023   4.114  1.00  0.00     0.063 C 
ATOM      2  C   UNL     1      29.376  33.177   3.538  1.00  0.00     0.038 C 
ATOM      3  O   UNL     1      30.413  32.935   4.210  1.00  0.00    -0.550 OA
ATOM      4  O   UNL     1      29.223  32.611   2.279  1.00  0.00    -0.550 OA
ENDROOT
TORSDOF 0
ENDMDL
MODEL 5
REMARK VINA RESULT:    -2.105     10.743     10.946
REMARK INTER + INTRA:          -2.105
REMARK INTER:                  -2.105
REMARK INTRA:                   0.000
REMARK UNBOUND:                 0.000
REMARK SMILES CC(=O)[O-]
REMARK SMILES IDX 1 1 2 2 3 3 4 4
REMARK H PARENT
REMARK Flexibility Score: inf
ROOT
ATOM      1  C   UNL     1      17.366  20.405   8.415  1.00  0.00     0.063 C 
ATOM      2  C   UNL     1      16.702  20.357   9.749  1.00  0.00     0.038 C 
ATOM      3  O   UNL     1      16.212  19.278  10.172  1.00  0.00    -0.550 OA
ATOM      4  O   UNL     1      16.670  21.491  10.551  1.00  0.00    -0.550 OA
ENDROOT
TORSDOF 0
ENDMDL
MODEL 6
REMARK VINA RESULT:    -2.104     10.662     10.871
REMARK INTER + INTRA:          -2.104
REMARK INTER:                  -2.104
REMARK INTRA:                   0.000
REMARK UNBOUND:                 0.000
REMARK SMILES CC(=O)[O-]
REMARK SMILES IDX 1 1 2 2 3 3 4 4
REMARK H PARENT
REMARK Flexibility Score: inf
ROOT
ATOM      1  C   UNL     1      15.998  19.284   9.884  1.00  0.00     0.063 C 
ATOM      2  C   UNL     1      16.897  20.440   9.603  1.00  0.00     0.038 C 
ATOM      3  O   UNL     1      16.924  21.424  10.388  1.00  0.00    -0.550 OA
ATOM      4  O   UNL     1      17.745  20.411   8.504  1.00  0.00    -0.550 OA
ENDROOT
TORSDOF 0
ENDMDL
MODEL 7
REMARK VINA RESULT:    -2.103     19.456     19.677
REMARK INTER + INTRA:          -2.103
REMARK INTER:                  -2.103
REMARK INTRA:                   0.000
REMARK UNBOUND:                 0.000
REMARK SMILES CC(=O)[O-]
REMARK SMILES IDX 1 1 2 2 3 3 4 4
REMARK H PARENT
REMARK Flexibility Score: inf
ROOT
ATOM      1  C   UNL     1      28.061  34.000   3.987  1.00  0.00     0.063 C 
ATOM      2  C   UNL     1      29.149  33.125   3.465  1.00  0.00     0.038 C 
ATOM      3  O   UNL     1      29.041  32.594   2.328  1.00  0.00    -0.550 OA
ATOM      4  O   UNL     1      30.308  32.936   4.207  1.00  0.00    -0.550 OA
ENDROOT
TORSDOF 0
ENDMDL
MODEL 8
REMARK VINA RESULT:    -2.091     19.444     19.568
REMARK INTER + INTRA:          -2.091
REMARK INTER:                  -2.091
REMARK INTRA:                   0.000
REMARK UNBOUND:                 0.000
REMARK SMILES CC(=O)[O-]
REMARK SMILES IDX 1 1 2 2 3 3 4 4
REMARK H PARENT
REMARK Flexibility Score: inf
ROOT
ATOM      1  C   UNL     1      28.930  32.809   2.370  1.00  0.00     0.063 C 
ATOM      2  C   UNL     1      29.316  33.267   3.736  1.00  0.00     0.038 C 
ATOM      3  O   UNL     1      28.507  33.940   4.428  1.00  0.00    -0.550 OA
ATOM      4  O   UNL     1      30.547  32.909   4.269  1.00  0.00    -0.550 OA
ENDROOT
TORSDOF 0
ENDMDL
MODEL 9
REMARK VINA RESULT:    -2.060     19.719     19.847
REMARK INTER + INTRA:          -2.060
REMARK INTER:                  -2.060
REMARK INTRA:                   0.000
REMARK UNBOUND:                 0.000
REMARK SMILES CC(=O)[O-]
REMARK SMILES IDX 1 1 2 2 3 3 4 4
REMARK H PARENT
REMARK Flexibility Score: inf
ROOT
ATOM      1  C   UNL     1      28.283  33.955   4.017  1.00  0.00     0.063 C 
ATOM      2  C   UNL     1      28.036  33.040   2.866  1.00  0.00     0.038 C 
ATOM      3  O   UNL     1      26.858  32.733   2.545  1.00  0.00    -0.550 OA
ATOM      4  O   UNL     1      29.102  32.566   2.112  1.00  0.00    -0.550 OA
ENDROOT
TORSDOF 0
ENDMDL
