MODEL 1
REMARK VINA RESULT:    -2.834      0.000      0.000
REMARK INTER + INTRA:          -3.178
REMARK INTER:                  -3.166
REMARK INTRA:                  -0.012
REMARK UNBOUND:                -0.012
REMARK SMILES CCCC(=O)[O-]
REMARK SMILES IDX 3 1 4 2 5 3 6 4 2 5 1 6
REMARK H PARENT
REMARK Flexibility Score: inf
ROOT
ATOM      1  C   UNL     1      17.028 -18.124  14.653  1.00  0.00     0.052 C 
ENDROOT
BRANCH   1   2
ATOM      2  C   UNL     1      17.703 -17.472  13.488  1.00  0.00     0.041 C 
ATOM      3  O   UNL     1      17.178 -16.474  12.928  1.00  0.00    -0.550 OA
ATOM      4  O   UNL     1      18.937 -17.937  13.051  1.00  0.00    -0.550 OA
ENDBRANCH   1   2
BRANCH   1   5
ATOM      5  C   UNL     1      15.759 -17.356  15.034  1.00  0.00     0.003 C 
ATOM      6  C   UNL     1      15.134 -17.921  16.306  1.00  0.00     0.004 C 
ENDBRANCH   1   5
TORSDOF 2
ENDMDL
MODEL 2
REMARK VINA RESULT:    -2.590     18.563     19.259
REMARK INTER + INTRA:          -2.905
REMARK INTER:                  -2.868
REMARK INTRA:                  -0.038
REMARK UNBOUND:                -0.012
REMARK SMILES CCCC(=O)[O-]
REMARK SMILES IDX 3 1 4 2 5 3 6 4 2 5 1 6
REMARK H PARENT
REMARK Flexibility Score: inf
ROOT
ATOM      1  C   UNL     1      15.489   1.859  11.727  1.00  0.00     0.052 C 
ENDROOT
BRANCH   1   2
ATOM      2  C   UNL     1      15.044   0.979  12.851  1.00  0.00     0.041 C 
ATOM      3  O   UNL     1      15.876   0.250  13.454  1.00  0.00    -0.550 OA
ATOM      4  O   UNL     1      13.720   1.000  13.268  1.00  0.00    -0.550 OA
ENDBRANCH   1   2
BRANCH   1   5
ATOM      5  C   UNL     1      16.660   1.217  10.977  1.00  0.00     0.003 C 
ATOM      6  C   UNL     1      17.890   2.121  10.999  1.00  0.00     0.004 C 
ENDBRANCH   1   5
TORSDOF 2
ENDMDL
MODEL 3
REMARK VINA RESULT:    -2.574      8.375      9.371
REMARK INTER + INTRA:          -2.888
REMARK INTER:                  -2.876
REMARK INTRA:                  -0.012
REMARK UNBOUND:                -0.012
REMARK SMILES CCCC(=O)[O-]
REMARK SMILES IDX 3 1 4 2 5 3 6 4 2 5 1 6
REMARK H PARENT
REMARK Flexibility Score: inf
ROOT
ATOM      1  C   UNL     1      21.771 -14.186   6.768  1.00  0.00     0.052 C 
ENDROOT
BRANCH   1   2
ATOM      2  C   UNL     1      21.610 -13.920   8.231  1.00  0.00     0.041 C 
ATOM      3  O   UNL     1      21.627 -14.873   9.055  1.00  0.00    -0.550 OA
ATOM      4  O   UNL     1      21.490 -12.615   8.692  1.00  0.00    -0.550 OA
ENDBRANCH   1   2
BRANCH   1   5
ATOM      5  C   UNL     1      21.141 -15.531   6.396  1.00  0.00     0.003 C 
ATOM      6  C   UNL     1      21.513 -15.938   4.973  1.00  0.00     0.004 C 
ENDBRANCH   1   5
TORSDOF 2
ENDMDL
MODEL 4
REMARK VINA RESULT:    -2.557     11.865     12.850
REMARK INTER + INTRA:          -2.869
REMARK INTER:                  -2.854
REMARK INTRA:                  -0.015
REMARK UNBOUND:                -0.012
REMARK SMILES CCCC(=O)[O-]
REMARK SMILES IDX 3 1 4 2 5 3 6 4 2 5 1 6
REMARK H PARENT
REMARK Flexibility Score: inf
ROOT
ATOM      1  C   UNL     1      24.789  -9.073   7.639  1.00  0.00     0.052 C 
ENDROOT
BRANCH   1   2
ATOM      2  C   UNL     1      24.444 -10.471   8.040  1.00  0.00     0.041 C 
ATOM      3  O   UNL     1      23.424 -10.696   8.745  1.00  0.00    -0.550 OA
ATOM      4  O   UNL     1      25.219 -11.534   7.594  1.00  0.00    -0.550 OA
ENDBRANCH   1   2
BRANCH   1   5
ATOM      5  C   UNL     1      23.661  -8.111   8.026  1.00  0.00     0.003 C 
ATOM      6  C   UNL     1      23.608  -6.915   7.080  1.00  0.00     0.004 C 
ENDBRANCH   1   5
TORSDOF 2
ENDMDL
MODEL 5
REMARK VINA RESULT:    -2.555     13.528     14.290
REMARK INTER + INTRA:          -2.866
REMARK INTER:                  -2.854
REMARK INTRA:                  -0.012
REMARK UNBOUND:                -0.012
REMARK SMILES CCCC(=O)[O-]
REMARK SMILES IDX 3 1 4 2 5 3 6 4 2 5 1 6
REMARK H PARENT
REMARK Flexibility Score: inf
ROOT
ATOM      1  C   UNL     1      21.938 -13.879   1.241  1.00  0.00     0.052 C 
ENDROOT
BRANCH   1   2
ATOM      2  C   UNL     1      23.061 -12.965   1.615  1.00  0.00     0.041 C 
ATOM      3  O   UNL     1      23.359 -11.990   0.875  1.00  0.00    -0.550 OA
ATOM      4  O   UNL     1      23.748 -13.159   2.806  1.00  0.00    -0.550 OA
ENDBRANCH   1   2
BRANCH   1   5
ATOM      5  C   UNL     1      21.809 -15.014   2.261  1.00  0.00     0.003 C 
ATOM      6  C   UNL     1      21.118 -16.229   1.648  1.00  0.00     0.004 C 
ENDBRANCH   1   5
TORSDOF 2
ENDMDL
MODEL 6
REMARK VINA RESULT:    -2.535     12.918     13.938
REMARK INTER + INTRA:          -2.844
REMARK INTER:                  -2.833
REMARK INTRA:                  -0.010
REMARK UNBOUND:                -0.012
REMARK SMILES CCCC(=O)[O-]
REMARK SMILES IDX 3 1 4 2 5 3 6 4 2 5 1 6
REMARK H PARENT
REMARK Flexibility Score: inf
ROOT
ATOM      1  C   UNL     1      23.661  -7.977   7.969  1.00  0.00     0.052 C 
ENDROOT
BRANCH   1   2
ATOM      2  C   UNL     1      24.040  -6.946   6.954  1.00  0.00     0.041 C 
ATOM      3  O   UNL     1      23.686  -5.747   7.105  1.00  0.00    -0.550 OA
ATOM      4  O   UNL     1      24.827  -7.299   5.864  1.00  0.00    -0.550 OA
ENDBRANCH   1   2
BRANCH   1   5
ATOM      5  C   UNL     1      24.537  -9.224   7.818  1.00  0.00     0.003 C 
ATOM      6  C   UNL     1      24.052 -10.350   8.727  1.00  0.00     0.004 C 
ENDBRANCH   1   5
TORSDOF 2
ENDMDL
MODEL 7
REMARK VINA RESULT:    -2.479     16.739     17.668
REMARK INTER + INTRA:          -2.781
REMARK INTER:                  -2.769
REMARK INTRA:                  -0.012
REMARK UNBOUND:                -0.012
REMARK SMILES CCCC(=O)[O-]
REMARK SMILES IDX 3 1 4 2 5 3 6 4 2 5 1 6
REMARK H PARENT
REMARK Flexibility Score: inf
ROOT
ATOM      1  C   UNL     1      24.424  -2.403  10.368  1.00  0.00     0.052 C 
ENDROOT
BRANCH   1   2
ATOM      2  C   UNL     1      23.059  -2.703   9.838  1.00  0.00     0.041 C 
ATOM      3  O   UNL     1      22.640  -3.890   9.800  1.00  0.00    -0.550 OA
ATOM      4  O   UNL     1      22.228  -1.667   9.431  1.00  0.00    -0.550 OA
ENDBRANCH   1   2
BRANCH   1   5
ATOM      5  C   UNL     1      24.463  -1.003  10.986  1.00  0.00     0.003 C 
ATOM      6  C   UNL     1      25.898  -0.497  11.114  1.00  0.00     0.004 C 
ENDBRANCH   1   5
TORSDOF 2
ENDMDL
MODEL 8
REMARK VINA RESULT:    -2.433     14.839     15.844
REMARK INTER + INTRA:          -2.730
REMARK INTER:                  -2.699
REMARK INTRA:                  -0.031
REMARK UNBOUND:                -0.012
REMARK SMILES CCCC(=O)[O-]
REMARK SMILES IDX 3 1 4 2 5 3 6 4 2 5 1 6
REMARK H PARENT
REMARK Flexibility Score: inf
ROOT
ATOM      1  C   UNL     1      24.629  -5.870   6.815  1.00  0.00     0.052 C 
ENDROOT
BRANCH   1   2
ATOM      2  C   UNL     1      24.814  -4.528   7.448  1.00  0.00     0.041 C 
ATOM      3  O   UNL     1      23.970  -4.096   8.277  1.00  0.00    -0.550 OA
ATOM      4  O   UNL     1      25.943  -3.773   7.160  1.00  0.00    -0.550 OA
ENDBRANCH   1   2
BRANCH   1   5
ATOM      5  C   UNL     1      23.346  -6.532   7.329  1.00  0.00     0.003 C 
ATOM      6  C   UNL     1      23.636  -7.909   7.920  1.00  0.00     0.004 C 
ENDBRANCH   1   5
TORSDOF 2
ENDMDL
MODEL 9
REMARK VINA RESULT:    -2.407     13.606     14.444
REMARK INTER + INTRA:          -2.701
REMARK INTER:                  -2.663
REMARK INTRA:                  -0.038
REMARK UNBOUND:                -0.012
REMARK SMILES CCCC(=O)[O-]
REMARK SMILES IDX 3 1 4 2 5 3 6 4 2 5 1 6
REMARK H PARENT
REMARK Flexibility Score: inf
ROOT
ATOM      1  C   UNL     1      21.800 -14.172   2.052  1.00  0.00     0.052 C 
ENDROOT
BRANCH   1   2
ATOM      2  C   UNL     1      21.797 -15.590   1.577  1.00  0.00     0.041 C 
ATOM      3  O   UNL     1      20.733 -16.263   1.597  1.00  0.00    -0.550 OA
ATOM      4  O   UNL     1      22.959 -16.154   1.067  1.00  0.00    -0.550 OA
ENDBRANCH   1   2
BRANCH   1   5
ATOM      5  C   UNL     1      22.011 -13.214   0.876  1.00  0.00     0.003 C 
ATOM      6  C   UNL     1      23.350 -12.491   0.988  1.00  0.00     0.004 C 
ENDBRANCH   1   5
TORSDOF 2
ENDMDL
