MODEL 1
REMARK VINA RESULT:    -3.098      0.000      0.000
REMARK INTER + INTRA:          -4.645
REMARK INTER:                  -4.366
REMARK INTRA:                  -0.279
REMARK UNBOUND:                -0.279
REMARK SMILES CCCCCCCCC(=O)[O-]
REMARK SMILES IDX 6 1 7 2 8 3 9 4 10 5 11 6 5 7 4 8 3 9 2 10 1 11
REMARK H PARENT
REMARK Flexibility Score: inf
ROOT
ATOM      1  C   UNL     1       4.482   6.166   1.616  1.00  0.00     0.000 C 
ENDROOT
BRANCH   1   2
ATOM      2  C   UNL     1       5.924   5.631   1.577  1.00  0.00     0.006 C 
BRANCH   2   3
ATOM      3  C   UNL     1       6.322   5.091   0.197  1.00  0.00     0.053 C 
BRANCH   3   4
ATOM      4  C   UNL     1       7.811   5.056   0.060  1.00  0.00     0.041 C 
ATOM      5  O   UNL     1       8.382   4.024  -0.379  1.00  0.00    -0.550 OA
ATOM      6  O   UNL     1       8.566   6.180   0.370  1.00  0.00    -0.550 OA
ENDBRANCH   3   4
ENDBRANCH   2   3
ENDBRANCH   1   2
BRANCH   1   7
ATOM      7  C   UNL     1       3.577   5.519   2.683  1.00  0.00     0.000 C 
BRANCH   7   8
ATOM      8  C   UNL     1       4.033   4.131   3.176  1.00  0.00    -0.000 C 
BRANCH   8   9
ATOM      9  C   UNL     1       2.894   3.131   3.444  1.00  0.00    -0.000 C 
BRANCH   9  10
ATOM     10  C   UNL     1       2.612   2.936   4.941  1.00  0.00    -0.003 C 
ATOM     11  C   UNL     1       3.897   2.649   5.710  1.00  0.00     0.004 C 
ENDBRANCH   9  10
ENDBRANCH   8   9
ENDBRANCH   7   8
ENDBRANCH   1   7
TORSDOF 7
ENDMDL
MODEL 2
REMARK VINA RESULT:    -3.012      1.164      1.476
REMARK INTER + INTRA:          -4.523
REMARK INTER:                  -4.303
REMARK INTRA:                  -0.221
REMARK UNBOUND:                -0.279
REMARK SMILES CCCCCCCCC(=O)[O-]
REMARK SMILES IDX 6 1 7 2 8 3 9 4 10 5 11 6 5 7 4 8 3 9 2 10 1 11
REMARK H PARENT
REMARK Flexibility Score: inf
ROOT
ATOM      1  C   UNL     1       5.922   6.189   2.184  1.00  0.00     0.000 C 
ENDROOT
BRANCH   1   2
ATOM      2  C   UNL     1       6.102   5.310   0.934  1.00  0.00     0.006 C 
BRANCH   2   3
ATOM      3  C   UNL     1       7.284   5.752   0.061  1.00  0.00     0.053 C 
BRANCH   3   4
ATOM      4  C   UNL     1       8.454   4.843   0.270  1.00  0.00     0.041 C 
ATOM      5  O   UNL     1       9.045   4.818   1.382  1.00  0.00    -0.550 OA
ATOM      6  O   UNL     1       8.863   3.989  -0.746  1.00  0.00    -0.550 OA
ENDBRANCH   3   4
ENDBRANCH   2   3
ENDBRANCH   1   2
BRANCH   1   7
ATOM      7  C   UNL     1       4.768   5.766   3.115  1.00  0.00     0.000 C 
BRANCH   7   8
ATOM      8  C   UNL     1       3.987   4.514   2.667  1.00  0.00    -0.000 C 
BRANCH   8   9
ATOM      9  C   UNL     1       3.737   3.475   3.774  1.00  0.00    -0.000 C 
BRANCH   9  10
ATOM     10  C   UNL     1       2.309   2.911   3.750  1.00  0.00    -0.003 C 
ATOM     11  C   UNL     1       1.981   2.191   5.055  1.00  0.00     0.004 C 
ENDBRANCH   9  10
ENDBRANCH   8   9
ENDBRANCH   7   8
ENDBRANCH   1   7
TORSDOF 7
ENDMDL
MODEL 3
REMARK VINA RESULT:    -2.913      1.535      2.542
REMARK INTER + INTRA:          -4.384
REMARK INTER:                  -4.097
REMARK INTRA:                  -0.287
REMARK UNBOUND:                -0.279
REMARK SMILES CCCCCCCCC(=O)[O-]
REMARK SMILES IDX 6 1 7 2 8 3 9 4 10 5 11 6 5 7 4 8 3 9 2 10 1 11
REMARK H PARENT
REMARK Flexibility Score: inf
ROOT
ATOM      1  C   UNL     1       7.217   6.250   0.487  1.00  0.00     0.000 C 
ENDROOT
BRANCH   1   2
ATOM      2  C   UNL     1       7.517   4.806   0.047  1.00  0.00     0.006 C 
BRANCH   2   3
ATOM      3  C   UNL     1       8.928   4.642  -0.532  1.00  0.00     0.053 C 
BRANCH   3   4
ATOM      4  C   UNL     1       9.959   4.941   0.511  1.00  0.00     0.041 C 
ATOM      5  O   UNL     1      10.831   5.825   0.304  1.00  0.00    -0.550 OA
ATOM      6  O   UNL     1       9.927   4.278   1.731  1.00  0.00    -0.550 OA
ENDBRANCH   3   4
ENDBRANCH   2   3
ENDBRANCH   1   2
BRANCH   1   7
ATOM      7  C   UNL     1       5.816   6.467   1.092  1.00  0.00     0.000 C 
BRANCH   7   8
ATOM      8  C   UNL     1       5.047   5.178   1.446  1.00  0.00    -0.000 C 
BRANCH   8   9
ATOM      9  C   UNL     1       4.528   5.108   2.893  1.00  0.00    -0.000 C 
BRANCH   9  10
ATOM     10  C   UNL     1       3.651   3.875   3.153  1.00  0.00    -0.003 C 
ATOM     11  C   UNL     1       3.831   3.363   4.579  1.00  0.00     0.004 C 
ENDBRANCH   9  10
ENDBRANCH   8   9
ENDBRANCH   7   8
ENDBRANCH   1   7
TORSDOF 7
ENDMDL
MODEL 4
REMARK VINA RESULT:    -2.887      8.113      8.714
REMARK INTER + INTRA:          -4.348
REMARK INTER:                  -4.000
REMARK INTRA:                  -0.348
REMARK UNBOUND:                -0.279
REMARK SMILES CCCCCCCCC(=O)[O-]
REMARK SMILES IDX 6 1 7 2 8 3 9 4 10 5 11 6 5 7 4 8 3 9 2 10 1 11
REMARK H PARENT
REMARK Flexibility Score: inf
ROOT
ATOM      1  C   UNL     1      -2.414   4.781   0.791  1.00  0.00     0.000 C 
ENDROOT
BRANCH   1   2
ATOM      2  C   UNL     1      -2.742   4.330  -0.643  1.00  0.00     0.006 C 
BRANCH   2   3
ATOM      3  C   UNL     1      -3.394   5.437  -1.481  1.00  0.00     0.053 C 
BRANCH   3   4
ATOM      4  C   UNL     1      -2.435   5.948  -2.509  1.00  0.00     0.041 C 
ATOM      5  O   UNL     1      -1.236   6.175  -2.199  1.00  0.00    -0.550 OA
ATOM      6  O   UNL     1      -2.851   6.127  -3.822  1.00  0.00    -0.550 OA
ENDBRANCH   3   4
ENDBRANCH   2   3
ENDBRANCH   1   2
BRANCH   1   7
ATOM      7  C   UNL     1      -2.871   6.211   1.143  1.00  0.00     0.000 C 
BRANCH   7   8
ATOM      8  C   UNL     1      -3.070   6.486   2.647  1.00  0.00    -0.000 C 
BRANCH   8   9
ATOM      9  C   UNL     1      -2.801   5.282   3.567  1.00  0.00    -0.000 C 
BRANCH   9  10
ATOM     10  C   UNL     1      -3.938   5.030   4.568  1.00  0.00    -0.003 C 
ATOM     11  C   UNL     1      -3.778   3.676   5.252  1.00  0.00     0.004 C 
ENDBRANCH   9  10
ENDBRANCH   8   9
ENDBRANCH   7   8
ENDBRANCH   1   7
TORSDOF 7
ENDMDL
MODEL 5
REMARK VINA RESULT:    -2.861      8.152      9.836
REMARK INTER + INTRA:          -4.311
REMARK INTER:                  -3.995
REMARK INTRA:                  -0.317
REMARK UNBOUND:                -0.279
REMARK SMILES CCCCCCCCC(=O)[O-]
REMARK SMILES IDX 6 1 7 2 8 3 9 4 10 5 11 6 5 7 4 8 3 9 2 10 1 11
REMARK H PARENT
REMARK Flexibility Score: inf
ROOT
ATOM      1  C   UNL     1       4.670  -0.298  -6.650  1.00  0.00     0.000 C 
ENDROOT
BRANCH   1   2
ATOM      2  C   UNL     1       4.176   0.480  -5.418  1.00  0.00     0.006 C 
BRANCH   2   3
ATOM      3  C   UNL     1       3.784   1.927  -5.745  1.00  0.00     0.053 C 
BRANCH   3   4
ATOM      4  C   UNL     1       2.885   2.477  -4.683  1.00  0.00     0.041 C 
ATOM      5  O   UNL     1       2.797   1.900  -3.568  1.00  0.00    -0.550 OA
ATOM      6  O   UNL     1       2.180   3.652  -4.907  1.00  0.00    -0.550 OA
ENDBRANCH   3   4
ENDBRANCH   2   3
ENDBRANCH   1   2
BRANCH   1   7
ATOM      7  C   UNL     1       5.631  -1.463  -6.341  1.00  0.00     0.000 C 
BRANCH   7   8
ATOM      8  C   UNL     1       5.391  -2.172  -4.993  1.00  0.00    -0.000 C 
BRANCH   8   9
ATOM      9  C   UNL     1       6.647  -2.792  -4.354  1.00  0.00    -0.000 C 
BRANCH   9  10
ATOM     10  C   UNL     1       7.946  -2.355  -5.046  1.00  0.00    -0.003 C 
ATOM     11  C   UNL     1       8.962  -1.840  -4.033  1.00  0.00     0.004 C 
ENDBRANCH   9  10
ENDBRANCH   8   9
ENDBRANCH   7   8
ENDBRANCH   1   7
TORSDOF 7
ENDMDL
MODEL 6
REMARK VINA RESULT:    -2.859      1.131      1.800
REMARK INTER + INTRA:          -4.308
REMARK INTER:                  -4.183
REMARK INTRA:                  -0.125
REMARK UNBOUND:                -0.279
REMARK SMILES CCCCCCCCC(=O)[O-]
REMARK SMILES IDX 6 1 7 2 8 3 9 4 10 5 11 6 5 7 4 8 3 9 2 10 1 11
REMARK H PARENT
REMARK Flexibility Score: inf
ROOT
ATOM      1  C   UNL     1       4.143   4.996   2.294  1.00  0.00     0.000 C 
ENDROOT
BRANCH   1   2
ATOM      2  C   UNL     1       5.583   5.355   1.887  1.00  0.00     0.006 C 
BRANCH   2   3
ATOM      3  C   UNL     1       5.700   5.763   0.413  1.00  0.00     0.053 C 
BRANCH   3   4
ATOM      4  C   UNL     1       7.110   5.602  -0.062  1.00  0.00     0.041 C 
ATOM      5  O   UNL     1       7.747   6.595  -0.503  1.00  0.00    -0.550 OA
ATOM      6  O   UNL     1       7.739   4.367   0.027  1.00  0.00    -0.550 OA
ENDBRANCH   3   4
ENDBRANCH   2   3
ENDBRANCH   1   2
BRANCH   1   7
ATOM      7  C   UNL     1       4.028   3.987   3.454  1.00  0.00     0.000 C 
BRANCH   7   8
ATOM      8  C   UNL     1       2.759   3.111   3.440  1.00  0.00    -0.000 C 
BRANCH   8   9
ATOM      9  C   UNL     1       1.967   3.095   4.759  1.00  0.00    -0.000 C 
BRANCH   9  10
ATOM     10  C   UNL     1       2.319   1.895   5.651  1.00  0.00    -0.003 C 
ATOM     11  C   UNL     1       1.220   0.838   5.609  1.00  0.00     0.004 C 
ENDBRANCH   9  10
ENDBRANCH   8   9
ENDBRANCH   7   8
ENDBRANCH   1   7
TORSDOF 7
ENDMDL
MODEL 7
REMARK VINA RESULT:    -2.843      3.942      6.256
REMARK INTER + INTRA:          -4.286
REMARK INTER:                  -4.033
REMARK INTRA:                  -0.252
REMARK UNBOUND:                -0.279
REMARK SMILES CCCCCCCCC(=O)[O-]
REMARK SMILES IDX 6 1 7 2 8 3 9 4 10 5 11 6 5 7 4 8 3 9 2 10 1 11
REMARK H PARENT
REMARK Flexibility Score: inf
ROOT
ATOM      1  C   UNL     1       3.917   5.014   2.784  1.00  0.00     0.000 C 
ENDROOT
BRANCH   1   2
ATOM      2  C   UNL     1       3.569   3.563   3.160  1.00  0.00     0.006 C 
BRANCH   2   3
ATOM      3  C   UNL     1       3.607   3.316   4.674  1.00  0.00     0.053 C 
BRANCH   3   4
ATOM      4  C   UNL     1       2.281   2.816   5.154  1.00  0.00     0.041 C 
ATOM      5  O   UNL     1       2.140   1.608   5.480  1.00  0.00    -0.550 OA
ATOM      6  O   UNL     1       1.212   3.692   5.286  1.00  0.00    -0.550 OA
ENDBRANCH   3   4
ENDBRANCH   2   3
ENDBRANCH   1   2
BRANCH   1   7
ATOM      7  C   UNL     1       5.073   5.164   1.775  1.00  0.00     0.000 C 
BRANCH   7   8
ATOM      8  C   UNL     1       6.283   5.978   2.278  1.00  0.00    -0.000 C 
BRANCH   8   9
ATOM      9  C   UNL     1       7.603   5.703   1.536  1.00  0.00    -0.000 C 
BRANCH   9  10
ATOM     10  C   UNL     1       7.397   4.958   0.209  1.00  0.00    -0.003 C 
ATOM     11  C   UNL     1       8.733   4.621  -0.445  1.00  0.00     0.004 C 
ENDBRANCH   9  10
ENDBRANCH   8   9
ENDBRANCH   7   8
ENDBRANCH   1   7
TORSDOF 7
ENDMDL
MODEL 8
REMARK VINA RESULT:    -2.825      8.825     10.280
REMARK INTER + INTRA:          -4.260
REMARK INTER:                  -3.530
REMARK INTRA:                  -0.729
REMARK UNBOUND:                -0.279
REMARK SMILES CCCCCCCCC(=O)[O-]
REMARK SMILES IDX 6 1 7 2 8 3 9 4 10 5 11 6 5 7 4 8 3 9 2 10 1 11
REMARK H PARENT
REMARK Flexibility Score: inf
ROOT
ATOM      1  C   UNL     1       5.233  -0.586  -7.269  1.00  0.00     0.000 C 
ENDROOT
BRANCH   1   2
ATOM      2  C   UNL     1       3.953  -0.158  -6.531  1.00  0.00     0.006 C 
BRANCH   2   3
ATOM      3  C   UNL     1       4.240   0.658  -5.265  1.00  0.00     0.053 C 
BRANCH   3   4
ATOM      4  C   UNL     1       3.077   1.540  -4.937  1.00  0.00     0.041 C 
ATOM      5  O   UNL     1       2.871   1.900  -3.748  1.00  0.00    -0.550 OA
ATOM      6  O   UNL     1       2.247   2.003  -5.950  1.00  0.00    -0.550 OA
ENDBRANCH   3   4
ENDBRANCH   2   3
ENDBRANCH   1   2
BRANCH   1   7
ATOM      7  C   UNL     1       6.449  -0.852  -6.360  1.00  0.00     0.000 C 
BRANCH   7   8
ATOM      8  C   UNL     1       6.648  -2.324  -5.943  1.00  0.00    -0.000 C 
BRANCH   8   9
ATOM      9  C   UNL     1       6.195  -2.659  -4.510  1.00  0.00    -0.000 C 
BRANCH   9  10
ATOM     10  C   UNL     1       4.785  -3.263  -4.457  1.00  0.00    -0.003 C 
ATOM     11  C   UNL     1       4.430  -3.948  -5.773  1.00  0.00     0.004 C 
ENDBRANCH   9  10
ENDBRANCH   8   9
ENDBRANCH   7   8
ENDBRANCH   1   7
TORSDOF 7
ENDMDL
MODEL 9
REMARK VINA RESULT:    -2.818      9.361     10.624
REMARK INTER + INTRA:          -4.250
REMARK INTER:                  -3.779
REMARK INTRA:                  -0.471
REMARK UNBOUND:                -0.279
REMARK SMILES CCCCCCCCC(=O)[O-]
REMARK SMILES IDX 6 1 7 2 8 3 9 4 10 5 11 6 5 7 4 8 3 9 2 10 1 11
REMARK H PARENT
REMARK Flexibility Score: inf
ROOT
ATOM      1  C   UNL     1      -2.879   4.213  -0.734  1.00  0.00     0.000 C 
ENDROOT
BRANCH   1   2
ATOM      2  C   UNL     1      -2.496   4.670   0.685  1.00  0.00     0.006 C 
BRANCH   2   3
ATOM      3  C   UNL     1      -2.760   6.162   0.922  1.00  0.00     0.053 C 
BRANCH   3   4
ATOM      4  C   UNL     1      -3.089   6.412   2.360  1.00  0.00     0.041 C 
ATOM      5  O   UNL     1      -3.456   7.556   2.736  1.00  0.00    -0.550 OA
ATOM      6  O   UNL     1      -3.038   5.370   3.277  1.00  0.00    -0.550 OA
ENDBRANCH   3   4
ENDBRANCH   2   3
ENDBRANCH   1   2
BRANCH   1   7
ATOM      7  C   UNL     1      -3.036   5.350  -1.762  1.00  0.00     0.000 C 
BRANCH   7   8
ATOM      8  C   UNL     1      -4.068   5.089  -2.878  1.00  0.00    -0.000 C 
BRANCH   8   9
ATOM      9  C   UNL     1      -5.367   5.906  -2.764  1.00  0.00    -0.000 C 
BRANCH   9  10
ATOM     10  C   UNL     1      -5.290   7.002  -1.691  1.00  0.00    -0.003 C 
ATOM     11  C   UNL     1      -6.680   7.516  -1.329  1.00  0.00     0.004 C 
ENDBRANCH   9  10
ENDBRANCH   8   9
ENDBRANCH   7   8
ENDBRANCH   1   7
TORSDOF 7
ENDMDL
