MODEL 1
REMARK VINA RESULT:    -3.337      0.000      0.000
REMARK INTER + INTRA:          -4.414
REMARK INTER:                  -4.312
REMARK INTRA:                  -0.102
REMARK UNBOUND:                -0.102
REMARK SMILES CCCCCCC(=O)[O-]
REMARK SMILES IDX 5 1 6 2 7 3 8 4 9 5 4 6 3 7 2 8 1 9
REMARK H PARENT
REMARK Flexibility Score: inf
ROOT
ATOM      1  C   UNL     1     153.938 132.850 164.796  1.00  0.00     0.006 C 
ENDROOT
BRANCH   1   2
ATOM      2  C   UNL     1     152.861 132.126 163.982  1.00  0.00     0.053 C 
BRANCH   2   3
ATOM      3  C   UNL     1     151.587 132.909 163.987  1.00  0.00     0.041 C 
ATOM      4  O   UNL     1     151.438 133.871 164.785  1.00  0.00    -0.550 OA
ATOM      5  O   UNL     1     150.581 132.606 163.078  1.00  0.00    -0.550 OA
ENDBRANCH   2   3
ENDBRANCH   1   2
BRANCH   1   6
ATOM      6  C   UNL     1     154.488 131.947 165.907  1.00  0.00     0.000 C 
BRANCH   6   7
ATOM      7  C   UNL     1     156.012 132.090 166.027  1.00  0.00    -0.000 C 
BRANCH   7   8
ATOM      8  C   UNL     1     156.455 132.545 167.427  1.00  0.00    -0.003 C 
ATOM      9  C   UNL     1     157.972 132.682 167.551  1.00  0.00     0.004 C 
ENDBRANCH   7   8
ENDBRANCH   6   7
ENDBRANCH   1   6
TORSDOF 5
ENDMDL
MODEL 2
REMARK VINA RESULT:    -3.310      1.842      2.927
REMARK INTER + INTRA:          -4.380
REMARK INTER:                  -4.196
REMARK INTRA:                  -0.183
REMARK UNBOUND:                -0.102
REMARK SMILES CCCCCCC(=O)[O-]
REMARK SMILES IDX 5 1 6 2 7 3 8 4 9 5 4 6 3 7 2 8 1 9
REMARK H PARENT
REMARK Flexibility Score: inf
ROOT
ATOM      1  C   UNL     1     155.797 132.378 167.071  1.00  0.00     0.006 C 
ENDROOT
BRANCH   1   2
ATOM      2  C   UNL     1     154.999 132.234 165.771  1.00  0.00     0.053 C 
BRANCH   2   3
ATOM      3  C   UNL     1     154.109 133.418 165.570  1.00  0.00     0.041 C 
ATOM      4  O   UNL     1     154.585 134.583 165.607  1.00  0.00    -0.550 OA
ATOM      5  O   UNL     1     152.760 133.236 165.292  1.00  0.00    -0.550 OA
ENDBRANCH   2   3
ENDBRANCH   1   2
BRANCH   1   6
ATOM      6  C   UNL     1     157.299 132.209 166.815  1.00  0.00     0.000 C 
BRANCH   6   7
ATOM      7  C   UNL     1     158.124 132.891 167.916  1.00  0.00    -0.000 C 
BRANCH   7   8
ATOM      8  C   UNL     1     157.328 133.088 169.216  1.00  0.00    -0.003 C 
ATOM      9  C   UNL     1     158.125 132.700 170.461  1.00  0.00     0.004 C 
ENDBRANCH   7   8
ENDBRANCH   6   7
ENDBRANCH   1   6
TORSDOF 5
ENDMDL
MODEL 3
REMARK VINA RESULT:    -3.275      2.021      2.932
REMARK INTER + INTRA:          -4.335
REMARK INTER:                  -3.999
REMARK INTRA:                  -0.335
REMARK UNBOUND:                -0.102
REMARK SMILES CCCCCCC(=O)[O-]
REMARK SMILES IDX 5 1 6 2 7 3 8 4 9 5 4 6 3 7 2 8 1 9
REMARK H PARENT
REMARK Flexibility Score: inf
ROOT
ATOM      1  C   UNL     1     155.348 132.575 167.225  1.00  0.00     0.006 C 
ENDROOT
BRANCH   1   2
ATOM      2  C   UNL     1     154.951 132.021 165.853  1.00  0.00     0.053 C 
BRANCH   2   3
ATOM      3  C   UNL     1     154.187 133.045 165.076  1.00  0.00     0.041 C 
ATOM      4  O   UNL     1     154.324 134.269 165.335  1.00  0.00    -0.550 OA
ATOM      5  O   UNL     1     153.357 132.651 164.034  1.00  0.00    -0.550 OA
ENDBRANCH   2   3
ENDBRANCH   1   2
BRANCH   1   6
ATOM      6  C   UNL     1     156.856 132.431 167.461  1.00  0.00     0.000 C 
BRANCH   6   7
ATOM      7  C   UNL     1     157.497 133.794 167.764  1.00  0.00    -0.000 C 
BRANCH   7   8
ATOM      8  C   UNL     1     156.461 134.866 168.136  1.00  0.00    -0.003 C 
ATOM      9  C   UNL     1     156.606 136.141 167.306  1.00  0.00     0.004 C 
ENDBRANCH   7   8
ENDBRANCH   6   7
ENDBRANCH   1   6
TORSDOF 5
ENDMDL
MODEL 4
REMARK VINA RESULT:    -3.272      3.198      4.454
REMARK INTER + INTRA:          -4.331
REMARK INTER:                  -4.189
REMARK INTRA:                  -0.142
REMARK UNBOUND:                -0.102
REMARK SMILES CCCCCCC(=O)[O-]
REMARK SMILES IDX 5 1 6 2 7 3 8 4 9 5 4 6 3 7 2 8 1 9
REMARK H PARENT
REMARK Flexibility Score: inf
ROOT
ATOM      1  C   UNL     1     149.989 132.814 163.252  1.00  0.00     0.006 C 
ENDROOT
BRANCH   1   2
ATOM      2  C   UNL     1     148.559 132.648 163.776  1.00  0.00     0.053 C 
BRANCH   2   3
ATOM      3  C   UNL     1     147.576 132.743 162.653  1.00  0.00     0.041 C 
ATOM      4  O   UNL     1     147.751 133.575 161.726  1.00  0.00    -0.550 OA
ATOM      5  O   UNL     1     146.489 131.879 162.606  1.00  0.00    -0.550 OA
ENDBRANCH   2   3
ENDBRANCH   1   2
BRANCH   1   6
ATOM      6  C   UNL     1     150.955 131.875 163.984  1.00  0.00     0.000 C 
BRANCH   6   7
ATOM      7  C   UNL     1     152.365 131.956 163.378  1.00  0.00    -0.000 C 
BRANCH   7   8
ATOM      8  C   UNL     1     153.456 132.142 164.444  1.00  0.00    -0.003 C 
ATOM      9  C   UNL     1     152.950 131.878 165.861  1.00  0.00     0.004 C 
ENDBRANCH   7   8
ENDBRANCH   6   7
ENDBRANCH   1   6
TORSDOF 5
ENDMDL
MODEL 5
REMARK VINA RESULT:    -3.198      2.636      4.851
REMARK INTER + INTRA:          -4.235
REMARK INTER:                  -3.967
REMARK INTRA:                  -0.268
REMARK UNBOUND:                -0.102
REMARK SMILES CCCCCCC(=O)[O-]
REMARK SMILES IDX 5 1 6 2 7 3 8 4 9 5 4 6 3 7 2 8 1 9
REMARK H PARENT
REMARK Flexibility Score: inf
ROOT
ATOM      1  C   UNL     1     153.688 132.738 164.692  1.00  0.00     0.006 C 
ENDROOT
BRANCH   1   2
ATOM      2  C   UNL     1     154.366 131.878 165.763  1.00  0.00     0.053 C 
BRANCH   2   3
ATOM      3  C   UNL     1     154.700 132.705 166.964  1.00  0.00     0.041 C 
ATOM      4  O   UNL     1     155.457 132.246 167.858  1.00  0.00    -0.550 OA
ATOM      5  O   UNL     1     154.212 134.001 167.074  1.00  0.00    -0.550 OA
ENDBRANCH   2   3
ENDBRANCH   1   2
BRANCH   1   6
ATOM      6  C   UNL     1     152.848 131.875 163.743  1.00  0.00     0.000 C 
BRANCH   6   7
ATOM      7  C   UNL     1     151.362 131.918 164.132  1.00  0.00    -0.000 C 
BRANCH   7   8
ATOM      8  C   UNL     1     150.976 133.220 164.850  1.00  0.00    -0.003 C 
ATOM      9  C   UNL     1     150.439 132.980 166.260  1.00  0.00     0.004 C 
ENDBRANCH   7   8
ENDBRANCH   6   7
ENDBRANCH   1   6
TORSDOF 5
ENDMDL
MODEL 6
REMARK VINA RESULT:    -3.154      0.958      1.391
REMARK INTER + INTRA:          -4.179
REMARK INTER:                  -4.016
REMARK INTRA:                  -0.163
REMARK UNBOUND:                -0.102
REMARK SMILES CCCCCCC(=O)[O-]
REMARK SMILES IDX 5 1 6 2 7 3 8 4 9 5 4 6 3 7 2 8 1 9
REMARK H PARENT
REMARK Flexibility Score: inf
ROOT
ATOM      1  C   UNL     1     154.111 133.171 165.408  1.00  0.00     0.006 C 
ENDROOT
BRANCH   1   2
ATOM      2  C   UNL     1     153.477 132.576 164.147  1.00  0.00     0.053 C 
BRANCH   2   3
ATOM      3  C   UNL     1     151.996 132.454 164.314  1.00  0.00     0.041 C 
ATOM      4  O   UNL     1     151.241 132.473 163.306  1.00  0.00    -0.550 OA
ATOM      5  O   UNL     1     151.451 132.272 165.578  1.00  0.00    -0.550 OA
ENDBRANCH   2   3
ENDBRANCH   1   2
BRANCH   1   6
ATOM      6  C   UNL     1     155.060 132.167 166.073  1.00  0.00     0.000 C 
BRANCH   6   7
ATOM      7  C   UNL     1     155.170 132.431 167.582  1.00  0.00    -0.000 C 
BRANCH   7   8
ATOM      8  C   UNL     1     156.566 132.923 167.996  1.00  0.00    -0.003 C 
ATOM      9  C   UNL     1     157.689 132.231 167.223  1.00  0.00     0.004 C 
ENDBRANCH   7   8
ENDBRANCH   6   7
ENDBRANCH   1   6
TORSDOF 5
ENDMDL
MODEL 7
REMARK VINA RESULT:    -3.111      3.472      5.489
REMARK INTER + INTRA:          -4.123
REMARK INTER:                  -3.784
REMARK INTRA:                  -0.339
REMARK UNBOUND:                -0.102
REMARK SMILES CCCCCCC(=O)[O-]
REMARK SMILES IDX 5 1 6 2 7 3 8 4 9 5 4 6 3 7 2 8 1 9
REMARK H PARENT
REMARK Flexibility Score: inf
ROOT
ATOM      1  C   UNL     1     157.724 133.574 167.713  1.00  0.00     0.006 C 
ENDROOT
BRANCH   1   2
ATOM      2  C   UNL     1     156.667 134.383 168.471  1.00  0.00     0.053 C 
BRANCH   2   3
ATOM      3  C   UNL     1     156.639 135.796 167.980  1.00  0.00     0.041 C 
ATOM      4  O   UNL     1     156.267 136.051 166.805  1.00  0.00    -0.550 OA
ATOM      5  O   UNL     1     156.978 136.836 168.835  1.00  0.00    -0.550 OA
ENDBRANCH   2   3
ENDBRANCH   1   2
BRANCH   1   6
ATOM      6  C   UNL     1     157.099 132.344 167.043  1.00  0.00     0.000 C 
BRANCH   6   7
ATOM      7  C   UNL     1     155.571 132.351 167.198  1.00  0.00    -0.000 C 
BRANCH   7   8
ATOM      8  C   UNL     1     154.841 132.073 165.874  1.00  0.00    -0.003 C 
ATOM      9  C   UNL     1     154.379 133.351 165.175  1.00  0.00     0.004 C 
ENDBRANCH   7   8
ENDBRANCH   6   7
ENDBRANCH   1   6
TORSDOF 5
ENDMDL
MODEL 8
REMARK VINA RESULT:    -3.098      4.615      6.527
REMARK INTER + INTRA:          -4.106
REMARK INTER:                  -4.038
REMARK INTRA:                  -0.067
REMARK UNBOUND:                -0.102
REMARK SMILES CCCCCCC(=O)[O-]
REMARK SMILES IDX 5 1 6 2 7 3 8 4 9 5 4 6 3 7 2 8 1 9
REMARK H PARENT
REMARK Flexibility Score: inf
ROOT
ATOM      1  C   UNL     1     147.857 133.049 162.295  1.00  0.00     0.006 C 
ENDROOT
BRANCH   1   2
ATOM      2  C   UNL     1     146.556 132.247 162.196  1.00  0.00     0.053 C 
BRANCH   2   3
ATOM      3  C   UNL     1     145.722 132.743 161.057  1.00  0.00     0.041 C 
ATOM      4  O   UNL     1     145.359 133.947 161.015  1.00  0.00    -0.550 OA
ATOM      5  O   UNL     1     145.384 131.885 160.018  1.00  0.00    -0.550 OA
ENDBRANCH   2   3
ENDBRANCH   1   2
BRANCH   1   6
ATOM      6  C   UNL     1     148.771 132.481 163.388  1.00  0.00     0.000 C 
BRANCH   6   7
ATOM      7  C   UNL     1     150.250 132.644 163.008  1.00  0.00    -0.000 C 
BRANCH   7   8
ATOM      8  C   UNL     1     151.202 132.106 164.088  1.00  0.00    -0.003 C 
ATOM      9  C   UNL     1     152.619 131.875 163.565  1.00  0.00     0.004 C 
ENDBRANCH   7   8
ENDBRANCH   6   7
ENDBRANCH   1   6
TORSDOF 5
ENDMDL
MODEL 9
REMARK VINA RESULT:    -3.086      3.757      5.665
REMARK INTER + INTRA:          -4.091
REMARK INTER:                  -3.980
REMARK INTRA:                  -0.111
REMARK UNBOUND:                -0.102
REMARK SMILES CCCCCCC(=O)[O-]
REMARK SMILES IDX 5 1 6 2 7 3 8 4 9 5 4 6 3 7 2 8 1 9
REMARK H PARENT
REMARK Flexibility Score: inf
ROOT
ATOM      1  C   UNL     1     155.614 132.225 166.064  1.00  0.00     0.006 C 
ENDROOT
BRANCH   1   2
ATOM      2  C   UNL     1     155.628 132.632 167.540  1.00  0.00     0.053 C 
BRANCH   2   3
ATOM      3  C   UNL     1     156.930 133.280 167.892  1.00  0.00     0.041 C 
ATOM      4  O   UNL     1     158.013 132.791 167.477  1.00  0.00    -0.550 OA
ATOM      5  O   UNL     1     156.944 134.451 168.639  1.00  0.00    -0.550 OA
ENDBRANCH   2   3
ENDBRANCH   1   2
BRANCH   1   6
ATOM      6  C   UNL     1     154.359 132.754 165.360  1.00  0.00     0.000 C 
BRANCH   6   7
ATOM      7  C   UNL     1     153.139 131.876 165.678  1.00  0.00    -0.000 C 
BRANCH   7   8
ATOM      8  C   UNL     1     151.840 132.423 165.064  1.00  0.00    -0.003 C 
ATOM      9  C   UNL     1     151.574 131.875 163.662  1.00  0.00     0.004 C 
ENDBRANCH   7   8
ENDBRANCH   6   7
ENDBRANCH   1   6
TORSDOF 5
ENDMDL
