MODEL 1
REMARK VINA RESULT:    -3.237      0.000      0.000
REMARK INTER + INTRA:          -4.428
REMARK INTER:                  -4.561
REMARK INTRA:                   0.133
REMARK UNBOUND:                 0.133
REMARK SMILES CC1=CCC(=C(C)C)C(=O)CC(C)=CCC1
REMARK SMILES IDX 12 1 14 2 13 3 15 4 16 5 2 6 1 7 3 8 11 10 9 11 10 12 5 13
REMARK SMILES IDX 6 14 7 15 8 16 4 17
REMARK H PARENT
REMARK Flexibility Score: 60.00
ROOT
ATOM      1  C   UNL     1      85.544  35.970  24.384  1.00  0.00    -0.070 C 
ATOM      2  C   UNL     1      84.413  36.133  23.652  1.00  0.00    -0.027 C 
ATOM      3  C   UNL     1      86.526  34.924  23.917  1.00  0.00     0.039 C 
ENDROOT
BRANCH   2   4
ATOM      4  C   UNL     1      83.256  37.043  23.988  1.00  0.00     0.032 C 
BRANCH   4   5
ATOM      5  C   UNL     1      82.452  36.577  25.209  1.00  0.00     0.034 C 
BRANCH   5   6
ATOM      6  C   UNL     1      82.248  37.730  26.173  1.00  0.00    -0.077 C 
ATOM      7  C   UNL     1      81.483  38.936  25.693  1.00  0.00     0.039 C 
ATOM      8  C   UNL     1      82.648  37.700  27.466  1.00  0.00    -0.023 CG0
ATOM      9  G   UNL     1      83.435  36.589  28.121  1.00  0.00     0.000 G0
ENDBRANCH   5   6
ENDBRANCH   4   5
ENDBRANCH   2   4
BRANCH   1  10
ATOM     10  C   UNL     1      85.922  36.825  25.591  1.00  0.00     0.111 C 
BRANCH  10  11
ATOM     11  C   UNL     1      85.692  36.147  26.918  1.00  0.00     0.163 C 
ATOM     12  O   UNL     1      86.198  35.002  27.084  1.00  0.00    -0.294 OA
BRANCH  11  13
ATOM     13  C   UNL     1      84.949  36.800  28.046  1.00  0.00    -0.002 C 
ATOM     14  C   UNL     1      85.617  37.520  29.001  1.00  0.00    -0.069 C 
ATOM     15  C   UNL     1      84.904  38.107  30.199  1.00  0.00     0.039 C 
ATOM     16  C   UNL     1      87.097  37.814  28.885  1.00  0.00     0.039 C 
BRANCH  13  17
ATOM     17  C   UNL     1      83.437  36.600  28.143  1.00  0.00     0.066 CG0
ATOM     18  G   UNL     1      82.670  37.697  27.443  1.00  0.00     0.000 G0
ENDBRANCH  13  17
ENDBRANCH  11  13
ENDBRANCH  10  11
ENDBRANCH   1  10
TORSDOF 0
ENDMDL
MODEL 2
REMARK VINA RESULT:    -3.236      6.584      9.213
REMARK INTER + INTRA:          -4.428
REMARK INTER:                  -4.598
REMARK INTRA:                   0.171
REMARK UNBOUND:                 0.133
REMARK SMILES CC1=CCC(=C(C)C)C(=O)CC(C)=CCC1
REMARK SMILES IDX 12 1 14 2 13 3 15 4 16 5 2 6 1 7 3 8 11 10 9 11 10 12 5 13
REMARK SMILES IDX 6 14 7 15 8 16 4 17
REMARK H PARENT
REMARK Flexibility Score: 60.00
ROOT
ATOM      1  C   UNL     1      81.237  41.529  25.395  1.00  0.00    -0.070 C 
ATOM      2  C   UNL     1      81.266  41.534  26.752  1.00  0.00    -0.027 C 
ATOM      3  C   UNL     1      81.183  40.186  24.709  1.00  0.00     0.039 C 
ENDROOT
BRANCH   2   4
ATOM      4  C   UNL     1      81.421  42.748  27.636  1.00  0.00     0.032 C 
BRANCH   4   5
ATOM      5  C   UNL     1      80.083  43.390  28.027  1.00  0.00     0.034 C 
BRANCH   5   6
ATOM      6  C   UNL     1      80.166  44.898  27.891  1.00  0.00    -0.077 C 
ATOM      7  C   UNL     1      81.047  45.655  28.851  1.00  0.00     0.039 C 
ATOM      8  C   UNL     1      79.552  45.592  26.904  1.00  0.00    -0.023 CG0
ATOM      9  G   UNL     1      78.623  45.011  25.863  1.00  0.00     0.000 G0
ENDBRANCH   5   6
ENDBRANCH   4   5
ENDBRANCH   2   4
BRANCH   1  10
ATOM     10  C   UNL     1      81.175  42.784  24.529  1.00  0.00     0.111 C 
BRANCH  10  11
ATOM     11  C   UNL     1      79.774  43.283  24.274  1.00  0.00     0.163 C 
ATOM     12  O   UNL     1      78.921  42.445  23.870  1.00  0.00    -0.294 OA
BRANCH  11  13
ATOM     13  C   UNL     1      79.357  44.700  24.537  1.00  0.00    -0.002 C 
ATOM     14  C   UNL     1      79.677  45.700  23.657  1.00  0.00    -0.069 C 
ATOM     15  C   UNL     1      79.353  47.149  23.948  1.00  0.00     0.039 C 
ATOM     16  C   UNL     1      80.326  45.407  22.322  1.00  0.00     0.039 C 
BRANCH  13  17
ATOM     17  C   UNL     1      78.618  45.017  25.836  1.00  0.00     0.066 CG0
ATOM     18  G   UNL     1      79.539  45.578  26.895  1.00  0.00     0.000 G0
ENDBRANCH  13  17
ENDBRANCH  11  13
ENDBRANCH  10  11
ENDBRANCH   1  10
TORSDOF 0
ENDMDL
MODEL 3
REMARK VINA RESULT:    -3.217      2.896      5.659
REMARK INTER + INTRA:          -4.401
REMARK INTER:                  -4.713
REMARK INTRA:                   0.311
REMARK UNBOUND:                 0.133
REMARK SMILES CC1=CCC(=C(C)C)C(=O)CC(C)=CCC1
REMARK SMILES IDX 12 1 14 2 13 3 15 4 16 5 2 6 1 7 3 8 11 10 9 11 10 12 5 13
REMARK SMILES IDX 6 14 7 15 8 16 4 17
REMARK H PARENT
REMARK Flexibility Score: 60.00
ROOT
ATOM      1  C   UNL     1      85.653  36.140  29.189  1.00  0.00    -0.070 C 
ATOM      2  C   UNL     1      85.627  35.011  29.943  1.00  0.00    -0.027 C 
ATOM      3  C   UNL     1      84.994  37.370  29.763  1.00  0.00     0.039 C 
ENDROOT
BRANCH   2   4
ATOM      4  C   UNL     1      86.130  33.650  29.528  1.00  0.00     0.032 C 
BRANCH   4   5
ATOM      5  C   UNL     1      85.333  33.035  28.370  1.00  0.00     0.034 C 
BRANCH   5   6
ATOM      6  C   UNL     1      86.276  32.420  27.353  1.00  0.00    -0.077 C 
ATOM      7  C   UNL     1      87.239  31.360  27.820  1.00  0.00     0.039 C 
ATOM      8  C   UNL     1      86.245  32.719  26.033  1.00  0.00    -0.023 CG0
ATOM      9  G   UNL     1      85.362  33.759  25.384  1.00  0.00     0.000 G0
ENDBRANCH   5   6
ENDBRANCH   4   5
ENDBRANCH   2   4
BRANCH   1  10
ATOM     10  C   UNL     1      86.370  36.265  27.848  1.00  0.00     0.111 C 
BRANCH  10  11
ATOM     11  C   UNL     1      85.483  36.016  26.653  1.00  0.00     0.163 C 
ATOM     12  O   UNL     1      84.360  36.594  26.629  1.00  0.00    -0.294 OA
BRANCH  11  13
ATOM     13  C   UNL     1      85.907  35.170  25.489  1.00  0.00    -0.002 C 
ATOM     14  C   UNL     1      86.730  35.676  24.518  1.00  0.00    -0.069 C 
ATOM     15  C   UNL     1      87.094  34.877  23.286  1.00  0.00     0.039 C 
ATOM     16  C   UNL     1      87.364  37.045  24.647  1.00  0.00     0.039 C 
BRANCH  13  17
ATOM     17  C   UNL     1      85.358  33.749  25.375  1.00  0.00     0.066 CG0
ATOM     18  G   UNL     1      86.255  32.734  26.043  1.00  0.00     0.000 G0
ENDBRANCH  13  17
ENDBRANCH  11  13
ENDBRANCH  10  11
ENDBRANCH   1  10
TORSDOF 0
ENDMDL
MODEL 4
REMARK VINA RESULT:    -3.217      3.497      4.618
REMARK INTER + INTRA:          -4.401
REMARK INTER:                  -4.598
REMARK INTRA:                   0.197
REMARK UNBOUND:                 0.133
REMARK SMILES CC1=CCC(=C(C)C)C(=O)CC(C)=CCC1
REMARK SMILES IDX 12 1 14 2 13 3 15 4 16 5 2 6 1 7 3 8 11 10 9 11 10 12 5 13
REMARK SMILES IDX 6 14 7 15 8 16 4 17
REMARK H PARENT
REMARK Flexibility Score: 60.00
ROOT
ATOM      1  C   UNL     1      86.207  33.460  28.016  1.00  0.00    -0.070 C 
ATOM      2  C   UNL     1      86.155  34.667  27.397  1.00  0.00    -0.027 C 
ATOM      3  C   UNL     1      86.154  32.231  27.140  1.00  0.00     0.039 C 
ENDROOT
BRANCH   2   4
ATOM      4  C   UNL     1      86.092  36.015  28.075  1.00  0.00     0.032 C 
BRANCH   4   5
ATOM      5  C   UNL     1      84.673  36.412  28.504  1.00  0.00     0.034 C 
BRANCH   5   6
ATOM      6  C   UNL     1      84.706  37.088  29.862  1.00  0.00    -0.077 C 
ATOM      7  C   UNL     1      85.240  38.494  29.948  1.00  0.00     0.039 C 
ATOM      8  C   UNL     1      84.209  36.523  30.987  1.00  0.00    -0.023 CG0
ATOM      9  G   UNL     1      83.649  35.124  31.099  1.00  0.00     0.000 G0
ENDBRANCH   5   6
ENDBRANCH   4   5
ENDBRANCH   2   4
BRANCH   1  10
ATOM     10  C   UNL     1      86.394  33.267  29.518  1.00  0.00     0.111 C 
BRANCH  10  11
ATOM     11  C   UNL     1      85.102  33.129  30.283  1.00  0.00     0.163 C 
ATOM     12  O   UNL     1      84.357  32.151  29.999  1.00  0.00    -0.294 OA
BRANCH  11  13
ATOM     13  C   UNL     1      84.712  34.062  31.392  1.00  0.00    -0.002 C 
ATOM     14  C   UNL     1      85.267  33.941  32.638  1.00  0.00    -0.069 C 
ATOM     15  C   UNL     1      84.820  34.805  33.796  1.00  0.00     0.039 C 
ATOM     16  C   UNL     1      86.395  32.971  32.916  1.00  0.00     0.039 C 
BRANCH  13  17
ATOM     17  C   UNL     1      83.639  35.115  31.121  1.00  0.00     0.066 CG0
ATOM     18  G   UNL     1      84.222  36.504  30.991  1.00  0.00     0.000 G0
ENDBRANCH  13  17
ENDBRANCH  11  13
ENDBRANCH  10  11
ENDBRANCH   1  10
TORSDOF 0
ENDMDL
MODEL 5
REMARK VINA RESULT:    -3.191      3.001      5.127
REMARK INTER + INTRA:          -4.364
REMARK INTER:                  -4.633
REMARK INTRA:                   0.270
REMARK UNBOUND:                 0.133
REMARK SMILES CC1=CCC(=C(C)C)C(=O)CC(C)=CCC1
REMARK SMILES IDX 12 1 14 2 13 3 15 4 16 5 2 6 1 7 3 8 11 10 9 11 10 12 5 13
REMARK SMILES IDX 6 14 7 15 8 16 4 17
REMARK H PARENT
REMARK Flexibility Score: 60.00
ROOT
ATOM      1  C   UNL     1      85.435  36.101  28.052  1.00  0.00    -0.070 C 
ATOM      2  C   UNL     1      85.682  34.776  28.212  1.00  0.00    -0.027 C 
ATOM      3  C   UNL     1      84.800  36.534  26.753  1.00  0.00     0.039 C 
ENDROOT
BRANCH   2   4
ATOM      4  C   UNL     1      86.397  34.137  29.379  1.00  0.00     0.032 C 
BRANCH   4   5
ATOM      5  C   UNL     1      85.463  33.338  30.298  1.00  0.00     0.034 C 
BRANCH   5   6
ATOM      6  C   UNL     1      85.131  34.145  31.538  1.00  0.00    -0.077 C 
ATOM      7  C   UNL     1      86.042  34.029  32.733  1.00  0.00     0.039 C 
ATOM      8  C   UNL     1      84.104  35.025  31.601  1.00  0.00    -0.023 CG0
ATOM      9  G   UNL     1      83.082  35.267  30.515  1.00  0.00     0.000 G0
ENDBRANCH   5   6
ENDBRANCH   4   5
ENDBRANCH   2   4
BRANCH   1  10
ATOM     10  C   UNL     1      85.680  37.160  29.123  1.00  0.00     0.111 C 
BRANCH  10  11
ATOM     11  C   UNL     1      84.492  37.412  30.019  1.00  0.00     0.163 C 
ATOM     12  O   UNL     1      84.596  38.326  30.882  1.00  0.00    -0.294 OA
BRANCH  11  13
ATOM     13  C   UNL     1      83.197  36.666  29.878  1.00  0.00    -0.002 C 
ATOM     14  C   UNL     1      82.125  37.238  29.247  1.00  0.00    -0.069 C 
ATOM     15  C   UNL     1      80.781  36.547  29.178  1.00  0.00     0.039 C 
ATOM     16  C   UNL     1      82.236  38.571  28.538  1.00  0.00     0.039 C 
BRANCH  13  17
ATOM     17  C   UNL     1      83.078  35.278  30.504  1.00  0.00     0.066 CG0
ATOM     18  G   UNL     1      84.114  35.046  31.580  1.00  0.00     0.000 G0
ENDBRANCH  13  17
ENDBRANCH  11  13
ENDBRANCH  10  11
ENDBRANCH   1  10
TORSDOF 0
ENDMDL
MODEL 6
REMARK VINA RESULT:    -3.161      1.845      2.492
REMARK INTER + INTRA:          -4.322
REMARK INTER:                  -4.506
REMARK INTRA:                   0.184
REMARK UNBOUND:                 0.133
REMARK SMILES CC1=CCC(=C(C)C)C(=O)CC(C)=CCC1
REMARK SMILES IDX 12 1 14 2 13 3 15 4 16 5 2 6 1 7 3 8 11 10 9 11 10 12 5 13
REMARK SMILES IDX 6 14 7 15 8 16 4 17
REMARK H PARENT
REMARK Flexibility Score: 60.00
ROOT
ATOM      1  C   UNL     1      82.875  36.803  24.978  1.00  0.00    -0.070 C 
ATOM      2  C   UNL     1      82.056  37.808  24.575  1.00  0.00    -0.027 C 
ATOM      3  C   UNL     1      82.781  35.493  24.235  1.00  0.00     0.039 C 
ENDROOT
BRANCH   2   4
ATOM      4  C   UNL     1      81.910  39.158  25.234  1.00  0.00     0.032 C 
BRANCH   4   5
ATOM      5  C   UNL     1      80.937  39.153  26.420  1.00  0.00     0.034 C 
BRANCH   5   6
ATOM      6  C   UNL     1      81.499  39.974  27.564  1.00  0.00    -0.077 C 
ATOM      7  C   UNL     1      81.477  41.476  27.444  1.00  0.00     0.039 C 
ATOM      8  C   UNL     1      81.949  39.432  28.720  1.00  0.00    -0.023 CG0
ATOM      9  G   UNL     1      82.060  37.955  29.017  1.00  0.00     0.000 G0
ENDBRANCH   5   6
ENDBRANCH   4   5
ENDBRANCH   2   4
BRANCH   1  10
ATOM     10  C   UNL     1      83.932  36.937  26.071  1.00  0.00     0.111 C 
BRANCH  10  11
ATOM     11  C   UNL     1      83.475  36.459  27.427  1.00  0.00     0.163 C 
ATOM     12  O   UNL     1      83.184  35.237  27.548  1.00  0.00    -0.294 OA
BRANCH  11  13
ATOM     13  C   UNL     1      83.415  37.359  28.627  1.00  0.00    -0.002 C 
ATOM     14  C   UNL     1      84.538  37.611  29.370  1.00  0.00    -0.069 C 
ATOM     15  C   UNL     1      84.485  38.434  30.638  1.00  0.00     0.039 C 
ATOM     16  C   UNL     1      85.904  37.122  28.939  1.00  0.00     0.039 C 
BRANCH  13  17
ATOM     17  C   UNL     1      82.066  37.944  29.038  1.00  0.00     0.066 CG0
ATOM     18  G   UNL     1      81.959  39.416  28.715  1.00  0.00     0.000 G0
ENDBRANCH  13  17
ENDBRANCH  11  13
ENDBRANCH  10  11
ENDBRANCH   1  10
TORSDOF 0
ENDMDL
MODEL 7
REMARK VINA RESULT:    -3.051      1.256      3.875
REMARK INTER + INTRA:          -4.166
REMARK INTER:                  -4.852
REMARK INTRA:                   0.686
REMARK UNBOUND:                 0.133
REMARK SMILES CC1=CCC(=C(C)C)C(=O)CC(C)=CCC1
REMARK SMILES IDX 12 1 14 2 13 3 15 4 16 5 2 6 1 7 3 8 11 10 9 11 10 12 5 13
REMARK SMILES IDX 6 14 7 15 8 16 4 17
REMARK H PARENT
REMARK Flexibility Score: 60.00
ROOT
ATOM      1  C   UNL     1      85.860  37.396  29.149  1.00  0.00    -0.070 C 
ATOM      2  C   UNL     1      85.240  38.370  29.863  1.00  0.00    -0.027 C 
ATOM      3  C   UNL     1      87.063  37.797  28.332  1.00  0.00     0.039 C 
ENDROOT
BRANCH   2   4
ATOM      4  C   UNL     1      83.969  38.217  30.664  1.00  0.00     0.032 C 
BRANCH   4   5
ATOM      5  C   UNL     1      82.930  37.313  29.987  1.00  0.00     0.034 C 
BRANCH   5   6
ATOM      6  C   UNL     1      82.362  37.996  28.758  1.00  0.00    -0.077 C 
ATOM      7  C   UNL     1      81.878  39.417  28.889  1.00  0.00     0.039 C 
ATOM      8  C   UNL     1      82.338  37.424  27.531  1.00  0.00    -0.023 CG0
ATOM      9  G   UNL     1      82.765  36.011  27.208  1.00  0.00     0.000 G0
ENDBRANCH   5   6
ENDBRANCH   4   5
ENDBRANCH   2   4
BRANCH   1  10
ATOM     10  C   UNL     1      85.470  35.921  29.184  1.00  0.00     0.111 C 
BRANCH  10  11
ATOM     11  C   UNL     1      85.217  35.322  27.823  1.00  0.00     0.163 C 
ATOM     12  O   UNL     1      85.812  34.246  27.538  1.00  0.00    -0.294 OA
BRANCH  11  13
ATOM     13  C   UNL     1      84.253  35.920  26.840  1.00  0.00    -0.002 C 
ATOM     14  C   UNL     1      84.695  36.430  25.648  1.00  0.00    -0.069 C 
ATOM     15  C   UNL     1      83.758  37.125  24.684  1.00  0.00     0.039 C 
ATOM     16  C   UNL     1      86.135  36.285  25.204  1.00  0.00     0.039 C 
BRANCH  13  17
ATOM     17  C   UNL     1      82.776  36.000  27.217  1.00  0.00     0.066 CG0
ATOM     18  G   UNL     1      82.344  37.413  27.535  1.00  0.00     0.000 G0
ENDBRANCH  13  17
ENDBRANCH  11  13
ENDBRANCH  10  11
ENDBRANCH   1  10
TORSDOF 0
ENDMDL
MODEL 8
REMARK VINA RESULT:    -3.050      3.577      6.411
REMARK INTER + INTRA:          -4.165
REMARK INTER:                  -4.402
REMARK INTRA:                   0.237
REMARK UNBOUND:                 0.133
REMARK SMILES CC1=CCC(=C(C)C)C(=O)CC(C)=CCC1
REMARK SMILES IDX 12 1 14 2 13 3 15 4 16 5 2 6 1 7 3 8 11 10 9 11 10 12 5 13
REMARK SMILES IDX 6 14 7 15 8 16 4 17
REMARK H PARENT
REMARK Flexibility Score: 60.00
ROOT
ATOM      1  C   UNL     1      85.492  34.342  28.848  1.00  0.00    -0.070 C 
ATOM      2  C   UNL     1      86.109  33.240  29.347  1.00  0.00    -0.027 C 
ATOM      3  C   UNL     1      84.375  34.941  29.668  1.00  0.00     0.039 C 
ENDROOT
BRANCH   2   4
ATOM      4  C   UNL     1      87.173  32.424  28.655  1.00  0.00     0.032 C 
BRANCH   4   5
ATOM      5  C   UNL     1      86.611  31.463  27.599  1.00  0.00     0.034 C 
BRANCH   5   6
ATOM      6  C   UNL     1      87.521  31.426  26.386  1.00  0.00    -0.077 C 
ATOM      7  C   UNL     1      88.876  30.783  26.528  1.00  0.00     0.039 C 
ATOM      8  C   UNL     1      87.150  31.871  25.163  1.00  0.00    -0.023 CG0
ATOM      9  G   UNL     1      85.843  32.555  24.831  1.00  0.00     0.000 G0
ENDBRANCH   5   6
ENDBRANCH   4   5
ENDBRANCH   2   4
BRANCH   1  10
ATOM     10  C   UNL     1      85.906  35.055  27.564  1.00  0.00     0.111 C 
BRANCH  10  11
ATOM     11  C   UNL     1      85.173  34.577  26.335  1.00  0.00     0.163 C 
ATOM     12  O   UNL     1      83.914  34.664  26.335  1.00  0.00    -0.294 OA
BRANCH  11  13
ATOM     13  C   UNL     1      85.882  34.070  25.113  1.00  0.00    -0.002 C 
ATOM     14  C   UNL     1      86.508  34.936  24.257  1.00  0.00    -0.069 C 
ATOM     15  C   UNL     1      87.146  34.461  22.969  1.00  0.00     0.039 C 
ATOM     16  C   UNL     1      86.643  36.410  24.573  1.00  0.00     0.039 C 
BRANCH  13  17
ATOM     17  C   UNL     1      85.844  32.573  24.811  1.00  0.00     0.066 CG0
ATOM     18  G   UNL     1      87.140  31.885  25.171  1.00  0.00     0.000 G0
ENDBRANCH  13  17
ENDBRANCH  11  13
ENDBRANCH  10  11
ENDBRANCH   1  10
TORSDOF 0
ENDMDL
MODEL 9
REMARK VINA RESULT:    -3.039      2.679      4.846
REMARK INTER + INTRA:          -4.150
REMARK INTER:                  -4.330
REMARK INTRA:                   0.180
REMARK UNBOUND:                 0.133
REMARK SMILES CC1=CCC(=C(C)C)C(=O)CC(C)=CCC1
REMARK SMILES IDX 12 1 14 2 13 3 15 4 16 5 2 6 1 7 3 8 11 10 9 11 10 12 5 13
REMARK SMILES IDX 6 14 7 15 8 16 4 17
REMARK H PARENT
REMARK Flexibility Score: 60.00
ROOT
ATOM      1  C   UNL     1      86.987  37.267  26.115  1.00  0.00    -0.070 C 
ATOM      2  C   UNL     1      87.029  36.927  27.429  1.00  0.00    -0.027 C 
ATOM      3  C   UNL     1      88.185  37.990  25.549  1.00  0.00     0.039 C 
ENDROOT
BRANCH   2   4
ATOM      4  C   UNL     1      85.911  36.295  28.223  1.00  0.00     0.032 C 
BRANCH   4   5
ATOM      5  C   UNL     1      85.875  34.765  28.107  1.00  0.00     0.034 C 
BRANCH   5   6
ATOM      6  C   UNL     1      84.455  34.292  27.862  1.00  0.00    -0.077 C 
ATOM      7  C   UNL     1      83.428  34.520  28.941  1.00  0.00     0.039 C 
ATOM      8  C   UNL     1      84.044  33.745  26.694  1.00  0.00    -0.023 CG0
ATOM      9  G   UNL     1      84.926  33.427  25.509  1.00  0.00     0.000 G0
ENDBRANCH   5   6
ENDBRANCH   4   5
ENDBRANCH   2   4
BRANCH   1  10
ATOM     10  C   UNL     1      85.853  36.896  25.164  1.00  0.00     0.111 C 
BRANCH  10  11
ATOM     11  C   UNL     1      86.029  35.557  24.493  1.00  0.00     0.163 C 
ATOM     12  O   UNL     1      87.158  35.299  23.992  1.00  0.00    -0.294 OA
BRANCH  11  13
ATOM     13  C   UNL     1      84.946  34.519  24.457  1.00  0.00    -0.002 C 
ATOM     14  C   UNL     1      83.947  34.581  23.521  1.00  0.00    -0.069 C 
ATOM     15  C   UNL     1      82.792  33.604  23.524  1.00  0.00     0.039 C 
ATOM     16  C   UNL     1      83.969  35.598  22.401  1.00  0.00     0.039 C 
BRANCH  13  17
ATOM     17  C   UNL     1      84.945  33.422  25.520  1.00  0.00     0.066 CG0
ATOM     18  G   UNL     1      84.043  33.757  26.685  1.00  0.00     0.000 G0
ENDBRANCH  13  17
ENDBRANCH  11  13
ENDBRANCH  10  11
ENDBRANCH   1  10
TORSDOF 0
ENDMDL
