MODEL 1
REMARK VINA RESULT:    -6.772      0.000      0.000
REMARK INTER + INTRA:          -8.470
REMARK INTER:                  -8.157
REMARK INTRA:                  -0.313
REMARK UNBOUND:                -0.313
REMARK SMILES O=c1c(O)c(-c2ccc(O)c(O)c2)oc2cc(O)cc(O)c12
REMARK SMILES IDX 5 1 3 2 2 3 1 4 22 5 20 6 19 7 17 8 16 9 15 10 14 11 6 12
REMARK SMILES IDX 7 13 8 14 9 15 13 16 11 17 10 18 12 20 4 22 21 24 18 26
REMARK H PARENT 10 19 12 21 4 23 21 25 18 27
REMARK Flexibility Score: inf
ROOT
ATOM      1  C   UNL     1     -12.025  55.695  17.675  1.00  0.00     0.180 A 
ATOM      2  C   UNL     1     -11.866  54.473  16.999  1.00  0.00     0.208 A 
ATOM      3  C   UNL     1     -10.922  54.384  15.964  1.00  0.00     0.238 A 
ATOM      4  O   UNL     1     -10.823  53.304  15.326  1.00  0.00    -0.285 OA
ATOM      5  C   UNL     1     -10.137  55.514  15.628  1.00  0.00     0.111 A 
ATOM      6  C   UNL     1      -9.123  55.526  14.623  1.00  0.00     0.134 A 
ATOM      7  C   UNL     1      -8.500  56.735  14.287  1.00  0.00     0.093 A 
ATOM      8  C   UNL     1      -8.809  57.917  14.963  1.00  0.00     0.123 A 
ATOM      9  C   UNL     1      -9.754  57.904  15.985  1.00  0.00     0.094 A 
ATOM     10  C   UNL     1     -10.419  56.721  16.320  1.00  0.00     0.146 A 
ATOM     11  O   UNL     1     -11.321  56.754  17.293  1.00  0.00    -0.452 OA
ENDROOT
BRANCH   1  12
ATOM     12  C   UNL     1     -12.981  55.858  18.794  1.00  0.00     0.025 A 
ATOM     13  C   UNL     1     -12.665  55.434  20.096  1.00  0.00     0.016 A 
ATOM     14  C   UNL     1     -13.574  55.619  21.141  1.00  0.00     0.051 A 
ATOM     15  C   UNL     1     -14.806  56.243  20.904  1.00  0.00     0.157 A 
ATOM     16  C   UNL     1     -14.208  56.502  18.565  1.00  0.00     0.062 A 
ATOM     17  C   UNL     1     -15.123  56.689  19.609  1.00  0.00     0.158 A 
BRANCH  15  18
ATOM     18  O   UNL     1     -15.712  56.426  21.947  1.00  0.00    -0.504 OA
ATOM     19  H   UNL     1     -15.401  56.537  22.905  1.00  0.00     0.293 HD
ENDBRANCH  15  18
BRANCH  17  20
ATOM     20  O   UNL     1     -16.337  57.320  19.342  1.00  0.00    -0.504 OA
ATOM     21  H   UNL     1     -16.786  57.261  18.436  1.00  0.00     0.293 HD
ENDBRANCH  17  20
ENDBRANCH   1  12
BRANCH   2  22
ATOM     22  O   UNL     1     -12.666  53.376  17.333  1.00  0.00    -0.502 OA
ATOM     23  H   UNL     1     -13.661  53.462  17.508  1.00  0.00     0.293 HD
ENDBRANCH   2  22
BRANCH   6  24
ATOM     24  O   UNL     1      -8.675  54.386  13.953  1.00  0.00    -0.507 OA
ATOM     25  H   UNL     1      -8.184  54.393  13.070  1.00  0.00     0.293 HD
ENDBRANCH   6  24
BRANCH   8  26
ATOM     26  O   UNL     1      -8.172  59.112  14.632  1.00  0.00    -0.508 OA
ATOM     27  H   UNL     1      -7.705  59.676  15.332  1.00  0.00     0.293 HD
ENDBRANCH   8  26
TORSDOF 6
ENDMDL
MODEL 2
REMARK VINA RESULT:    -6.738      1.818      2.298
REMARK INTER + INTRA:          -8.429
REMARK INTER:                  -8.494
REMARK INTRA:                   0.064
REMARK UNBOUND:                -0.313
REMARK SMILES O=c1c(O)c(-c2ccc(O)c(O)c2)oc2cc(O)cc(O)c12
REMARK SMILES IDX 5 1 3 2 2 3 1 4 22 5 20 6 19 7 17 8 16 9 15 10 14 11 6 12
REMARK SMILES IDX 7 13 8 14 9 15 13 16 11 17 10 18 12 20 4 22 21 24 18 26
REMARK H PARENT 10 19 12 21 4 23 21 25 18 27
REMARK Flexibility Score: inf
ROOT
ATOM      1  C   UNL     1     -13.533  55.366  18.206  1.00  0.00     0.180 A 
ATOM      2  C   UNL     1     -12.711  54.324  17.743  1.00  0.00     0.208 A 
ATOM      3  C   UNL     1     -11.618  54.635  16.919  1.00  0.00     0.238 A 
ATOM      4  O   UNL     1     -10.918  53.694  16.462  1.00  0.00    -0.285 OA
ATOM      5  C   UNL     1     -11.351  55.984  16.582  1.00  0.00     0.111 A 
ATOM      6  C   UNL     1     -10.247  56.417  15.787  1.00  0.00     0.134 A 
ATOM      7  C   UNL     1     -10.155  57.763  15.409  1.00  0.00     0.093 A 
ATOM      8  C   UNL     1     -11.090  58.700  15.851  1.00  0.00     0.123 A 
ATOM      9  C   UNL     1     -12.137  58.299  16.676  1.00  0.00     0.094 A 
ATOM     10  C   UNL     1     -12.276  56.957  17.041  1.00  0.00     0.146 A 
ATOM     11  O   UNL     1     -13.295  56.613  17.820  1.00  0.00    -0.452 OA
ENDROOT
BRANCH   1  12
ATOM     12  C   UNL     1     -14.689  55.120  19.100  1.00  0.00     0.025 A 
ATOM     13  C   UNL     1     -15.612  54.093  18.837  1.00  0.00     0.016 A 
ATOM     14  C   UNL     1     -16.682  53.864  19.707  1.00  0.00     0.051 A 
ATOM     15  C   UNL     1     -16.836  54.647  20.859  1.00  0.00     0.157 A 
ATOM     16  C   UNL     1     -14.836  55.888  20.266  1.00  0.00     0.062 A 
ATOM     17  C   UNL     1     -15.906  55.663  21.140  1.00  0.00     0.158 A 
BRANCH  15  18
ATOM     18  O   UNL     1     -17.904  54.418  21.724  1.00  0.00    -0.504 OA
ATOM     19  H   UNL     1     -18.859  54.376  21.388  1.00  0.00     0.293 HD
ENDBRANCH  15  18
BRANCH  17  20
ATOM     20  O   UNL     1     -16.028  56.455  22.281  1.00  0.00    -0.504 OA
ATOM     21  H   UNL     1     -15.316  57.122  22.552  1.00  0.00     0.293 HD
ENDBRANCH  17  20
ENDBRANCH   1  12
BRANCH   2  22
ATOM     22  O   UNL     1     -13.006  52.998  18.070  1.00  0.00    -0.502 OA
ATOM     23  H   UNL     1     -13.070  52.675  19.029  1.00  0.00     0.293 HD
ENDBRANCH   2  22
BRANCH   6  24
ATOM     24  O   UNL     1      -9.209  55.580  15.370  1.00  0.00    -0.507 OA
ATOM     25  H   UNL     1      -8.830  55.556  14.435  1.00  0.00     0.293 HD
ENDBRANCH   6  24
BRANCH   8  26
ATOM     26  O   UNL     1     -10.981  60.040  15.483  1.00  0.00    -0.508 OA
ATOM     27  H   UNL     1     -11.689  60.719  15.736  1.00  0.00     0.293 HD
ENDBRANCH   8  26
TORSDOF 6
ENDMDL
MODEL 3
REMARK VINA RESULT:    -6.733      2.471      7.584
REMARK INTER + INTRA:          -8.424
REMARK INTER:                  -8.671
REMARK INTRA:                   0.247
REMARK UNBOUND:                -0.313
REMARK SMILES O=c1c(O)c(-c2ccc(O)c(O)c2)oc2cc(O)cc(O)c12
REMARK SMILES IDX 5 1 3 2 2 3 1 4 22 5 20 6 19 7 17 8 16 9 15 10 14 11 6 12
REMARK SMILES IDX 7 13 8 14 9 15 13 16 11 17 10 18 12 20 4 22 21 24 18 26
REMARK H PARENT 10 19 12 21 4 23 21 25 18 27
REMARK Flexibility Score: inf
ROOT
ATOM      1  C   UNL     1     -13.385  54.842  18.370  1.00  0.00     0.180 A 
ATOM      2  C   UNL     1     -13.400  55.525  19.599  1.00  0.00     0.208 A 
ATOM      3  C   UNL     1     -14.515  55.388  20.441  1.00  0.00     0.238 A 
ATOM      4  O   UNL     1     -14.546  56.044  21.514  1.00  0.00    -0.285 OA
ATOM      5  C   UNL     1     -15.594  54.559  20.051  1.00  0.00     0.111 A 
ATOM      6  C   UNL     1     -16.757  54.316  20.843  1.00  0.00     0.134 A 
ATOM      7  C   UNL     1     -17.820  53.582  20.302  1.00  0.00     0.093 A 
ATOM      8  C   UNL     1     -17.735  53.028  19.023  1.00  0.00     0.123 A 
ATOM      9  C   UNL     1     -16.581  53.209  18.265  1.00  0.00     0.094 A 
ATOM     10  C   UNL     1     -15.518  53.967  18.763  1.00  0.00     0.146 A 
ATOM     11  O   UNL     1     -14.440  54.124  18.004  1.00  0.00    -0.452 OA
ENDROOT
BRANCH   1  12
ATOM     12  C   UNL     1     -12.234  54.916  17.442  1.00  0.00     0.025 A 
ATOM     13  C   UNL     1     -11.858  53.816  16.652  1.00  0.00     0.016 A 
ATOM     14  C   UNL     1     -10.782  53.917  15.766  1.00  0.00     0.051 A 
ATOM     15  C   UNL     1     -10.075  55.121  15.645  1.00  0.00     0.157 A 
ATOM     16  C   UNL     1     -11.536  56.127  17.302  1.00  0.00     0.062 A 
ATOM     17  C   UNL     1     -10.457  56.232  16.416  1.00  0.00     0.158 A 
BRANCH  15  18
ATOM     18  O   UNL     1      -9.002  55.219  14.761  1.00  0.00    -0.504 OA
ATOM     19  H   UNL     1      -8.047  55.074  15.069  1.00  0.00     0.293 HD
ENDBRANCH  15  18
BRANCH  17  20
ATOM     20  O   UNL     1      -9.779  57.447  16.314  1.00  0.00    -0.504 OA
ATOM     21  H   UNL     1      -9.355  57.755  15.449  1.00  0.00     0.293 HD
ENDBRANCH  17  20
ENDBRANCH   1  12
BRANCH   2  22
ATOM     22  O   UNL     1     -12.333  56.355  19.954  1.00  0.00    -0.502 OA
ATOM     23  H   UNL     1     -11.871  56.962  19.287  1.00  0.00     0.293 HD
ENDBRANCH   2  22
BRANCH   6  24
ATOM     24  O   UNL     1     -16.904  54.745  22.164  1.00  0.00    -0.507 OA
ATOM     25  H   UNL     1     -16.486  55.580  22.548  1.00  0.00     0.293 HD
ENDBRANCH   6  24
BRANCH   8  26
ATOM     26  O   UNL     1     -18.792  52.286  18.498  1.00  0.00    -0.508 OA
ATOM     27  H   UNL     1     -18.748  51.276  18.431  1.00  0.00     0.293 HD
ENDBRANCH   8  26
TORSDOF 6
ENDMDL
MODEL 4
REMARK VINA RESULT:    -6.642      1.792      7.175
REMARK INTER + INTRA:          -8.314
REMARK INTER:                  -8.192
REMARK INTRA:                  -0.123
REMARK UNBOUND:                -0.313
REMARK SMILES O=c1c(O)c(-c2ccc(O)c(O)c2)oc2cc(O)cc(O)c12
REMARK SMILES IDX 5 1 3 2 2 3 1 4 22 5 20 6 19 7 17 8 16 9 15 10 14 11 6 12
REMARK SMILES IDX 7 13 8 14 9 15 13 16 11 17 10 18 12 20 4 22 21 24 18 26
REMARK H PARENT 10 19 12 21 4 23 21 25 18 27
REMARK Flexibility Score: inf
ROOT
ATOM      1  C   UNL     1     -12.772  56.806  17.830  1.00  0.00     0.180 A 
ATOM      2  C   UNL     1     -12.525  56.441  19.165  1.00  0.00     0.208 A 
ATOM      3  C   UNL     1     -13.609  56.100  19.989  1.00  0.00     0.238 A 
ATOM      4  O   UNL     1     -13.388  55.827  21.198  1.00  0.00    -0.285 OA
ATOM      5  C   UNL     1     -14.924  56.112  19.464  1.00  0.00     0.111 A 
ATOM      6  C   UNL     1     -16.093  55.746  20.197  1.00  0.00     0.134 A 
ATOM      7  C   UNL     1     -17.356  55.921  19.616  1.00  0.00     0.093 A 
ATOM      8  C   UNL     1     -17.487  56.387  18.306  1.00  0.00     0.123 A 
ATOM      9  C   UNL     1     -16.350  56.690  17.561  1.00  0.00     0.094 A 
ATOM     10  C   UNL     1     -15.079  56.560  18.126  1.00  0.00     0.146 A 
ATOM     11  O   UNL     1     -14.021  56.871  17.385  1.00  0.00    -0.452 OA
ENDROOT
BRANCH   1  12
ATOM     12  C   UNL     1     -11.678  57.153  16.893  1.00  0.00     0.025 A 
ATOM     13  C   UNL     1     -11.573  58.437  16.334  1.00  0.00     0.016 A 
ATOM     14  C   UNL     1     -10.519  58.749  15.470  1.00  0.00     0.051 A 
ATOM     15  C   UNL     1      -9.547  57.786  15.166  1.00  0.00     0.157 A 
ATOM     16  C   UNL     1     -10.690  56.198  16.601  1.00  0.00     0.062 A 
ATOM     17  C   UNL     1      -9.633  56.505  15.737  1.00  0.00     0.158 A 
BRANCH  15  18
ATOM     18  O   UNL     1      -8.497  58.099  14.303  1.00  0.00    -0.504 OA
ATOM     19  H   UNL     1      -7.761  57.432  14.102  1.00  0.00     0.293 HD
ENDBRANCH  15  18
BRANCH  17  20
ATOM     20  O   UNL     1      -8.678  55.527  15.459  1.00  0.00    -0.504 OA
ATOM     21  H   UNL     1      -8.820  54.554  15.698  1.00  0.00     0.293 HD
ENDBRANCH  17  20
ENDBRANCH   1  12
BRANCH   2  22
ATOM     22  O   UNL     1     -11.222  56.456  19.668  1.00  0.00    -0.502 OA
ATOM     23  H   UNL     1     -10.678  55.611  19.797  1.00  0.00     0.293 HD
ENDBRANCH   2  22
BRANCH   6  24
ATOM     24  O   UNL     1     -16.068  55.185  21.476  1.00  0.00    -0.507 OA
ATOM     25  H   UNL     1     -16.758  55.357  22.194  1.00  0.00     0.293 HD
ENDBRANCH   6  24
BRANCH   8  26
ATOM     26  O   UNL     1     -18.747  56.542  17.730  1.00  0.00    -0.508 OA
ATOM     27  H   UNL     1     -19.110  55.874  17.061  1.00  0.00     0.293 HD
ENDBRANCH   8  26
TORSDOF 6
ENDMDL
MODEL 5
REMARK VINA RESULT:    -6.580      1.479      2.998
REMARK INTER + INTRA:          -8.240
REMARK INTER:                  -7.980
REMARK INTRA:                  -0.260
REMARK UNBOUND:                -0.313
REMARK SMILES O=c1c(O)c(-c2ccc(O)c(O)c2)oc2cc(O)cc(O)c12
REMARK SMILES IDX 5 1 3 2 2 3 1 4 22 5 20 6 19 7 17 8 16 9 15 10 14 11 6 12
REMARK SMILES IDX 7 13 8 14 9 15 13 16 11 17 10 18 12 20 4 22 21 24 18 26
REMARK H PARENT 10 19 12 21 4 23 21 25 18 27
REMARK Flexibility Score: inf
ROOT
ATOM      1  C   UNL     1     -12.552  56.070  17.508  1.00  0.00     0.180 A 
ATOM      2  C   UNL     1     -12.067  57.236  16.889  1.00  0.00     0.208 A 
ATOM      3  C   UNL     1     -11.269  57.115  15.741  1.00  0.00     0.238 A 
ATOM      4  O   UNL     1     -10.793  58.158  15.222  1.00  0.00    -0.285 OA
ATOM      5  C   UNL     1     -10.980  55.832  15.216  1.00  0.00     0.111 A 
ATOM      6  C   UNL     1     -10.215  55.593  14.034  1.00  0.00     0.134 A 
ATOM      7  C   UNL     1      -9.882  54.279  13.681  1.00  0.00     0.093 A 
ATOM      8  C   UNL     1     -10.341  53.194  14.431  1.00  0.00     0.123 A 
ATOM      9  C   UNL     1     -11.137  53.414  15.551  1.00  0.00     0.094 A 
ATOM     10  C   UNL     1     -11.456  54.714  15.949  1.00  0.00     0.146 A 
ATOM     11  O   UNL     1     -12.210  54.880  17.030  1.00  0.00    -0.452 OA
ENDROOT
BRANCH   1  12
ATOM     12  C   UNL     1     -13.420  56.119  18.707  1.00  0.00     0.025 A 
ATOM     13  C   UNL     1     -12.917  55.834  19.988  1.00  0.00     0.016 A 
ATOM     14  C   UNL     1     -13.750  55.909  21.108  1.00  0.00     0.051 A 
ATOM     15  C   UNL     1     -15.093  56.283  20.966  1.00  0.00     0.157 A 
ATOM     16  C   UNL     1     -14.762  56.513  18.573  1.00  0.00     0.062 A 
ATOM     17  C   UNL     1     -15.600  56.588  19.692  1.00  0.00     0.158 A 
BRANCH  15  18
ATOM     18  O   UNL     1     -15.923  56.355  22.084  1.00  0.00    -0.504 OA
ATOM     19  H   UNL     1     -15.982  55.594  22.750  1.00  0.00     0.293 HD
ENDBRANCH  15  18
BRANCH  17  20
ATOM     20  O   UNL     1     -16.930  56.970  19.518  1.00  0.00    -0.504 OA
ATOM     21  H   UNL     1     -17.286  57.851  19.866  1.00  0.00     0.293 HD
ENDBRANCH  17  20
ENDBRANCH   1  12
BRANCH   2  22
ATOM     22  O   UNL     1     -12.347  58.491  17.436  1.00  0.00    -0.502 OA
ATOM     23  H   UNL     1     -12.756  58.604  18.357  1.00  0.00     0.293 HD
ENDBRANCH   2  22
BRANCH   6  24
ATOM     24  O   UNL     1      -9.787  56.600  13.166  1.00  0.00    -0.507 OA
ATOM     25  H   UNL     1      -9.451  56.445  12.226  1.00  0.00     0.293 HD
ENDBRANCH   6  24
BRANCH   8  26
ATOM     26  O   UNL     1     -10.018  51.889  14.062  1.00  0.00    -0.508 OA
ATOM     27  H   UNL     1      -9.123  51.662  13.645  1.00  0.00     0.293 HD
ENDBRANCH   8  26
TORSDOF 6
ENDMDL
MODEL 6
REMARK VINA RESULT:    -6.429      2.076      3.256
REMARK INTER + INTRA:          -8.058
REMARK INTER:                  -7.834
REMARK INTRA:                  -0.224
REMARK UNBOUND:                -0.313
REMARK SMILES O=c1c(O)c(-c2ccc(O)c(O)c2)oc2cc(O)cc(O)c12
REMARK SMILES IDX 5 1 3 2 2 3 1 4 22 5 20 6 19 7 17 8 16 9 15 10 14 11 6 12
REMARK SMILES IDX 7 13 8 14 9 15 13 16 11 17 10 18 12 20 4 22 21 24 18 26
REMARK H PARENT 10 19 12 21 4 23 21 25 18 27
REMARK Flexibility Score: inf
ROOT
ATOM      1  C   UNL     1     -13.827  56.316  17.726  1.00  0.00     0.180 A 
ATOM      2  C   UNL     1     -14.262  57.420  16.973  1.00  0.00     0.208 A 
ATOM      3  C   UNL     1     -13.414  57.948  15.987  1.00  0.00     0.238 A 
ATOM      4  O   UNL     1     -13.786  58.970  15.353  1.00  0.00    -0.285 OA
ATOM      5  C   UNL     1     -12.149  57.356  15.755  1.00  0.00     0.111 A 
ATOM      6  C   UNL     1     -11.225  57.785  14.755  1.00  0.00     0.134 A 
ATOM      7  C   UNL     1      -9.949  57.209  14.702  1.00  0.00     0.093 A 
ATOM      8  C   UNL     1      -9.588  56.177  15.572  1.00  0.00     0.123 A 
ATOM      9  C   UNL     1     -10.503  55.712  16.512  1.00  0.00     0.094 A 
ATOM     10  C   UNL     1     -11.771  56.291  16.613  1.00  0.00     0.146 A 
ATOM     11  O   UNL     1     -12.610  55.825  17.530  1.00  0.00    -0.452 OA
ENDROOT
BRANCH   1  12
ATOM     12  C   UNL     1     -14.676  55.688  18.765  1.00  0.00     0.025 A 
ATOM     13  C   UNL     1     -15.229  54.408  18.584  1.00  0.00     0.016 A 
ATOM     14  C   UNL     1     -16.007  53.826  19.588  1.00  0.00     0.051 A 
ATOM     15  C   UNL     1     -16.233  54.507  20.792  1.00  0.00     0.157 A 
ATOM     16  C   UNL     1     -14.888  56.358  19.981  1.00  0.00     0.062 A 
ATOM     17  C   UNL     1     -15.668  55.778  20.989  1.00  0.00     0.158 A 
BRANCH  15  18
ATOM     18  O   UNL     1     -17.011  53.925  21.791  1.00  0.00    -0.504 OA
ATOM     19  H   UNL     1     -16.601  53.593  22.657  1.00  0.00     0.293 HD
ENDBRANCH  15  18
BRANCH  17  20
ATOM     20  O   UNL     1     -15.868  56.479  22.179  1.00  0.00    -0.504 OA
ATOM     21  H   UNL     1     -15.435  57.377  22.353  1.00  0.00     0.293 HD
ENDBRANCH  17  20
ENDBRANCH   1  12
BRANCH   2  22
ATOM     22  O   UNL     1     -15.506  58.002  17.232  1.00  0.00    -0.502 OA
ATOM     23  H   UNL     1     -16.234  57.522  17.749  1.00  0.00     0.293 HD
ENDBRANCH   2  22
BRANCH   6  24
ATOM     24  O   UNL     1     -11.518  58.742  13.780  1.00  0.00    -0.507 OA
ATOM     25  H   UNL     1     -10.972  59.574  13.609  1.00  0.00     0.293 HD
ENDBRANCH   6  24
BRANCH   8  26
ATOM     26  O   UNL     1      -8.321  55.600  15.501  1.00  0.00    -0.508 OA
ATOM     27  H   UNL     1      -7.489  56.112  15.770  1.00  0.00     0.293 HD
ENDBRANCH   8  26
TORSDOF 6
ENDMDL
MODEL 7
REMARK VINA RESULT:    -6.425      2.653      6.518
REMARK INTER + INTRA:          -8.053
REMARK INTER:                  -7.772
REMARK INTRA:                  -0.281
REMARK UNBOUND:                -0.313
REMARK SMILES O=c1c(O)c(-c2ccc(O)c(O)c2)oc2cc(O)cc(O)c12
REMARK SMILES IDX 5 1 3 2 2 3 1 4 22 5 20 6 19 7 17 8 16 9 15 10 14 11 6 12
REMARK SMILES IDX 7 13 8 14 9 15 13 16 11 17 10 18 12 20 4 22 21 24 18 26
REMARK H PARENT 10 19 12 21 4 23 21 25 18 27
REMARK Flexibility Score: inf
ROOT
ATOM      1  C   UNL     1     -13.165  56.827  17.296  1.00  0.00     0.180 A 
ATOM      2  C   UNL     1     -14.483  56.416  17.558  1.00  0.00     0.208 A 
ATOM      3  C   UNL     1     -14.736  55.613  18.681  1.00  0.00     0.238 A 
ATOM      4  O   UNL     1     -15.909  55.202  18.880  1.00  0.00    -0.285 OA
ATOM      5  C   UNL     1     -13.670  55.246  19.538  1.00  0.00     0.111 A 
ATOM      6  C   UNL     1     -13.817  54.468  20.727  1.00  0.00     0.134 A 
ATOM      7  C   UNL     1     -12.677  54.055  21.427  1.00  0.00     0.093 A 
ATOM      8  C   UNL     1     -11.400  54.446  21.018  1.00  0.00     0.123 A 
ATOM      9  C   UNL     1     -11.249  55.253  19.894  1.00  0.00     0.094 A 
ATOM     10  C   UNL     1     -12.366  55.651  19.154  1.00  0.00     0.146 A 
ATOM     11  O   UNL     1     -12.178  56.412  18.082  1.00  0.00    -0.452 OA
ENDROOT
BRANCH   1  12
ATOM     12  C   UNL     1     -12.824  57.696  16.146  1.00  0.00     0.025 A 
ATOM     13  C   UNL     1     -13.118  59.070  16.154  1.00  0.00     0.016 A 
ATOM     14  C   UNL     1     -12.766  59.874  15.066  1.00  0.00     0.051 A 
ATOM     15  C   UNL     1     -12.103  59.321  13.963  1.00  0.00     0.157 A 
ATOM     16  C   UNL     1     -12.141  57.150  15.047  1.00  0.00     0.062 A 
ATOM     17  C   UNL     1     -11.788  57.952  13.955  1.00  0.00     0.158 A 
BRANCH  15  18
ATOM     18  O   UNL     1     -11.755  60.125  12.878  1.00  0.00    -0.504 OA
ATOM     19  H   UNL     1     -10.901  60.671  12.877  1.00  0.00     0.293 HD
ENDBRANCH  15  18
BRANCH  17  20
ATOM     20  O   UNL     1     -11.123  57.372  12.875  1.00  0.00    -0.504 OA
ATOM     21  H   UNL     1     -10.667  56.470  12.945  1.00  0.00     0.293 HD
ENDBRANCH  17  20
ENDBRANCH   1  12
BRANCH   2  22
ATOM     22  O   UNL     1     -15.516  56.772  16.687  1.00  0.00    -0.502 OA
ATOM     23  H   UNL     1     -15.853  56.151  15.959  1.00  0.00     0.293 HD
ENDBRANCH   2  22
BRANCH   6  24
ATOM     24  O   UNL     1     -15.050  54.103  21.273  1.00  0.00    -0.507 OA
ATOM     25  H   UNL     1     -15.220  53.945  22.255  1.00  0.00     0.293 HD
ENDBRANCH   6  24
BRANCH   8  26
ATOM     26  O   UNL     1     -10.271  54.043  21.730  1.00  0.00    -0.508 OA
ATOM     27  H   UNL     1     -10.293  53.928  22.737  1.00  0.00     0.293 HD
ENDBRANCH   8  26
TORSDOF 6
ENDMDL
MODEL 8
REMARK VINA RESULT:    -6.363      1.749      6.912
REMARK INTER + INTRA:          -7.978
REMARK INTER:                  -7.655
REMARK INTRA:                  -0.323
REMARK UNBOUND:                -0.313
REMARK SMILES O=c1c(O)c(-c2ccc(O)c(O)c2)oc2cc(O)cc(O)c12
REMARK SMILES IDX 5 1 3 2 2 3 1 4 22 5 20 6 19 7 17 8 16 9 15 10 14 11 6 12
REMARK SMILES IDX 7 13 8 14 9 15 13 16 11 17 10 18 12 20 4 22 21 24 18 26
REMARK H PARENT 10 19 12 21 4 23 21 25 18 27
REMARK Flexibility Score: inf
ROOT
ATOM      1  C   UNL     1     -12.297  55.636  17.507  1.00  0.00     0.180 A 
ATOM      2  C   UNL     1     -12.079  55.391  18.874  1.00  0.00     0.208 A 
ATOM      3  C   UNL     1     -13.069  55.759  19.798  1.00  0.00     0.238 A 
ATOM      4  O   UNL     1     -12.846  55.587  21.025  1.00  0.00    -0.285 OA
ATOM      5  C   UNL     1     -14.272  56.352  19.343  1.00  0.00     0.111 A 
ATOM      6  C   UNL     1     -15.360  56.729  20.187  1.00  0.00     0.134 A 
ATOM      7  C   UNL     1     -16.446  57.427  19.643  1.00  0.00     0.093 A 
ATOM      8  C   UNL     1     -16.511  57.704  18.276  1.00  0.00     0.123 A 
ATOM      9  C   UNL     1     -15.483  57.289  17.434  1.00  0.00     0.094 A 
ATOM     10  C   UNL     1     -14.370  56.622  17.953  1.00  0.00     0.146 A 
ATOM     11  O   UNL     1     -13.405  56.253  17.118  1.00  0.00    -0.452 OA
ENDROOT
BRANCH   1  12
ATOM     12  C   UNL     1     -11.310  55.252  16.472  1.00  0.00     0.025 A 
ATOM     13  C   UNL     1     -10.280  56.124  16.082  1.00  0.00     0.016 A 
ATOM     14  C   UNL     1      -9.346  55.731  15.119  1.00  0.00     0.051 A 
ATOM     15  C   UNL     1      -9.419  54.456  14.542  1.00  0.00     0.157 A 
ATOM     16  C   UNL     1     -11.367  53.967  15.907  1.00  0.00     0.062 A 
ATOM     17  C   UNL     1     -10.434  53.569  14.941  1.00  0.00     0.158 A 
BRANCH  15  18
ATOM     18  O   UNL     1      -8.488  54.067  13.581  1.00  0.00    -0.504 OA
ATOM     19  H   UNL     1      -8.630  54.261  12.597  1.00  0.00     0.293 HD
ENDBRANCH  15  18
BRANCH  17  20
ATOM     20  O   UNL     1     -10.530  52.291  14.392  1.00  0.00    -0.504 OA
ATOM     21  H   UNL     1     -11.202  52.065  13.669  1.00  0.00     0.293 HD
ENDBRANCH  17  20
ENDBRANCH   1  12
BRANCH   2  22
ATOM     22  O   UNL     1     -10.876  54.823  19.304  1.00  0.00    -0.502 OA
ATOM     23  H   UNL     1     -10.115  55.379  19.677  1.00  0.00     0.293 HD
ENDBRANCH   2  22
BRANCH   6  24
ATOM     24  O   UNL     1     -15.436  56.419  21.547  1.00  0.00    -0.507 OA
ATOM     25  H   UNL     1     -15.407  57.098  22.294  1.00  0.00     0.293 HD
ENDBRANCH   6  24
BRANCH   8  26
ATOM     26  O   UNL     1     -17.604  58.385  17.741  1.00  0.00    -0.508 OA
ATOM     27  H   UNL     1     -17.969  59.225  18.175  1.00  0.00     0.293 HD
ENDBRANCH   8  26
TORSDOF 6
ENDMDL
MODEL 9
REMARK VINA RESULT:    -6.239      2.574      3.735
REMARK INTER + INTRA:          -7.828
REMARK INTER:                  -7.670
REMARK INTRA:                  -0.158
REMARK UNBOUND:                -0.313
REMARK SMILES O=c1c(O)c(-c2ccc(O)c(O)c2)oc2cc(O)cc(O)c12
REMARK SMILES IDX 5 1 3 2 2 3 1 4 22 5 20 6 19 7 17 8 16 9 15 10 14 11 6 12
REMARK SMILES IDX 7 13 8 14 9 15 13 16 11 17 10 18 12 20 4 22 21 24 18 26
REMARK H PARENT 10 19 12 21 4 23 21 25 18 27
REMARK Flexibility Score: inf
ROOT
ATOM      1  C   UNL     1     -12.199  56.445  17.754  1.00  0.00     0.180 A 
ATOM      2  C   UNL     1     -13.235  57.345  17.454  1.00  0.00     0.208 A 
ATOM      3  C   UNL     1     -13.135  58.138  16.300  1.00  0.00     0.238 A 
ATOM      4  O   UNL     1     -14.039  58.982  16.064  1.00  0.00    -0.285 OA
ATOM      5  C   UNL     1     -12.009  58.008  15.452  1.00  0.00     0.111 A 
ATOM      6  C   UNL     1     -11.822  58.732  14.235  1.00  0.00     0.134 A 
ATOM      7  C   UNL     1     -10.609  58.620  13.545  1.00  0.00     0.093 A 
ATOM      8  C   UNL     1      -9.603  57.761  13.992  1.00  0.00     0.123 A 
ATOM      9  C   UNL     1      -9.798  57.006  15.145  1.00  0.00     0.094 A 
ATOM     10  C   UNL     1     -10.983  57.124  15.875  1.00  0.00     0.146 A 
ATOM     11  O   UNL     1     -11.125  56.393  16.975  1.00  0.00    -0.452 OA
ENDROOT
BRANCH   1  12
ATOM     12  C   UNL     1     -12.246  55.557  18.939  1.00  0.00     0.025 A 
ATOM     13  C   UNL     1     -13.261  54.599  19.097  1.00  0.00     0.016 A 
ATOM     14  C   UNL     1     -13.272  53.757  20.213  1.00  0.00     0.051 A 
ATOM     15  C   UNL     1     -12.261  53.850  21.178  1.00  0.00     0.157 A 
ATOM     16  C   UNL     1     -11.223  55.633  19.899  1.00  0.00     0.062 A 
ATOM     17  C   UNL     1     -11.230  54.792  21.019  1.00  0.00     0.158 A 
BRANCH  15  18
ATOM     18  O   UNL     1     -12.274  53.010  22.291  1.00  0.00    -0.504 OA
ATOM     19  H   UNL     1     -11.681  52.190  22.342  1.00  0.00     0.293 HD
ENDBRANCH  15  18
BRANCH  17  20
ATOM     20  O   UNL     1     -10.206  54.905  21.958  1.00  0.00    -0.504 OA
ATOM     21  H   UNL     1     -10.303  55.468  22.794  1.00  0.00     0.293 HD
ENDBRANCH  17  20
ENDBRANCH   1  12
BRANCH   2  22
ATOM     22  O   UNL     1     -14.328  57.472  18.316  1.00  0.00    -0.502 OA
ATOM     23  H   UNL     1     -14.283  57.211  19.293  1.00  0.00     0.293 HD
ENDBRANCH   2  22
BRANCH   6  24
ATOM     24  O   UNL     1     -12.798  59.545  13.654  1.00  0.00    -0.507 OA
ATOM     25  H   UNL     1     -13.477  60.087  14.168  1.00  0.00     0.293 HD
ENDBRANCH   6  24
BRANCH   8  26
ATOM     26  O   UNL     1      -8.405  57.644  13.289  1.00  0.00    -0.508 OA
ATOM     27  H   UNL     1      -8.030  56.740  13.027  1.00  0.00     0.293 HD
ENDBRANCH   8  26
TORSDOF 6
ENDMDL
