MODEL 1
REMARK VINA RESULT:    -6.396      0.000      0.000
REMARK INTER + INTRA:         -10.443
REMARK INTER:                  -9.013
REMARK INTRA:                  -1.430
REMARK UNBOUND:                -1.430
REMARK SMILES COc1c(O[C@@H]2O[C@@H](C(=O)[O-])[C@H](O)[C@H](O)[C@@H]2O)cc(O)c2c(=O)cc(-c3ccccc3)oc12
REMARK SMILES IDX 5 1 6 2 8 3 12 4 7 5 14 6 16 7 9 8 10 9 11 10 13 11 15 13
REMARK SMILES IDX 17 15 4 17 3 18 18 19 33 20 19 21 21 22 32 23 22 24 25 25
REMARK SMILES IDX 24 26 23 27 2 28 1 29 20 30 26 32 27 33 31 34 28 35 30 36
REMARK SMILES IDX 29 37
REMARK H PARENT 13 12 15 14 17 16 20 31
REMARK Flexibility Score: inf
ROOT
ATOM      1  O   UNL     1     199.198 191.489 211.096  1.00  0.00    -0.458 OA
ENDROOT
BRANCH   1   2
ATOM      2  C   UNL     1     199.852 192.738 210.813  1.00  0.00     0.339 C 
ATOM      3  C   UNL     1     200.692 191.988 208.744  1.00  0.00     0.199 C 
ATOM      4  C   UNL     1     202.160 192.046 209.213  1.00  0.00     0.180 C 
ATOM      5  O   UNL     1     199.900 192.960 209.412  1.00  0.00    -0.328 OA
ATOM      6  C   UNL     1     202.227 191.837 210.738  1.00  0.00     0.181 C 
ATOM      7  C   UNL     1     201.273 192.819 211.429  1.00  0.00     0.214 C 
BRANCH   3   8
ATOM      8  C   UNL     1     200.614 192.243 207.268  1.00  0.00     0.073 C 
ATOM      9  O   UNL     1     200.259 193.371 206.834  1.00  0.00    -0.547 OA
ATOM     10  O   UNL     1     200.968 191.244 206.369  1.00  0.00    -0.547 OA
ENDBRANCH   3   8
BRANCH   4  11
ATOM     11  O   UNL     1     202.912 191.060 208.554  1.00  0.00    -0.387 OA
ATOM     12  H   UNL     1     202.276 190.344 208.290  1.00  0.00     0.211 HD
ENDBRANCH   4  11
BRANCH   6  13
ATOM     13  O   UNL     1     201.879 190.515 211.073  1.00  0.00    -0.387 OA
ATOM     14  H   UNL     1     202.699 190.079 211.422  1.00  0.00     0.211 HD
ENDBRANCH   6  13
BRANCH   7  15
ATOM     15  O   UNL     1     201.250 192.558 212.808  1.00  0.00    -0.384 OA
ATOM     16  H   UNL     1     201.431 193.420 213.267  1.00  0.00     0.211 HD
ENDBRANCH   7  15
ENDBRANCH   1   2
BRANCH   1  17
ATOM     17  C   UNL     1     197.952 191.316 211.729  1.00  0.00     0.172 A 
ATOM     18  C   UNL     1     196.854 190.872 210.965  1.00  0.00     0.205 A 
ATOM     19  C   UNL     1     197.769 191.559 213.101  1.00  0.00     0.097 A 
ATOM     20  C   UNL     1     195.642 190.557 211.596  1.00  0.00     0.188 A 
ATOM     21  C   UNL     1     196.546 191.311 213.732  1.00  0.00     0.134 A 
ATOM     22  C   UNL     1     195.476 190.741 212.991  1.00  0.00     0.111 A 
ATOM     23  O   UNL     1     194.645 190.084 210.853  1.00  0.00    -0.452 OA
ATOM     24  C   UNL     1     194.252 190.311 213.555  1.00  0.00     0.197 A 
ATOM     25  C   UNL     1     193.462 189.734 211.346  1.00  0.00     0.138 A 
ATOM     26  C   UNL     1     193.241 189.824 212.727  1.00  0.00     0.100 A 
ATOM     27  O   UNL     1     194.054 190.317 214.798  1.00  0.00    -0.289 OA
BRANCH  18  28
ATOM     28  O   UNL     1     196.930 190.705 209.576  1.00  0.00    -0.490 OA
ATOM     29  C   UNL     1     196.692 191.754 208.642  1.00  0.00     0.278 C 
ENDBRANCH  18  28
BRANCH  21  30
ATOM     30  O   UNL     1     196.450 191.674 215.079  1.00  0.00    -0.507 OA
ATOM     31  H   UNL     1     196.270 192.611 215.406  1.00  0.00     0.293 HD
ENDBRANCH  21  30
BRANCH  25  32
ATOM     32  C   UNL     1     192.420 189.232 210.414  1.00  0.00     0.017 A 
ATOM     33  C   UNL     1     191.599 188.133 210.741  1.00  0.00     0.012 A 
ATOM     34  C   UNL     1     192.219 189.885 209.184  1.00  0.00     0.012 A 
ATOM     35  C   UNL     1     190.618 187.692 209.847  1.00  0.00     0.001 A 
ATOM     36  C   UNL     1     191.237 189.438 208.294  1.00  0.00     0.001 A 
ATOM     37  C   UNL     1     190.439 188.341 208.624  1.00  0.00     0.000 A 
ENDBRANCH  25  32
ENDBRANCH   1  17
TORSDOF 9
ENDMDL
MODEL 2
REMARK VINA RESULT:    -6.226      2.874     10.030
REMARK INTER + INTRA:         -10.204
REMARK INTER:                  -8.768
REMARK INTRA:                  -1.436
REMARK UNBOUND:                -1.430
REMARK SMILES COc1c(O[C@@H]2O[C@@H](C(=O)[O-])[C@H](O)[C@H](O)[C@@H]2O)cc(O)c2c(=O)cc(-c3ccccc3)oc12
REMARK SMILES IDX 5 1 6 2 8 3 12 4 7 5 14 6 16 7 9 8 10 9 11 10 13 11 15 13
REMARK SMILES IDX 17 15 4 17 3 18 18 19 33 20 19 21 21 22 32 23 22 24 25 25
REMARK SMILES IDX 24 26 23 27 2 28 1 29 20 30 26 32 27 33 31 34 28 35 30 36
REMARK SMILES IDX 29 37
REMARK H PARENT 13 12 15 14 17 16 20 31
REMARK Flexibility Score: inf
ROOT
ATOM      1  O   UNL     1     199.165 191.455 210.656  1.00  0.00    -0.458 OA
ENDROOT
BRANCH   1   2
ATOM      2  C   UNL     1     197.887 192.089 210.478  1.00  0.00     0.339 C 
ATOM      3  C   UNL     1     197.338 191.941 212.763  1.00  0.00     0.199 C 
ATOM      4  C   UNL     1     196.179 190.954 212.517  1.00  0.00     0.180 C 
ATOM      5  O   UNL     1     197.525 192.803 211.650  1.00  0.00    -0.328 OA
ATOM      6  C   UNL     1     196.457 190.132 211.245  1.00  0.00     0.181 C 
ATOM      7  C   UNL     1     196.773 191.084 210.083  1.00  0.00     0.214 C 
BRANCH   3   8
ATOM      8  C   UNL     1     197.050 192.781 213.973  1.00  0.00     0.073 C 
ATOM      9  O   UNL     1     195.861 193.006 214.323  1.00  0.00    -0.547 OA
ATOM     10  O   UNL     1     198.096 193.287 214.734  1.00  0.00    -0.547 OA
ENDBRANCH   3   8
BRANCH   4  11
ATOM     11  O   UNL     1     196.034 190.100 213.624  1.00  0.00    -0.387 OA
ATOM     12  H   UNL     1     196.109 190.669 214.435  1.00  0.00     0.211 HD
ENDBRANCH   4  11
BRANCH   6  13
ATOM     13  O   UNL     1     197.535 189.251 211.448  1.00  0.00    -0.387 OA
ATOM     14  H   UNL     1     198.182 189.716 212.041  1.00  0.00     0.211 HD
ENDBRANCH   6  13
BRANCH   7  15
ATOM     15  O   UNL     1     197.133 190.337 208.950  1.00  0.00    -0.384 OA
ATOM     16  H   UNL     1     196.446 190.518 208.256  1.00  0.00     0.211 HD
ENDBRANCH   7  15
ENDBRANCH   1   2
BRANCH   1  17
ATOM     17  C   UNL     1     200.360 191.764 209.980  1.00  0.00     0.172 A 
ATOM     18  C   UNL     1     201.453 192.264 210.716  1.00  0.00     0.205 A 
ATOM     19  C   UNL     1     200.505 191.580 208.593  1.00  0.00     0.097 A 
ATOM     20  C   UNL     1     202.695 192.447 210.093  1.00  0.00     0.188 A 
ATOM     21  C   UNL     1     201.721 191.819 207.946  1.00  0.00     0.134 A 
ATOM     22  C   UNL     1     202.859 192.199 208.707  1.00  0.00     0.111 A 
ATOM     23  O   UNL     1     203.720 192.863 210.831  1.00  0.00    -0.452 OA
ATOM     24  C   UNL     1     204.167 192.322 208.183  1.00  0.00     0.197 A 
ATOM     25  C   UNL     1     204.945 193.050 210.351  1.00  0.00     0.138 A 
ATOM     26  C   UNL     1     205.204 192.764 209.004  1.00  0.00     0.100 A 
ATOM     27  O   UNL     1     204.441 192.006 206.996  1.00  0.00    -0.289 OA
BRANCH  18  28
ATOM     28  O   UNL     1     201.355 192.571 212.080  1.00  0.00    -0.490 OA
ATOM     29  C   UNL     1     200.842 193.803 212.577  1.00  0.00     0.278 C 
ENDBRANCH  18  28
BRANCH  21  30
ATOM     30  O   UNL     1     201.727 191.691 206.554  1.00  0.00    -0.507 OA
ATOM     31  H   UNL     1     202.411 191.163 206.033  1.00  0.00     0.293 HD
ENDBRANCH  21  30
BRANCH  25  32
ATOM     32  C   UNL     1     206.006 193.533 211.272  1.00  0.00     0.017 A 
ATOM     33  C   UNL     1     205.811 194.654 212.105  1.00  0.00     0.012 A 
ATOM     34  C   UNL     1     207.228 192.839 211.346  1.00  0.00     0.012 A 
ATOM     35  C   UNL     1     206.825 195.077 212.970  1.00  0.00     0.001 A 
ATOM     36  C   UNL     1     208.237 193.267 212.213  1.00  0.00     0.001 A 
ATOM     37  C   UNL     1     208.037 194.387 213.023  1.00  0.00     0.000 A 
ENDBRANCH  25  32
ENDBRANCH   1  17
TORSDOF 9
ENDMDL
MODEL 3
REMARK VINA RESULT:    -6.137      2.827      9.915
REMARK INTER + INTRA:         -10.078
REMARK INTER:                  -8.675
REMARK INTRA:                  -1.403
REMARK UNBOUND:                -1.430
REMARK SMILES COc1c(O[C@@H]2O[C@@H](C(=O)[O-])[C@H](O)[C@H](O)[C@@H]2O)cc(O)c2c(=O)cc(-c3ccccc3)oc12
REMARK SMILES IDX 5 1 6 2 8 3 12 4 7 5 14 6 16 7 9 8 10 9 11 10 13 11 15 13
REMARK SMILES IDX 17 15 4 17 3 18 18 19 33 20 19 21 21 22 32 23 22 24 25 25
REMARK SMILES IDX 24 26 23 27 2 28 1 29 20 30 26 32 27 33 31 34 28 35 30 36
REMARK SMILES IDX 29 37
REMARK H PARENT 13 12 15 14 17 16 20 31
REMARK Flexibility Score: inf
ROOT
ATOM      1  O   UNL     1     199.005 191.422 210.311  1.00  0.00    -0.458 OA
ENDROOT
BRANCH   1   2
ATOM      2  C   UNL     1     197.730 192.089 210.302  1.00  0.00     0.339 C 
ATOM      3  C   UNL     1     197.519 192.014 212.647  1.00  0.00     0.199 C 
ATOM      4  C   UNL     1     196.312 191.055 212.601  1.00  0.00     0.180 C 
ATOM      5  O   UNL     1     197.562 192.842 211.494  1.00  0.00    -0.328 OA
ATOM      6  C   UNL     1     196.380 190.194 211.326  1.00  0.00     0.181 C 
ATOM      7  C   UNL     1     196.546 191.106 210.104  1.00  0.00     0.214 C 
BRANCH   3   8
ATOM      8  C   UNL     1     197.432 192.892 213.860  1.00  0.00     0.073 C 
ATOM      9  O   UNL     1     196.314 193.157 214.375  1.00  0.00    -0.547 OA
ATOM     10  O   UNL     1     198.591 193.390 214.443  1.00  0.00    -0.547 OA
ENDBRANCH   3   8
BRANCH   4  11
ATOM     11  O   UNL     1     196.309 190.234 213.741  1.00  0.00    -0.387 OA
ATOM     12  H   UNL     1     197.259 190.041 213.956  1.00  0.00     0.211 HD
ENDBRANCH   4  11
BRANCH   6  13
ATOM     13  O   UNL     1     197.454 189.288 211.395  1.00  0.00    -0.387 OA
ATOM     14  H   UNL     1     197.528 188.998 212.342  1.00  0.00     0.211 HD
ENDBRANCH   6  13
BRANCH   7  15
ATOM     15  O   UNL     1     196.717 190.322 208.952  1.00  0.00    -0.384 OA
ATOM     16  H   UNL     1     195.855 190.339 208.461  1.00  0.00     0.211 HD
ENDBRANCH   7  15
ENDBRANCH   1   2
BRANCH   1  17
ATOM     17  C   UNL     1     200.070 191.632 209.415  1.00  0.00     0.172 A 
ATOM     18  C   UNL     1     201.347 191.931 209.930  1.00  0.00     0.205 A 
ATOM     19  C   UNL     1     199.907 191.541 208.022  1.00  0.00     0.097 A 
ATOM     20  C   UNL     1     202.452 192.005 209.070  1.00  0.00     0.188 A 
ATOM     21  C   UNL     1     200.988 191.676 207.146  1.00  0.00     0.134 A 
ATOM     22  C   UNL     1     202.297 191.849 207.670  1.00  0.00     0.111 A 
ATOM     23  O   UNL     1     203.652 192.231 209.597  1.00  0.00    -0.452 OA
ATOM     24  C   UNL     1     203.478 191.848 206.890  1.00  0.00     0.197 A 
ATOM     25  C   UNL     1     204.769 192.300 208.881  1.00  0.00     0.138 A 
ATOM     26  C   UNL     1     204.710 192.090 207.497  1.00  0.00     0.100 A 
ATOM     27  O   UNL     1     203.460 191.595 205.658  1.00  0.00    -0.289 OA
BRANCH  18  28
ATOM     28  O   UNL     1     201.569 192.139 211.298  1.00  0.00    -0.490 OA
ATOM     29  C   UNL     1     201.267 193.359 211.970  1.00  0.00     0.278 C 
ENDBRANCH  18  28
BRANCH  21  30
ATOM     30  O   UNL     1     200.696 191.658 205.779  1.00  0.00    -0.507 OA
ATOM     31  H   UNL     1     201.068 190.986 205.126  1.00  0.00     0.293 HD
ENDBRANCH  21  30
BRANCH  25  32
ATOM     32  C   UNL     1     206.050 192.572 209.582  1.00  0.00     0.017 A 
ATOM     33  C   UNL     1     206.094 192.853 210.963  1.00  0.00     0.012 A 
ATOM     34  C   UNL     1     207.259 192.516 208.864  1.00  0.00     0.012 A 
ATOM     35  C   UNL     1     207.318 193.092 211.598  1.00  0.00     0.001 A 
ATOM     36  C   UNL     1     208.478 192.757 209.503  1.00  0.00     0.001 A 
ATOM     37  C   UNL     1     208.508 193.047 210.869  1.00  0.00     0.000 A 
ENDBRANCH  25  32
ENDBRANCH   1  17
TORSDOF 9
ENDMDL
MODEL 4
REMARK VINA RESULT:    -5.996      4.709     11.628
REMARK INTER + INTRA:          -9.879
REMARK INTER:                  -8.593
REMARK INTRA:                  -1.286
REMARK UNBOUND:                -1.430
REMARK SMILES COc1c(O[C@@H]2O[C@@H](C(=O)[O-])[C@H](O)[C@H](O)[C@@H]2O)cc(O)c2c(=O)cc(-c3ccccc3)oc12
REMARK SMILES IDX 5 1 6 2 8 3 12 4 7 5 14 6 16 7 9 8 10 9 11 10 13 11 15 13
REMARK SMILES IDX 17 15 4 17 3 18 18 19 33 20 19 21 21 22 32 23 22 24 25 25
REMARK SMILES IDX 24 26 23 27 2 28 1 29 20 30 26 32 27 33 31 34 28 35 30 36
REMARK SMILES IDX 29 37
REMARK H PARENT 13 12 15 14 17 16 20 31
REMARK Flexibility Score: inf
ROOT
ATOM      1  O   UNL     1     202.367 191.656 207.746  1.00  0.00    -0.458 OA
ENDROOT
BRANCH   1   2
ATOM      2  C   UNL     1     201.465 192.741 207.468  1.00  0.00     0.339 C 
ATOM      3  C   UNL     1     199.780 191.883 208.874  1.00  0.00     0.199 C 
ATOM      4  C   UNL     1     198.813 191.608 207.704  1.00  0.00     0.180 C 
ATOM      5  O   UNL     1     200.630 192.985 208.591  1.00  0.00    -0.328 OA
ATOM      6  C   UNL     1     199.617 191.348 206.416  1.00  0.00     0.181 C 
ATOM      7  C   UNL     1     200.612 192.495 206.196  1.00  0.00     0.214 C 
BRANCH   3   8
ATOM      8  C   UNL     1     199.004 192.188 210.121  1.00  0.00     0.073 C 
ATOM      9  O   UNL     1     197.772 192.443 210.058  1.00  0.00    -0.547 OA
ATOM     10  O   UNL     1     199.635 192.158 211.358  1.00  0.00    -0.547 OA
ENDBRANCH   3   8
BRANCH   4  11
ATOM     11  O   UNL     1     198.002 190.501 208.002  1.00  0.00    -0.387 OA
ATOM     12  H   UNL     1     198.448 189.706 207.608  1.00  0.00     0.211 HD
ENDBRANCH   4  11
BRANCH   6  13
ATOM     13  O   UNL     1     200.307 190.125 206.500  1.00  0.00    -0.387 OA
ATOM     14  H   UNL     1     200.842 190.037 205.669  1.00  0.00     0.211 HD
ENDBRANCH   6  13
BRANCH   7  15
ATOM     15  O   UNL     1     201.420 192.208 205.084  1.00  0.00    -0.384 OA
ATOM     16  H   UNL     1     200.939 192.547 204.284  1.00  0.00     0.211 HD
ENDBRANCH   7  15
ENDBRANCH   1   2
BRANCH   1  17
ATOM     17  C   UNL     1     203.769 191.675 207.625  1.00  0.00     0.172 A 
ATOM     18  C   UNL     1     204.529 192.362 208.593  1.00  0.00     0.205 A 
ATOM     19  C   UNL     1     204.439 191.022 206.576  1.00  0.00     0.097 A 
ATOM     20  C   UNL     1     205.928 192.279 208.575  1.00  0.00     0.188 A 
ATOM     21  C   UNL     1     205.835 190.985 206.508  1.00  0.00     0.134 A 
ATOM     22  C   UNL     1     206.604 191.565 207.552  1.00  0.00     0.111 A 
ATOM     23  O   UNL     1     206.613 192.890 209.538  1.00  0.00    -0.452 OA
ATOM     24  C   UNL     1     208.010 191.459 207.666  1.00  0.00     0.197 A 
ATOM     25  C   UNL     1     207.938 192.861 209.632  1.00  0.00     0.138 A 
ATOM     26  C   UNL     1     208.675 192.121 208.697  1.00  0.00     0.100 A 
ATOM     27  O   UNL     1     208.688 190.746 206.881  1.00  0.00    -0.289 OA
BRANCH  18  28
ATOM     28  O   UNL     1     203.933 193.120 209.609  1.00  0.00    -0.490 OA
ATOM     29  C   UNL     1     203.395 192.557 210.801  1.00  0.00     0.278 C 
ENDBRANCH  18  28
BRANCH  21  30
ATOM     30  O   UNL     1     206.394 190.386 205.375  1.00  0.00    -0.507 OA
ATOM     31  H   UNL     1     207.384 190.322 205.193  1.00  0.00     0.293 HD
ENDBRANCH  21  30
BRANCH  25  32
ATOM     32  C   UNL     1     208.590 193.595 210.745  1.00  0.00     0.017 A 
ATOM     33  C   UNL     1     208.360 193.253 212.095  1.00  0.00     0.012 A 
ATOM     34  C   UNL     1     209.489 194.638 210.456  1.00  0.00     0.012 A 
ATOM     35  C   UNL     1     209.000 193.955 213.121  1.00  0.00     0.001 A 
ATOM     36  C   UNL     1     210.124 195.337 211.486  1.00  0.00     0.001 A 
ATOM     37  C   UNL     1     209.878 194.997 212.819  1.00  0.00     0.000 A 
ENDBRANCH  25  32
ENDBRANCH   1  17
TORSDOF 9
ENDMDL
MODEL 5
REMARK VINA RESULT:    -5.874      1.501      3.301
REMARK INTER + INTRA:          -9.708
REMARK INTER:                  -8.541
REMARK INTRA:                  -1.167
REMARK UNBOUND:                -1.430
REMARK SMILES COc1c(O[C@@H]2O[C@@H](C(=O)[O-])[C@H](O)[C@H](O)[C@@H]2O)cc(O)c2c(=O)cc(-c3ccccc3)oc12
REMARK SMILES IDX 5 1 6 2 8 3 12 4 7 5 14 6 16 7 9 8 10 9 11 10 13 11 15 13
REMARK SMILES IDX 17 15 4 17 3 18 18 19 33 20 19 21 21 22 32 23 22 24 25 25
REMARK SMILES IDX 24 26 23 27 2 28 1 29 20 30 26 32 27 33 31 34 28 35 30 36
REMARK SMILES IDX 29 37
REMARK H PARENT 13 12 15 14 17 16 20 31
REMARK Flexibility Score: inf
ROOT
ATOM      1  O   UNL     1     199.241 191.475 210.555  1.00  0.00    -0.458 OA
ENDROOT
BRANCH   1   2
ATOM      2  C   UNL     1     199.869 192.766 210.644  1.00  0.00     0.339 C 
ATOM      3  C   UNL     1     201.227 192.389 208.756  1.00  0.00     0.199 C 
ATOM      4  C   UNL     1     202.532 192.394 209.578  1.00  0.00     0.180 C 
ATOM      5  O   UNL     1     200.241 193.221 209.351  1.00  0.00    -0.328 OA
ATOM      6  C   UNL     1     202.241 191.934 211.018  1.00  0.00     0.181 C 
ATOM      7  C   UNL     1     201.092 192.769 211.598  1.00  0.00     0.214 C 
BRANCH   3   8
ATOM      8  C   UNL     1     201.493 192.886 207.366  1.00  0.00     0.073 C 
ATOM      9  O   UNL     1     202.519 193.575 207.121  1.00  0.00    -0.547 OA
ATOM     10  O   UNL     1     200.625 192.558 206.332  1.00  0.00    -0.547 OA
ENDBRANCH   3   8
BRANCH   4  11
ATOM     11  O   UNL     1     203.478 191.546 208.979  1.00  0.00    -0.387 OA
ATOM     12  H   UNL     1     204.370 191.955 209.139  1.00  0.00     0.211 HD
ENDBRANCH   4  11
BRANCH   6  13
ATOM     13  O   UNL     1     201.901 190.569 211.044  1.00  0.00    -0.387 OA
ATOM     14  H   UNL     1     201.167 190.440 210.389  1.00  0.00     0.211 HD
ENDBRANCH   6  13
BRANCH   7  15
ATOM     15  O   UNL     1     200.752 192.281 212.869  1.00  0.00    -0.384 OA
ATOM     16  H   UNL     1     200.700 191.292 212.794  1.00  0.00     0.211 HD
ENDBRANCH   7  15
ENDBRANCH   1   2
BRANCH   1  17
ATOM     17  C   UNL     1     197.972 191.192 210.014  1.00  0.00     0.172 A 
ATOM     18  C   UNL     1     196.977 190.652 210.852  1.00  0.00     0.205 A 
ATOM     19  C   UNL     1     197.661 191.441 208.666  1.00  0.00     0.097 A 
ATOM     20  C   UNL     1     195.669 190.492 210.376  1.00  0.00     0.188 A 
ATOM     21  C   UNL     1     196.375 191.225 208.159  1.00  0.00     0.134 A 
ATOM     22  C   UNL     1     195.338 190.804 209.033  1.00  0.00     0.111 A 
ATOM     23  O   UNL     1     194.741 190.035 211.212  1.00  0.00    -0.452 OA
ATOM     24  C   UNL     1     193.976 190.699 208.667  1.00  0.00     0.197 A 
ATOM     25  C   UNL     1     193.466 189.865 210.876  1.00  0.00     0.138 A 
ATOM     26  C   UNL     1     193.046 190.213 209.586  1.00  0.00     0.100 A 
ATOM     27  O   UNL     1     193.560 191.069 207.538  1.00  0.00    -0.289 OA
BRANCH  18  28
ATOM     28  O   UNL     1     197.240 190.281 212.179  1.00  0.00    -0.490 OA
ATOM     29  C   UNL     1     197.131 191.175 213.283  1.00  0.00     0.278 C 
ENDBRANCH  18  28
BRANCH  21  30
ATOM     30  O   UNL     1     196.200 191.420 206.786  1.00  0.00    -0.507 OA
ATOM     31  H   UNL     1     196.947 191.626 206.140  1.00  0.00     0.293 HD
ENDBRANCH  21  30
BRANCH  25  32
ATOM     32  C   UNL     1     192.525 189.333 211.894  1.00  0.00     0.017 A 
ATOM     33  C   UNL     1     191.316 188.705 211.530  1.00  0.00     0.012 A 
ATOM     34  C   UNL     1     192.855 189.424 213.259  1.00  0.00     0.012 A 
ATOM     35  C   UNL     1     190.456 188.203 212.512  1.00  0.00     0.001 A 
ATOM     36  C   UNL     1     191.991 188.922 214.235  1.00  0.00     0.001 A 
ATOM     37  C   UNL     1     190.790 188.313 213.863  1.00  0.00     0.000 A 
ENDBRANCH  25  32
ENDBRANCH   1  17
TORSDOF 9
ENDMDL
MODEL 6
REMARK VINA RESULT:    -5.806      0.833      1.021
REMARK INTER + INTRA:          -9.612
REMARK INTER:                  -8.154
REMARK INTRA:                  -1.458
REMARK UNBOUND:                -1.430
REMARK SMILES COc1c(O[C@@H]2O[C@@H](C(=O)[O-])[C@H](O)[C@H](O)[C@@H]2O)cc(O)c2c(=O)cc(-c3ccccc3)oc12
REMARK SMILES IDX 5 1 6 2 8 3 12 4 7 5 14 6 16 7 9 8 10 9 11 10 13 11 15 13
REMARK SMILES IDX 17 15 4 17 3 18 18 19 33 20 19 21 21 22 32 23 22 24 25 25
REMARK SMILES IDX 24 26 23 27 2 28 1 29 20 30 26 32 27 33 31 34 28 35 30 36
REMARK SMILES IDX 29 37
REMARK H PARENT 13 12 15 14 17 16 20 31
REMARK Flexibility Score: inf
ROOT
ATOM      1  O   UNL     1     199.138 191.382 210.939  1.00  0.00    -0.458 OA
ENDROOT
BRANCH   1   2
ATOM      2  C   UNL     1     199.810 192.644 210.781  1.00  0.00     0.339 C 
ATOM      3  C   UNL     1     200.803 192.017 208.739  1.00  0.00     0.199 C 
ATOM      4  C   UNL     1     202.232 192.042 209.319  1.00  0.00     0.180 C 
ATOM      5  O   UNL     1     199.962 192.950 209.403  1.00  0.00    -0.328 OA
ATOM      6  C   UNL     1     202.185 191.741 210.828  1.00  0.00     0.181 C 
ATOM      7  C   UNL     1     201.181 192.683 211.505  1.00  0.00     0.214 C 
BRANCH   3   8
ATOM      8  C   UNL     1     200.834 192.360 207.279  1.00  0.00     0.073 C 
ATOM      9  O   UNL     1     201.788 193.032 206.803  1.00  0.00    -0.547 OA
ATOM     10  O   UNL     1     199.827 191.908 206.435  1.00  0.00    -0.547 OA
ENDBRANCH   3   8
BRANCH   4  11
ATOM     11  O   UNL     1     203.032 191.095 208.659  1.00  0.00    -0.387 OA
ATOM     12  H   UNL     1     203.776 191.597 208.233  1.00  0.00     0.211 HD
ENDBRANCH   4  11
BRANCH   6  13
ATOM     13  O   UNL     1     201.815 190.403 211.057  1.00  0.00    -0.387 OA
ATOM     14  H   UNL     1     201.867 190.251 212.036  1.00  0.00     0.211 HD
ENDBRANCH   6  13
BRANCH   7  15
ATOM     15  O   UNL     1     201.056 192.340 212.860  1.00  0.00    -0.384 OA
ATOM     16  H   UNL     1     201.088 191.349 212.911  1.00  0.00     0.211 HD
ENDBRANCH   7  15
ENDBRANCH   1   2
BRANCH   1  17
ATOM     17  C   UNL     1     197.818 191.181 211.383  1.00  0.00     0.172 A 
ATOM     18  C   UNL     1     196.801 190.968 210.431  1.00  0.00     0.205 A 
ATOM     19  C   UNL     1     197.479 191.174 212.748  1.00  0.00     0.097 A 
ATOM     20  C   UNL     1     195.508 190.626 210.849  1.00  0.00     0.188 A 
ATOM     21  C   UNL     1     196.178 190.899 213.179  1.00  0.00     0.134 A 
ATOM     22  C   UNL     1     195.181 190.556 212.227  1.00  0.00     0.111 A 
ATOM     23  O   UNL     1     194.587 190.373 209.923  1.00  0.00    -0.452 OA
ATOM     24  C   UNL     1     193.878 190.115 212.556  1.00  0.00     0.197 A 
ATOM     25  C   UNL     1     193.337 190.021 210.203  1.00  0.00     0.138 A 
ATOM     26  C   UNL     1     192.954 189.865 211.542  1.00  0.00     0.100 A 
ATOM     27  O   UNL     1     193.529 189.901 213.746  1.00  0.00    -0.289 OA
BRANCH  18  28
ATOM     28  O   UNL     1     197.039 191.060 209.053  1.00  0.00    -0.490 OA
ATOM     29  C   UNL     1     196.801 192.239 208.289  1.00  0.00     0.278 C 
ENDBRANCH  18  28
BRANCH  21  30
ATOM     30  O   UNL     1     195.935 191.008 214.551  1.00  0.00    -0.507 OA
ATOM     31  H   UNL     1     196.577 191.415 215.214  1.00  0.00     0.293 HD
ENDBRANCH  21  30
BRANCH  25  32
ATOM     32  C   UNL     1     192.395 189.778 209.081  1.00  0.00     0.017 A 
ATOM     33  C   UNL     1     191.212 189.031 209.254  1.00  0.00     0.012 A 
ATOM     34  C   UNL     1     192.666 190.333 207.817  1.00  0.00     0.012 A 
ATOM     35  C   UNL     1     190.338 188.831 208.181  1.00  0.00     0.001 A 
ATOM     36  C   UNL     1     191.789 190.129 206.748  1.00  0.00     0.001 A 
ATOM     37  C   UNL     1     190.626 189.376 206.929  1.00  0.00     0.000 A 
ENDBRANCH  25  32
ENDBRANCH   1  17
TORSDOF 9
ENDMDL
MODEL 7
REMARK VINA RESULT:    -5.702      1.947      3.204
REMARK INTER + INTRA:          -9.466
REMARK INTER:                  -8.084
REMARK INTRA:                  -1.382
REMARK UNBOUND:                -1.430
REMARK SMILES COc1c(O[C@@H]2O[C@@H](C(=O)[O-])[C@H](O)[C@H](O)[C@@H]2O)cc(O)c2c(=O)cc(-c3ccccc3)oc12
REMARK SMILES IDX 5 1 6 2 8 3 12 4 7 5 14 6 16 7 9 8 10 9 11 10 13 11 15 13
REMARK SMILES IDX 17 15 4 17 3 18 18 19 33 20 19 21 21 22 32 23 22 24 25 25
REMARK SMILES IDX 24 26 23 27 2 28 1 29 20 30 26 32 27 33 31 34 28 35 30 36
REMARK SMILES IDX 29 37
REMARK H PARENT 13 12 15 14 17 16 20 31
REMARK Flexibility Score: inf
ROOT
ATOM      1  O   UNL     1     198.551 191.277 208.720  1.00  0.00    -0.458 OA
ENDROOT
BRANCH   1   2
ATOM      2  C   UNL     1     199.274 192.389 208.165  1.00  0.00     0.339 C 
ATOM      3  C   UNL     1     198.049 192.360 206.153  1.00  0.00     0.199 C 
ATOM      4  C   UNL     1     199.272 191.952 205.306  1.00  0.00     0.180 C 
ATOM      5  O   UNL     1     198.439 193.126 207.284  1.00  0.00    -0.328 OA
ATOM      6  C   UNL     1     200.264 191.157 206.175  1.00  0.00     0.181 C 
ATOM      7  C   UNL     1     200.578 191.954 207.448  1.00  0.00     0.214 C 
BRANCH   3   8
ATOM      8  C   UNL     1     197.102 193.179 205.327  1.00  0.00     0.073 C 
ATOM      9  O   UNL     1     196.321 192.620 204.512  1.00  0.00    -0.547 OA
ATOM     10  O   UNL     1     197.057 194.559 205.483  1.00  0.00    -0.547 OA
ENDBRANCH   3   8
BRANCH   4  11
ATOM     11  O   UNL     1     198.857 191.177 204.210  1.00  0.00    -0.387 OA
ATOM     12  H   UNL     1     199.003 191.731 203.398  1.00  0.00     0.211 HD
ENDBRANCH   4  11
BRANCH   6  13
ATOM     13  O   UNL     1     199.730 189.901 206.516  1.00  0.00    -0.387 OA
ATOM     14  H   UNL     1     198.760 190.033 206.680  1.00  0.00     0.211 HD
ENDBRANCH   6  13
BRANCH   7  15
ATOM     15  O   UNL     1     201.396 191.186 208.292  1.00  0.00    -0.384 OA
ATOM     16  H   UNL     1     201.537 191.718 209.118  1.00  0.00     0.211 HD
ENDBRANCH   7  15
ENDBRANCH   1   2
BRANCH   1  17
ATOM     17  C   UNL     1     197.833 191.259 209.931  1.00  0.00     0.172 A 
ATOM     18  C   UNL     1     196.515 190.761 209.936  1.00  0.00     0.205 A 
ATOM     19  C   UNL     1     198.391 191.711 211.139  1.00  0.00     0.097 A 
ATOM     20  C   UNL     1     195.829 190.602 211.149  1.00  0.00     0.188 A 
ATOM     21  C   UNL     1     197.695 191.617 212.348  1.00  0.00     0.134 A 
ATOM     22  C   UNL     1     196.417 190.998 212.376  1.00  0.00     0.111 A 
ATOM     23  O   UNL     1     194.609 190.074 211.123  1.00  0.00    -0.452 OA
ATOM     24  C   UNL     1     195.690 190.715 213.556  1.00  0.00     0.197 A 
ATOM     25  C   UNL     1     193.877 189.857 212.210  1.00  0.00     0.138 A 
ATOM     26  C   UNL     1     194.414 190.160 213.469  1.00  0.00     0.100 A 
ATOM     27  O   UNL     1     196.176 190.913 214.700  1.00  0.00    -0.289 OA
BRANCH  18  28
ATOM     28  O   UNL     1     195.853 190.388 208.758  1.00  0.00    -0.490 OA
ATOM     29  C   UNL     1     195.087 191.290 207.965  1.00  0.00     0.278 C 
ENDBRANCH  18  28
BRANCH  21  30
ATOM     30  O   UNL     1     198.309 192.179 213.472  1.00  0.00    -0.507 OA
ATOM     31  H   UNL     1     197.880 192.247 214.382  1.00  0.00     0.293 HD
ENDBRANCH  21  30
BRANCH  25  32
ATOM     32  C   UNL     1     192.520 189.275 212.053  1.00  0.00     0.017 A 
ATOM     33  C   UNL     1     192.110 188.664 210.850  1.00  0.00     0.012 A 
ATOM     34  C   UNL     1     191.625 189.298 213.139  1.00  0.00     0.012 A 
ATOM     35  C   UNL     1     190.830 188.112 210.737  1.00  0.00     0.001 A 
ATOM     36  C   UNL     1     190.347 188.746 213.019  1.00  0.00     0.001 A 
ATOM     37  C   UNL     1     189.948 188.155 211.818  1.00  0.00     0.000 A 
ENDBRANCH  25  32
ENDBRANCH   1  17
TORSDOF 9
ENDMDL
MODEL 8
REMARK VINA RESULT:    -5.589      1.510      2.091
REMARK INTER + INTRA:          -9.307
REMARK INTER:                  -8.174
REMARK INTRA:                  -1.132
REMARK UNBOUND:                -1.430
REMARK SMILES COc1c(O[C@@H]2O[C@@H](C(=O)[O-])[C@H](O)[C@H](O)[C@@H]2O)cc(O)c2c(=O)cc(-c3ccccc3)oc12
REMARK SMILES IDX 5 1 6 2 8 3 12 4 7 5 14 6 16 7 9 8 10 9 11 10 13 11 15 13
REMARK SMILES IDX 17 15 4 17 3 18 18 19 33 20 19 21 21 22 32 23 22 24 25 25
REMARK SMILES IDX 24 26 23 27 2 28 1 29 20 30 26 32 27 33 31 34 28 35 30 36
REMARK SMILES IDX 29 37
REMARK H PARENT 13 12 15 14 17 16 20 31
REMARK Flexibility Score: inf
ROOT
ATOM      1  O   UNL     1     200.907 192.056 210.485  1.00  0.00    -0.458 OA
ENDROOT
BRANCH   1   2
ATOM      2  C   UNL     1     201.220 193.129 209.580  1.00  0.00     0.339 C 
ATOM      3  C   UNL     1     202.334 191.711 208.065  1.00  0.00     0.199 C 
ATOM      4  C   UNL     1     203.709 192.362 208.321  1.00  0.00     0.180 C 
ATOM      5  O   UNL     1     201.280 192.645 208.247  1.00  0.00    -0.328 OA
ATOM      6  C   UNL     1     203.750 192.947 209.745  1.00  0.00     0.181 C 
ATOM      7  C   UNL     1     202.536 193.860 209.957  1.00  0.00     0.214 C 
BRANCH   3   8
ATOM      8  C   UNL     1     202.268 191.185 206.662  1.00  0.00     0.073 C 
ATOM      9  O   UNL     1     201.159 190.878 206.148  1.00  0.00    -0.547 OA
ATOM     10  O   UNL     1     203.429 191.066 205.907  1.00  0.00    -0.547 OA
ENDBRANCH   3   8
BRANCH   4  11
ATOM     11  O   UNL     1     204.728 191.410 208.156  1.00  0.00    -0.387 OA
ATOM     12  H   UNL     1     205.067 191.512 207.228  1.00  0.00     0.211 HD
ENDBRANCH   4  11
BRANCH   6  13
ATOM     13  O   UNL     1     203.747 191.917 210.704  1.00  0.00    -0.387 OA
ATOM     14  H   UNL     1     204.572 191.384 210.559  1.00  0.00     0.211 HD
ENDBRANCH   6  13
BRANCH   7  15
ATOM     15  O   UNL     1     202.512 194.308 211.287  1.00  0.00    -0.384 OA
ATOM     16  H   UNL     1     203.457 194.429 211.567  1.00  0.00     0.211 HD
ENDBRANCH   7  15
ENDBRANCH   1   2
BRANCH   1  17
ATOM     17  C   UNL     1     199.780 191.966 211.325  1.00  0.00     0.172 A 
ATOM     18  C   UNL     1     198.553 191.540 210.779  1.00  0.00     0.205 A 
ATOM     19  C   UNL     1     199.841 192.276 212.695  1.00  0.00     0.097 A 
ATOM     20  C   UNL     1     197.455 191.307 211.618  1.00  0.00     0.188 A 
ATOM     21  C   UNL     1     198.735 192.110 213.534  1.00  0.00     0.134 A 
ATOM     22  C   UNL     1     197.535 191.558 213.011  1.00  0.00     0.111 A 
ATOM     23  O   UNL     1     196.329 190.848 211.078  1.00  0.00    -0.452 OA
ATOM     24  C   UNL     1     196.408 191.208 213.792  1.00  0.00     0.197 A 
ATOM     25  C   UNL     1     195.235 190.572 211.778  1.00  0.00     0.138 A 
ATOM     26  C   UNL     1     195.255 190.731 213.171  1.00  0.00     0.100 A 
ATOM     27  O   UNL     1     196.424 191.275 215.049  1.00  0.00    -0.289 OA
BRANCH  18  28
ATOM     28  O   UNL     1     198.387 191.311 209.407  1.00  0.00    -0.490 OA
ATOM     29  C   UNL     1     197.814 192.260 208.512  1.00  0.00     0.278 C 
ENDBRANCH  18  28
BRANCH  21  30
ATOM     30  O   UNL     1     198.881 192.534 214.858  1.00  0.00    -0.507 OA
ATOM     31  H   UNL     1     199.235 191.957 215.605  1.00  0.00     0.293 HD
ENDBRANCH  21  30
BRANCH  25  32
ATOM     32  C   UNL     1     194.033 190.078 211.060  1.00  0.00     0.017 A 
ATOM     33  C   UNL     1     193.188 189.095 211.616  1.00  0.00     0.012 A 
ATOM     34  C   UNL     1     193.702 190.624 209.805  1.00  0.00     0.012 A 
ATOM     35  C   UNL     1     192.056 188.660 210.920  1.00  0.00     0.001 A 
ATOM     36  C   UNL     1     192.570 190.183 209.114  1.00  0.00     0.001 A 
ATOM     37  C   UNL     1     191.748 189.200 209.670  1.00  0.00     0.000 A 
ENDBRANCH  25  32
ENDBRANCH   1  17
TORSDOF 9
ENDMDL
MODEL 9
REMARK VINA RESULT:    -5.587      3.606     10.636
REMARK INTER + INTRA:          -9.303
REMARK INTER:                  -7.949
REMARK INTRA:                  -1.354
REMARK UNBOUND:                -1.430
REMARK SMILES COc1c(O[C@@H]2O[C@@H](C(=O)[O-])[C@H](O)[C@H](O)[C@@H]2O)cc(O)c2c(=O)cc(-c3ccccc3)oc12
REMARK SMILES IDX 5 1 6 2 8 3 12 4 7 5 14 6 16 7 9 8 10 9 11 10 13 11 15 13
REMARK SMILES IDX 17 15 4 17 3 18 18 19 33 20 19 21 21 22 32 23 22 24 25 25
REMARK SMILES IDX 24 26 23 27 2 28 1 29 20 30 26 32 27 33 31 34 28 35 30 36
REMARK SMILES IDX 29 37
REMARK H PARENT 13 12 15 14 17 16 20 31
REMARK Flexibility Score: inf
ROOT
ATOM      1  O   UNL     1     200.276 191.707 208.379  1.00  0.00    -0.458 OA
ENDROOT
BRANCH   1   2
ATOM      2  C   UNL     1     199.441 192.872 208.502  1.00  0.00     0.339 C 
ATOM      3  C   UNL     1     198.324 192.042 210.402  1.00  0.00     0.199 C 
ATOM      4  C   UNL     1     196.972 191.921 209.671  1.00  0.00     0.180 C 
ATOM      5  O   UNL     1     199.108 193.097 209.864  1.00  0.00    -0.328 OA
ATOM      6  C   UNL     1     197.213 191.695 208.167  1.00  0.00     0.181 C 
ATOM      7  C   UNL     1     198.158 192.778 207.634  1.00  0.00     0.214 C 
BRANCH   3   8
ATOM      8  C   UNL     1     198.097 192.315 211.860  1.00  0.00     0.073 C 
ATOM      9  O   UNL     1     199.006 192.083 212.701  1.00  0.00    -0.547 OA
ATOM     10  O   UNL     1     196.892 192.859 212.287  1.00  0.00    -0.547 OA
ENDBRANCH   3   8
BRANCH   4  11
ATOM     11  O   UNL     1     196.230 190.857 210.210  1.00  0.00    -0.387 OA
ATOM     12  H   UNL     1     195.591 190.569 209.506  1.00  0.00     0.211 HD
ENDBRANCH   4  11
BRANCH   6  13
ATOM     13  O   UNL     1     197.768 190.422 207.939  1.00  0.00    -0.387 OA
ATOM     14  H   UNL     1     198.137 190.427 207.018  1.00  0.00     0.211 HD
ENDBRANCH   6  13
BRANCH   7  15
ATOM     15  O   UNL     1     198.466 192.513 206.290  1.00  0.00    -0.384 OA
ATOM     16  H   UNL     1     198.498 191.525 206.192  1.00  0.00     0.211 HD
ENDBRANCH   7  15
ENDBRANCH   1   2
BRANCH   1  17
ATOM     17  C   UNL     1     201.602 191.668 207.908  1.00  0.00     0.172 A 
ATOM     18  C   UNL     1     202.637 192.136 208.742  1.00  0.00     0.205 A 
ATOM     19  C   UNL     1     201.930 191.167 206.637  1.00  0.00     0.097 A 
ATOM     20  C   UNL     1     203.975 191.979 208.354  1.00  0.00     0.188 A 
ATOM     21  C   UNL     1     203.258 191.064 206.210  1.00  0.00     0.134 A 
ATOM     22  C   UNL     1     204.310 191.414 207.098  1.00  0.00     0.111 A 
ATOM     23  O   UNL     1     204.929 192.378 209.191  1.00  0.00    -0.452 OA
ATOM     24  C   UNL     1     205.684 191.210 206.831  1.00  0.00     0.197 A 
ATOM     25  C   UNL     1     206.228 192.259 208.938  1.00  0.00     0.138 A 
ATOM     26  C   UNL     1     206.640 191.649 207.746  1.00  0.00     0.100 A 
ATOM     27  O   UNL     1     206.078 190.605 205.801  1.00  0.00    -0.289 OA
BRANCH  18  28
ATOM     28  O   UNL     1     202.382 192.743 209.979  1.00  0.00    -0.490 OA
ATOM     29  C   UNL     1     202.191 192.017 211.189  1.00  0.00     0.278 C 
ENDBRANCH  18  28
BRANCH  21  30
ATOM     30  O   UNL     1     203.464 190.636 204.895  1.00  0.00    -0.507 OA
ATOM     31  H   UNL     1     203.478 189.670 204.605  1.00  0.00     0.293 HD
ENDBRANCH  21  30
BRANCH  25  32
ATOM     32  C   UNL     1     207.200 192.755 209.946  1.00  0.00     0.017 A 
ATOM     33  C   UNL     1     206.842 192.929 211.299  1.00  0.00     0.012 A 
ATOM     34  C   UNL     1     208.524 193.030 209.556  1.00  0.00     0.012 A 
ATOM     35  C   UNL     1     207.783 193.386 212.227  1.00  0.00     0.001 A 
ATOM     36  C   UNL     1     209.459 193.487 210.488  1.00  0.00     0.001 A 
ATOM     37  C   UNL     1     209.089 193.667 211.823  1.00  0.00     0.000 A 
ENDBRANCH  25  32
ENDBRANCH   1  17
TORSDOF 9
ENDMDL
