MODEL 1
REMARK VINA RESULT:    -7.591      0.000      0.000
REMARK INTER + INTRA:          -9.489
REMARK INTER:                  -9.144
REMARK INTRA:                  -0.345
REMARK UNBOUND:                -0.345
REMARK SMILES Oc1cc(O)c2c(c1)O[C@@H](c1ccc(O)c(O)c1)[C@H](O)C2
REMARK SMILES IDX 21 1 19 2 10 3 9 4 7 5 8 6 2 7 3 8 4 9 6 10 20 11 11 13
REMARK SMILES IDX 18 14 12 15 16 16 13 17 14 18 17 19 15 21 5 23 1 25
REMARK H PARENT 20 12 17 20 15 22 5 24 1 26
REMARK Flexibility Score: inf
ROOT
ATOM      1  C   UNL     1      59.485  49.015  23.372  1.00  0.00     0.079 C 
ATOM      2  C   UNL     1      58.109  48.978  24.094  1.00  0.00     0.164 C 
ATOM      3  C   UNL     1      56.870  49.183  23.176  1.00  0.00     0.232 C 
ATOM      4  O   UNL     1      57.148  48.867  21.813  1.00  0.00    -0.482 OA
ATOM      5  C   UNL     1      58.304  49.332  21.190  1.00  0.00     0.131 A 
ATOM      6  C   UNL     1      58.289  49.594  19.816  1.00  0.00     0.093 A 
ATOM      7  C   UNL     1      59.435  50.078  19.183  1.00  0.00     0.122 A 
ATOM      8  C   UNL     1      60.604  50.278  19.922  1.00  0.00     0.092 A 
ATOM      9  C   UNL     1      60.641  49.985  21.291  1.00  0.00     0.126 A 
ATOM     10  C   UNL     1      59.468  49.530  21.947  1.00  0.00     0.039 A 
ENDROOT
BRANCH   2  11
ATOM     11  O   UNL     1      58.085  49.978  25.083  1.00  0.00    -0.389 OA
ATOM     12  H   UNL     1      57.632  50.773  24.699  1.00  0.00     0.211 HD
ENDBRANCH   2  11
BRANCH   3  13
ATOM     13  C   UNL     1      55.675  48.400  23.686  1.00  0.00    -0.001 A 
ATOM     14  C   UNL     1      55.591  46.999  23.524  1.00  0.00     0.057 A 
ATOM     15  C   UNL     1      54.657  49.066  24.384  1.00  0.00     0.012 A 
ATOM     16  C   UNL     1      54.489  46.289  24.027  1.00  0.00     0.157 A 
ATOM     17  C   UNL     1      53.575  48.357  24.909  1.00  0.00     0.050 A 
ATOM     18  C   UNL     1      53.476  46.973  24.724  1.00  0.00     0.157 A 
BRANCH  16  19
ATOM     19  O   UNL     1      54.401  44.907  23.821  1.00  0.00    -0.504 OA
ATOM     20  H   UNL     1      53.533  44.470  23.525  1.00  0.00     0.293 HD
ENDBRANCH  16  19
BRANCH  18  21
ATOM     21  O   UNL     1      52.365  46.299  25.223  1.00  0.00    -0.504 OA
ATOM     22  H   UNL     1      51.421  46.665  25.135  1.00  0.00     0.293 HD
ENDBRANCH  18  21
ENDBRANCH   3  13
BRANCH   9  23
ATOM     23  O   UNL     1      61.865  50.133  21.948  1.00  0.00    -0.507 OA
ATOM     24  H   UNL     1      62.084  49.730  22.845  1.00  0.00     0.293 HD
ENDBRANCH   9  23
BRANCH   7  25
ATOM     25  O   UNL     1      59.427  50.369  17.819  1.00  0.00    -0.508 OA
ATOM     26  H   UNL     1      59.956  49.812  17.155  1.00  0.00     0.293 HD
ENDBRANCH   7  25
TORSDOF 6
ENDMDL
MODEL 2
REMARK VINA RESULT:    -7.270      1.414      2.835
REMARK INTER + INTRA:          -9.102
REMARK INTER:                  -8.755
REMARK INTRA:                  -0.347
REMARK UNBOUND:                -0.345
REMARK SMILES Oc1cc(O)c2c(c1)O[C@@H](c1ccc(O)c(O)c1)[C@H](O)C2
REMARK SMILES IDX 21 1 19 2 10 3 9 4 7 5 8 6 2 7 3 8 4 9 6 10 20 11 11 13
REMARK SMILES IDX 18 14 12 15 16 16 13 17 14 18 17 19 15 21 5 23 1 25
REMARK H PARENT 20 12 17 20 15 22 5 24 1 26
REMARK Flexibility Score: inf
ROOT
ATOM      1  C   UNL     1      56.453  50.264  20.442  1.00  0.00     0.079 C 
ATOM      2  C   UNL     1      55.290  49.421  21.038  1.00  0.00     0.164 C 
ATOM      3  C   UNL     1      55.707  48.387  22.123  1.00  0.00     0.232 C 
ATOM      4  O   UNL     1      56.947  48.722  22.742  1.00  0.00    -0.482 OA
ATOM      5  C   UNL     1      58.048  49.106  21.981  1.00  0.00     0.131 A 
ATOM      6  C   UNL     1      59.338  48.816  22.439  1.00  0.00     0.093 A 
ATOM      7  C   UNL     1      60.450  49.178  21.677  1.00  0.00     0.122 A 
ATOM      8  C   UNL     1      60.271  49.854  20.467  1.00  0.00     0.092 A 
ATOM      9  C   UNL     1      58.986  50.181  20.016  1.00  0.00     0.126 A 
ATOM     10  C   UNL     1      57.851  49.780  20.768  1.00  0.00     0.039 A 
ENDROOT
BRANCH   2  11
ATOM     11  O   UNL     1      54.652  48.723  19.996  1.00  0.00    -0.389 OA
ATOM     12  H   UNL     1      53.682  48.694  20.200  1.00  0.00     0.211 HD
ENDBRANCH   2  11
BRANCH   3  13
ATOM     13  C   UNL     1      54.610  48.206  23.156  1.00  0.00    -0.001 A 
ATOM     14  C   UNL     1      54.279  46.930  23.662  1.00  0.00     0.057 A 
ATOM     15  C   UNL     1      53.946  49.333  23.665  1.00  0.00     0.012 A 
ATOM     16  C   UNL     1      53.279  46.788  24.637  1.00  0.00     0.157 A 
ATOM     17  C   UNL     1      52.972  49.195  24.655  1.00  0.00     0.050 A 
ATOM     18  C   UNL     1      52.622  47.928  25.136  1.00  0.00     0.157 A 
BRANCH  16  19
ATOM     19  O   UNL     1      52.934  45.511  25.098  1.00  0.00    -0.504 OA
ATOM     20  H   UNL     1      52.121  45.363  25.687  1.00  0.00     0.293 HD
ENDBRANCH  16  19
BRANCH  18  21
ATOM     21  O   UNL     1      51.618  47.818  26.093  1.00  0.00    -0.504 OA
ATOM     22  H   UNL     1      50.854  47.154  26.006  1.00  0.00     0.293 HD
ENDBRANCH  18  21
ENDBRANCH   3  13
BRANCH   9  23
ATOM     23  O   UNL     1      58.888  50.927  18.838  1.00  0.00    -0.507 OA
ATOM     24  H   UNL     1      59.514  51.672  18.581  1.00  0.00     0.293 HD
ENDBRANCH   9  23
BRANCH   7  25
ATOM     25  O   UNL     1      61.740  48.871  22.108  1.00  0.00    -0.508 OA
ATOM     26  H   UNL     1      61.961  47.973  22.525  1.00  0.00     0.293 HD
ENDBRANCH   7  25
TORSDOF 6
ENDMDL
MODEL 3
REMARK VINA RESULT:    -7.145     14.591     16.568
REMARK INTER + INTRA:          -8.952
REMARK INTER:                  -8.607
REMARK INTRA:                  -0.345
REMARK UNBOUND:                -0.345
REMARK SMILES Oc1cc(O)c2c(c1)O[C@@H](c1ccc(O)c(O)c1)[C@H](O)C2
REMARK SMILES IDX 21 1 19 2 10 3 9 4 7 5 8 6 2 7 3 8 4 9 6 10 20 11 11 13
REMARK SMILES IDX 18 14 12 15 16 16 13 17 14 18 17 19 15 21 5 23 1 25
REMARK H PARENT 20 12 17 20 15 22 5 24 1 26
REMARK Flexibility Score: inf
ROOT
ATOM      1  C   UNL     1      46.069  39.306  21.470  1.00  0.00     0.079 C 
ATOM      2  C   UNL     1      45.471  40.577  22.135  1.00  0.00     0.164 C 
ATOM      3  C   UNL     1      43.965  40.483  22.515  1.00  0.00     0.232 C 
ATOM      4  O   UNL     1      43.528  39.133  22.664  1.00  0.00    -0.482 OA
ATOM      5  C   UNL     1      43.858  38.164  21.720  1.00  0.00     0.131 A 
ATOM      6  C   UNL     1      42.980  37.100  21.488  1.00  0.00     0.093 A 
ATOM      7  C   UNL     1      43.289  36.132  20.531  1.00  0.00     0.122 A 
ATOM      8  C   UNL     1      44.490  36.217  19.822  1.00  0.00     0.092 A 
ATOM      9  C   UNL     1      45.393  37.258  20.071  1.00  0.00     0.126 A 
ATOM     10  C   UNL     1      45.065  38.266  21.014  1.00  0.00     0.039 A 
ENDROOT
BRANCH   2  11
ATOM     11  O   UNL     1      45.629  41.667  21.260  1.00  0.00    -0.389 OA
ATOM     12  H   UNL     1      44.781  41.777  20.756  1.00  0.00     0.211 HD
ENDBRANCH   2  11
BRANCH   3  13
ATOM     13  C   UNL     1      43.663  41.296  23.760  1.00  0.00    -0.001 A 
ATOM     14  C   UNL     1      44.146  40.905  25.028  1.00  0.00     0.057 A 
ATOM     15  C   UNL     1      42.939  42.492  23.648  1.00  0.00     0.012 A 
ATOM     16  C   UNL     1      43.878  41.685  26.164  1.00  0.00     0.157 A 
ATOM     17  C   UNL     1      42.696  43.284  24.771  1.00  0.00     0.050 A 
ATOM     18  C   UNL     1      43.149  42.881  26.034  1.00  0.00     0.157 A 
BRANCH  16  19
ATOM     19  O   UNL     1      44.328  41.261  27.420  1.00  0.00    -0.504 OA
ATOM     20  H   UNL     1      43.799  41.454  28.266  1.00  0.00     0.293 HD
ENDBRANCH  16  19
BRANCH  18  21
ATOM     21  O   UNL     1      42.857  43.670  27.143  1.00  0.00    -0.504 OA
ATOM     22  H   UNL     1      42.159  44.408  27.116  1.00  0.00     0.293 HD
ENDBRANCH  18  21
ENDBRANCH   3  13
BRANCH   9  23
ATOM     23  O   UNL     1      46.609  37.234  19.382  1.00  0.00    -0.507 OA
ATOM     24  H   UNL     1      47.304  36.512  19.476  1.00  0.00     0.293 HD
ENDBRANCH   9  23
BRANCH   7  25
ATOM     25  O   UNL     1      42.411  35.080  20.270  1.00  0.00    -0.508 OA
ATOM     26  H   UNL     1      41.442  35.247  20.021  1.00  0.00     0.293 HD
ENDBRANCH   7  25
TORSDOF 6
ENDMDL
MODEL 4
REMARK VINA RESULT:    -7.077     12.436     15.232
REMARK INTER + INTRA:          -8.870
REMARK INTER:                  -8.524
REMARK INTRA:                  -0.346
REMARK UNBOUND:                -0.345
REMARK SMILES Oc1cc(O)c2c(c1)O[C@@H](c1ccc(O)c(O)c1)[C@H](O)C2
REMARK SMILES IDX 21 1 19 2 10 3 9 4 7 5 8 6 2 7 3 8 4 9 6 10 20 11 11 13
REMARK SMILES IDX 18 14 12 15 16 16 13 17 14 18 17 19 15 21 5 23 1 25
REMARK H PARENT 20 12 17 20 15 22 5 24 1 26
REMARK Flexibility Score: inf
ROOT
ATOM      1  C   UNL     1      53.542  37.795  27.437  1.00  0.00     0.079 C 
ATOM      2  C   UNL     1      53.132  36.360  27.000  1.00  0.00     0.164 C 
ATOM      3  C   UNL     1      52.042  35.683  27.881  1.00  0.00     0.232 C 
ATOM      4  O   UNL     1      51.257  36.634  28.597  1.00  0.00    -0.482 OA
ATOM      5  C   UNL     1      51.857  37.689  29.281  1.00  0.00     0.131 A 
ATOM      6  C   UNL     1      51.249  38.196  30.435  1.00  0.00     0.093 A 
ATOM      7  C   UNL     1      51.849  39.240  31.141  1.00  0.00     0.122 A 
ATOM      8  C   UNL     1      53.046  39.794  30.678  1.00  0.00     0.092 A 
ATOM      9  C   UNL     1      53.644  39.318  29.505  1.00  0.00     0.126 A 
ATOM     10  C   UNL     1      53.059  38.231  28.805  1.00  0.00     0.039 A 
ENDROOT
BRANCH   2  11
ATOM     11  O   UNL     1      54.272  35.535  27.013  1.00  0.00    -0.389 OA
ATOM     12  H   UNL     1      54.040  34.705  27.504  1.00  0.00     0.211 HD
ENDBRANCH   2  11
BRANCH   3  13
ATOM     13  C   UNL     1      51.165  34.762  27.054  1.00  0.00    -0.001 A 
ATOM     14  C   UNL     1      50.409  35.249  25.965  1.00  0.00     0.057 A 
ATOM     15  C   UNL     1      51.146  33.387  27.334  1.00  0.00     0.012 A 
ATOM     16  C   UNL     1      49.624  34.376  25.196  1.00  0.00     0.157 A 
ATOM     17  C   UNL     1      50.388  32.514  26.552  1.00  0.00     0.050 A 
ATOM     18  C   UNL     1      49.614  33.000  25.491  1.00  0.00     0.157 A 
BRANCH  16  19
ATOM     19  O   UNL     1      48.847  34.882  24.146  1.00  0.00    -0.504 OA
ATOM     20  H   UNL     1      48.454  34.271  23.436  1.00  0.00     0.293 HD
ENDBRANCH  16  19
BRANCH  18  21
ATOM     21  O   UNL     1      48.836  32.111  24.755  1.00  0.00    -0.504 OA
ATOM     22  H   UNL     1      48.000  32.404  24.257  1.00  0.00     0.293 HD
ENDBRANCH  18  21
ENDBRANCH   3  13
BRANCH   9  23
ATOM     23  O   UNL     1      54.796  39.971  29.059  1.00  0.00    -0.507 OA
ATOM     24  H   UNL     1      54.947  40.965  29.118  1.00  0.00     0.293 HD
ENDBRANCH   9  23
BRANCH   7  25
ATOM     25  O   UNL     1      51.269  39.738  32.307  1.00  0.00    -0.508 OA
ATOM     26  H   UNL     1      51.814  39.887  33.150  1.00  0.00     0.293 HD
ENDBRANCH   7  25
TORSDOF 6
ENDMDL
MODEL 5
REMARK VINA RESULT:    -7.057      5.866      8.264
REMARK INTER + INTRA:          -8.846
REMARK INTER:                  -8.502
REMARK INTRA:                  -0.344
REMARK UNBOUND:                -0.345
REMARK SMILES Oc1cc(O)c2c(c1)O[C@@H](c1ccc(O)c(O)c1)[C@H](O)C2
REMARK SMILES IDX 21 1 19 2 10 3 9 4 7 5 8 6 2 7 3 8 4 9 6 10 20 11 11 13
REMARK SMILES IDX 18 14 12 15 16 16 13 17 14 18 17 19 15 21 5 23 1 25
REMARK H PARENT 20 12 17 20 15 22 5 24 1 26
REMARK Flexibility Score: inf
ROOT
ATOM      1  C   UNL     1      54.733  50.823  27.726  1.00  0.00     0.079 C 
ATOM      2  C   UNL     1      54.314  50.617  29.208  1.00  0.00     0.164 C 
ATOM      3  C   UNL     1      52.992  49.824  29.422  1.00  0.00     0.232 C 
ATOM      4  O   UNL     1      52.665  49.005  28.301  1.00  0.00    -0.482 OA
ATOM      5  C   UNL     1      52.735  49.505  27.003  1.00  0.00     0.131 A 
ATOM      6  C   UNL     1      51.865  49.009  26.025  1.00  0.00     0.093 A 
ATOM      7  C   UNL     1      51.911  49.514  24.725  1.00  0.00     0.122 A 
ATOM      8  C   UNL     1      52.846  50.500  24.396  1.00  0.00     0.092 A 
ATOM      9  C   UNL     1      53.745  50.978  25.357  1.00  0.00     0.126 A 
ATOM     10  C   UNL     1      53.676  50.496  26.690  1.00  0.00     0.039 A 
ENDROOT
BRANCH   2  11
ATOM     11  O   UNL     1      54.169  51.874  29.822  1.00  0.00    -0.389 OA
ATOM     12  H   UNL     1      53.214  52.135  29.756  1.00  0.00     0.211 HD
ENDBRANCH   2  11
BRANCH   3  13
ATOM     13  C   UNL     1      53.044  49.008  30.699  1.00  0.00    -0.001 A 
ATOM     14  C   UNL     1      51.876  48.735  31.446  1.00  0.00     0.057 A 
ATOM     15  C   UNL     1      54.265  48.461  31.123  1.00  0.00     0.012 A 
ATOM     16  C   UNL     1      51.942  47.955  32.611  1.00  0.00     0.157 A 
ATOM     17  C   UNL     1      54.327  47.663  32.266  1.00  0.00     0.050 A 
ATOM     18  C   UNL     1      53.174  47.416  33.023  1.00  0.00     0.157 A 
BRANCH  16  19
ATOM     19  O   UNL     1      50.782  47.730  33.362  1.00  0.00    -0.504 OA
ATOM     20  H   UNL     1      50.780  47.097  34.157  1.00  0.00     0.293 HD
ENDBRANCH  16  19
BRANCH  18  21
ATOM     21  O   UNL     1      53.274  46.650  34.181  1.00  0.00    -0.504 OA
ATOM     22  H   UNL     1      52.957  45.685  34.223  1.00  0.00     0.293 HD
ENDBRANCH  18  21
ENDBRANCH   3  13
BRANCH   9  23
ATOM     23  O   UNL     1      54.703  51.905  24.938  1.00  0.00    -0.507 OA
ATOM     24  H   UNL     1      54.523  52.660  24.296  1.00  0.00     0.293 HD
ENDBRANCH   9  23
BRANCH   7  25
ATOM     25  O   UNL     1      51.033  49.048  23.747  1.00  0.00    -0.508 OA
ATOM     26  H   UNL     1      50.033  48.999  23.912  1.00  0.00     0.293 HD
ENDBRANCH   7  25
TORSDOF 6
ENDMDL
MODEL 6
REMARK VINA RESULT:    -6.771      2.245      2.835
REMARK INTER + INTRA:          -8.502
REMARK INTER:                  -8.165
REMARK INTRA:                  -0.336
REMARK UNBOUND:                -0.345
REMARK SMILES Oc1cc(O)c2c(c1)O[C@@H](c1ccc(O)c(O)c1)[C@H](O)C2
REMARK SMILES IDX 21 1 19 2 10 3 9 4 7 5 8 6 2 7 3 8 4 9 6 10 20 11 11 13
REMARK SMILES IDX 18 14 12 15 16 16 13 17 14 18 17 19 15 21 5 23 1 25
REMARK H PARENT 20 12 17 20 15 22 5 24 1 26
REMARK Flexibility Score: inf
ROOT
ATOM      1  C   UNL     1      57.656  50.283  25.625  1.00  0.00     0.079 C 
ATOM      2  C   UNL     1      56.165  50.247  25.187  1.00  0.00     0.164 C 
ATOM      3  C   UNL     1      55.880  49.481  23.862  1.00  0.00     0.232 C 
ATOM      4  O   UNL     1      56.903  48.538  23.551  1.00  0.00    -0.482 OA
ATOM      5  C   UNL     1      58.249  48.885  23.638  1.00  0.00     0.131 A 
ATOM      6  C   UNL     1      59.174  48.278  22.782  1.00  0.00     0.093 A 
ATOM      7  C   UNL     1      60.524  48.631  22.845  1.00  0.00     0.122 A 
ATOM      8  C   UNL     1      60.951  49.574  23.783  1.00  0.00     0.092 A 
ATOM      9  C   UNL     1      60.039  50.162  24.669  1.00  0.00     0.126 A 
ATOM     10  C   UNL     1      58.661  49.836  24.583  1.00  0.00     0.039 A 
ENDROOT
BRANCH   2  11
ATOM     11  O   UNL     1      55.702  51.566  25.032  1.00  0.00    -0.389 OA
ATOM     12  H   UNL     1      54.938  51.694  25.651  1.00  0.00     0.211 HD
ENDBRANCH   2  11
BRANCH   3  13
ATOM     13  C   UNL     1      54.516  48.817  23.898  1.00  0.00    -0.001 A 
ATOM     14  C   UNL     1      54.331  47.550  24.492  1.00  0.00     0.057 A 
ATOM     15  C   UNL     1      53.401  49.496  23.383  1.00  0.00     0.012 A 
ATOM     16  C   UNL     1      53.056  46.964  24.538  1.00  0.00     0.157 A 
ATOM     17  C   UNL     1      52.129  48.927  23.453  1.00  0.00     0.050 A 
ATOM     18  C   UNL     1      51.949  47.657  24.015  1.00  0.00     0.157 A 
BRANCH  16  19
ATOM     19  O   UNL     1      52.897  45.688  25.093  1.00  0.00    -0.504 OA
ATOM     20  H   UNL     1      53.522  44.925  24.854  1.00  0.00     0.293 HD
ENDBRANCH  16  19
BRANCH  18  21
ATOM     21  O   UNL     1      50.674  47.098  24.034  1.00  0.00    -0.504 OA
ATOM     22  H   UNL     1      50.114  46.993  23.193  1.00  0.00     0.293 HD
ENDBRANCH  18  21
ENDBRANCH   3  13
BRANCH   9  23
ATOM     23  O   UNL     1      60.550  51.036  25.632  1.00  0.00    -0.507 OA
ATOM     24  H   UNL     1      60.010  51.744  26.103  1.00  0.00     0.293 HD
ENDBRANCH   9  23
BRANCH   7  25
ATOM     25  O   UNL     1      61.453  48.054  21.980  1.00  0.00    -0.508 OA
ATOM     26  H   UNL     1      62.316  48.528  21.735  1.00  0.00     0.293 HD
ENDBRANCH   7  25
TORSDOF 6
ENDMDL
MODEL 7
REMARK VINA RESULT:    -6.762      8.537      9.545
REMARK INTER + INTRA:          -8.490
REMARK INTER:                  -8.226
REMARK INTRA:                  -0.264
REMARK UNBOUND:                -0.345
REMARK SMILES Oc1cc(O)c2c(c1)O[C@@H](c1ccc(O)c(O)c1)[C@H](O)C2
REMARK SMILES IDX 21 1 19 2 10 3 9 4 7 5 8 6 2 7 3 8 4 9 6 10 20 11 11 13
REMARK SMILES IDX 18 14 12 15 16 16 13 17 14 18 17 19 15 21 5 23 1 25
REMARK H PARENT 20 12 17 20 15 22 5 24 1 26
REMARK Flexibility Score: inf
ROOT
ATOM      1  C   UNL     1      56.870  47.341  32.272  1.00  0.00     0.079 C 
ATOM      2  C   UNL     1      55.332  47.550  32.359  1.00  0.00     0.164 C 
ATOM      3  C   UNL     1      54.821  48.941  31.881  1.00  0.00     0.232 C 
ATOM      4  O   UNL     1      55.740  49.579  30.996  1.00  0.00    -0.482 OA
ATOM      5  C   UNL     1      57.100  49.629  31.287  1.00  0.00     0.131 A 
ATOM      6  C   UNL     1      57.861  50.715  30.843  1.00  0.00     0.093 A 
ATOM      7  C   UNL     1      59.222  50.788  31.145  1.00  0.00     0.122 A 
ATOM      8  C   UNL     1      59.827  49.758  31.871  1.00  0.00     0.092 A 
ATOM      9  C   UNL     1      59.083  48.649  32.290  1.00  0.00     0.126 A 
ATOM     10  C   UNL     1      57.691  48.590  32.020  1.00  0.00     0.039 A 
ENDROOT
BRANCH   2  11
ATOM     11  O   UNL     1      54.921  47.374  33.693  1.00  0.00    -0.389 OA
ATOM     12  H   UNL     1      53.969  47.645  33.756  1.00  0.00     0.211 HD
ENDBRANCH   2  11
BRANCH   3  13
ATOM     13  C   UNL     1      53.443  48.831  31.255  1.00  0.00    -0.001 A 
ATOM     14  C   UNL     1      52.308  48.507  32.029  1.00  0.00     0.057 A 
ATOM     15  C   UNL     1      53.278  49.114  29.891  1.00  0.00     0.012 A 
ATOM     16  C   UNL     1      51.038  48.436  31.435  1.00  0.00     0.157 A 
ATOM     17  C   UNL     1      52.012  49.072  29.305  1.00  0.00     0.050 A 
ATOM     18  C   UNL     1      50.890  48.721  30.065  1.00  0.00     0.157 A 
BRANCH  16  19
ATOM     19  O   UNL     1      49.928  48.072  32.208  1.00  0.00    -0.504 OA
ATOM     20  H   UNL     1      49.085  48.638  32.226  1.00  0.00     0.293 HD
ENDBRANCH  16  19
BRANCH  18  21
ATOM     21  O   UNL     1      49.646  48.648  29.445  1.00  0.00    -0.504 OA
ATOM     22  H   UNL     1      49.205  49.455  29.013  1.00  0.00     0.293 HD
ENDBRANCH  18  21
ENDBRANCH   3  13
BRANCH   9  23
ATOM     23  O   UNL     1      59.770  47.622  32.942  1.00  0.00    -0.507 OA
ATOM     24  H   UNL     1      60.360  46.947  32.482  1.00  0.00     0.293 HD
ENDBRANCH   9  23
BRANCH   7  25
ATOM     25  O   UNL     1      59.988  51.877  30.732  1.00  0.00    -0.508 OA
ATOM     26  H   UNL     1      60.931  52.024  31.076  1.00  0.00     0.293 HD
ENDBRANCH   7  25
TORSDOF 6
ENDMDL
MODEL 8
REMARK VINA RESULT:    -6.747     15.219     17.073
REMARK INTER + INTRA:          -8.472
REMARK INTER:                  -8.246
REMARK INTRA:                  -0.227
REMARK UNBOUND:                -0.345
REMARK SMILES Oc1cc(O)c2c(c1)O[C@@H](c1ccc(O)c(O)c1)[C@H](O)C2
REMARK SMILES IDX 21 1 19 2 10 3 9 4 7 5 8 6 2 7 3 8 4 9 6 10 20 11 11 13
REMARK SMILES IDX 18 14 12 15 16 16 13 17 14 18 17 19 15 21 5 23 1 25
REMARK H PARENT 20 12 17 20 15 22 5 24 1 26
REMARK Flexibility Score: inf
ROOT
ATOM      1  C   UNL     1      42.506  37.561  21.979  1.00  0.00     0.079 C 
ATOM      2  C   UNL     1      42.470  38.284  23.355  1.00  0.00     0.164 C 
ATOM      3  C   UNL     1      43.822  38.898  23.819  1.00  0.00     0.232 C 
ATOM      4  O   UNL     1      44.708  39.142  22.728  1.00  0.00    -0.482 OA
ATOM      5  C   UNL     1      44.918  38.178  21.745  1.00  0.00     0.131 A 
ATOM      6  C   UNL     1      46.157  38.110  21.099  1.00  0.00     0.093 A 
ATOM      7  C   UNL     1      46.387  37.137  20.125  1.00  0.00     0.122 A 
ATOM      8  C   UNL     1      45.367  36.246  19.780  1.00  0.00     0.092 A 
ATOM      9  C   UNL     1      44.111  36.328  20.394  1.00  0.00     0.126 A 
ATOM     10  C   UNL     1      43.885  37.290  21.413  1.00  0.00     0.039 A 
ENDROOT
BRANCH   2  11
ATOM     11  O   UNL     1      42.048  37.373  24.340  1.00  0.00    -0.389 OA
ATOM     12  H   UNL     1      42.356  37.712  25.219  1.00  0.00     0.211 HD
ENDBRANCH   2  11
BRANCH   3  13
ATOM     13  C   UNL     1      43.599  40.158  24.635  1.00  0.00    -0.001 A 
ATOM     14  C   UNL     1      42.839  40.138  25.825  1.00  0.00     0.057 A 
ATOM     15  C   UNL     1      44.206  41.358  24.235  1.00  0.00     0.012 A 
ATOM     16  C   UNL     1      42.667  41.309  26.579  1.00  0.00     0.157 A 
ATOM     17  C   UNL     1      44.058  42.517  24.999  1.00  0.00     0.050 A 
ATOM     18  C   UNL     1      43.280  42.505  26.164  1.00  0.00     0.157 A 
BRANCH  16  19
ATOM     19  O   UNL     1      41.875  41.281  27.734  1.00  0.00    -0.504 OA
ATOM     20  H   UNL     1      40.871  41.137  27.685  1.00  0.00     0.293 HD
ENDBRANCH  16  19
BRANCH  18  21
ATOM     21  O   UNL     1      43.117  43.685  26.883  1.00  0.00    -0.504 OA
ATOM     22  H   UNL     1      43.060  43.700  27.898  1.00  0.00     0.293 HD
ENDBRANCH  18  21
ENDBRANCH   3  13
BRANCH   9  23
ATOM     23  O   UNL     1      43.116  35.457  19.943  1.00  0.00    -0.507 OA
ATOM     24  H   UNL     1      42.467  34.974  20.541  1.00  0.00     0.293 HD
ENDBRANCH   9  23
BRANCH   7  25
ATOM     25  O   UNL     1      47.626  37.040  19.492  1.00  0.00    -0.508 OA
ATOM     26  H   UNL     1      47.901  36.202  18.990  1.00  0.00     0.293 HD
ENDBRANCH   7  25
TORSDOF 6
ENDMDL
MODEL 9
REMARK VINA RESULT:    -6.674      6.334      8.404
REMARK INTER + INTRA:          -8.384
REMARK INTER:                  -8.080
REMARK INTRA:                  -0.304
REMARK UNBOUND:                -0.345
REMARK SMILES Oc1cc(O)c2c(c1)O[C@@H](c1ccc(O)c(O)c1)[C@H](O)C2
REMARK SMILES IDX 21 1 19 2 10 3 9 4 7 5 8 6 2 7 3 8 4 9 6 10 20 11 11 13
REMARK SMILES IDX 18 14 12 15 16 16 13 17 14 18 17 19 15 21 5 23 1 25
REMARK H PARENT 20 12 17 20 15 22 5 24 1 26
REMARK Flexibility Score: inf
ROOT
ATOM      1  C   UNL     1      55.822  51.001  31.664  1.00  0.00     0.079 C 
ATOM      2  C   UNL     1      54.285  50.847  31.492  1.00  0.00     0.164 C 
ATOM      3  C   UNL     1      53.822  50.309  30.106  1.00  0.00     0.232 C 
ATOM      4  O   UNL     1      54.852  49.587  29.434  1.00  0.00    -0.482 OA
ATOM      5  C   UNL     1      56.148  50.091  29.358  1.00  0.00     0.131 A 
ATOM      6  C   UNL     1      56.943  49.785  28.248  1.00  0.00     0.093 A 
ATOM      7  C   UNL     1      58.237  50.298  28.149  1.00  0.00     0.122 A 
ATOM      8  C   UNL     1      58.745  51.100  29.175  1.00  0.00     0.092 A 
ATOM      9  C   UNL     1      57.972  51.384  30.308  1.00  0.00     0.126 A 
ATOM     10  C   UNL     1      56.642  50.896  30.394  1.00  0.00     0.039 A 
ENDROOT
BRANCH   2  11
ATOM     11  O   UNL     1      53.673  52.097  31.697  1.00  0.00    -0.389 OA
ATOM     12  H   UNL     1      54.389  52.783  31.732  1.00  0.00     0.211 HD
ENDBRANCH   2  11
BRANCH   3  13
ATOM     13  C   UNL     1      52.563  49.472  30.237  1.00  0.00    -0.001 A 
ATOM     14  C   UNL     1      52.042  49.121  31.502  1.00  0.00     0.057 A 
ATOM     15  C   UNL     1      51.866  49.084  29.084  1.00  0.00     0.012 A 
ATOM     16  C   UNL     1      50.862  48.368  31.602  1.00  0.00     0.157 A 
ATOM     17  C   UNL     1      50.678  48.359  29.182  1.00  0.00     0.050 A 
ATOM     18  C   UNL     1      50.176  47.985  30.435  1.00  0.00     0.157 A 
BRANCH  16  19
ATOM     19  O   UNL     1      50.381  47.993  32.863  1.00  0.00    -0.504 OA
ATOM     20  H   UNL     1      50.171  47.024  33.083  1.00  0.00     0.293 HD
ENDBRANCH  16  19
BRANCH  18  21
ATOM     21  O   UNL     1      49.010  47.228  30.501  1.00  0.00    -0.504 OA
ATOM     22  H   UNL     1      48.531  46.893  29.669  1.00  0.00     0.293 HD
ENDBRANCH  18  21
ENDBRANCH   3  13
BRANCH   9  23
ATOM     23  O   UNL     1      58.573  52.125  31.328  1.00  0.00    -0.507 OA
ATOM     24  H   UNL     1      58.219  52.192  32.269  1.00  0.00     0.293 HD
ENDBRANCH   9  23
BRANCH   7  25
ATOM     25  O   UNL     1      59.031  50.023  27.037  1.00  0.00    -0.508 OA
ATOM     26  H   UNL     1      58.777  50.349  26.110  1.00  0.00     0.293 HD
ENDBRANCH   7  25
TORSDOF 6
ENDMDL
