MODEL 1
REMARK VINA RESULT:    -3.816      0.000      0.000
REMARK INTER + INTRA:          -5.125
REMARK INTER:                  -4.597
REMARK INTRA:                  -0.528
REMARK UNBOUND:                -0.528
REMARK SMILES O=c1ccn([C@@H]2O[C@H](CO)[C@@H](O)[C@H]2O)c(=O)[nH]1
REMARK SMILES IDX 6 1 13 2 11 3 8 4 7 5 5 6 3 7 4 8 2 9 17 10 1 11 15 12 16 14
REMARK SMILES IDX 14 15 12 17 9 19 10 20
REMARK H PARENT 17 13 14 16 12 18 10 21
REMARK Flexibility Score: inf
ROOT
ATOM      1  C   UNL     1     175.282 160.043 170.622  1.00  0.00     0.255 C 
ATOM      2  C   UNL     1     176.575 160.171 171.450  1.00  0.00     0.196 C 
ATOM      3  C   UNL     1     176.419 161.512 172.143  1.00  0.00     0.179 C 
ATOM      4  C   UNL     1     174.919 161.788 172.025  1.00  0.00     0.178 C 
ATOM      5  O   UNL     1     174.475 161.185 170.833  1.00  0.00    -0.347 OA
ENDROOT
BRANCH   1   6
ATOM      6  N   UNL     1     175.587 159.888 169.184  1.00  0.00    -0.271 N 
ATOM      7  C   UNL     1     177.091 160.277 167.354  1.00  0.00     0.090 A 
ATOM      8  C   UNL     1     176.770 160.382 168.705  1.00  0.00     0.099 A 
ATOM      9  C   UNL     1     176.179 159.670 166.498  1.00  0.00     0.253 A 
ATOM     10  N   UNL     1     175.002 159.201 166.988  1.00  0.00    -0.274 N 
ATOM     11  O   UNL     1     176.443 159.561 165.271  1.00  0.00    -0.269 OA
ATOM     12  C   UNL     1     174.697 159.309 168.310  1.00  0.00     0.330 A 
ATOM     13  H   UNL     1     174.317 158.753 166.336  1.00  0.00     0.175 HD
ATOM     14  O   UNL     1     173.585 158.875 168.720  1.00  0.00    -0.248 OA
ENDBRANCH   1   6
BRANCH   2  15
ATOM     15  O   UNL     1     176.724 159.101 172.356  1.00  0.00    -0.386 OA
ATOM     16  H   UNL     1     177.140 158.340 171.873  1.00  0.00     0.211 HD
ENDBRANCH   2  15
BRANCH   3  17
ATOM     17  O   UNL     1     176.896 161.521 173.470  1.00  0.00    -0.387 OA
ATOM     18  H   UNL     1     176.171 161.833 174.069  1.00  0.00     0.211 HD
ENDBRANCH   3  17
BRANCH   4  19
ATOM     19  C   UNL     1     174.602 163.286 171.993  1.00  0.00     0.191 C 
BRANCH  19  20
ATOM     20  O   UNL     1     175.789 164.028 172.051  1.00  0.00    -0.394 OA
ATOM     21  H   UNL     1     176.142 163.912 172.971  1.00  0.00     0.210 HD
ENDBRANCH  19  20
ENDBRANCH   4  19
TORSDOF 5
ENDMDL
MODEL 2
REMARK VINA RESULT:    -3.782     13.847     15.012
REMARK INTER + INTRA:          -5.085
REMARK INTER:                  -4.532
REMARK INTRA:                  -0.552
REMARK UNBOUND:                -0.528
REMARK SMILES O=c1ccn([C@@H]2O[C@H](CO)[C@@H](O)[C@H]2O)c(=O)[nH]1
REMARK SMILES IDX 6 1 13 2 11 3 8 4 7 5 5 6 3 7 4 8 2 9 17 10 1 11 15 12 16 14
REMARK SMILES IDX 14 15 12 17 9 19 10 20
REMARK H PARENT 17 13 14 16 12 18 10 21
REMARK Flexibility Score: inf
ROOT
ATOM      1  C   UNL     1     160.357 161.275 170.621  1.00  0.00     0.255 C 
ATOM      2  C   UNL     1     160.476 160.063 171.565  1.00  0.00     0.196 C 
ATOM      3  C   UNL     1     161.811 160.281 172.253  1.00  0.00     0.179 C 
ATOM      4  C   UNL     1     162.089 161.764 172.002  1.00  0.00     0.178 C 
ATOM      5  O   UNL     1     161.498 162.098 170.768  1.00  0.00    -0.347 OA
ENDROOT
BRANCH   1   6
ATOM      6  N   UNL     1     160.215 160.841 169.215  1.00  0.00    -0.271 N 
ATOM      7  C   UNL     1     160.749 159.254 167.497  1.00  0.00     0.090 A 
ATOM      8  C   UNL     1     160.839 159.691 168.816  1.00  0.00     0.099 A 
ATOM      9  C   UNL     1     160.023 160.017 166.590  1.00  0.00     0.253 A 
ATOM     10  N   UNL     1     159.424 161.165 167.000  1.00  0.00    -0.274 N 
ATOM     11  O   UNL     1     159.925 159.646 165.390  1.00  0.00    -0.269 OA
ATOM     12  C   UNL     1     159.518 161.585 168.292  1.00  0.00     0.330 A 
ATOM     13  H   UNL     1     158.886 161.739 166.310  1.00  0.00     0.175 HD
ATOM     14  O   UNL     1     158.961 162.666 168.627  1.00  0.00    -0.248 OA
ENDBRANCH   1   6
BRANCH   2  15
ATOM     15  O   UNL     1     159.398 159.998 172.470  1.00  0.00    -0.386 OA
ATOM     16  H   UNL     1     158.698 160.633 172.168  1.00  0.00     0.211 HD
ENDBRANCH   2  15
BRANCH   3  17
ATOM     17  O   UNL     1     161.807 159.926 173.617  1.00  0.00    -0.387 OA
ATOM     18  H   UNL     1     162.168 159.008 173.712  1.00  0.00     0.211 HD
ENDBRANCH   3  17
BRANCH   4  19
ATOM     19  C   UNL     1     163.588 162.076 171.955  1.00  0.00     0.191 C 
BRANCH  19  20
ATOM     20  O   UNL     1     164.322 160.969 172.402  1.00  0.00    -0.394 OA
ATOM     21  H   UNL     1     164.341 160.328 171.644  1.00  0.00     0.210 HD
ENDBRANCH  19  20
ENDBRANCH   4  19
TORSDOF 5
ENDMDL
MODEL 3
REMARK VINA RESULT:    -3.762      2.636      6.357
REMARK INTER + INTRA:          -5.060
REMARK INTER:                  -4.553
REMARK INTRA:                  -0.507
REMARK UNBOUND:                -0.528
REMARK SMILES O=c1ccn([C@@H]2O[C@H](CO)[C@@H](O)[C@H]2O)c(=O)[nH]1
REMARK SMILES IDX 6 1 13 2 11 3 8 4 7 5 5 6 3 7 4 8 2 9 17 10 1 11 15 12 16 14
REMARK SMILES IDX 14 15 12 17 9 19 10 20
REMARK H PARENT 17 13 14 16 12 18 10 21
REMARK Flexibility Score: inf
ROOT
ATOM      1  C   UNL     1     176.656 161.319 165.838  1.00  0.00     0.255 C 
ATOM      2  C   UNL     1     176.675 160.026 165.000  1.00  0.00     0.196 C 
ATOM      3  C   UNL     1     175.350 160.063 164.262  1.00  0.00     0.179 C 
ATOM      4  C   UNL     1     174.934 161.531 164.377  1.00  0.00     0.178 C 
ATOM      5  O   UNL     1     175.452 162.020 165.591  1.00  0.00    -0.347 OA
ENDROOT
BRANCH   1   6
ATOM      6  N   UNL     1     176.789 161.019 167.279  1.00  0.00    -0.271 N 
ATOM      7  C   UNL     1     176.593 159.432 169.069  1.00  0.00     0.090 A 
ATOM      8  C   UNL     1     176.501 159.755 167.718  1.00  0.00     0.099 A 
ATOM      9  C   UNL     1     176.972 160.423 169.966  1.00  0.00     0.253 A 
ATOM     10  N   UNL     1     177.239 161.677 169.516  1.00  0.00    -0.274 N 
ATOM     11  O   UNL     1     177.064 160.160 171.195  1.00  0.00    -0.269 OA
ATOM     12  C   UNL     1     177.145 161.983 168.192  1.00  0.00     0.330 A 
ATOM     13  H   UNL     1     177.516 162.420 170.198  1.00  0.00     0.175 HD
ATOM     14  O   UNL     1     177.384 163.164 167.819  1.00  0.00    -0.248 OA
ENDBRANCH   1   6
BRANCH   2  15
ATOM     15  O   UNL     1     177.785 159.983 164.131  1.00  0.00    -0.386 OA
ATOM     16  H   UNL     1     178.135 159.054 164.118  1.00  0.00     0.211 HD
ENDBRANCH   2  15
BRANCH   3  17
ATOM     17  O   UNL     1     175.430 159.598 162.934  1.00  0.00    -0.387 OA
ATOM     18  H   UNL     1     175.549 158.614 162.945  1.00  0.00     0.211 HD
ENDBRANCH   3  17
BRANCH   4  19
ATOM     19  C   UNL     1     173.413 161.708 164.358  1.00  0.00     0.191 C 
BRANCH  19  20
ATOM     20  O   UNL     1     172.827 160.740 163.532  1.00  0.00    -0.394 OA
ATOM     21  H   UNL     1     173.513 160.508 162.853  1.00  0.00     0.210 HD
ENDBRANCH  19  20
ENDBRANCH   4  19
TORSDOF 5
ENDMDL
MODEL 4
REMARK VINA RESULT:    -3.726     20.642     22.802
REMARK INTER + INTRA:          -5.016
REMARK INTER:                  -4.548
REMARK INTRA:                  -0.468
REMARK UNBOUND:                -0.528
REMARK SMILES O=c1ccn([C@@H]2O[C@H](CO)[C@@H](O)[C@H]2O)c(=O)[nH]1
REMARK SMILES IDX 6 1 13 2 11 3 8 4 7 5 5 6 3 7 4 8 2 9 17 10 1 11 15 12 16 14
REMARK SMILES IDX 14 15 12 17 9 19 10 20
REMARK H PARENT 17 13 14 16 12 18 10 21
REMARK Flexibility Score: inf
ROOT
ATOM      1  C   UNL     1     159.794 175.977 166.113  1.00  0.00     0.255 C 
ATOM      2  C   UNL     1     160.019 177.231 165.246  1.00  0.00     0.196 C 
ATOM      3  C   UNL     1     161.279 176.900 164.468  1.00  0.00     0.179 C 
ATOM      4  C   UNL     1     161.378 175.380 164.603  1.00  0.00     0.178 C 
ATOM      5  O   UNL     1     160.812 175.032 165.845  1.00  0.00    -0.347 OA
ENDROOT
BRANCH   1   6
ATOM      6  N   UNL     1     159.779 176.322 167.550  1.00  0.00    -0.271 N 
ATOM      7  C   UNL     1     160.312 177.890 169.287  1.00  0.00     0.090 A 
ATOM      8  C   UNL     1     160.286 177.531 167.942  1.00  0.00     0.099 A 
ATOM      9  C   UNL     1     159.822 176.990 170.226  1.00  0.00     0.253 A 
ATOM     10  N   UNL     1     159.337 175.787 169.821  1.00  0.00    -0.274 N 
ATOM     11  O   UNL     1     159.832 177.288 171.450  1.00  0.00    -0.269 OA
ATOM     12  C   UNL     1     159.318 175.445 168.503  1.00  0.00     0.330 A 
ATOM     13  H   UNL     1     158.978 175.111 170.534  1.00  0.00     0.175 HD
ATOM     14  O   UNL     1     158.876 174.310 168.172  1.00  0.00    -0.248 OA
ENDBRANCH   1   6
BRANCH   2  15
ATOM     15  O   UNL     1     158.914 177.495 164.412  1.00  0.00    -0.386 OA
ATOM     16  H   UNL     1     158.828 178.479 164.311  1.00  0.00     0.211 HD
ENDBRANCH   2  15
BRANCH   3  17
ATOM     17  O   UNL     1     161.252 177.351 163.132  1.00  0.00    -0.387 OA
ATOM     18  H   UNL     1     161.968 178.024 163.006  1.00  0.00     0.211 HD
ENDBRANCH   3  17
BRANCH   4  19
ATOM     19  C   UNL     1     162.825 174.882 164.541  1.00  0.00     0.191 C 
BRANCH  19  20
ATOM     20  O   UNL     1     163.706 175.972 164.514  1.00  0.00    -0.394 OA
ATOM     21  H   UNL     1     164.207 175.942 165.371  1.00  0.00     0.210 HD
ENDBRANCH  19  20
ENDBRANCH   4  19
TORSDOF 5
ENDMDL
MODEL 5
REMARK VINA RESULT:    -3.671     14.439     15.583
REMARK INTER + INTRA:          -4.950
REMARK INTER:                  -4.415
REMARK INTRA:                  -0.535
REMARK UNBOUND:                -0.528
REMARK SMILES O=c1ccn([C@@H]2O[C@H](CO)[C@@H](O)[C@H]2O)c(=O)[nH]1
REMARK SMILES IDX 6 1 13 2 11 3 8 4 7 5 5 6 3 7 4 8 2 9 17 10 1 11 15 12 16 14
REMARK SMILES IDX 14 15 12 17 9 19 10 20
REMARK H PARENT 17 13 14 16 12 18 10 21
REMARK Flexibility Score: inf
ROOT
ATOM      1  C   UNL     1     177.104 175.493 170.993  1.00  0.00     0.255 C 
ATOM      2  C   UNL     1     176.936 176.757 171.857  1.00  0.00     0.196 C 
ATOM      3  C   UNL     1     175.603 176.540 172.548  1.00  0.00     0.179 C 
ATOM      4  C   UNL     1     175.374 175.036 172.389  1.00  0.00     0.178 C 
ATOM      5  O   UNL     1     175.988 174.644 171.183  1.00  0.00    -0.347 OA
ENDROOT
BRANCH   1   6
ATOM      6  N   UNL     1     177.245 175.842 169.564  1.00  0.00    -0.271 N 
ATOM      7  C   UNL     1     176.755 177.354 167.765  1.00  0.00     0.090 A 
ATOM      8  C   UNL     1     176.665 176.995 169.108  1.00  0.00     0.099 A 
ATOM      9  C   UNL     1     177.436 176.511 166.895  1.00  0.00     0.253 A 
ATOM     10  N   UNL     1     177.992 175.363 167.362  1.00  0.00    -0.274 N 
ATOM     11  O   UNL     1     177.534 176.811 165.675  1.00  0.00    -0.269 OA
ATOM     12  C   UNL     1     177.897 175.020 168.676  1.00  0.00     0.330 A 
ATOM     13  H   UNL     1     178.496 174.729 166.699  1.00  0.00     0.175 HD
ATOM     14  O   UNL     1     178.412 173.935 169.064  1.00  0.00    -0.248 OA
ENDBRANCH   1   6
BRANCH   2  15
ATOM     15  O   UNL     1     178.003 176.915 172.765  1.00  0.00    -0.386 OA
ATOM     16  H   UNL     1     178.651 176.177 172.616  1.00  0.00     0.211 HD
ENDBRANCH   2  15
BRANCH   3  17
ATOM     17  O   UNL     1     175.582 176.979 173.887  1.00  0.00    -0.387 OA
ATOM     18  H   UNL     1     176.473 177.345 174.119  1.00  0.00     0.211 HD
ENDBRANCH   3  17
BRANCH   4  19
ATOM     19  C   UNL     1     173.887 174.673 172.350  1.00  0.00     0.191 C 
BRANCH  19  20
ATOM     20  O   UNL     1     173.108 175.834 172.444  1.00  0.00    -0.394 OA
ATOM     21  H   UNL     1     172.249 175.555 172.857  1.00  0.00     0.210 HD
ENDBRANCH  19  20
ENDBRANCH   4  19
TORSDOF 5
ENDMDL
MODEL 6
REMARK VINA RESULT:    -3.664     14.689     16.999
REMARK INTER + INTRA:          -4.942
REMARK INTER:                  -4.395
REMARK INTRA:                  -0.546
REMARK UNBOUND:                -0.528
REMARK SMILES O=c1ccn([C@@H]2O[C@H](CO)[C@@H](O)[C@H]2O)c(=O)[nH]1
REMARK SMILES IDX 6 1 13 2 11 3 8 4 7 5 5 6 3 7 4 8 2 9 17 10 1 11 15 12 16 14
REMARK SMILES IDX 14 15 12 17 9 19 10 20
REMARK H PARENT 17 13 14 16 12 18 10 21
REMARK Flexibility Score: inf
ROOT
ATOM      1  C   UNL     1     175.900 176.881 166.047  1.00  0.00     0.255 C 
ATOM      2  C   UNL     1     177.188 176.828 165.203  1.00  0.00     0.196 C 
ATOM      3  C   UNL     1     177.053 175.529 164.432  1.00  0.00     0.179 C 
ATOM      4  C   UNL     1     175.559 175.216 164.544  1.00  0.00     0.178 C 
ATOM      5  O   UNL     1     175.113 175.737 165.773  1.00  0.00    -0.347 OA
ENDROOT
BRANCH   1   6
ATOM      6  N   UNL     1     176.214 176.955 167.489  1.00  0.00    -0.271 N 
ATOM      7  C   UNL     1     177.656 176.344 169.307  1.00  0.00     0.090 A 
ATOM      8  C   UNL     1     177.332 176.317 167.953  1.00  0.00     0.099 A 
ATOM      9  C   UNL     1     176.814 177.021 170.181  1.00  0.00     0.253 A 
ATOM     10  N   UNL     1     175.699 177.634 169.705  1.00  0.00    -0.274 N 
ATOM     11  O   UNL     1     177.082 177.061 171.411  1.00  0.00    -0.269 OA
ATOM     12  C   UNL     1     175.389 177.602 168.380  1.00  0.00     0.330 A 
ATOM     13  H   UNL     1     175.065 178.134 170.370  1.00  0.00     0.175 HD
ATOM     14  O   UNL     1     174.335 178.169 167.983  1.00  0.00    -0.248 OA
ENDBRANCH   1   6
BRANCH   2  15
ATOM     15  O   UNL     1     177.308 177.953 164.362  1.00  0.00    -0.386 OA
ATOM     16  H   UNL     1     177.212 177.652 163.421  1.00  0.00     0.211 HD
ENDBRANCH   2  15
BRANCH   3  17
ATOM     17  O   UNL     1     177.518 175.609 163.104  1.00  0.00    -0.387 OA
ATOM     18  H   UNL     1     176.869 175.155 162.508  1.00  0.00     0.211 HD
ENDBRANCH   3  17
BRANCH   4  19
ATOM     19  C   UNL     1     175.272 173.713 164.488  1.00  0.00     0.191 C 
BRANCH  19  20
ATOM     20  O   UNL     1     176.466 173.004 164.301  1.00  0.00    -0.394 OA
ATOM     21  H   UNL     1     176.686 172.600 165.180  1.00  0.00     0.210 HD
ENDBRANCH  19  20
ENDBRANCH   4  19
TORSDOF 5
ENDMDL
MODEL 7
REMARK VINA RESULT:    -3.651      2.323      5.537
REMARK INTER + INTRA:          -4.926
REMARK INTER:                  -4.380
REMARK INTRA:                  -0.546
REMARK UNBOUND:                -0.528
REMARK SMILES O=c1ccn([C@@H]2O[C@H](CO)[C@@H](O)[C@H]2O)c(=O)[nH]1
REMARK SMILES IDX 6 1 13 2 11 3 8 4 7 5 5 6 3 7 4 8 2 9 17 10 1 11 15 12 16 14
REMARK SMILES IDX 14 15 12 17 9 19 10 20
REMARK H PARENT 17 13 14 16 12 18 10 21
REMARK Flexibility Score: inf
ROOT
ATOM      1  C   UNL     1     176.452 161.575 170.166  1.00  0.00     0.255 C 
ATOM      2  C   UNL     1     177.643 161.000 169.375  1.00  0.00     0.196 C 
ATOM      3  C   UNL     1     176.983 160.301 168.201  1.00  0.00     0.179 C 
ATOM      4  C   UNL     1     175.583 160.917 168.177  1.00  0.00     0.178 C 
ATOM      5  O   UNL     1     175.246 161.245 169.504  1.00  0.00    -0.347 OA
ENDROOT
BRANCH   1   6
ATOM      6  N   UNL     1     176.436 161.057 171.550  1.00  0.00    -0.271 N 
ATOM      7  C   UNL     1     176.760 159.214 173.053  1.00  0.00     0.090 A 
ATOM      8  C   UNL     1     176.780 159.751 171.768  1.00  0.00     0.099 A 
ATOM      9  C   UNL     1     176.370 160.029 174.109  1.00  0.00     0.253 A 
ATOM     10  N   UNL     1     176.015 161.318 173.872  1.00  0.00    -0.274 N 
ATOM     11  O   UNL     1     176.343 159.570 175.282  1.00  0.00    -0.269 OA
ATOM     12  C   UNL     1     176.038 161.834 172.612  1.00  0.00     0.330 A 
ATOM     13  H   UNL     1     175.715 161.924 174.671  1.00  0.00     0.175 HD
ATOM     14  O   UNL     1     175.683 163.032 172.435  1.00  0.00    -0.248 OA
ENDBRANCH   1   6
BRANCH   2  15
ATOM     15  O   UNL     1     178.541 162.011 168.975  1.00  0.00    -0.386 OA
ATOM     16  H   UNL     1     179.220 162.126 169.691  1.00  0.00     0.211 HD
ENDBRANCH   2  15
BRANCH   3  17
ATOM     17  O   UNL     1     177.688 160.445 166.989  1.00  0.00    -0.387 OA
ATOM     18  H   UNL     1     178.045 161.367 166.932  1.00  0.00     0.211 HD
ENDBRANCH   3  17
BRANCH   4  19
ATOM     19  C   UNL     1     174.535 159.960 167.602  1.00  0.00     0.191 C 
BRANCH  19  20
ATOM     20  O   UNL     1     175.150 159.028 166.756  1.00  0.00    -0.394 OA
ATOM     21  H   UNL     1     175.948 159.482 166.380  1.00  0.00     0.210 HD
ENDBRANCH  19  20
ENDBRANCH   4  19
TORSDOF 5
ENDMDL
MODEL 8
REMARK VINA RESULT:    -3.627     20.160     22.166
REMARK INTER + INTRA:          -4.897
REMARK INTER:                  -4.334
REMARK INTRA:                  -0.563
REMARK UNBOUND:                -0.528
REMARK SMILES O=c1ccn([C@@H]2O[C@H](CO)[C@@H](O)[C@H]2O)c(=O)[nH]1
REMARK SMILES IDX 6 1 13 2 11 3 8 4 7 5 5 6 3 7 4 8 2 9 17 10 1 11 15 12 16 14
REMARK SMILES IDX 14 15 12 17 9 19 10 20
REMARK H PARENT 17 13 14 16 12 18 10 21
REMARK Flexibility Score: inf
ROOT
ATOM      1  C   UNL     1     161.094 177.014 170.172  1.00  0.00     0.255 C 
ATOM      2  C   UNL     1     160.009 177.198 171.250  1.00  0.00     0.196 C 
ATOM      3  C   UNL     1     160.328 176.114 172.262  1.00  0.00     0.179 C 
ATOM      4  C   UNL     1     161.773 175.743 171.924  1.00  0.00     0.178 C 
ATOM      5  O   UNL     1     161.945 175.946 170.541  1.00  0.00    -0.347 OA
ENDROOT
BRANCH   1   6
ATOM      6  N   UNL     1     160.488 176.754 168.849  1.00  0.00    -0.271 N 
ATOM      7  C   UNL     1     159.178 175.319 167.441  1.00  0.00     0.090 A 
ATOM      8  C   UNL     1     159.750 175.615 168.675  1.00  0.00     0.099 A 
ATOM      9  C   UNL     1     159.382 176.198 166.384  1.00  0.00     0.253 A 
ATOM     10  N   UNL     1     160.131 177.315 166.570  1.00  0.00    -0.274 N 
ATOM     11  O   UNL     1     158.875 175.956 165.256  1.00  0.00    -0.269 OA
ATOM     12  C   UNL     1     160.688 177.596 167.780  1.00  0.00     0.330 A 
ATOM     13  H   UNL     1     160.288 177.968 165.767  1.00  0.00     0.175 HD
ATOM     14  O   UNL     1     161.392 178.635 167.904  1.00  0.00    -0.248 OA
ENDBRANCH   1   6
BRANCH   2  15
ATOM     15  O   UNL     1     160.039 178.493 171.806  1.00  0.00    -0.386 OA
ATOM     16  H   UNL     1     160.150 178.408 172.789  1.00  0.00     0.211 HD
ENDBRANCH   2  15
BRANCH   3  17
ATOM     17  O   UNL     1     160.144 176.519 173.600  1.00  0.00    -0.387 OA
ATOM     18  H   UNL     1     159.562 175.861 174.058  1.00  0.00     0.211 HD
ENDBRANCH   3  17
BRANCH   4  19
ATOM     19  C   UNL     1     162.098 174.288 172.275  1.00  0.00     0.191 C 
BRANCH  19  20
ATOM     20  O   UNL     1     161.085 173.751 173.080  1.00  0.00    -0.394 OA
ATOM     21  H   UNL     1     160.383 174.450 173.141  1.00  0.00     0.210 HD
ENDBRANCH  19  20
ENDBRANCH   4  19
TORSDOF 5
ENDMDL
MODEL 9
REMARK VINA RESULT:    -3.608     15.869     16.892
REMARK INTER + INTRA:          -4.874
REMARK INTER:                  -4.327
REMARK INTRA:                  -0.547
REMARK UNBOUND:                -0.528
REMARK SMILES O=c1ccn([C@@H]2O[C@H](CO)[C@@H](O)[C@H]2O)c(=O)[nH]1
REMARK SMILES IDX 6 1 13 2 11 3 8 4 7 5 5 6 3 7 4 8 2 9 17 10 1 11 15 12 16 14
REMARK SMILES IDX 14 15 12 17 9 19 10 20
REMARK H PARENT 17 13 14 16 12 18 10 21
REMARK Flexibility Score: inf
ROOT
ATOM      1  C   UNL     1     176.599 175.949 165.916  1.00  0.00     0.255 C 
ATOM      2  C   UNL     1     177.659 176.386 166.945  1.00  0.00     0.196 C 
ATOM      3  C   UNL     1     176.867 177.220 167.935  1.00  0.00     0.179 C 
ATOM      4  C   UNL     1     175.421 176.805 167.655  1.00  0.00     0.178 C 
ATOM      5  O   UNL     1     175.339 176.470 166.290  1.00  0.00    -0.347 OA
ENDROOT
BRANCH   1   6
ATOM      6  N   UNL     1     176.960 176.404 164.557  1.00  0.00    -0.271 N 
ATOM      7  C   UNL     1     177.620 178.197 163.104  1.00  0.00     0.090 A 
ATOM      8  C   UNL     1     177.292 177.719 164.370  1.00  0.00     0.099 A 
ATOM      9  C   UNL     1     177.590 177.315 162.031  1.00  0.00     0.253 A 
ATOM     10  N   UNL     1     177.242 176.017 162.231  1.00  0.00    -0.274 N 
ATOM     11  O   UNL     1     177.882 177.720 160.873  1.00  0.00    -0.269 OA
ATOM     12  C   UNL     1     176.923 175.559 163.473  1.00  0.00     0.330 A 
ATOM     13  H   UNL     1     177.214 175.361 161.417  1.00  0.00     0.175 HD
ATOM     14  O   UNL     1     176.588 174.351 163.612  1.00  0.00    -0.248 OA
ENDBRANCH   1   6
BRANCH   2  15
ATOM     15  O   UNL     1     178.293 175.280 167.545  1.00  0.00    -0.386 OA
ATOM     16  H   UNL     1     178.538 175.527 168.475  1.00  0.00     0.211 HD
ENDBRANCH   2  15
BRANCH   3  17
ATOM     17  O   UNL     1     177.263 177.032 169.275  1.00  0.00    -0.387 OA
ATOM     18  H   UNL     1     178.251 176.979 169.314  1.00  0.00     0.211 HD
ENDBRANCH   3  17
BRANCH   4  19
ATOM     19  C   UNL     1     174.423 177.922 167.973  1.00  0.00     0.191 C 
BRANCH  19  20
ATOM     20  O   UNL     1     175.022 178.879 168.801  1.00  0.00    -0.394 OA
ATOM     21  H   UNL     1     174.502 178.874 169.648  1.00  0.00     0.210 HD
ENDBRANCH  19  20
ENDBRANCH   4  19
TORSDOF 5
ENDMDL
