MODEL 1
REMARK VINA RESULT:    -4.773      0.000      0.000
REMARK INTER + INTRA:          -9.186
REMARK INTER:                  -8.680
REMARK INTRA:                  -0.506
REMARK UNBOUND:                -0.506
REMARK SMILES CCCCCCCCCCCCCCCC(=O)[O-]
REMARK SMILES IDX 9 1 10 2 11 3 12 4 13 5 14 6 15 7 16 8 17 9 18 10 8 11 7 12
REMARK SMILES IDX 6 13 5 14 4 15 3 16 2 17 1 18
REMARK H PARENT
REMARK Flexibility Score: inf
ROOT
ATOM      1  C   UNL     1      -5.014 -13.595   0.206  1.00  0.00     0.000 C 
ENDROOT
BRANCH   1   2
ATOM      2  C   UNL     1      -5.087 -12.065   0.303  1.00  0.00     0.000 C 
BRANCH   2   3
ATOM      3  C   UNL     1      -6.529 -11.536   0.229  1.00  0.00     0.000 C 
BRANCH   3   4
ATOM      4  C   UNL     1      -6.634 -10.038   0.566  1.00  0.00     0.000 C 
BRANCH   4   5
ATOM      5  C   UNL     1      -7.152  -9.146  -0.581  1.00  0.00     0.000 C 
BRANCH   5   6
ATOM      6  C   UNL     1      -8.014  -7.950  -0.141  1.00  0.00     0.006 C 
BRANCH   6   7
ATOM      7  C   UNL     1      -9.457  -8.345   0.194  1.00  0.00     0.053 C 
BRANCH   7   8
ATOM      8  C   UNL     1     -10.286  -7.125   0.445  1.00  0.00     0.041 C 
ATOM      9  O   UNL     1     -11.325  -6.916  -0.230  1.00  0.00    -0.550 OA
ATOM     10  O   UNL     1      -9.882  -6.192   1.391  1.00  0.00    -0.550 OA
ENDBRANCH   7   8
ENDBRANCH   6   7
ENDBRANCH   5   6
ENDBRANCH   4   5
ENDBRANCH   3   4
ENDBRANCH   2   3
ENDBRANCH   1   2
BRANCH   1  11
ATOM     11  C   UNL     1      -6.403 -14.259   0.229  1.00  0.00     0.000 C 
BRANCH  11  12
ATOM     12  C   UNL     1      -6.477 -15.418   1.245  1.00  0.00    -0.000 C 
BRANCH  12  13
ATOM     13  C   UNL     1      -5.827 -16.716   0.741  1.00  0.00    -0.000 C 
BRANCH  13  14
ATOM     14  C   UNL     1      -6.743 -17.939   0.891  1.00  0.00    -0.000 C 
BRANCH  14  15
ATOM     15  C   UNL     1      -6.326 -19.058  -0.071  1.00  0.00    -0.000 C 
BRANCH  15  16
ATOM     16  C   UNL     1      -7.381 -20.170  -0.179  1.00  0.00    -0.000 C 
BRANCH  16  17
ATOM     17  C   UNL     1      -7.365 -20.870  -1.547  1.00  0.00    -0.003 C 
ATOM     18  C   UNL     1      -5.997 -20.754  -2.212  1.00  0.00     0.004 C 
ENDBRANCH  16  17
ENDBRANCH  15  16
ENDBRANCH  14  15
ENDBRANCH  13  14
ENDBRANCH  12  13
ENDBRANCH  11  12
ENDBRANCH   1  11
TORSDOF 14
ENDMDL
MODEL 2
REMARK VINA RESULT:    -4.631      4.425     10.020
REMARK INTER + INTRA:          -8.928
REMARK INTER:                  -7.408
REMARK INTRA:                  -1.520
REMARK UNBOUND:                -0.506
REMARK SMILES CCCCCCCCCCCCCCCC(=O)[O-]
REMARK SMILES IDX 9 1 10 2 11 3 12 4 13 5 14 6 15 7 16 8 17 9 18 10 8 11 7 12
REMARK SMILES IDX 6 13 5 14 4 15 3 16 2 17 1 18
REMARK H PARENT
REMARK Flexibility Score: inf
ROOT
ATOM      1  C   UNL     1      -8.975  -7.980   0.064  1.00  0.00     0.000 C 
ENDROOT
BRANCH   1   2
ATOM      2  C   UNL     1      -8.561  -8.771   1.313  1.00  0.00     0.000 C 
BRANCH   2   3
ATOM      3  C   UNL     1      -7.155  -9.382   1.186  1.00  0.00     0.000 C 
BRANCH   3   4
ATOM      4  C   UNL     1      -6.833  -9.847  -0.245  1.00  0.00     0.000 C 
BRANCH   4   5
ATOM      5  C   UNL     1      -6.041 -11.168  -0.338  1.00  0.00     0.000 C 
BRANCH   5   6
ATOM      6  C   UNL     1      -6.387 -12.215   0.734  1.00  0.00     0.006 C 
BRANCH   6   7
ATOM      7  C   UNL     1      -5.803 -13.598   0.429  1.00  0.00     0.053 C 
BRANCH   7   8
ATOM      8  C   UNL     1      -6.477 -14.644   1.259  1.00  0.00     0.041 C 
ATOM      9  O   UNL     1      -7.186 -15.526   0.713  1.00  0.00    -0.550 OA
ATOM     10  O   UNL     1      -6.363 -14.614   2.643  1.00  0.00    -0.550 OA
ENDBRANCH   7   8
ENDBRANCH   6   7
ENDBRANCH   5   6
ENDBRANCH   4   5
ENDBRANCH   3   4
ENDBRANCH   2   3
ENDBRANCH   1   2
BRANCH   1  11
ATOM     11  C   UNL     1     -10.434  -7.494   0.124  1.00  0.00     0.000 C 
BRANCH  11  12
ATOM     12  C   UNL     1     -10.560  -6.113   0.799  1.00  0.00    -0.000 C 
BRANCH  12  13
ATOM     13  C   UNL     1     -10.818  -6.192   2.312  1.00  0.00    -0.000 C 
BRANCH  13  14
ATOM     14  C   UNL     1      -9.881  -5.289   3.125  1.00  0.00    -0.000 C 
BRANCH  14  15
ATOM     15  C   UNL     1      -8.777  -4.703   2.236  1.00  0.00    -0.000 C 
BRANCH  15  16
ATOM     16  C   UNL     1      -7.432  -5.427   2.407  1.00  0.00    -0.000 C 
BRANCH  16  17
ATOM     17  C   UNL     1      -6.346  -4.890   1.463  1.00  0.00    -0.003 C 
ATOM     18  C   UNL     1      -6.009  -5.904   0.373  1.00  0.00     0.004 C 
ENDBRANCH  16  17
ENDBRANCH  15  16
ENDBRANCH  14  15
ENDBRANCH  13  14
ENDBRANCH  12  13
ENDBRANCH  11  12
ENDBRANCH   1  11
TORSDOF 14
ENDMDL
MODEL 3
REMARK VINA RESULT:    -4.621      4.824     10.068
REMARK INTER + INTRA:          -8.910
REMARK INTER:                  -7.525
REMARK INTRA:                  -1.385
REMARK UNBOUND:                -0.506
REMARK SMILES CCCCCCCCCCCCCCCC(=O)[O-]
REMARK SMILES IDX 9 1 10 2 11 3 12 4 13 5 14 6 15 7 16 8 17 9 18 10 8 11 7 12
REMARK SMILES IDX 6 13 5 14 4 15 3 16 2 17 1 18
REMARK H PARENT
REMARK Flexibility Score: inf
ROOT
ATOM      1  C   UNL     1     -10.485  -7.155   0.217  1.00  0.00     0.000 C 
ENDROOT
BRANCH   1   2
ATOM      2  C   UNL     1      -9.378  -8.035   0.814  1.00  0.00     0.000 C 
BRANCH   2   3
ATOM      3  C   UNL     1      -8.832  -9.061  -0.194  1.00  0.00     0.000 C 
BRANCH   3   4
ATOM      4  C   UNL     1      -7.310  -8.951  -0.392  1.00  0.00     0.000 C 
BRANCH   4   5
ATOM      5  C   UNL     1      -6.477  -9.027   0.905  1.00  0.00     0.000 C 
BRANCH   5   6
ATOM      6  C   UNL     1      -5.666 -10.323   1.086  1.00  0.00     0.006 C 
BRANCH   6   7
ATOM      7  C   UNL     1      -5.963 -11.368   0.005  1.00  0.00     0.053 C 
BRANCH   7   8
ATOM      8  C   UNL     1      -6.225 -12.703   0.628  1.00  0.00     0.041 C 
ATOM      9  O   UNL     1      -5.973 -13.758  -0.006  1.00  0.00    -0.550 OA
ATOM     10  O   UNL     1      -6.797 -12.780   1.891  1.00  0.00    -0.550 OA
ENDBRANCH   7   8
ENDBRANCH   6   7
ENDBRANCH   5   6
ENDBRANCH   4   5
ENDBRANCH   3   4
ENDBRANCH   2   3
ENDBRANCH   1   2
BRANCH   1  11
ATOM     11  C   UNL     1     -10.494  -5.731   0.804  1.00  0.00     0.000 C 
BRANCH  11  12
ATOM     12  C   UNL     1      -9.790  -5.662   2.175  1.00  0.00    -0.000 C 
BRANCH  12  13
ATOM     13  C   UNL     1      -8.604  -4.685   2.205  1.00  0.00    -0.000 C 
BRANCH  13  14
ATOM     14  C   UNL     1      -7.246  -5.397   2.270  1.00  0.00    -0.000 C 
BRANCH  14  15
ATOM     15  C   UNL     1      -6.240  -4.747   1.311  1.00  0.00    -0.000 C 
BRANCH  15  16
ATOM     16  C   UNL     1      -5.818  -5.686   0.169  1.00  0.00    -0.000 C 
BRANCH  16  17
ATOM     17  C   UNL     1      -5.047  -4.958  -0.942  1.00  0.00    -0.003 C 
ATOM     18  C   UNL     1      -4.883  -3.475  -0.621  1.00  0.00     0.004 C 
ENDBRANCH  16  17
ENDBRANCH  15  16
ENDBRANCH  14  15
ENDBRANCH  13  14
ENDBRANCH  12  13
ENDBRANCH  11  12
ENDBRANCH   1  11
TORSDOF 14
ENDMDL
MODEL 4
REMARK VINA RESULT:    -4.591      3.217      5.177
REMARK INTER + INTRA:          -8.855
REMARK INTER:                  -7.285
REMARK INTRA:                  -1.571
REMARK UNBOUND:                -0.506
REMARK SMILES CCCCCCCCCCCCCCCC(=O)[O-]
REMARK SMILES IDX 9 1 10 2 11 3 12 4 13 5 14 6 15 7 16 8 17 9 18 10 8 11 7 12
REMARK SMILES IDX 6 13 5 14 4 15 3 16 2 17 1 18
REMARK H PARENT
REMARK Flexibility Score: inf
ROOT
ATOM      1  C   UNL     1      -7.498  -8.544  -0.250  1.00  0.00     0.000 C 
ENDROOT
BRANCH   1   2
ATOM      2  C   UNL     1      -6.541  -7.344  -0.274  1.00  0.00     0.000 C 
BRANCH   2   3
ATOM      3  C   UNL     1      -6.398  -6.676   1.104  1.00  0.00     0.000 C 
BRANCH   3   4
ATOM      4  C   UNL     1      -7.690  -5.980   1.567  1.00  0.00     0.000 C 
BRANCH   4   5
ATOM      5  C   UNL     1      -8.429  -6.681   2.725  1.00  0.00     0.000 C 
BRANCH   5   6
ATOM      6  C   UNL     1      -9.791  -7.294   2.356  1.00  0.00     0.006 C 
BRANCH   6   7
ATOM      7  C   UNL     1     -10.826  -6.243   1.940  1.00  0.00     0.053 C 
BRANCH   7   8
ATOM      8  C   UNL     1     -11.099  -6.333   0.472  1.00  0.00     0.041 C 
ATOM      9  O   UNL     1     -10.805  -7.376  -0.164  1.00  0.00    -0.550 OA
ATOM     10  O   UNL     1     -11.633  -5.244  -0.205  1.00  0.00    -0.550 OA
ENDBRANCH   7   8
ENDBRANCH   6   7
ENDBRANCH   5   6
ENDBRANCH   4   5
ENDBRANCH   3   4
ENDBRANCH   2   3
ENDBRANCH   1   2
BRANCH   1  11
ATOM     11  C   UNL     1      -6.766  -9.891  -0.390  1.00  0.00     0.000 C 
BRANCH  11  12
ATOM     12  C   UNL     1      -6.186 -10.380   0.953  1.00  0.00    -0.000 C 
BRANCH  12  13
ATOM     13  C   UNL     1      -7.109 -10.113   2.153  1.00  0.00    -0.000 C 
BRANCH  13  14
ATOM     14  C   UNL     1      -7.379 -11.372   2.988  1.00  0.00    -0.000 C 
BRANCH  14  15
ATOM     15  C   UNL     1      -6.436 -12.512   2.584  1.00  0.00    -0.000 C 
BRANCH  15  16
ATOM     16  C   UNL     1      -7.070 -13.900   2.772  1.00  0.00    -0.000 C 
BRANCH  16  17
ATOM     17  C   UNL     1      -6.843 -14.822   1.565  1.00  0.00    -0.003 C 
ATOM     18  C   UNL     1      -6.321 -14.041   0.362  1.00  0.00     0.004 C 
ENDBRANCH  16  17
ENDBRANCH  15  16
ENDBRANCH  14  15
ENDBRANCH  13  14
ENDBRANCH  12  13
ENDBRANCH  11  12
ENDBRANCH   1  11
TORSDOF 14
ENDMDL
MODEL 5
REMARK VINA RESULT:    -4.520      4.920     10.168
REMARK INTER + INTRA:          -8.725
REMARK INTER:                  -8.082
REMARK INTRA:                  -0.643
REMARK UNBOUND:                -0.506
REMARK SMILES CCCCCCCCCCCCCCCC(=O)[O-]
REMARK SMILES IDX 9 1 10 2 11 3 12 4 13 5 14 6 15 7 16 8 17 9 18 10 8 11 7 12
REMARK SMILES IDX 6 13 5 14 4 15 3 16 2 17 1 18
REMARK H PARENT
REMARK Flexibility Score: inf
ROOT
ATOM      1  C   UNL     1      -6.088 -12.876   0.191  1.00  0.00     0.000 C 
ENDROOT
BRANCH   1   2
ATOM      2  C   UNL     1      -6.267 -13.001   1.710  1.00  0.00     0.000 C 
BRANCH   2   3
ATOM      3  C   UNL     1      -6.890 -14.345   2.123  1.00  0.00     0.000 C 
BRANCH   3   4
ATOM      4  C   UNL     1      -6.070 -15.555   1.643  1.00  0.00     0.000 C 
BRANCH   4   5
ATOM      5  C   UNL     1      -6.844 -16.559   0.763  1.00  0.00     0.000 C 
BRANCH   5   6
ATOM      6  C   UNL     1      -6.658 -18.039   1.141  1.00  0.00     0.006 C 
BRANCH   6   7
ATOM      7  C   UNL     1      -6.317 -18.924  -0.063  1.00  0.00     0.053 C 
BRANCH   7   8
ATOM      8  C   UNL     1      -7.236 -20.103  -0.121  1.00  0.00     0.041 C 
ATOM      9  O   UNL     1      -7.530 -20.728   0.928  1.00  0.00    -0.550 OA
ATOM     10  O   UNL     1      -7.727 -20.542  -1.343  1.00  0.00    -0.550 OA
ENDBRANCH   7   8
ENDBRANCH   6   7
ENDBRANCH   5   6
ENDBRANCH   4   5
ENDBRANCH   3   4
ENDBRANCH   2   3
ENDBRANCH   1   2
BRANCH   1  11
ATOM     11  C   UNL     1      -5.779 -11.435  -0.255  1.00  0.00     0.000 C 
BRANCH  11  12
ATOM     12  C   UNL     1      -6.850 -10.435   0.226  1.00  0.00    -0.000 C 
BRANCH  12  13
ATOM     13  C   UNL     1      -6.424  -8.965   0.084  1.00  0.00    -0.000 C 
BRANCH  13  14
ATOM     14  C   UNL     1      -7.583  -8.044  -0.321  1.00  0.00    -0.000 C 
BRANCH  14  15
ATOM     15  C   UNL     1      -8.931  -8.641   0.104  1.00  0.00    -0.000 C 
BRANCH  15  16
ATOM     16  C   UNL     1      -9.554  -7.905   1.301  1.00  0.00    -0.000 C 
BRANCH  16  17
ATOM     17  C   UNL     1      -9.992  -6.474   0.953  1.00  0.00    -0.003 C 
ATOM     18  C   UNL     1     -11.229  -6.477   0.059  1.00  0.00     0.004 C 
ENDBRANCH  16  17
ENDBRANCH  15  16
ENDBRANCH  14  15
ENDBRANCH  13  14
ENDBRANCH  12  13
ENDBRANCH  11  12
ENDBRANCH   1  11
TORSDOF 14
ENDMDL
MODEL 6
REMARK VINA RESULT:    -4.331     19.330     22.207
REMARK INTER + INTRA:          -8.382
REMARK INTER:                  -6.165
REMARK INTRA:                  -2.217
REMARK UNBOUND:                -0.506
REMARK SMILES CCCCCCCCCCCCCCCC(=O)[O-]
REMARK SMILES IDX 9 1 10 2 11 3 12 4 13 5 14 6 15 7 16 8 17 9 18 10 8 11 7 12
REMARK SMILES IDX 6 13 5 14 4 15 3 16 2 17 1 18
REMARK H PARENT
REMARK Flexibility Score: inf
ROOT
ATOM      1  C   UNL     1     -21.525  -5.909 -16.680  1.00  0.00     0.000 C 
ENDROOT
BRANCH   1   2
ATOM      2  C   UNL     1     -22.853  -6.216 -15.974  1.00  0.00     0.000 C 
BRANCH   2   3
ATOM      3  C   UNL     1     -23.883  -5.086 -16.136  1.00  0.00     0.000 C 
BRANCH   3   4
ATOM      4  C   UNL     1     -24.448  -4.595 -14.791  1.00  0.00     0.000 C 
BRANCH   4   5
ATOM      5  C   UNL     1     -23.405  -4.444 -13.664  1.00  0.00     0.000 C 
BRANCH   5   6
ATOM      6  C   UNL     1     -23.158  -3.001 -13.191  1.00  0.00     0.006 C 
BRANCH   6   7
ATOM      7  C   UNL     1     -22.267  -2.925 -11.947  1.00  0.00     0.053 C 
BRANCH   7   8
ATOM      8  C   UNL     1     -21.277  -1.811 -12.082  1.00  0.00     0.041 C 
ATOM      9  O   UNL     1     -20.856  -1.212 -11.061  1.00  0.00    -0.550 OA
ATOM     10  O   UNL     1     -20.859  -1.401 -13.341  1.00  0.00    -0.550 OA
ENDBRANCH   7   8
ENDBRANCH   6   7
ENDBRANCH   5   6
ENDBRANCH   4   5
ENDBRANCH   3   4
ENDBRANCH   2   3
ENDBRANCH   1   2
BRANCH   1  11
ATOM     11  C   UNL     1     -21.299  -4.401 -16.893  1.00  0.00     0.000 C 
BRANCH  11  12
ATOM     12  C   UNL     1     -20.327  -3.806 -15.854  1.00  0.00    -0.000 C 
BRANCH  12  13
ATOM     13  C   UNL     1     -19.549  -4.869 -15.062  1.00  0.00    -0.000 C 
BRANCH  13  14
ATOM     14  C   UNL     1     -19.883  -4.861 -13.565  1.00  0.00    -0.000 C 
BRANCH  14  15
ATOM     15  C   UNL     1     -20.195  -6.277 -13.064  1.00  0.00    -0.000 C 
BRANCH  15  16
ATOM     16  C   UNL     1     -19.807  -7.363 -14.079  1.00  0.00    -0.000 C 
BRANCH  16  17
ATOM     17  C   UNL     1     -20.657  -8.635 -13.940  1.00  0.00    -0.003 C 
ATOM     18  C   UNL     1     -20.332  -9.379 -12.647  1.00  0.00     0.004 C 
ENDBRANCH  16  17
ENDBRANCH  15  16
ENDBRANCH  14  15
ENDBRANCH  13  14
ENDBRANCH  12  13
ENDBRANCH  11  12
ENDBRANCH   1  11
TORSDOF 14
ENDMDL
MODEL 7
REMARK VINA RESULT:    -4.320     20.053     23.084
REMARK INTER + INTRA:          -8.362
REMARK INTER:                  -5.788
REMARK INTRA:                  -2.573
REMARK UNBOUND:                -0.506
REMARK SMILES CCCCCCCCCCCCCCCC(=O)[O-]
REMARK SMILES IDX 9 1 10 2 11 3 12 4 13 5 14 6 15 7 16 8 17 9 18 10 8 11 7 12
REMARK SMILES IDX 6 13 5 14 4 15 3 16 2 17 1 18
REMARK H PARENT
REMARK Flexibility Score: inf
ROOT
ATOM      1  C   UNL     1     -20.856  -4.784 -16.820  1.00  0.00     0.000 C 
ENDROOT
BRANCH   1   2
ATOM      2  C   UNL     1     -20.808  -3.426 -16.107  1.00  0.00     0.000 C 
BRANCH   2   3
ATOM      3  C   UNL     1     -19.851  -3.423 -14.903  1.00  0.00     0.000 C 
BRANCH   3   4
ATOM      4  C   UNL     1     -19.487  -4.841 -14.427  1.00  0.00     0.000 C 
BRANCH   4   5
ATOM      5  C   UNL     1     -20.030  -5.219 -13.033  1.00  0.00     0.000 C 
BRANCH   5   6
ATOM      6  C   UNL     1     -20.767  -6.568 -12.963  1.00  0.00     0.006 C 
BRANCH   6   7
ATOM      7  C   UNL     1     -20.300  -7.560 -14.034  1.00  0.00     0.053 C 
BRANCH   7   8
ATOM      8  C   UNL     1     -20.626  -8.961 -13.624  1.00  0.00     0.041 C 
ATOM      9  O   UNL     1     -20.200  -9.417 -12.534  1.00  0.00    -0.550 OA
ATOM     10  O   UNL     1     -21.359  -9.781 -14.472  1.00  0.00    -0.550 OA
ENDBRANCH   7   8
ENDBRANCH   6   7
ENDBRANCH   5   6
ENDBRANCH   4   5
ENDBRANCH   3   4
ENDBRANCH   2   3
ENDBRANCH   1   2
BRANCH   1  11
ATOM     11  C   UNL     1     -22.266  -5.402 -16.830  1.00  0.00     0.000 C 
BRANCH  11  12
ATOM     12  C   UNL     1     -23.283  -4.543 -16.052  1.00  0.00    -0.000 C 
BRANCH  12  13
ATOM     13  C   UNL     1     -23.628  -5.108 -14.664  1.00  0.00    -0.000 C 
BRANCH  13  14
ATOM     14  C   UNL     1     -24.114  -4.031 -13.686  1.00  0.00    -0.000 C 
BRANCH  14  15
ATOM     15  C   UNL     1     -23.690  -2.633 -14.154  1.00  0.00    -0.000 C 
BRANCH  15  16
ATOM     16  C   UNL     1     -23.044  -1.803 -13.034  1.00  0.00    -0.000 C 
BRANCH  16  17
ATOM     17  C   UNL     1     -22.204  -2.657 -12.073  1.00  0.00    -0.003 C 
ATOM     18  C   UNL     1     -20.982  -1.890 -11.575  1.00  0.00     0.004 C 
ENDBRANCH  16  17
ENDBRANCH  15  16
ENDBRANCH  14  15
ENDBRANCH  13  14
ENDBRANCH  12  13
ENDBRANCH  11  12
ENDBRANCH   1  11
TORSDOF 14
ENDMDL
MODEL 8
REMARK VINA RESULT:    -4.314      5.036     10.015
REMARK INTER + INTRA:          -8.351
REMARK INTER:                  -6.521
REMARK INTRA:                  -1.830
REMARK UNBOUND:                -0.506
REMARK SMILES CCCCCCCCCCCCCCCC(=O)[O-]
REMARK SMILES IDX 9 1 10 2 11 3 12 4 13 5 14 6 15 7 16 8 17 9 18 10 8 11 7 12
REMARK SMILES IDX 6 13 5 14 4 15 3 16 2 17 1 18
REMARK H PARENT
REMARK Flexibility Score: inf
ROOT
ATOM      1  C   UNL     1      -8.907  -8.309   0.674  1.00  0.00     0.000 C 
ENDROOT
BRANCH   1   2
ATOM      2  C   UNL     1      -7.745  -8.334  -0.328  1.00  0.00     0.000 C 
BRANCH   2   3
ATOM      3  C   UNL     1      -6.378  -8.129   0.347  1.00  0.00     0.000 C 
BRANCH   3   4
ATOM      4  C   UNL     1      -6.363  -8.587   1.816  1.00  0.00     0.000 C 
BRANCH   4   5
ATOM      5  C   UNL     1      -5.182  -9.502   2.200  1.00  0.00     0.000 C 
BRANCH   5   6
ATOM      6  C   UNL     1      -5.562 -10.956   2.530  1.00  0.00     0.006 C 
BRANCH   6   7
ATOM      7  C   UNL     1      -6.659 -11.509   1.613  1.00  0.00     0.053 C 
BRANCH   7   8
ATOM      8  C   UNL     1      -6.054 -12.162   0.411  1.00  0.00     0.041 C 
ATOM      9  O   UNL     1      -5.705 -13.368   0.454  1.00  0.00    -0.550 OA
ATOM     10  O   UNL     1      -5.829 -11.422  -0.743  1.00  0.00    -0.550 OA
ENDBRANCH   7   8
ENDBRANCH   6   7
ENDBRANCH   5   6
ENDBRANCH   4   5
ENDBRANCH   3   4
ENDBRANCH   2   3
ENDBRANCH   1   2
BRANCH   1  11
ATOM     11  C   UNL     1     -10.164  -7.621   0.111  1.00  0.00     0.000 C 
BRANCH  11  12
ATOM     12  C   UNL     1     -10.467  -6.288   0.826  1.00  0.00    -0.000 C 
BRANCH  12  13
ATOM     13  C   UNL     1      -9.567  -6.028   2.044  1.00  0.00    -0.000 C 
BRANCH  13  14
ATOM     14  C   UNL     1      -9.518  -4.547   2.443  1.00  0.00    -0.000 C 
BRANCH  14  15
ATOM     15  C   UNL     1      -8.069  -4.074   2.616  1.00  0.00    -0.000 C 
BRANCH  15  16
ATOM     16  C   UNL     1      -7.073  -4.895   1.781  1.00  0.00    -0.000 C 
BRANCH  16  17
ATOM     17  C   UNL     1      -5.851  -4.076   1.342  1.00  0.00    -0.003 C 
ATOM     18  C   UNL     1      -5.206  -4.670   0.093  1.00  0.00     0.004 C 
ENDBRANCH  16  17
ENDBRANCH  15  16
ENDBRANCH  14  15
ENDBRANCH  13  14
ENDBRANCH  12  13
ENDBRANCH  11  12
ENDBRANCH   1  11
TORSDOF 14
ENDMDL
MODEL 9
REMARK VINA RESULT:    -4.306      4.355      9.719
REMARK INTER + INTRA:          -8.335
REMARK INTER:                  -6.892
REMARK INTRA:                  -1.443
REMARK UNBOUND:                -0.506
REMARK SMILES CCCCCCCCCCCCCCCC(=O)[O-]
REMARK SMILES IDX 9 1 10 2 11 3 12 4 13 5 14 6 15 7 16 8 17 9 18 10 8 11 7 12
REMARK SMILES IDX 6 13 5 14 4 15 3 16 2 17 1 18
REMARK H PARENT
REMARK Flexibility Score: inf
ROOT
ATOM      1  C   UNL     1      -7.392  -7.802  -0.280  1.00  0.00     0.000 C 
ENDROOT
BRANCH   1   2
ATOM      2  C   UNL     1      -7.155  -9.066   0.557  1.00  0.00     0.000 C 
BRANCH   2   3
ATOM      3  C   UNL     1      -7.144 -10.346  -0.296  1.00  0.00     0.000 C 
BRANCH   3   4
ATOM      4  C   UNL     1      -5.786 -11.067  -0.274  1.00  0.00     0.000 C 
BRANCH   4   5
ATOM      5  C   UNL     1      -5.160 -11.234   1.126  1.00  0.00     0.000 C 
BRANCH   5   6
ATOM      6  C   UNL     1      -5.190 -12.666   1.690  1.00  0.00     0.006 C 
BRANCH   6   7
ATOM      7  C   UNL     1      -5.742 -13.689   0.691  1.00  0.00     0.053 C 
BRANCH   7   8
ATOM      8  C   UNL     1      -6.732 -14.589   1.360  1.00  0.00     0.041 C 
ATOM      9  O   UNL     1      -7.112 -14.351   2.534  1.00  0.00    -0.550 OA
ATOM     10  O   UNL     1      -7.196 -15.721   0.704  1.00  0.00    -0.550 OA
ENDBRANCH   7   8
ENDBRANCH   6   7
ENDBRANCH   5   6
ENDBRANCH   4   5
ENDBRANCH   3   4
ENDBRANCH   2   3
ENDBRANCH   1   2
BRANCH   1  11
ATOM     11  C   UNL     1      -6.379  -6.684   0.031  1.00  0.00     0.000 C 
BRANCH  11  12
ATOM     12  C   UNL     1      -6.341  -6.334   1.533  1.00  0.00    -0.000 C 
BRANCH  12  13
ATOM     13  C   UNL     1      -7.042  -5.008   1.871  1.00  0.00    -0.000 C 
BRANCH  13  14
ATOM     14  C   UNL     1      -8.086  -5.153   2.986  1.00  0.00    -0.000 C 
BRANCH  14  15
ATOM     15  C   UNL     1      -8.987  -6.369   2.739  1.00  0.00    -0.000 C 
BRANCH  15  16
ATOM     16  C   UNL     1     -10.416  -5.975   2.331  1.00  0.00    -0.000 C 
BRANCH  16  17
ATOM     17  C   UNL     1     -10.548  -5.704   0.825  1.00  0.00    -0.003 C 
ATOM     18  C   UNL     1     -10.895  -6.979   0.062  1.00  0.00     0.004 C 
ENDBRANCH  16  17
ENDBRANCH  15  16
ENDBRANCH  14  15
ENDBRANCH  13  14
ENDBRANCH  12  13
ENDBRANCH  11  12
ENDBRANCH   1  11
TORSDOF 14
ENDMDL
