MODEL 1
REMARK VINA RESULT:    -5.572      0.000      0.000
REMARK INTER + INTRA:          -5.572
REMARK INTER:                  -5.572
REMARK INTRA:                   0.000
REMARK UNBOUND:                 0.000
REMARK SMILES C=C1CC[C@H]2C[C@@H]1C2(C)C
REMARK SMILES IDX 9 1 8 2 5 3 4 4 3 5 2 6 1 7 7 8 6 9 10 10
REMARK H PARENT
REMARK Flexibility Score: inf
ROOT
ATOM      1  C   UNL     1       6.929   7.525  14.718  1.00  0.00     0.012 C 
ATOM      2  C   UNL     1       7.703   7.376  13.379  1.00  0.00    -0.026 C 
ATOM      3  C   UNL     1       7.791   5.974  12.723  1.00  0.00    -0.004 C 
ATOM      4  C   UNL     1       6.463   5.176  12.926  1.00  0.00     0.008 C 
ATOM      5  C   UNL     1       5.190   5.998  12.493  1.00  0.00     0.031 C 
ATOM      6  C   UNL     1       5.530   7.453  12.132  1.00  0.00    -0.074 C 
ATOM      7  C   UNL     1       4.570   8.348  11.875  1.00  0.00     0.008 C 
ATOM      8  C   UNL     1       7.007   7.828  12.074  1.00  0.00     0.021 C 
ATOM      9  C   UNL     1       7.687   6.655  11.348  1.00  0.00     0.012 C 
ATOM     10  C   UNL     1       9.100   8.025  13.548  1.00  0.00     0.012 C 
ENDROOT
TORSDOF 0
ENDMDL
MODEL 2
REMARK VINA RESULT:    -4.886      1.013      3.236
REMARK INTER + INTRA:          -4.886
REMARK INTER:                  -4.886
REMARK INTRA:                   0.000
REMARK UNBOUND:                 0.000
REMARK SMILES C=C1CC[C@H]2C[C@@H]1C2(C)C
REMARK SMILES IDX 9 1 8 2 5 3 4 4 3 5 2 6 1 7 7 8 6 9 10 10
REMARK H PARENT
REMARK Flexibility Score: inf
ROOT
ATOM      1  C   UNL     1       5.716   8.209  11.830  1.00  0.00     0.012 C 
ATOM      2  C   UNL     1       5.605   6.946  12.727  1.00  0.00    -0.026 C 
ATOM      3  C   UNL     1       6.473   5.709  12.381  1.00  0.00    -0.004 C 
ATOM      4  C   UNL     1       7.877   6.142  11.848  1.00  0.00     0.008 C 
ATOM      5  C   UNL     1       8.595   7.172  12.800  1.00  0.00     0.031 C 
ATOM      6  C   UNL     1       7.683   7.645  13.942  1.00  0.00    -0.074 C 
ATOM      7  C   UNL     1       8.059   8.624  14.773  1.00  0.00     0.008 C 
ATOM      8  C   UNL     1       6.336   6.947  14.090  1.00  0.00     0.021 C 
ATOM      9  C   UNL     1       6.638   5.453  13.889  1.00  0.00     0.012 C 
ATOM     10  C   UNL     1       4.106   6.579  12.871  1.00  0.00     0.012 C 
ENDROOT
TORSDOF 0
ENDMDL
MODEL 3
REMARK VINA RESULT:    -4.260      1.043      3.113
REMARK INTER + INTRA:          -4.260
REMARK INTER:                  -4.260
REMARK INTRA:                   0.000
REMARK UNBOUND:                 0.000
REMARK SMILES C=C1CC[C@H]2C[C@@H]1C2(C)C
REMARK SMILES IDX 9 1 8 2 5 3 4 4 3 5 2 6 1 7 7 8 6 9 10 10
REMARK H PARENT
REMARK Flexibility Score: inf
ROOT
ATOM      1  C   UNL     1       4.555   6.829  12.767  1.00  0.00     0.012 C 
ATOM      2  C   UNL     1       5.653   7.814  12.280  1.00  0.00    -0.026 C 
ATOM      3  C   UNL     1       6.477   8.591  13.338  1.00  0.00    -0.004 C 
ATOM      4  C   UNL     1       6.754   7.705  14.595  1.00  0.00     0.008 C 
ATOM      5  C   UNL     1       7.368   6.302  14.223  1.00  0.00     0.031 C 
ATOM      6  C   UNL     1       7.393   6.060  12.705  1.00  0.00    -0.074 C 
ATOM      7  C   UNL     1       7.745   4.875  12.196  1.00  0.00     0.008 C 
ATOM      8  C   UNL     1       7.006   7.231  11.809  1.00  0.00     0.021 C 
ATOM      9  C   UNL     1       7.706   8.453  12.424  1.00  0.00     0.012 C 
ATOM     10  C   UNL     1       5.027   8.759  11.224  1.00  0.00     0.012 C 
ENDROOT
TORSDOF 0
ENDMDL
MODEL 4
REMARK VINA RESULT:    -4.045      0.938      2.466
REMARK INTER + INTRA:          -4.045
REMARK INTER:                  -4.045
REMARK INTRA:                   0.000
REMARK UNBOUND:                 0.000
REMARK SMILES C=C1CC[C@H]2C[C@@H]1C2(C)C
REMARK SMILES IDX 9 1 8 2 5 3 4 4 3 5 2 6 1 7 7 8 6 9 10 10
REMARK H PARENT
REMARK Flexibility Score: inf
ROOT
ATOM      1  C   UNL     1       5.741   4.877  12.374  1.00  0.00     0.012 C 
ATOM      2  C   UNL     1       6.508   5.719  13.430  1.00  0.00    -0.026 C 
ATOM      3  C   UNL     1       7.861   6.361  13.030  1.00  0.00    -0.004 C 
ATOM      4  C   UNL     1       7.834   6.846  11.545  1.00  0.00     0.008 C 
ATOM      5  C   UNL     1       6.586   7.754  11.227  1.00  0.00     0.031 C 
ATOM      6  C   UNL     1       5.594   7.814  12.400  1.00  0.00    -0.074 C 
ATOM      7  C   UNL     1       4.406   8.417  12.276  1.00  0.00     0.008 C 
ATOM      8  C   UNL     1       6.025   7.162  13.709  1.00  0.00     0.021 C 
ATOM      9  C   UNL     1       7.494   7.578  13.896  1.00  0.00     0.012 C 
ATOM     10  C   UNL     1       6.624   4.883  14.729  1.00  0.00     0.012 C 
ENDROOT
TORSDOF 0
ENDMDL
MODEL 5
REMARK VINA RESULT:    -3.656      4.267      6.774
REMARK INTER + INTRA:          -3.656
REMARK INTER:                  -3.656
REMARK INTRA:                   0.000
REMARK UNBOUND:                 0.000
REMARK SMILES C=C1CC[C@H]2C[C@@H]1C2(C)C
REMARK SMILES IDX 9 1 8 2 5 3 4 4 3 5 2 6 1 7 7 8 6 9 10 10
REMARK H PARENT
REMARK Flexibility Score: inf
ROOT
ATOM      1  C   UNL     1       3.996  13.167  10.876  1.00  0.00     0.012 C 
ATOM      2  C   UNL     1       3.382  12.898  12.276  1.00  0.00    -0.026 C 
ATOM      3  C   UNL     1       1.851  12.685  12.389  1.00  0.00    -0.004 C 
ATOM      4  C   UNL     1       1.301  11.900  11.155  1.00  0.00     0.008 C 
ATOM      5  C   UNL     1       2.105  10.573  10.875  1.00  0.00     0.031 C 
ATOM      6  C   UNL     1       3.347  10.443  11.771  1.00  0.00    -0.074 C 
ATOM      7  C   UNL     1       4.234   9.459  11.591  1.00  0.00     0.008 C 
ATOM      8  C   UNL     1       3.517  11.479  12.877  1.00  0.00     0.021 C 
ATOM      9  C   UNL     1       2.116  11.643  13.488  1.00  0.00     0.012 C 
ATOM     10  C   UNL     1       3.888  13.992  13.249  1.00  0.00     0.012 C 
ENDROOT
TORSDOF 0
ENDMDL
MODEL 6
REMARK VINA RESULT:    -3.643      5.606      7.314
REMARK INTER + INTRA:          -3.643
REMARK INTER:                  -3.643
REMARK INTRA:                   0.000
REMARK UNBOUND:                 0.000
REMARK SMILES C=C1CC[C@H]2C[C@@H]1C2(C)C
REMARK SMILES IDX 9 1 8 2 5 3 4 4 3 5 2 6 1 7 7 8 6 9 10 10
REMARK H PARENT
REMARK Flexibility Score: inf
ROOT
ATOM      1  C   UNL     1       1.060  13.061  11.202  1.00  0.00     0.012 C 
ATOM      2  C   UNL     1       1.259  11.679  11.882  1.00  0.00    -0.026 C 
ATOM      3  C   UNL     1       2.359  10.733  11.338  1.00  0.00    -0.004 C 
ATOM      4  C   UNL     1       3.615  11.540  10.878  1.00  0.00     0.008 C 
ATOM      5  C   UNL     1       4.131  12.539  11.982  1.00  0.00     0.031 C 
ATOM      6  C   UNL     1       3.182  12.616  13.189  1.00  0.00    -0.074 C 
ATOM      7  C   UNL     1       3.370  13.509  14.166  1.00  0.00     0.008 C 
ATOM      8  C   UNL     1       2.024  11.625  13.225  1.00  0.00     0.021 C 
ATOM      9  C   UNL     1       2.632  10.284  12.783  1.00  0.00     0.012 C 
ATOM     10  C   UNL     1      -0.119  10.976  11.969  1.00  0.00     0.012 C 
ENDROOT
TORSDOF 0
ENDMDL
MODEL 7
REMARK VINA RESULT:    -3.635      5.568      6.835
REMARK INTER + INTRA:          -3.635
REMARK INTER:                  -3.635
REMARK INTRA:                   0.000
REMARK UNBOUND:                 0.000
REMARK SMILES C=C1CC[C@H]2C[C@@H]1C2(C)C
REMARK SMILES IDX 9 1 8 2 5 3 4 4 3 5 2 6 1 7 7 8 6 9 10 10
REMARK H PARENT
REMARK Flexibility Score: inf
ROOT
ATOM      1  C   UNL     1       2.091  11.973  13.949  1.00  0.00     0.012 C 
ATOM      2  C   UNL     1       3.090  12.585  12.929  1.00  0.00    -0.026 C 
ATOM      3  C   UNL     1       3.842  11.635  11.963  1.00  0.00    -0.004 C 
ATOM      4  C   UNL     1       2.926  10.452  11.513  1.00  0.00     0.008 C 
ATOM      5  C   UNL     1       1.534  10.942  10.961  1.00  0.00     0.031 C 
ATOM      6  C   UNL     1       1.329  12.453  11.150  1.00  0.00    -0.074 C 
ATOM      7  C   UNL     1       0.158  13.037  10.875  1.00  0.00     0.008 C 
ATOM      8  C   UNL     1       2.521  13.257  11.657  1.00  0.00     0.021 C 
ATOM      9  C   UNL     1       3.729  12.715  10.875  1.00  0.00     0.012 C 
ATOM     10  C   UNL     1       4.060  13.518  13.696  1.00  0.00     0.012 C 
ENDROOT
TORSDOF 0
ENDMDL
MODEL 8
REMARK VINA RESULT:    -3.468      4.277      7.059
REMARK INTER + INTRA:          -3.468
REMARK INTER:                  -3.468
REMARK INTRA:                   0.000
REMARK UNBOUND:                 0.000
REMARK SMILES C=C1CC[C@H]2C[C@@H]1C2(C)C
REMARK SMILES IDX 9 1 8 2 5 3 4 4 3 5 2 6 1 7 7 8 6 9 10 10
REMARK H PARENT
REMARK Flexibility Score: inf
ROOT
ATOM      1  C   UNL     1       2.839  12.375  13.851  1.00  0.00     0.012 C 
ATOM      2  C   UNL     1       1.759  11.824  12.879  1.00  0.00    -0.026 C 
ATOM      3  C   UNL     1       1.521  12.562  11.537  1.00  0.00    -0.004 C 
ATOM      4  C   UNL     1       2.863  13.108  10.952  1.00  0.00     0.008 C 
ATOM      5  C   UNL     1       3.984  12.003  10.875  1.00  0.00     0.031 C 
ATOM      6  C   UNL     1       3.556  10.690  11.550  1.00  0.00    -0.074 C 
ATOM      7  C   UNL     1       4.417   9.680  11.714  1.00  0.00     0.008 C 
ATOM      8  C   UNL     1       2.109  10.589  12.017  1.00  0.00     0.021 C 
ATOM      9  C   UNL     1       1.278  11.196  10.875  1.00  0.00     0.012 C 
ATOM     10  C   UNL     1       0.444  11.627  13.674  1.00  0.00     0.012 C 
ENDROOT
TORSDOF 0
ENDMDL
