MODEL 1
REMARK VINA RESULT:    -5.007      0.000      0.000
REMARK INTER + INTRA:         -14.539
REMARK INTER:                 -11.446
REMARK INTRA:                  -3.093
REMARK UNBOUND:                -3.093
REMARK SMILES CCCCCCCCCCCCCCCCCCCCCCCC(=O)[O-]
REMARK SMILES IDX 13 1 14 2 15 3 16 4 17 5 18 6 19 7 20 8 21 9 22 10 23 11
REMARK SMILES IDX 24 12 25 13 26 14 12 15 11 16 10 17 9 18 8 19 7 20 6 21 5 22
REMARK SMILES IDX 4 23 3 24 2 25 1 26
REMARK H PARENT
REMARK Flexibility Score: inf
ROOT
ATOM      1  C   UNL     1      23.150  -5.002 -36.237  1.00  0.00     0.000 C 
ENDROOT
BRANCH   1   2
ATOM      2  C   UNL     1      23.492  -6.488 -36.447  1.00  0.00     0.000 C 
BRANCH   2   3
ATOM      3  C   UNL     1      22.417  -7.232 -37.257  1.00  0.00     0.000 C 
BRANCH   3   4
ATOM      4  C   UNL     1      22.998  -8.379 -38.105  1.00  0.00     0.000 C 
BRANCH   4   5
ATOM      5  C   UNL     1      24.534  -8.412 -38.074  1.00  0.00     0.000 C 
BRANCH   5   6
ATOM      6  C   UNL     1      25.143  -8.991 -39.363  1.00  0.00     0.000 C 
BRANCH   6   7
ATOM      7  C   UNL     1      24.087  -9.663 -40.271  1.00  0.00     0.000 C 
BRANCH   7   8
ATOM      8  C   UNL     1      24.614 -10.892 -41.035  1.00  0.00     0.000 C 
BRANCH   8   9
ATOM      9  C   UNL     1      25.013 -12.083 -40.146  1.00  0.00     0.000 C 
BRANCH   9  10
ATOM     10  C   UNL     1      24.665 -13.459 -40.761  1.00  0.00     0.006 C 
BRANCH  10  11
ATOM     11  C   UNL     1      24.504 -14.556 -39.701  1.00  0.00     0.053 C 
BRANCH  11  12
ATOM     12  C   UNL     1      24.096 -15.846 -40.339  1.00  0.00     0.041 C 
ATOM     13  O   UNL     1      24.704 -16.913 -40.059  1.00  0.00    -0.550 OA
ATOM     14  O   UNL     1      23.070 -15.864 -41.277  1.00  0.00    -0.550 OA
ENDBRANCH  11  12
ENDBRANCH  10  11
ENDBRANCH   9  10
ENDBRANCH   8   9
ENDBRANCH   7   8
ENDBRANCH   6   7
ENDBRANCH   5   6
ENDBRANCH   4   5
ENDBRANCH   3   4
ENDBRANCH   2   3
ENDBRANCH   1   2
BRANCH   1  15
ATOM     15  C   UNL     1      21.654  -4.697 -36.442  1.00  0.00     0.000 C 
BRANCH  15  16
ATOM     16  C   UNL     1      21.341  -3.616 -37.496  1.00  0.00     0.000 C 
BRANCH  16  17
ATOM     17  C   UNL     1      20.592  -4.118 -38.747  1.00  0.00     0.000 C 
BRANCH  17  18
ATOM     18  C   UNL     1      21.416  -4.095 -40.050  1.00  0.00    -0.000 C 
BRANCH  18  19
ATOM     19  C   UNL     1      22.446  -5.233 -40.185  1.00  0.00    -0.000 C 
BRANCH  19  20
ATOM     20  C   UNL     1      23.893  -4.855 -39.807  1.00  0.00    -0.000 C 
BRANCH  20  21
ATOM     21  C   UNL     1      24.139  -3.353 -39.568  1.00  0.00    -0.000 C 
BRANCH  21  22
ATOM     22  C   UNL     1      25.504  -3.065 -38.920  1.00  0.00    -0.000 C 
BRANCH  22  23
ATOM     23  C   UNL     1      26.096  -4.292 -38.199  1.00  0.00    -0.000 C 
BRANCH  23  24
ATOM     24  C   UNL     1      27.619  -4.247 -37.972  1.00  0.00    -0.000 C 
BRANCH  24  25
ATOM     25  C   UNL     1      28.242  -5.642 -37.820  1.00  0.00    -0.003 C 
ATOM     26  C   UNL     1      27.242  -6.629 -37.223  1.00  0.00     0.004 C 
ENDBRANCH  24  25
ENDBRANCH  23  24
ENDBRANCH  22  23
ENDBRANCH  21  22
ENDBRANCH  20  21
ENDBRANCH  19  20
ENDBRANCH  18  19
ENDBRANCH  17  18
ENDBRANCH  16  17
ENDBRANCH  15  16
ENDBRANCH   1  15
TORSDOF 22
ENDMDL
MODEL 2
REMARK VINA RESULT:    -4.770      1.163      2.768
REMARK INTER + INTRA:         -13.998
REMARK INTER:                 -11.198
REMARK INTRA:                  -2.800
REMARK UNBOUND:                -3.093
REMARK SMILES CCCCCCCCCCCCCCCCCCCCCCCC(=O)[O-]
REMARK SMILES IDX 13 1 14 2 15 3 16 4 17 5 18 6 19 7 20 8 21 9 22 10 23 11
REMARK SMILES IDX 24 12 25 13 26 14 12 15 11 16 10 17 9 18 8 19 7 20 6 21 5 22
REMARK SMILES IDX 4 23 3 24 2 25 1 26
REMARK H PARENT
REMARK Flexibility Score: inf
ROOT
ATOM      1  C   UNL     1      23.988  -6.820 -36.786  1.00  0.00     0.000 C 
ENDROOT
BRANCH   1   2
ATOM      2  C   UNL     1      22.726  -7.404 -37.444  1.00  0.00     0.000 C 
BRANCH   2   3
ATOM      3  C   UNL     1      23.052  -8.430 -38.541  1.00  0.00     0.000 C 
BRANCH   3   4
ATOM      4  C   UNL     1      24.477  -9.000 -38.421  1.00  0.00     0.000 C 
BRANCH   4   5
ATOM      5  C   UNL     1      25.134  -9.232 -39.791  1.00  0.00     0.000 C 
BRANCH   5   6
ATOM      6  C   UNL     1      24.577 -10.471 -40.515  1.00  0.00     0.000 C 
BRANCH   6   7
ATOM      7  C   UNL     1      25.259 -11.782 -40.064  1.00  0.00     0.000 C 
BRANCH   7   8
ATOM      8  C   UNL     1      24.633 -13.051 -40.671  1.00  0.00     0.000 C 
BRANCH   8   9
ATOM      9  C   UNL     1      24.682 -14.293 -39.763  1.00  0.00     0.000 C 
BRANCH   9  10
ATOM     10  C   UNL     1      23.656 -15.384 -40.150  1.00  0.00     0.006 C 
BRANCH  10  11
ATOM     11  C   UNL     1      23.933 -15.995 -41.528  1.00  0.00     0.053 C 
BRANCH  11  12
ATOM     12  C   UNL     1      24.901 -17.130 -41.414  1.00  0.00     0.041 C 
ATOM     13  O   UNL     1      25.463 -17.591 -42.443  1.00  0.00    -0.550 OA
ATOM     14  O   UNL     1      25.152 -17.708 -40.175  1.00  0.00    -0.550 OA
ENDBRANCH  11  12
ENDBRANCH  10  11
ENDBRANCH   9  10
ENDBRANCH   8   9
ENDBRANCH   7   8
ENDBRANCH   6   7
ENDBRANCH   5   6
ENDBRANCH   4   5
ENDBRANCH   3   4
ENDBRANCH   2   3
ENDBRANCH   1   2
BRANCH   1  15
ATOM     15  C   UNL     1      23.669  -5.775 -35.700  1.00  0.00     0.000 C 
BRANCH  15  16
ATOM     16  C   UNL     1      23.313  -4.369 -36.224  1.00  0.00     0.000 C 
BRANCH  16  17
ATOM     17  C   UNL     1      21.812  -4.017 -36.191  1.00  0.00     0.000 C 
BRANCH  17  18
ATOM     18  C   UNL     1      21.454  -2.641 -36.787  1.00  0.00    -0.000 C 
BRANCH  18  19
ATOM     19  C   UNL     1      20.562  -2.692 -38.043  1.00  0.00    -0.000 C 
BRANCH  19  20
ATOM     20  C   UNL     1      20.607  -4.020 -38.825  1.00  0.00    -0.000 C 
BRANCH  20  21
ATOM     21  C   UNL     1      21.451  -3.996 -40.114  1.00  0.00    -0.000 C 
BRANCH  21  22
ATOM     22  C   UNL     1      22.480  -5.138 -40.178  1.00  0.00    -0.000 C 
BRANCH  22  23
ATOM     23  C   UNL     1      23.907  -4.679 -39.818  1.00  0.00    -0.000 C 
BRANCH  23  24
ATOM     24  C   UNL     1      24.053  -3.179 -39.501  1.00  0.00    -0.000 C 
BRANCH  24  25
ATOM     25  C   UNL     1      25.431  -2.821 -38.927  1.00  0.00    -0.003 C 
ATOM     26  C   UNL     1      26.133  -4.056 -38.369  1.00  0.00     0.004 C 
ENDBRANCH  24  25
ENDBRANCH  23  24
ENDBRANCH  22  23
ENDBRANCH  21  22
ENDBRANCH  20  21
ENDBRANCH  19  20
ENDBRANCH  18  19
ENDBRANCH  17  18
ENDBRANCH  16  17
ENDBRANCH  15  16
ENDBRANCH   1  15
TORSDOF 22
ENDMDL
MODEL 3
REMARK VINA RESULT:    -4.743      3.090      6.363
REMARK INTER + INTRA:         -13.937
REMARK INTER:                 -10.285
REMARK INTRA:                  -3.652
REMARK UNBOUND:                -3.093
REMARK SMILES CCCCCCCCCCCCCCCCCCCCCCCC(=O)[O-]
REMARK SMILES IDX 13 1 14 2 15 3 16 4 17 5 18 6 19 7 20 8 21 9 22 10 23 11
REMARK SMILES IDX 24 12 25 13 26 14 12 15 11 16 10 17 9 18 8 19 7 20 6 21 5 22
REMARK SMILES IDX 4 23 3 24 2 25 1 26
REMARK H PARENT
REMARK Flexibility Score: inf
ROOT
ATOM      1  C   UNL     1      22.999  -4.822 -39.906  1.00  0.00     0.000 C 
ENDROOT
BRANCH   1   2
ATOM      2  C   UNL     1      21.467  -4.812 -39.769  1.00  0.00     0.000 C 
BRANCH   2   3
ATOM      3  C   UNL     1      20.827  -3.554 -40.379  1.00  0.00     0.000 C 
BRANCH   3   4
ATOM      4  C   UNL     1      20.010  -2.744 -39.355  1.00  0.00     0.000 C 
BRANCH   4   5
ATOM      5  C   UNL     1      20.352  -3.118 -37.904  1.00  0.00     0.000 C 
BRANCH   5   6
ATOM      6  C   UNL     1      21.203  -2.048 -37.198  1.00  0.00     0.000 C 
BRANCH   6   7
ATOM      7  C   UNL     1      22.060  -2.629 -36.050  1.00  0.00     0.000 C 
BRANCH   7   8
ATOM      8  C   UNL     1      22.004  -4.164 -35.946  1.00  0.00     0.000 C 
BRANCH   8   9
ATOM      9  C   UNL     1      23.355  -4.874 -36.144  1.00  0.00     0.000 C 
BRANCH   9  10
ATOM     10  C   UNL     1      23.225  -6.395 -36.393  1.00  0.00     0.006 C 
BRANCH  10  11
ATOM     11  C   UNL     1      21.954  -6.761 -37.171  1.00  0.00     0.053 C 
BRANCH  11  12
ATOM     12  C   UNL     1      22.171  -8.001 -37.978  1.00  0.00     0.041 C 
ATOM     13  O   UNL     1      22.756  -8.994 -37.470  1.00  0.00    -0.550 OA
ATOM     14  O   UNL     1      21.764  -8.048 -39.306  1.00  0.00    -0.550 OA
ENDBRANCH  11  12
ENDBRANCH  10  11
ENDBRANCH   9  10
ENDBRANCH   8   9
ENDBRANCH   7   8
ENDBRANCH   6   7
ENDBRANCH   5   6
ENDBRANCH   4   5
ENDBRANCH   3   4
ENDBRANCH   2   3
ENDBRANCH   1   2
BRANCH   1  15
ATOM     15  C   UNL     1      23.632  -3.442 -39.646  1.00  0.00     0.000 C 
BRANCH  15  16
ATOM     16  C   UNL     1      25.036  -3.471 -39.009  1.00  0.00     0.000 C 
BRANCH  16  17
ATOM     17  C   UNL     1      25.654  -2.088 -38.721  1.00  0.00     0.000 C 
BRANCH  17  18
ATOM     18  C   UNL     1      27.150  -2.110 -38.349  1.00  0.00    -0.000 C 
BRANCH  18  19
ATOM     19  C   UNL     1      27.898  -3.397 -38.752  1.00  0.00    -0.000 C 
BRANCH  19  20
ATOM     20  C   UNL     1      28.069  -4.435 -37.625  1.00  0.00    -0.000 C 
BRANCH  20  21
ATOM     21  C   UNL     1      28.005  -5.909 -38.071  1.00  0.00    -0.000 C 
BRANCH  21  22
ATOM     22  C   UNL     1      27.172  -6.788 -37.123  1.00  0.00    -0.000 C 
BRANCH  22  23
ATOM     23  C   UNL     1      25.894  -7.338 -37.784  1.00  0.00    -0.000 C 
BRANCH  23  24
ATOM     24  C   UNL     1      25.804  -7.134 -39.308  1.00  0.00    -0.000 C 
BRANCH  24  25
ATOM     25  C   UNL     1      25.110  -8.300 -40.028  1.00  0.00    -0.003 C 
ATOM     26  C   UNL     1      25.340  -9.617 -39.291  1.00  0.00     0.004 C 
ENDBRANCH  24  25
ENDBRANCH  23  24
ENDBRANCH  22  23
ENDBRANCH  21  22
ENDBRANCH  20  21
ENDBRANCH  19  20
ENDBRANCH  18  19
ENDBRANCH  17  18
ENDBRANCH  16  17
ENDBRANCH  15  16
ENDBRANCH   1  15
TORSDOF 22
ENDMDL
MODEL 4
REMARK VINA RESULT:    -4.613      2.833      5.376
REMARK INTER + INTRA:         -13.638
REMARK INTER:                 -10.632
REMARK INTRA:                  -3.006
REMARK UNBOUND:                -3.093
REMARK SMILES CCCCCCCCCCCCCCCCCCCCCCCC(=O)[O-]
REMARK SMILES IDX 13 1 14 2 15 3 16 4 17 5 18 6 19 7 20 8 21 9 22 10 23 11
REMARK SMILES IDX 24 12 25 13 26 14 12 15 11 16 10 17 9 18 8 19 7 20 6 21 5 22
REMARK SMILES IDX 4 23 3 24 2 25 1 26
REMARK H PARENT
REMARK Flexibility Score: inf
ROOT
ATOM      1  C   UNL     1      22.773  -4.846 -40.277  1.00  0.00     0.000 C 
ENDROOT
BRANCH   1   2
ATOM      2  C   UNL     1      24.083  -4.493 -39.551  1.00  0.00     0.000 C 
BRANCH   2   3
ATOM      3  C   UNL     1      24.513  -3.035 -39.783  1.00  0.00     0.000 C 
BRANCH   3   4
ATOM      4  C   UNL     1      25.368  -2.474 -38.631  1.00  0.00     0.000 C 
BRANCH   4   5
ATOM      5  C   UNL     1      26.855  -2.361 -39.005  1.00  0.00     0.000 C 
BRANCH   5   6
ATOM      6  C   UNL     1      27.784  -2.967 -37.939  1.00  0.00     0.000 C 
BRANCH   6   7
ATOM      7  C   UNL     1      28.193  -4.422 -38.262  1.00  0.00     0.000 C 
BRANCH   7   8
ATOM      8  C   UNL     1      27.263  -5.482 -37.644  1.00  0.00     0.000 C 
BRANCH   8   9
ATOM      9  C   UNL     1      27.279  -6.848 -38.353  1.00  0.00     0.000 C 
BRANCH   9  10
ATOM     10  C   UNL     1      25.911  -7.570 -38.340  1.00  0.00     0.006 C 
BRANCH  10  11
ATOM     11  C   UNL     1      25.396  -7.886 -39.750  1.00  0.00     0.053 C 
BRANCH  11  12
ATOM     12  C   UNL     1      24.814  -9.262 -39.799  1.00  0.00     0.041 C 
ATOM     13  O   UNL     1      25.433 -10.232 -39.288  1.00  0.00    -0.550 OA
ATOM     14  O   UNL     1      23.604  -9.483 -40.448  1.00  0.00    -0.550 OA
ENDBRANCH  11  12
ENDBRANCH  10  11
ENDBRANCH   9  10
ENDBRANCH   8   9
ENDBRANCH   7   8
ENDBRANCH   6   7
ENDBRANCH   5   6
ENDBRANCH   4   5
ENDBRANCH   3   4
ENDBRANCH   2   3
ENDBRANCH   1   2
BRANCH   1  15
ATOM     15  C   UNL     1      21.519  -4.495 -39.454  1.00  0.00     0.000 C 
BRANCH  15  16
ATOM     16  C   UNL     1      20.660  -3.346 -40.020  1.00  0.00     0.000 C 
BRANCH  16  17
ATOM     17  C   UNL     1      19.455  -2.938 -39.150  1.00  0.00     0.000 C 
BRANCH  17  18
ATOM     18  C   UNL     1      19.778  -1.936 -38.023  1.00  0.00    -0.000 C 
BRANCH  18  19
ATOM     19  C   UNL     1      21.178  -2.094 -37.398  1.00  0.00    -0.000 C 
BRANCH  19  20
ATOM     20  C   UNL     1      21.190  -2.523 -35.917  1.00  0.00    -0.000 C 
BRANCH  20  21
ATOM     21  C   UNL     1      21.829  -3.895 -35.634  1.00  0.00    -0.000 C 
BRANCH  21  22
ATOM     22  C   UNL     1      23.360  -3.887 -35.788  1.00  0.00    -0.000 C 
BRANCH  22  23
ATOM     23  C   UNL     1      23.884  -5.070 -36.625  1.00  0.00    -0.000 C 
BRANCH  23  24
ATOM     24  C   UNL     1      23.274  -6.441 -36.278  1.00  0.00    -0.000 C 
BRANCH  24  25
ATOM     25  C   UNL     1      22.304  -6.953 -37.353  1.00  0.00    -0.003 C 
ATOM     26  C   UNL     1      22.341  -8.476 -37.446  1.00  0.00     0.004 C 
ENDBRANCH  24  25
ENDBRANCH  23  24
ENDBRANCH  22  23
ENDBRANCH  21  22
ENDBRANCH  20  21
ENDBRANCH  19  20
ENDBRANCH  18  19
ENDBRANCH  17  18
ENDBRANCH  16  17
ENDBRANCH  15  16
ENDBRANCH   1  15
TORSDOF 22
ENDMDL
MODEL 5
REMARK VINA RESULT:    -4.567      2.529      5.705
REMARK INTER + INTRA:         -13.535
REMARK INTER:                 -10.589
REMARK INTRA:                  -2.945
REMARK UNBOUND:                -3.093
REMARK SMILES CCCCCCCCCCCCCCCCCCCCCCCC(=O)[O-]
REMARK SMILES IDX 13 1 14 2 15 3 16 4 17 5 18 6 19 7 20 8 21 9 22 10 23 11
REMARK SMILES IDX 24 12 25 13 26 14 12 15 11 16 10 17 9 18 8 19 7 20 6 21 5 22
REMARK SMILES IDX 4 23 3 24 2 25 1 26
REMARK H PARENT
REMARK Flexibility Score: inf
ROOT
ATOM      1  C   UNL     1      22.175  -2.071 -37.749  1.00  0.00     0.000 C 
ENDROOT
BRANCH   1   2
ATOM      2  C   UNL     1      23.708  -2.205 -37.727  1.00  0.00     0.000 C 
BRANCH   2   3
ATOM      3  C   UNL     1      24.264  -2.840 -39.012  1.00  0.00     0.000 C 
BRANCH   3   4
ATOM      4  C   UNL     1      25.796  -2.995 -38.986  1.00  0.00     0.000 C 
BRANCH   4   5
ATOM      5  C   UNL     1      26.276  -3.882 -37.826  1.00  0.00     0.000 C 
BRANCH   5   6
ATOM      6  C   UNL     1      27.771  -4.232 -37.924  1.00  0.00     0.000 C 
BRANCH   6   7
ATOM      7  C   UNL     1      28.072  -5.687 -37.497  1.00  0.00     0.000 C 
BRANCH   7   8
ATOM      8  C   UNL     1      27.490  -6.748 -38.449  1.00  0.00     0.000 C 
BRANCH   8   9
ATOM      9  C   UNL     1      25.985  -7.019 -38.272  1.00  0.00     0.000 C 
BRANCH   9  10
ATOM     10  C   UNL     1      25.342  -7.751 -39.473  1.00  0.00     0.006 C 
BRANCH  10  11
ATOM     11  C   UNL     1      25.187  -9.257 -39.234  1.00  0.00     0.053 C 
BRANCH  11  12
ATOM     12  C   UNL     1      24.289  -9.863 -40.266  1.00  0.00     0.041 C 
ATOM     13  O   UNL     1      23.178  -9.333 -40.529  1.00  0.00    -0.550 OA
ATOM     14  O   UNL     1      24.662 -11.038 -40.908  1.00  0.00    -0.550 OA
ENDBRANCH  11  12
ENDBRANCH  10  11
ENDBRANCH   9  10
ENDBRANCH   8   9
ENDBRANCH   7   8
ENDBRANCH   6   7
ENDBRANCH   5   6
ENDBRANCH   4   5
ENDBRANCH   3   4
ENDBRANCH   2   3
ENDBRANCH   1   2
BRANCH   1  15
ATOM     15  C   UNL     1      21.567  -1.923 -36.341  1.00  0.00     0.000 C 
BRANCH  15  16
ATOM     16  C   UNL     1      21.680  -3.170 -35.441  1.00  0.00     0.000 C 
BRANCH  16  17
ATOM     17  C   UNL     1      21.436  -4.517 -36.151  1.00  0.00     0.000 C 
BRANCH  17  18
ATOM     18  C   UNL     1      22.705  -5.353 -36.410  1.00  0.00    -0.000 C 
BRANCH  18  19
ATOM     19  C   UNL     1      22.733  -6.085 -37.767  1.00  0.00    -0.000 C 
BRANCH  19  20
ATOM     20  C   UNL     1      21.665  -5.625 -38.780  1.00  0.00    -0.000 C 
BRANCH  20  21
ATOM     21  C   UNL     1      22.126  -5.583 -40.249  1.00  0.00    -0.000 C 
BRANCH  21  22
ATOM     22  C   UNL     1      21.148  -4.827 -41.164  1.00  0.00    -0.000 C 
BRANCH  22  23
ATOM     23  C   UNL     1      20.608  -3.533 -40.525  1.00  0.00    -0.000 C 
BRANCH  23  24
ATOM     24  C   UNL     1      19.509  -2.814 -41.330  1.00  0.00    -0.000 C 
BRANCH  24  25
ATOM     25  C   UNL     1      18.547  -2.010 -40.442  1.00  0.00    -0.003 C 
ATOM     26  C   UNL     1      18.781  -2.311 -38.964  1.00  0.00     0.004 C 
ENDBRANCH  24  25
ENDBRANCH  23  24
ENDBRANCH  22  23
ENDBRANCH  21  22
ENDBRANCH  20  21
ENDBRANCH  19  20
ENDBRANCH  18  19
ENDBRANCH  17  18
ENDBRANCH  16  17
ENDBRANCH  15  16
ENDBRANCH   1  15
TORSDOF 22
ENDMDL
MODEL 6
REMARK VINA RESULT:    -4.518      3.297      8.606
REMARK INTER + INTRA:         -13.421
REMARK INTER:                 -10.602
REMARK INTRA:                  -2.819
REMARK UNBOUND:                -3.093
REMARK SMILES CCCCCCCCCCCCCCCCCCCCCCCC(=O)[O-]
REMARK SMILES IDX 13 1 14 2 15 3 16 4 17 5 18 6 19 7 20 8 21 9 22 10 23 11
REMARK SMILES IDX 24 12 25 13 26 14 12 15 11 16 10 17 9 18 8 19 7 20 6 21 5 22
REMARK SMILES IDX 4 23 3 24 2 25 1 26
REMARK H PARENT
REMARK Flexibility Score: inf
ROOT
ATOM      1  C   UNL     1      22.496  -6.837 -36.649  1.00  0.00     0.000 C 
ENDROOT
BRANCH   1   2
ATOM      2  C   UNL     1      21.423  -5.746 -36.810  1.00  0.00     0.000 C 
BRANCH   2   3
ATOM      3  C   UNL     1      21.989  -4.328 -36.625  1.00  0.00     0.000 C 
BRANCH   3   4
ATOM      4  C   UNL     1      21.206  -3.265 -37.419  1.00  0.00     0.000 C 
BRANCH   4   5
ATOM      5  C   UNL     1      20.502  -3.854 -38.651  1.00  0.00     0.000 C 
BRANCH   5   6
ATOM      6  C   UNL     1      21.363  -3.772 -39.924  1.00  0.00     0.000 C 
BRANCH   6   7
ATOM      7  C   UNL     1      22.105  -5.093 -40.228  1.00  0.00     0.000 C 
BRANCH   7   8
ATOM      8  C   UNL     1      23.615  -5.041 -39.932  1.00  0.00     0.000 C 
BRANCH   8   9
ATOM      9  C   UNL     1      24.154  -3.646 -39.566  1.00  0.00     0.000 C 
BRANCH   9  10
ATOM     10  C   UNL     1      25.448  -3.683 -38.720  1.00  0.00     0.006 C 
BRANCH  10  11
ATOM     11  C   UNL     1      25.511  -4.899 -37.789  1.00  0.00     0.053 C 
BRANCH  11  12
ATOM     12  C   UNL     1      26.806  -5.627 -37.963  1.00  0.00     0.041 C 
ATOM     13  O   UNL     1      27.893  -5.072 -37.650  1.00  0.00    -0.550 OA
ATOM     14  O   UNL     1      26.818  -6.905 -38.509  1.00  0.00    -0.550 OA
ENDBRANCH  11  12
ENDBRANCH  10  11
ENDBRANCH   9  10
ENDBRANCH   8   9
ENDBRANCH   7   8
ENDBRANCH   6   7
ENDBRANCH   5   6
ENDBRANCH   4   5
ENDBRANCH   3   4
ENDBRANCH   2   3
ENDBRANCH   1   2
BRANCH   1  15
ATOM     15  C   UNL     1      22.387  -7.945 -37.713  1.00  0.00     0.000 C 
BRANCH  15  16
ATOM     16  C   UNL     1      23.730  -8.434 -38.293  1.00  0.00     0.000 C 
BRANCH  16  17
ATOM     17  C   UNL     1      23.659  -8.992 -39.729  1.00  0.00     0.000 C 
BRANCH  17  18
ATOM     18  C   UNL     1      24.946  -9.684 -40.220  1.00  0.00    -0.000 C 
BRANCH  18  19
ATOM     19  C   UNL     1      24.726 -11.049 -40.904  1.00  0.00    -0.000 C 
BRANCH  19  20
ATOM     20  C   UNL     1      25.089 -12.277 -40.046  1.00  0.00    -0.000 C 
BRANCH  20  21
ATOM     21  C   UNL     1      24.698 -13.640 -40.649  1.00  0.00    -0.000 C 
BRANCH  21  22
ATOM     22  C   UNL     1      24.449 -14.719 -39.582  1.00  0.00    -0.000 C 
BRANCH  22  23
ATOM     23  C   UNL     1      24.042 -16.077 -40.186  1.00  0.00    -0.000 C 
BRANCH  23  24
ATOM     24  C   UNL     1      23.595 -16.031 -41.659  1.00  0.00    -0.000 C 
BRANCH  24  25
ATOM     25  C   UNL     1      24.132 -17.211 -42.484  1.00  0.00    -0.003 C 
ATOM     26  C   UNL     1      25.550 -16.936 -42.976  1.00  0.00     0.004 C 
ENDBRANCH  24  25
ENDBRANCH  23  24
ENDBRANCH  22  23
ENDBRANCH  21  22
ENDBRANCH  20  21
ENDBRANCH  19  20
ENDBRANCH  18  19
ENDBRANCH  17  18
ENDBRANCH  16  17
ENDBRANCH  15  16
ENDBRANCH   1  15
TORSDOF 22
ENDMDL
MODEL 7
REMARK VINA RESULT:    -4.505      1.532      3.029
REMARK INTER + INTRA:         -13.393
REMARK INTER:                 -10.850
REMARK INTRA:                  -2.543
REMARK UNBOUND:                -3.093
REMARK SMILES CCCCCCCCCCCCCCCCCCCCCCCC(=O)[O-]
REMARK SMILES IDX 13 1 14 2 15 3 16 4 17 5 18 6 19 7 20 8 21 9 22 10 23 11
REMARK SMILES IDX 24 12 25 13 26 14 12 15 11 16 10 17 9 18 8 19 7 20 6 21 5 22
REMARK SMILES IDX 4 23 3 24 2 25 1 26
REMARK H PARENT
REMARK Flexibility Score: inf
ROOT
ATOM      1  C   UNL     1      23.559  -7.619 -37.663  1.00  0.00     0.000 C 
ENDROOT
BRANCH   1   2
ATOM      2  C   UNL     1      23.136  -8.473 -38.871  1.00  0.00     0.000 C 
BRANCH   2   3
ATOM      3  C   UNL     1      24.288  -8.705 -39.863  1.00  0.00     0.000 C 
BRANCH   3   4
ATOM      4  C   UNL     1      25.131  -9.947 -39.519  1.00  0.00     0.000 C 
BRANCH   4   5
ATOM      5  C   UNL     1      24.938 -11.086 -40.533  1.00  0.00     0.000 C 
BRANCH   5   6
ATOM      6  C   UNL     1      25.137 -12.478 -39.909  1.00  0.00     0.000 C 
BRANCH   6   7
ATOM      7  C   UNL     1      24.641 -13.619 -40.826  1.00  0.00     0.000 C 
BRANCH   7   8
ATOM      8  C   UNL     1      24.197 -14.882 -40.064  1.00  0.00     0.000 C 
BRANCH   8   9
ATOM      9  C   UNL     1      23.217 -15.787 -40.832  1.00  0.00     0.000 C 
BRANCH   9  10
ATOM     10  C   UNL     1      23.886 -16.612 -41.956  1.00  0.00     0.006 C 
BRANCH  10  11
ATOM     11  C   UNL     1      25.055 -17.464 -41.448  1.00  0.00     0.053 C 
BRANCH  11  12
ATOM     12  C   UNL     1      25.763 -18.118 -42.592  1.00  0.00     0.041 C 
ATOM     13  O   UNL     1      25.861 -19.373 -42.643  1.00  0.00    -0.550 OA
ATOM     14  O   UNL     1      26.353 -17.340 -43.582  1.00  0.00    -0.550 OA
ENDBRANCH  11  12
ENDBRANCH  10  11
ENDBRANCH   9  10
ENDBRANCH   8   9
ENDBRANCH   7   8
ENDBRANCH   6   7
ENDBRANCH   5   6
ENDBRANCH   4   5
ENDBRANCH   3   4
ENDBRANCH   2   3
ENDBRANCH   1   2
BRANCH   1  15
ATOM     15  C   UNL     1      22.381  -6.858 -37.026  1.00  0.00     0.000 C 
BRANCH  15  16
ATOM     16  C   UNL     1      22.727  -5.469 -36.452  1.00  0.00     0.000 C 
BRANCH  16  17
ATOM     17  C   UNL     1      21.752  -4.339 -36.837  1.00  0.00     0.000 C 
BRANCH  17  18
ATOM     18  C   UNL     1      20.865  -4.636 -38.062  1.00  0.00    -0.000 C 
BRANCH  18  19
ATOM     19  C   UNL     1      21.343  -3.993 -39.379  1.00  0.00    -0.000 C 
BRANCH  19  20
ATOM     20  C   UNL     1      22.182  -4.912 -40.290  1.00  0.00    -0.000 C 
BRANCH  20  21
ATOM     21  C   UNL     1      23.702  -4.876 -40.041  1.00  0.00    -0.000 C 
BRANCH  21  22
ATOM     22  C   UNL     1      24.205  -3.493 -39.593  1.00  0.00    -0.000 C 
BRANCH  22  23
ATOM     23  C   UNL     1      25.133  -3.561 -38.365  1.00  0.00    -0.000 C 
BRANCH  23  24
ATOM     24  C   UNL     1      26.024  -4.815 -38.285  1.00  0.00    -0.000 C 
BRANCH  24  25
ATOM     25  C   UNL     1      27.422  -4.519 -37.723  1.00  0.00    -0.003 C 
ATOM     26  C   UNL     1      28.112  -3.413 -38.517  1.00  0.00     0.004 C 
ENDBRANCH  24  25
ENDBRANCH  23  24
ENDBRANCH  22  23
ENDBRANCH  21  22
ENDBRANCH  20  21
ENDBRANCH  19  20
ENDBRANCH  18  19
ENDBRANCH  17  18
ENDBRANCH  16  17
ENDBRANCH  15  16
ENDBRANCH   1  15
TORSDOF 22
ENDMDL
MODEL 8
REMARK VINA RESULT:    -4.499      1.596      3.239
REMARK INTER + INTRA:         -13.378
REMARK INTER:                 -10.741
REMARK INTRA:                  -2.637
REMARK UNBOUND:                -3.093
REMARK SMILES CCCCCCCCCCCCCCCCCCCCCCCC(=O)[O-]
REMARK SMILES IDX 13 1 14 2 15 3 16 4 17 5 18 6 19 7 20 8 21 9 22 10 23 11
REMARK SMILES IDX 24 12 25 13 26 14 12 15 11 16 10 17 9 18 8 19 7 20 6 21 5 22
REMARK SMILES IDX 4 23 3 24 2 25 1 26
REMARK H PARENT
REMARK Flexibility Score: inf
ROOT
ATOM      1  C   UNL     1      22.353  -7.709 -39.511  1.00  0.00     0.000 C 
ENDROOT
BRANCH   1   2
ATOM      2  C   UNL     1      22.936  -8.310 -38.220  1.00  0.00     0.000 C 
BRANCH   2   3
ATOM      3  C   UNL     1      24.387  -8.788 -38.394  1.00  0.00     0.000 C 
BRANCH   3   4
ATOM      4  C   UNL     1      24.668  -9.342 -39.803  1.00  0.00     0.000 C 
BRANCH   4   5
ATOM      5  C   UNL     1      25.375 -10.706 -39.768  1.00  0.00     0.000 C 
BRANCH   5   6
ATOM      6  C   UNL     1      24.688 -11.755 -40.660  1.00  0.00     0.000 C 
BRANCH   6   7
ATOM      7  C   UNL     1      24.975 -13.204 -40.205  1.00  0.00     0.000 C 
BRANCH   7   8
ATOM      8  C   UNL     1      24.230 -14.274 -41.025  1.00  0.00     0.000 C 
BRANCH   8   9
ATOM      9  C   UNL     1      23.835 -15.534 -40.234  1.00  0.00     0.000 C 
BRANCH   9  10
ATOM     10  C   UNL     1      24.511 -16.826 -40.751  1.00  0.00     0.006 C 
BRANCH  10  11
ATOM     11  C   UNL     1      24.320 -17.032 -42.258  1.00  0.00     0.053 C 
BRANCH  11  12
ATOM     12  C   UNL     1      25.580 -17.540 -42.883  1.00  0.00     0.041 C 
ATOM     13  O   UNL     1      25.933 -18.737 -42.717  1.00  0.00    -0.550 OA
ATOM     14  O   UNL     1      26.389 -16.679 -43.617  1.00  0.00    -0.550 OA
ENDBRANCH  11  12
ENDBRANCH  10  11
ENDBRANCH   9  10
ENDBRANCH   8   9
ENDBRANCH   7   8
ENDBRANCH   6   7
ENDBRANCH   5   6
ENDBRANCH   4   5
ENDBRANCH   3   4
ENDBRANCH   2   3
ENDBRANCH   1   2
BRANCH   1  15
ATOM     15  C   UNL     1      21.662  -6.352 -39.280  1.00  0.00     0.000 C 
BRANCH  15  16
ATOM     16  C   UNL     1      22.026  -5.246 -40.292  1.00  0.00     0.000 C 
BRANCH  16  17
ATOM     17  C   UNL     1      21.701  -3.809 -39.839  1.00  0.00     0.000 C 
BRANCH  17  18
ATOM     18  C   UNL     1      20.624  -3.703 -38.740  1.00  0.00    -0.000 C 
BRANCH  18  19
ATOM     19  C   UNL     1      20.883  -2.609 -37.684  1.00  0.00    -0.000 C 
BRANCH  19  20
ATOM     20  C   UNL     1      22.023  -2.913 -36.691  1.00  0.00    -0.000 C 
BRANCH  20  21
ATOM     21  C   UNL     1      21.987  -4.317 -36.058  1.00  0.00    -0.000 C 
BRANCH  21  22
ATOM     22  C   UNL     1      23.238  -5.152 -36.377  1.00  0.00    -0.000 C 
BRANCH  22  23
ATOM     23  C   UNL     1      24.330  -4.342 -37.103  1.00  0.00    -0.000 C 
BRANCH  23  24
ATOM     24  C   UNL     1      25.097  -5.109 -38.197  1.00  0.00    -0.000 C 
BRANCH  24  25
ATOM     25  C   UNL     1      26.383  -5.766 -37.676  1.00  0.00    -0.003 C 
ATOM     26  C   UNL     1      27.597  -4.878 -37.935  1.00  0.00     0.004 C 
ENDBRANCH  24  25
ENDBRANCH  23  24
ENDBRANCH  22  23
ENDBRANCH  21  22
ENDBRANCH  20  21
ENDBRANCH  19  20
ENDBRANCH  18  19
ENDBRANCH  17  18
ENDBRANCH  16  17
ENDBRANCH  15  16
ENDBRANCH   1  15
TORSDOF 22
ENDMDL
MODEL 9
REMARK VINA RESULT:    -4.435      3.873      9.306
REMARK INTER + INTRA:         -13.231
REMARK INTER:                 -10.851
REMARK INTRA:                  -2.380
REMARK UNBOUND:                -3.093
REMARK SMILES CCCCCCCCCCCCCCCCCCCCCCCC(=O)[O-]
REMARK SMILES IDX 13 1 14 2 15 3 16 4 17 5 18 6 19 7 20 8 21 9 22 10 23 11
REMARK SMILES IDX 24 12 25 13 26 14 12 15 11 16 10 17 9 18 8 19 7 20 6 21 5 22
REMARK SMILES IDX 4 23 3 24 2 25 1 26
REMARK H PARENT
REMARK Flexibility Score: inf
ROOT
ATOM      1  C   UNL     1      25.924  -7.136 -37.868  1.00  0.00     0.000 C 
ENDROOT
BRANCH   1   2
ATOM      2  C   UNL     1      27.294  -6.438 -37.814  1.00  0.00     0.000 C 
BRANCH   2   3
ATOM      3  C   UNL     1      27.176  -4.905 -37.806  1.00  0.00     0.000 C 
BRANCH   3   4
ATOM      4  C   UNL     1      25.716  -4.419 -37.765  1.00  0.00     0.000 C 
BRANCH   4   5
ATOM      5  C   UNL     1      25.452  -3.270 -38.752  1.00  0.00     0.000 C 
BRANCH   5   6
ATOM      6  C   UNL     1      24.126  -3.435 -39.515  1.00  0.00     0.000 C 
BRANCH   6   7
ATOM      7  C   UNL     1      23.910  -4.876 -40.031  1.00  0.00     0.000 C 
BRANCH   7   8
ATOM      8  C   UNL     1      22.430  -5.251 -40.229  1.00  0.00     0.000 C 
BRANCH   8   9
ATOM      9  C   UNL     1      21.965  -6.487 -39.437  1.00  0.00     0.000 C 
BRANCH   9  10
ATOM     10  C   UNL     1      22.341  -6.438 -37.938  1.00  0.00     0.006 C 
BRANCH  10  11
ATOM     11  C   UNL     1      21.293  -5.708 -37.089  1.00  0.00     0.053 C 
BRANCH  11  12
ATOM     12  C   UNL     1      21.735  -4.308 -36.799  1.00  0.00     0.041 C 
ATOM     13  O   UNL     1      22.609  -4.088 -35.920  1.00  0.00    -0.550 OA
ATOM     14  O   UNL     1      21.152  -3.241 -37.473  1.00  0.00    -0.550 OA
ENDBRANCH  11  12
ENDBRANCH  10  11
ENDBRANCH   9  10
ENDBRANCH   8   9
ENDBRANCH   7   8
ENDBRANCH   6   7
ENDBRANCH   5   6
ENDBRANCH   4   5
ENDBRANCH   3   4
ENDBRANCH   2   3
ENDBRANCH   1   2
BRANCH   1  15
ATOM     15  C   UNL     1      25.637  -7.787 -39.235  1.00  0.00     0.000 C 
BRANCH  15  16
ATOM     16  C   UNL     1      25.302  -9.292 -39.190  1.00  0.00     0.000 C 
BRANCH  16  17
ATOM     17  C   UNL     1      24.232  -9.756 -40.198  1.00  0.00     0.000 C 
BRANCH  17  18
ATOM     18  C   UNL     1      24.600 -11.020 -41.000  1.00  0.00    -0.000 C 
BRANCH  18  19
ATOM     19  C   UNL     1      25.075 -12.213 -40.146  1.00  0.00    -0.000 C 
BRANCH  19  20
ATOM     20  C   UNL     1      24.639 -13.600 -40.660  1.00  0.00    -0.000 C 
BRANCH  20  21
ATOM     21  C   UNL     1      24.299 -14.630 -39.565  1.00  0.00    -0.000 C 
BRANCH  21  22
ATOM     22  C   UNL     1      24.183 -16.065 -40.107  1.00  0.00    -0.000 C 
BRANCH  22  23
ATOM     23  C   UNL     1      23.765 -16.114 -41.589  1.00  0.00    -0.000 C 
BRANCH  23  24
ATOM     24  C   UNL     1      24.787 -16.771 -42.537  1.00  0.00    -0.000 C 
BRANCH  24  25
ATOM     25  C   UNL     1      24.673 -18.302 -42.570  1.00  0.00    -0.003 C 
ATOM     26  C   UNL     1      25.747 -18.952 -41.701  1.00  0.00     0.004 C 
ENDBRANCH  24  25
ENDBRANCH  23  24
ENDBRANCH  22  23
ENDBRANCH  21  22
ENDBRANCH  20  21
ENDBRANCH  19  20
ENDBRANCH  18  19
ENDBRANCH  17  18
ENDBRANCH  16  17
ENDBRANCH  15  16
ENDBRANCH   1  15
TORSDOF 22
ENDMDL
