MODEL 1
REMARK VINA RESULT:    -3.700      0.000      0.000
REMARK INTER + INTRA:          -8.843
REMARK INTER:                  -6.729
REMARK INTRA:                  -2.114
REMARK UNBOUND:                -2.114
REMARK SMILES CCCCCCCCCCCCCC[C@@H](C)C(=O)[O-]
REMARK SMILES IDX 9 1 10 2 11 3 12 4 13 5 14 6 15 7 16 8 17 9 18 10 19 11 8 12
REMARK SMILES IDX 7 13 6 14 5 15 4 16 3 17 2 18 1 19
REMARK H PARENT
REMARK Flexibility Score: inf
ROOT
ATOM      1  C   UNL     1      62.267  25.223  22.527  1.00  0.00     0.000 C 
ENDROOT
BRANCH   1   2
ATOM      2  C   UNL     1      63.727  24.820  22.765  1.00  0.00     0.000 C 
BRANCH   2   3
ATOM      3  C   UNL     1      63.837  23.785  23.896  1.00  0.00     0.000 C 
BRANCH   3   4
ATOM      4  C   UNL     1      63.861  22.335  23.380  1.00  0.00     0.000 C 
BRANCH   4   5
ATOM      5  C   UNL     1      62.543  21.559  23.574  1.00  0.00     0.001 C 
BRANCH   5   6
ATOM      6  C   UNL     1      62.048  20.894  22.274  1.00  0.00     0.009 C 
BRANCH   6   7
ATOM      7  C   UNL     1      62.393  21.721  21.015  1.00  0.00     0.032 C 
ATOM      8  C   UNL     1      63.402  21.008  20.103  1.00  0.00     0.014 C 
BRANCH   7   9
ATOM      9  C   UNL     1      61.135  22.024  20.244  1.00  0.00     0.044 C 
ATOM     10  O   UNL     1      60.073  22.341  20.847  1.00  0.00    -0.550 OA
ATOM     11  O   UNL     1      61.143  21.969  18.854  1.00  0.00    -0.550 OA
ENDBRANCH   7   9
ENDBRANCH   6   7
ENDBRANCH   5   6
ENDBRANCH   4   5
ENDBRANCH   3   4
ENDBRANCH   2   3
ENDBRANCH   1   2
BRANCH   1  12
ATOM     12  C   UNL     1      61.456  25.145  23.830  1.00  0.00     0.000 C 
BRANCH  12  13
ATOM     13  C   UNL     1      60.165  24.311  23.670  1.00  0.00    -0.000 C 
BRANCH  13  14
ATOM     14  C   UNL     1      59.322  24.219  24.958  1.00  0.00    -0.000 C 
BRANCH  14  15
ATOM     15  C   UNL     1      58.429  22.970  25.059  1.00  0.00    -0.000 C 
BRANCH  15  16
ATOM     16  C   UNL     1      58.837  21.865  24.071  1.00  0.00    -0.000 C 
BRANCH  16  17
ATOM     17  C   UNL     1      57.604  21.280  23.367  1.00  0.00    -0.000 C 
BRANCH  17  18
ATOM     18  C   UNL     1      56.642  22.367  22.861  1.00  0.00    -0.003 C 
ATOM     19  C   UNL     1      55.192  22.111  23.268  1.00  0.00     0.004 C 
ENDBRANCH  17  18
ENDBRANCH  16  17
ENDBRANCH  15  16
ENDBRANCH  14  15
ENDBRANCH  13  14
ENDBRANCH  12  13
ENDBRANCH   1  12
TORSDOF 14
ENDMDL
MODEL 2
REMARK VINA RESULT:    -3.680      2.439      5.636
REMARK INTER + INTRA:          -8.806
REMARK INTER:                  -6.621
REMARK INTRA:                  -2.184
REMARK UNBOUND:                -2.114
REMARK SMILES CCCCCCCCCCCCCC[C@@H](C)C(=O)[O-]
REMARK SMILES IDX 9 1 10 2 11 3 12 4 13 5 14 6 15 7 16 8 17 9 18 10 19 11 8 12
REMARK SMILES IDX 7 13 6 14 5 15 4 16 3 17 2 18 1 19
REMARK H PARENT
REMARK Flexibility Score: inf
ROOT
ATOM      1  C   UNL     1      57.425  22.309  22.792  1.00  0.00     0.000 C 
ENDROOT
BRANCH   1   2
ATOM      2  C   UNL     1      57.242  22.773  24.242  1.00  0.00     0.000 C 
BRANCH   2   3
ATOM      3  C   UNL     1      58.518  23.447  24.771  1.00  0.00     0.000 C 
BRANCH   3   4
ATOM      4  C   UNL     1      59.383  22.502  25.626  1.00  0.00     0.000 C 
BRANCH   4   5
ATOM      5  C   UNL     1      60.869  22.901  25.726  1.00  0.00     0.001 C 
BRANCH   5   6
ATOM      6  C   UNL     1      61.132  24.338  25.234  1.00  0.00     0.009 C 
BRANCH   6   7
ATOM      7  C   UNL     1      62.620  24.740  25.347  1.00  0.00     0.032 C 
ATOM      8  C   UNL     1      63.568  23.557  25.099  1.00  0.00     0.014 C 
BRANCH   7   9
ATOM      9  C   UNL     1      62.924  25.849  24.373  1.00  0.00     0.044 C 
ATOM     10  O   UNL     1      62.285  25.943  23.289  1.00  0.00    -0.550 OA
ATOM     11  O   UNL     1      63.906  26.787  24.674  1.00  0.00    -0.550 OA
ENDBRANCH   7   9
ENDBRANCH   6   7
ENDBRANCH   5   6
ENDBRANCH   4   5
ENDBRANCH   3   4
ENDBRANCH   2   3
ENDBRANCH   1   2
BRANCH   1  12
ATOM     12  C   UNL     1      58.064  20.913  22.736  1.00  0.00     0.000 C 
BRANCH  12  13
ATOM     13  C   UNL     1      59.448  20.927  22.052  1.00  0.00    -0.000 C 
BRANCH  13  14
ATOM     14  C   UNL     1      59.809  22.281  21.406  1.00  0.00    -0.000 C 
BRANCH  14  15
ATOM     15  C   UNL     1      61.065  22.957  21.980  1.00  0.00    -0.000 C 
BRANCH  15  16
ATOM     16  C   UNL     1      62.267  22.002  22.072  1.00  0.00    -0.000 C 
BRANCH  16  17
ATOM     17  C   UNL     1      63.275  22.281  20.947  1.00  0.00    -0.000 C 
BRANCH  17  18
ATOM     18  C   UNL     1      62.985  21.463  19.678  1.00  0.00    -0.003 C 
ATOM     19  C   UNL     1      62.223  22.260  18.620  1.00  0.00     0.004 C 
ENDBRANCH  17  18
ENDBRANCH  16  17
ENDBRANCH  15  16
ENDBRANCH  14  15
ENDBRANCH  13  14
ENDBRANCH  12  13
ENDBRANCH   1  12
TORSDOF 14
ENDMDL
MODEL 3
REMARK VINA RESULT:    -3.678      1.966      4.866
REMARK INTER + INTRA:          -8.802
REMARK INTER:                  -6.934
REMARK INTRA:                  -1.868
REMARK UNBOUND:                -2.114
REMARK SMILES CCCCCCCCCCCCCC[C@@H](C)C(=O)[O-]
REMARK SMILES IDX 9 1 10 2 11 3 12 4 13 5 14 6 15 7 16 8 17 9 18 10 19 11 8 12
REMARK SMILES IDX 7 13 6 14 5 15 4 16 3 17 2 18 1 19
REMARK H PARENT
REMARK Flexibility Score: inf
ROOT
ATOM      1  C   UNL     1      61.553  25.741  23.368  1.00  0.00     0.000 C 
ENDROOT
BRANCH   1   2
ATOM      2  C   UNL     1      60.777  24.431  23.547  1.00  0.00     0.000 C 
BRANCH   2   3
ATOM      3  C   UNL     1      60.423  24.196  25.024  1.00  0.00     0.000 C 
BRANCH   3   4
ATOM      4  C   UNL     1      60.626  22.734  25.462  1.00  0.00     0.000 C 
BRANCH   4   5
ATOM      5  C   UNL     1      59.500  21.771  25.038  1.00  0.00     0.001 C 
BRANCH   5   6
ATOM      6  C   UNL     1      58.238  22.510  24.550  1.00  0.00     0.009 C 
BRANCH   6   7
ATOM      7  C   UNL     1      57.921  22.227  23.065  1.00  0.00     0.032 C 
ATOM      8  C   UNL     1      58.527  20.901  22.578  1.00  0.00     0.014 C 
BRANCH   7   9
ATOM      9  C   UNL     1      56.430  22.212  22.855  1.00  0.00     0.044 C 
ATOM     10  O   UNL     1      55.891  22.998  22.027  1.00  0.00    -0.550 OA
ATOM     11  O   UNL     1      55.637  21.317  23.565  1.00  0.00    -0.550 OA
ENDBRANCH   7   9
ENDBRANCH   6   7
ENDBRANCH   5   6
ENDBRANCH   4   5
ENDBRANCH   3   4
ENDBRANCH   2   3
ENDBRANCH   1   2
BRANCH   1  12
ATOM     12  C   UNL     1      62.838  25.514  22.557  1.00  0.00     0.000 C 
BRANCH  12  13
ATOM     13  C   UNL     1      63.727  24.405  23.162  1.00  0.00    -0.000 C 
BRANCH  13  14
ATOM     14  C   UNL     1      64.123  23.308  22.153  1.00  0.00    -0.000 C 
BRANCH  14  15
ATOM     15  C   UNL     1      63.674  21.887  22.533  1.00  0.00    -0.000 C 
BRANCH  15  16
ATOM     16  C   UNL     1      62.164  21.667  22.338  1.00  0.00    -0.000 C 
BRANCH  16  17
ATOM     17  C   UNL     1      61.876  21.049  20.962  1.00  0.00    -0.000 C 
BRANCH  17  18
ATOM     18  C   UNL     1      61.305  22.071  19.965  1.00  0.00    -0.003 C 
ATOM     19  C   UNL     1      62.220  22.303  18.764  1.00  0.00     0.004 C 
ENDBRANCH  17  18
ENDBRANCH  16  17
ENDBRANCH  15  16
ENDBRANCH  14  15
ENDBRANCH  13  14
ENDBRANCH  12  13
ENDBRANCH   1  12
TORSDOF 14
ENDMDL
MODEL 4
REMARK VINA RESULT:    -3.562      2.413      4.011
REMARK INTER + INTRA:          -8.591
REMARK INTER:                  -7.192
REMARK INTRA:                  -1.400
REMARK UNBOUND:                -2.114
REMARK SMILES CCCCCCCCCCCCCC[C@@H](C)C(=O)[O-]
REMARK SMILES IDX 9 1 10 2 11 3 12 4 13 5 14 6 15 7 16 8 17 9 18 10 19 11 8 12
REMARK SMILES IDX 7 13 6 14 5 15 4 16 3 17 2 18 1 19
REMARK H PARENT
REMARK Flexibility Score: inf
ROOT
ATOM      1  C   UNL     1      61.567  21.839  20.175  1.00  0.00     0.000 C 
ENDROOT
BRANCH   1   2
ATOM      2  C   UNL     1      63.000  21.297  20.237  1.00  0.00     0.000 C 
BRANCH   2   3
ATOM      3  C   UNL     1      64.002  22.420  20.549  1.00  0.00     0.000 C 
BRANCH   3   4
ATOM      4  C   UNL     1      63.933  22.893  22.013  1.00  0.00     0.000 C 
BRANCH   4   5
ATOM      5  C   UNL     1      63.660  24.400  22.192  1.00  0.00     0.001 C 
BRANCH   5   6
ATOM      6  C   UNL     1      63.869  24.872  23.645  1.00  0.00     0.009 C 
BRANCH   6   7
ATOM      7  C   UNL     1      62.559  25.357  24.306  1.00  0.00     0.032 C 
ATOM      8  C   UNL     1      61.454  25.642  23.277  1.00  0.00     0.014 C 
BRANCH   7   9
ATOM      9  C   UNL     1      62.078  24.330  25.298  1.00  0.00     0.044 C 
ATOM     10  O   UNL     1      60.990  24.495  25.914  1.00  0.00    -0.550 OA
ATOM     11  O   UNL     1      62.830  23.183  25.529  1.00  0.00    -0.550 OA
ENDBRANCH   7   9
ENDBRANCH   6   7
ENDBRANCH   5   6
ENDBRANCH   4   5
ENDBRANCH   3   4
ENDBRANCH   2   3
ENDBRANCH   1   2
BRANCH   1  12
ATOM     12  C   UNL     1      60.777  21.452  21.434  1.00  0.00     0.000 C 
BRANCH  12  13
ATOM     13  C   UNL     1      59.797  22.561  21.877  1.00  0.00    -0.000 C 
BRANCH  13  14
ATOM     14  C   UNL     1      59.385  22.469  23.361  1.00  0.00    -0.000 C 
BRANCH  14  15
ATOM     15  C   UNL     1      58.549  21.230  23.725  1.00  0.00    -0.000 C 
BRANCH  15  16
ATOM     16  C   UNL     1      57.378  20.995  22.756  1.00  0.00    -0.000 C 
BRANCH  16  17
ATOM     17  C   UNL     1      56.266  22.029  22.983  1.00  0.00    -0.000 C 
BRANCH  17  18
ATOM     18  C   UNL     1      54.927  21.380  23.373  1.00  0.00    -0.003 C 
ATOM     19  C   UNL     1      53.909  22.391  23.898  1.00  0.00     0.004 C 
ENDBRANCH  17  18
ENDBRANCH  16  17
ENDBRANCH  15  16
ENDBRANCH  14  15
ENDBRANCH  13  14
ENDBRANCH  12  13
ENDBRANCH   1  12
TORSDOF 14
ENDMDL
MODEL 5
REMARK VINA RESULT:    -3.476      0.926      1.615
REMARK INTER + INTRA:          -8.435
REMARK INTER:                  -6.686
REMARK INTRA:                  -1.749
REMARK UNBOUND:                -2.114
REMARK SMILES CCCCCCCCCCCCCC[C@@H](C)C(=O)[O-]
REMARK SMILES IDX 9 1 10 2 11 3 12 4 13 5 14 6 15 7 16 8 17 9 18 10 19 11 8 12
REMARK SMILES IDX 7 13 6 14 5 15 4 16 3 17 2 18 1 19
REMARK H PARENT
REMARK Flexibility Score: inf
ROOT
ATOM      1  C   UNL     1      60.373  24.731  23.745  1.00  0.00     0.000 C 
ENDROOT
BRANCH   1   2
ATOM      2  C   UNL     1      61.509  25.553  23.125  1.00  0.00     0.000 C 
BRANCH   2   3
ATOM      3  C   UNL     1      62.872  25.129  23.694  1.00  0.00     0.000 C 
BRANCH   3   4
ATOM      4  C   UNL     1      63.677  24.247  22.722  1.00  0.00     0.000 C 
BRANCH   4   5
ATOM      5  C   UNL     1      63.715  22.750  23.089  1.00  0.00     0.001 C 
BRANCH   5   6
ATOM      6  C   UNL     1      62.684  21.920  22.299  1.00  0.00     0.009 C 
BRANCH   6   7
ATOM      7  C   UNL     1      62.730  22.205  20.781  1.00  0.00     0.032 C 
ATOM      8  C   UNL     1      63.515  21.135  20.007  1.00  0.00     0.014 C 
BRANCH   7   9
ATOM      9  C   UNL     1      61.328  22.301  20.237  1.00  0.00     0.044 C 
ATOM     10  O   UNL     1      60.366  22.601  20.996  1.00  0.00    -0.550 OA
ATOM     11  O   UNL     1      61.091  22.073  18.886  1.00  0.00    -0.550 OA
ENDBRANCH   7   9
ENDBRANCH   6   7
ENDBRANCH   5   6
ENDBRANCH   4   5
ENDBRANCH   3   4
ENDBRANCH   2   3
ENDBRANCH   1   2
BRANCH   1  12
ATOM     12  C   UNL     1      60.757  24.230  25.146  1.00  0.00     0.000 C 
BRANCH  12  13
ATOM     13  C   UNL     1      59.982  22.956  25.547  1.00  0.00    -0.000 C 
BRANCH  13  14
ATOM     14  C   UNL     1      60.150  21.788  24.553  1.00  0.00    -0.000 C 
BRANCH  14  15
ATOM     15  C   UNL     1      58.839  21.097  24.140  1.00  0.00    -0.000 C 
BRANCH  15  16
ATOM     16  C   UNL     1      57.819  22.071  23.526  1.00  0.00    -0.000 C 
BRANCH  16  17
ATOM     17  C   UNL     1      56.482  21.364  23.257  1.00  0.00    -0.000 C 
BRANCH  17  18
ATOM     18  C   UNL     1      55.275  22.301  23.424  1.00  0.00    -0.003 C 
ATOM     19  C   UNL     1      53.948  21.549  23.508  1.00  0.00     0.004 C 
ENDBRANCH  17  18
ENDBRANCH  16  17
ENDBRANCH  15  16
ENDBRANCH  14  15
ENDBRANCH  13  14
ENDBRANCH  12  13
ENDBRANCH   1  12
TORSDOF 14
ENDMDL
MODEL 6
REMARK VINA RESULT:    -3.242      2.124      4.777
REMARK INTER + INTRA:          -8.009
REMARK INTER:                  -5.860
REMARK INTRA:                  -2.149
REMARK UNBOUND:                -2.114
REMARK SMILES CCCCCCCCCCCCCC[C@@H](C)C(=O)[O-]
REMARK SMILES IDX 9 1 10 2 11 3 12 4 13 5 14 6 15 7 16 8 17 9 18 10 19 11 8 12
REMARK SMILES IDX 7 13 6 14 5 15 4 16 3 17 2 18 1 19
REMARK H PARENT
REMARK Flexibility Score: inf
ROOT
ATOM      1  C   UNL     1      58.122  23.590  24.462  1.00  0.00     0.000 C 
ENDROOT
BRANCH   1   2
ATOM      2  C   UNL     1      58.634  23.150  25.839  1.00  0.00     0.000 C 
BRANCH   2   3
ATOM      3  C   UNL     1      60.169  23.199  25.899  1.00  0.00     0.000 C 
BRANCH   3   4
ATOM      4  C   UNL     1      60.822  21.830  25.635  1.00  0.00     0.000 C 
BRANCH   4   5
ATOM      5  C   UNL     1      62.225  21.896  25.001  1.00  0.00     0.001 C 
BRANCH   5   6
ATOM      6  C   UNL     1      62.961  23.212  25.323  1.00  0.00     0.009 C 
BRANCH   6   7
ATOM      7  C   UNL     1      63.777  23.745  24.124  1.00  0.00     0.032 C 
ATOM      8  C   UNL     1      64.051  22.659  23.072  1.00  0.00     0.014 C 
BRANCH   7   9
ATOM      9  C   UNL     1      63.050  24.900  23.486  1.00  0.00     0.044 C 
ATOM     10  O   UNL     1      61.955  25.310  23.961  1.00  0.00    -0.550 OA
ATOM     11  O   UNL     1      63.594  25.532  22.373  1.00  0.00    -0.550 OA
ENDBRANCH   7   9
ENDBRANCH   6   7
ENDBRANCH   5   6
ENDBRANCH   4   5
ENDBRANCH   3   4
ENDBRANCH   2   3
ENDBRANCH   1   2
BRANCH   1  12
ATOM     12  C   UNL     1      57.032  22.636  23.950  1.00  0.00     0.000 C 
BRANCH  12  13
ATOM     13  C   UNL     1      57.440  21.924  22.642  1.00  0.00    -0.000 C 
BRANCH  13  14
ATOM     14  C   UNL     1      58.556  20.875  22.828  1.00  0.00    -0.000 C 
BRANCH  14  15
ATOM     15  C   UNL     1      59.701  20.959  21.805  1.00  0.00    -0.000 C 
BRANCH  15  16
ATOM     16  C   UNL     1      60.483  22.281  21.893  1.00  0.00    -0.000 C 
BRANCH  16  17
ATOM     17  C   UNL     1      61.071  22.660  20.526  1.00  0.00    -0.000 C 
BRANCH  17  18
ATOM     18  C   UNL     1      62.147  21.669  20.051  1.00  0.00    -0.003 C 
ATOM     19  C   UNL     1      62.706  22.017  18.672  1.00  0.00     0.004 C 
ENDBRANCH  17  18
ENDBRANCH  16  17
ENDBRANCH  15  16
ENDBRANCH  14  15
ENDBRANCH  13  14
ENDBRANCH  12  13
ENDBRANCH   1  12
TORSDOF 14
ENDMDL
MODEL 7
REMARK VINA RESULT:    -3.164      1.804      4.943
REMARK INTER + INTRA:          -7.868
REMARK INTER:                  -5.790
REMARK INTRA:                  -2.078
REMARK UNBOUND:                -2.114
REMARK SMILES CCCCCCCCCCCCCC[C@@H](C)C(=O)[O-]
REMARK SMILES IDX 9 1 10 2 11 3 12 4 13 5 14 6 15 7 16 8 17 9 18 10 19 11 8 12
REMARK SMILES IDX 7 13 6 14 5 15 4 16 3 17 2 18 1 19
REMARK H PARENT
REMARK Flexibility Score: inf
ROOT
ATOM      1  C   UNL     1      62.716  25.044  25.122  1.00  0.00     0.000 C 
ENDROOT
BRANCH   1   2
ATOM      2  C   UNL     1      62.991  25.594  23.718  1.00  0.00     0.000 C 
BRANCH   2   3
ATOM      3  C   UNL     1      61.835  25.266  22.760  1.00  0.00     0.000 C 
BRANCH   3   4
ATOM      4  C   UNL     1      60.602  24.695  23.486  1.00  0.00     0.000 C 
BRANCH   4   5
ATOM      5  C   UNL     1      60.111  23.335  22.951  1.00  0.00     0.001 C 
BRANCH   5   6
ATOM      6  C   UNL     1      59.948  22.283  24.066  1.00  0.00     0.009 C 
BRANCH   6   7
ATOM      7  C   UNL     1      58.519  22.258  24.655  1.00  0.00     0.032 C 
ATOM      8  C   UNL     1      58.158  23.567  25.373  1.00  0.00     0.014 C 
BRANCH   7   9
ATOM      9  C   UNL     1      57.521  21.986  23.560  1.00  0.00     0.044 C 
ATOM     10  O   UNL     1      56.483  22.696  23.447  1.00  0.00    -0.550 OA
ATOM     11  O   UNL     1      57.747  20.956  22.654  1.00  0.00    -0.550 OA
ENDBRANCH   7   9
ENDBRANCH   6   7
ENDBRANCH   5   6
ENDBRANCH   4   5
ENDBRANCH   3   4
ENDBRANCH   2   3
ENDBRANCH   1   2
BRANCH   1  12
ATOM     12  C   UNL     1      63.892  24.188  25.618  1.00  0.00     0.000 C 
BRANCH  12  13
ATOM     13  C   UNL     1      63.649  22.677  25.407  1.00  0.00    -0.000 C 
BRANCH  13  14
ATOM     14  C   UNL     1      64.125  22.157  24.035  1.00  0.00    -0.000 C 
BRANCH  14  15
ATOM     15  C   UNL     1      63.154  21.188  23.338  1.00  0.00    -0.000 C 
BRANCH  15  16
ATOM     16  C   UNL     1      63.458  21.015  21.841  1.00  0.00    -0.000 C 
BRANCH  16  17
ATOM     17  C   UNL     1      63.449  22.371  21.121  1.00  0.00    -0.000 C 
BRANCH  17  18
ATOM     18  C   UNL     1      62.858  22.283  19.704  1.00  0.00    -0.003 C 
ATOM     19  C   UNL     1      61.359  21.990  19.704  1.00  0.00     0.004 C 
ENDBRANCH  17  18
ENDBRANCH  16  17
ENDBRANCH  15  16
ENDBRANCH  14  15
ENDBRANCH  13  14
ENDBRANCH  12  13
ENDBRANCH   1  12
TORSDOF 14
ENDMDL
MODEL 8
REMARK VINA RESULT:    -2.902      2.562      4.209
REMARK INTER + INTRA:          -7.391
REMARK INTER:                  -6.155
REMARK INTRA:                  -1.236
REMARK UNBOUND:                -2.114
REMARK SMILES CCCCCCCCCCCCCC[C@@H](C)C(=O)[O-]
REMARK SMILES IDX 9 1 10 2 11 3 12 4 13 5 14 6 15 7 16 8 17 9 18 10 19 11 8 12
REMARK SMILES IDX 7 13 6 14 5 15 4 16 3 17 2 18 1 19
REMARK H PARENT
REMARK Flexibility Score: inf
ROOT
ATOM      1  C   UNL     1      59.628  20.943  22.824  1.00  0.00     0.000 C 
ENDROOT
BRANCH   1   2
ATOM      2  C   UNL     1      60.862  20.882  21.916  1.00  0.00     0.000 C 
BRANCH   2   3
ATOM      3  C   UNL     1      60.729  21.859  20.737  1.00  0.00     0.000 C 
BRANCH   3   4
ATOM      4  C   UNL     1      61.830  22.936  20.727  1.00  0.00     0.000 C 
BRANCH   4   5
ATOM      5  C   UNL     1      62.963  22.710  21.747  1.00  0.00     0.001 C 
BRANCH   5   6
ATOM      6  C   UNL     1      62.674  23.367  23.111  1.00  0.00     0.009 C 
BRANCH   6   7
ATOM      7  C   UNL     1      62.803  24.906  23.067  1.00  0.00     0.032 C 
ATOM      8  C   UNL     1      61.438  25.611  23.098  1.00  0.00     0.014 C 
BRANCH   7   9
ATOM      9  C   UNL     1      63.647  25.381  24.222  1.00  0.00     0.044 C 
ATOM     10  O   UNL     1      64.105  24.558  25.062  1.00  0.00    -0.550 OA
ATOM     11  O   UNL     1      63.939  26.734  24.358  1.00  0.00    -0.550 OA
ENDBRANCH   7   9
ENDBRANCH   6   7
ENDBRANCH   5   6
ENDBRANCH   4   5
ENDBRANCH   3   4
ENDBRANCH   2   3
ENDBRANCH   1   2
BRANCH   1  12
ATOM     12  C   UNL     1      60.035  21.019  24.303  1.00  0.00     0.000 C 
BRANCH  12  13
ATOM     13  C   UNL     1      59.667  22.375  24.945  1.00  0.00    -0.000 C 
BRANCH  13  14
ATOM     14  C   UNL     1      58.623  23.178  24.143  1.00  0.00    -0.000 C 
BRANCH  14  15
ATOM     15  C   UNL     1      57.176  22.672  24.275  1.00  0.00    -0.000 C 
BRANCH  15  16
ATOM     16  C   UNL     1      56.479  22.498  22.915  1.00  0.00    -0.000 C 
BRANCH  16  17
ATOM     17  C   UNL     1      54.962  22.345  23.095  1.00  0.00    -0.000 C 
BRANCH  17  18
ATOM     18  C   UNL     1      54.556  20.920  23.504  1.00  0.00    -0.003 C 
ATOM     19  C   UNL     1      53.233  20.875  24.267  1.00  0.00     0.004 C 
ENDBRANCH  17  18
ENDBRANCH  16  17
ENDBRANCH  15  16
ENDBRANCH  14  15
ENDBRANCH  13  14
ENDBRANCH  12  13
ENDBRANCH   1  12
TORSDOF 14
ENDMDL
MODEL 9
REMARK VINA RESULT:    -2.882      1.763      4.730
REMARK INTER + INTRA:          -7.355
REMARK INTER:                  -5.568
REMARK INTRA:                  -1.786
REMARK UNBOUND:                -2.114
REMARK SMILES CCCCCCCCCCCCCC[C@@H](C)C(=O)[O-]
REMARK SMILES IDX 9 1 10 2 11 3 12 4 13 5 14 6 15 7 16 8 17 9 18 10 19 11 8 12
REMARK SMILES IDX 7 13 6 14 5 15 4 16 3 17 2 18 1 19
REMARK H PARENT
REMARK Flexibility Score: inf
ROOT
ATOM      1  C   UNL     1      57.304  22.868  22.967  1.00  0.00     0.000 C 
ENDROOT
BRANCH   1   2
ATOM      2  C   UNL     1      57.351  21.344  22.804  1.00  0.00     0.000 C 
BRANCH   2   3
ATOM      3  C   UNL     1      58.577  20.914  21.984  1.00  0.00     0.000 C 
BRANCH   3   4
ATOM      4  C   UNL     1      59.531  22.084  21.678  1.00  0.00     0.000 C 
BRANCH   4   5
ATOM      5  C   UNL     1      61.003  21.677  21.463  1.00  0.00     0.001 C 
BRANCH   5   6
ATOM      6  C   UNL     1      61.745  21.412  22.787  1.00  0.00     0.009 C 
BRANCH   6   7
ATOM      7  C   UNL     1      63.123  22.110  22.845  1.00  0.00     0.032 C 
ATOM      8  C   UNL     1      64.034  21.519  23.931  1.00  0.00     0.014 C 
BRANCH   7   9
ATOM      9  C   UNL     1      63.801  22.013  21.503  1.00  0.00     0.044 C 
ATOM     10  O   UNL     1      64.068  20.887  21.000  1.00  0.00    -0.550 OA
ATOM     11  O   UNL     1      64.123  23.170  20.803  1.00  0.00    -0.550 OA
ENDBRANCH   7   9
ENDBRANCH   6   7
ENDBRANCH   5   6
ENDBRANCH   4   5
ENDBRANCH   3   4
ENDBRANCH   2   3
ENDBRANCH   1   2
BRANCH   1  12
ATOM     12  C   UNL     1      57.872  23.293  24.330  1.00  0.00     0.000 C 
BRANCH  12  13
ATOM     13  C   UNL     1      58.668  22.161  25.015  1.00  0.00    -0.000 C 
BRANCH  13  14
ATOM     14  C   UNL     1      59.929  22.649  25.757  1.00  0.00    -0.000 C 
BRANCH  14  15
ATOM     15  C   UNL     1      60.169  24.167  25.695  1.00  0.00    -0.000 C 
BRANCH  15  16
ATOM     16  C   UNL     1      61.512  24.532  25.039  1.00  0.00    -0.000 C 
BRANCH  16  17
ATOM     17  C   UNL     1      61.288  25.237  23.693  1.00  0.00    -0.000 C 
BRANCH  17  18
ATOM     18  C   UNL     1      62.607  25.635  23.009  1.00  0.00    -0.003 C 
ATOM     19  C   UNL     1      63.555  26.386  23.942  1.00  0.00     0.004 C 
ENDBRANCH  17  18
ENDBRANCH  16  17
ENDBRANCH  15  16
ENDBRANCH  14  15
ENDBRANCH  13  14
ENDBRANCH  12  13
ENDBRANCH   1  12
TORSDOF 14
ENDMDL
