MODEL 1
REMARK VINA RESULT:    -5.056      0.000      0.000
REMARK INTER + INTRA:          -5.911
REMARK INTER:                  -5.647
REMARK INTRA:                  -0.264
REMARK UNBOUND:                -0.264
REMARK SMILES COc1cc(C)ccc1C(C)C
REMARK SMILES IDX 6 1 5 2 4 3 3 4 9 5 8 6 7 7 2 8 1 9 10 10 11 11 12 12
REMARK H PARENT
REMARK Flexibility Score: inf
ROOT
ATOM      1  C   UNL     1     -11.125  -4.397  14.808  1.00  0.00     0.044 C 
ATOM      2  C   UNL     1     -10.344  -5.613  14.406  1.00  0.00    -0.047 A 
ATOM      3  C   UNL     1      -9.208  -5.486  13.596  1.00  0.00     0.050 A 
ATOM      4  C   UNL     1      -8.444  -6.618  13.241  1.00  0.00     0.122 A 
ATOM      5  C   UNL     1      -8.827  -7.895  13.722  1.00  0.00    -0.003 A 
ATOM      6  C   UNL     1      -9.960  -8.001  14.550  1.00  0.00     0.008 A 
ATOM      7  C   UNL     1     -10.705  -6.873  14.892  1.00  0.00     0.004 A 
ENDROOT
BRANCH   4   8
ATOM      8  O   UNL     1      -7.309  -6.500  12.422  1.00  0.00    -0.496 OA
ATOM      9  C   UNL     1      -7.334  -6.167  11.038  1.00  0.00     0.278 C 
ENDBRANCH   4   8
BRANCH   5  10
ATOM     10  C   UNL     1      -8.052  -9.161  13.380  1.00  0.00     0.017 C 
ATOM     11  C   UNL     1      -7.732  -9.992  14.630  1.00  0.00     0.012 C 
ATOM     12  C   UNL     1      -8.767  -9.999  12.313  1.00  0.00     0.012 C 
ENDBRANCH   5  10
TORSDOF 2
ENDMDL
MODEL 2
REMARK VINA RESULT:    -5.026      1.662      4.027
REMARK INTER + INTRA:          -5.878
REMARK INTER:                  -5.664
REMARK INTRA:                  -0.213
REMARK UNBOUND:                -0.264
REMARK SMILES COc1cc(C)ccc1C(C)C
REMARK SMILES IDX 6 1 5 2 4 3 3 4 9 5 8 6 7 7 2 8 1 9 10 10 11 11 12 12
REMARK H PARENT
REMARK Flexibility Score: inf
ROOT
ATOM      1  C   UNL     1     -10.306  -9.925  13.986  1.00  0.00     0.044 C 
ATOM      2  C   UNL     1      -9.632  -8.668  13.518  1.00  0.00    -0.047 A 
ATOM      3  C   UNL     1     -10.054  -7.422  13.999  1.00  0.00     0.050 A 
ATOM      4  C   UNL     1      -9.406  -6.236  13.595  1.00  0.00     0.122 A 
ATOM      5  C   UNL     1      -8.308  -6.311  12.702  1.00  0.00    -0.003 A 
ATOM      6  C   UNL     1      -7.886  -7.574  12.245  1.00  0.00     0.008 A 
ATOM      7  C   UNL     1      -8.537  -8.738  12.653  1.00  0.00     0.004 A 
ENDROOT
BRANCH   4   8
ATOM      8  O   UNL     1      -9.829  -4.981  14.065  1.00  0.00    -0.496 OA
ATOM      9  C   UNL     1     -11.057  -4.736  14.742  1.00  0.00     0.278 C 
ENDBRANCH   4   8
BRANCH   5  10
ATOM     10  C   UNL     1      -7.561  -5.074  12.221  1.00  0.00     0.017 C 
ATOM     11  C   UNL     1      -6.500  -4.617  13.232  1.00  0.00     0.012 C 
ATOM     12  C   UNL     1      -6.961  -5.274  10.825  1.00  0.00     0.012 C 
ENDBRANCH   5  10
TORSDOF 2
ENDMDL
MODEL 3
REMARK VINA RESULT:    -5.012      1.893      4.030
REMARK INTER + INTRA:          -5.862
REMARK INTER:                  -5.650
REMARK INTRA:                  -0.212
REMARK UNBOUND:                -0.264
REMARK SMILES COc1cc(C)ccc1C(C)C
REMARK SMILES IDX 6 1 5 2 4 3 3 4 9 5 8 6 7 7 2 8 1 9 10 10 11 11 12 12
REMARK H PARENT
REMARK Flexibility Score: inf
ROOT
ATOM      1  C   UNL     1      -6.210  -8.998   9.776  1.00  0.00     0.044 C 
ATOM      2  C   UNL     1      -7.195  -8.830  10.896  1.00  0.00    -0.047 A 
ATOM      3  C   UNL     1      -7.539  -7.550  11.347  1.00  0.00     0.050 A 
ATOM      4  C   UNL     1      -8.490  -7.377  12.374  1.00  0.00     0.122 A 
ATOM      5  C   UNL     1      -9.112  -8.516  12.945  1.00  0.00    -0.003 A 
ATOM      6  C   UNL     1      -8.768  -9.793  12.466  1.00  0.00     0.008 A 
ATOM      7  C   UNL     1      -7.826  -9.948  11.450  1.00  0.00     0.004 A 
ENDROOT
BRANCH   4   8
ATOM      8  O   UNL     1      -8.834  -6.097  12.838  1.00  0.00    -0.496 OA
ATOM      9  C   UNL     1      -7.957  -4.976  12.860  1.00  0.00     0.278 C 
ENDBRANCH   4   8
BRANCH   5  10
ATOM     10  C   UNL     1     -10.147  -8.408  14.057  1.00  0.00     0.017 C 
ATOM     11  C   UNL     1     -11.125  -9.590  14.047  1.00  0.00     0.012 C 
ATOM     12  C   UNL     1      -9.493  -8.227  15.432  1.00  0.00     0.012 C 
ENDBRANCH   5  10
TORSDOF 2
ENDMDL
MODEL 4
REMARK VINA RESULT:    -5.009      1.742      3.420
REMARK INTER + INTRA:          -5.859
REMARK INTER:                  -5.590
REMARK INTRA:                  -0.269
REMARK UNBOUND:                -0.264
REMARK SMILES COc1cc(C)ccc1C(C)C
REMARK SMILES IDX 6 1 5 2 4 3 3 4 9 5 8 6 7 7 2 8 1 9 10 10 11 11 12 12
REMARK H PARENT
REMARK Flexibility Score: inf
ROOT
ATOM      1  C   UNL     1     -11.125  -9.840  13.786  1.00  0.00     0.044 C 
ATOM      2  C   UNL     1      -9.793  -9.308  13.344  1.00  0.00    -0.047 A 
ATOM      3  C   UNL     1      -9.397  -8.014  13.703  1.00  0.00     0.050 A 
ATOM      4  C   UNL     1      -8.133  -7.515  13.325  1.00  0.00     0.122 A 
ATOM      5  C   UNL     1      -7.251  -8.341  12.583  1.00  0.00    -0.003 A 
ATOM      6  C   UNL     1      -7.659  -9.645  12.248  1.00  0.00     0.008 A 
ATOM      7  C   UNL     1      -8.912 -10.125  12.629  1.00  0.00     0.004 A 
ENDROOT
BRANCH   4   8
ATOM      8  O   UNL     1      -7.731  -6.214  13.673  1.00  0.00    -0.496 OA
ATOM      9  C   UNL     1      -8.390  -5.021  13.262  1.00  0.00     0.278 C 
ENDBRANCH   4   8
BRANCH   5  10
ATOM     10  C   UNL     1      -5.872  -7.871  12.140  1.00  0.00     0.017 C 
ATOM     11  C   UNL     1      -4.848  -9.013  12.147  1.00  0.00     0.012 C 
ATOM     12  C   UNL     1      -5.919  -7.162  10.781  1.00  0.00     0.012 C 
ENDBRANCH   5  10
TORSDOF 2
ENDMDL
MODEL 5
REMARK VINA RESULT:    -4.966      1.547      2.253
REMARK INTER + INTRA:          -5.810
REMARK INTER:                  -5.543
REMARK INTRA:                  -0.268
REMARK UNBOUND:                -0.264
REMARK SMILES COc1cc(C)ccc1C(C)C
REMARK SMILES IDX 6 1 5 2 4 3 3 4 9 5 8 6 7 7 2 8 1 9 10 10 11 11 12 12
REMARK H PARENT
REMARK Flexibility Score: inf
ROOT
ATOM      1  C   UNL     1     -11.124  -7.456  15.142  1.00  0.00     0.044 C 
ATOM      2  C   UNL     1      -9.983  -7.743  14.210  1.00  0.00    -0.047 A 
ATOM      3  C   UNL     1      -9.015  -6.763  13.959  1.00  0.00     0.050 A 
ATOM      4  C   UNL     1      -7.918  -7.032  13.114  1.00  0.00     0.122 A 
ATOM      5  C   UNL     1      -7.791  -8.315  12.524  1.00  0.00    -0.003 A 
ATOM      6  C   UNL     1      -8.764  -9.293  12.803  1.00  0.00     0.008 A 
ATOM      7  C   UNL     1      -9.843  -9.012  13.640  1.00  0.00     0.004 A 
ENDROOT
BRANCH   4   8
ATOM      8  O   UNL     1      -6.946  -6.052  12.850  1.00  0.00    -0.496 OA
ATOM      9  C   UNL     1      -7.177  -4.853  12.118  1.00  0.00     0.278 C 
ENDBRANCH   4   8
BRANCH   5  10
ATOM     10  C   UNL     1      -6.635  -8.678  11.601  1.00  0.00     0.017 C 
ATOM     11  C   UNL     1      -6.040 -10.051  11.941  1.00  0.00     0.012 C 
ATOM     12  C   UNL     1      -7.032  -8.584  10.123  1.00  0.00     0.012 C 
ENDBRANCH   5  10
TORSDOF 2
ENDMDL
MODEL 6
REMARK VINA RESULT:    -4.945     14.387     16.475
REMARK INTER + INTRA:          -5.787
REMARK INTER:                  -5.510
REMARK INTRA:                  -0.276
REMARK UNBOUND:                -0.264
REMARK SMILES COc1cc(C)ccc1C(C)C
REMARK SMILES IDX 6 1 5 2 4 3 3 4 9 5 8 6 7 7 2 8 1 9 10 10 11 11 12 12
REMARK H PARENT
REMARK Flexibility Score: inf
ROOT
ATOM      1  C   UNL     1       2.748   6.025   9.241  1.00  0.00     0.044 C 
ATOM      2  C   UNL     1       2.878   5.165  10.465  1.00  0.00    -0.047 A 
ATOM      3  C   UNL     1       2.028   4.067  10.648  1.00  0.00     0.050 A 
ATOM      4  C   UNL     1       2.163   3.230  11.775  1.00  0.00     0.122 A 
ATOM      5  C   UNL     1       3.181   3.499  12.724  1.00  0.00    -0.003 A 
ATOM      6  C   UNL     1       4.038   4.594  12.513  1.00  0.00     0.008 A 
ATOM      7  C   UNL     1       3.892   5.414  11.395  1.00  0.00     0.004 A 
ENDROOT
BRANCH   4   8
ATOM      8  O   UNL     1       1.309   2.132  11.971  1.00  0.00    -0.496 OA
ATOM      9  C   UNL     1       1.325   0.939  11.195  1.00  0.00     0.278 C 
ENDBRANCH   4   8
BRANCH   5  10
ATOM     10  C   UNL     1       3.386   2.639  13.965  1.00  0.00     0.017 C 
ATOM     11  C   UNL     1       4.298   1.437  13.685  1.00  0.00     0.012 C 
ATOM     12  C   UNL     1       3.889   3.465  15.155  1.00  0.00     0.012 C 
ENDBRANCH   5  10
TORSDOF 2
ENDMDL
MODEL 7
REMARK VINA RESULT:    -4.899      1.696      3.893
REMARK INTER + INTRA:          -5.736
REMARK INTER:                  -5.581
REMARK INTRA:                  -0.156
REMARK UNBOUND:                -0.264
REMARK SMILES COc1cc(C)ccc1C(C)C
REMARK SMILES IDX 6 1 5 2 4 3 3 4 9 5 8 6 7 7 2 8 1 9 10 10 11 11 12 12
REMARK H PARENT
REMARK Flexibility Score: inf
ROOT
ATOM      1  C   UNL     1      -4.755  -8.169  11.754  1.00  0.00     0.044 C 
ATOM      2  C   UNL     1      -6.163  -8.183  12.274  1.00  0.00    -0.047 A 
ATOM      3  C   UNL     1      -6.882  -6.987  12.394  1.00  0.00     0.050 A 
ATOM      4  C   UNL     1      -8.218  -6.990  12.848  1.00  0.00     0.122 A 
ATOM      5  C   UNL     1      -8.840  -8.222  13.173  1.00  0.00    -0.003 A 
ATOM      6  C   UNL     1      -8.108  -9.415  13.028  1.00  0.00     0.008 A 
ATOM      7  C   UNL     1      -6.788  -9.396  12.579  1.00  0.00     0.004 A 
ENDROOT
BRANCH   4   8
ATOM      8  O   UNL     1      -8.943  -5.794  12.979  1.00  0.00    -0.496 OA
ATOM      9  C   UNL     1      -8.368  -4.517  13.231  1.00  0.00     0.278 C 
ENDBRANCH   4   8
BRANCH   5  10
ATOM     10  C   UNL     1     -10.278  -8.303  13.670  1.00  0.00     0.017 C 
ATOM     11  C   UNL     1     -10.869  -9.707  13.485  1.00  0.00     0.012 C 
ATOM     12  C   UNL     1     -10.411  -7.820  15.119  1.00  0.00     0.012 C 
ENDBRANCH   5  10
TORSDOF 2
ENDMDL
MODEL 8
REMARK VINA RESULT:    -4.882      1.857      3.828
REMARK INTER + INTRA:          -5.717
REMARK INTER:                  -5.500
REMARK INTRA:                  -0.217
REMARK UNBOUND:                -0.264
REMARK SMILES COc1cc(C)ccc1C(C)C
REMARK SMILES IDX 6 1 5 2 4 3 3 4 9 5 8 6 7 7 2 8 1 9 10 10 11 11 12 12
REMARK H PARENT
REMARK Flexibility Score: inf
ROOT
ATOM      1  C   UNL     1     -11.014 -10.125  13.982  1.00  0.00     0.044 C 
ATOM      2  C   UNL     1      -9.928  -9.199  13.520  1.00  0.00    -0.047 A 
ATOM      3  C   UNL     1      -8.962  -9.644  12.609  1.00  0.00     0.050 A 
ATOM      4  C   UNL     1      -7.957  -8.773  12.138  1.00  0.00     0.122 A 
ATOM      5  C   UNL     1      -7.935  -7.429  12.586  1.00  0.00    -0.003 A 
ATOM      6  C   UNL     1      -8.925  -6.994  13.486  1.00  0.00     0.008 A 
ATOM      7  C   UNL     1      -9.912  -7.866  13.943  1.00  0.00     0.004 A 
ENDROOT
BRANCH   4   8
ATOM      8  O   UNL     1      -6.979  -9.215  11.231  1.00  0.00    -0.496 OA
ATOM      9  C   UNL     1      -5.836  -9.989  11.579  1.00  0.00     0.278 C 
ENDBRANCH   4   8
BRANCH   5  10
ATOM     10  C   UNL     1      -6.881  -6.431  12.122  1.00  0.00     0.017 C 
ATOM     11  C   UNL     1      -7.211  -5.850  10.741  1.00  0.00     0.012 C 
ATOM     12  C   UNL     1      -6.644  -5.327  13.159  1.00  0.00     0.012 C 
ENDBRANCH   5  10
TORSDOF 2
ENDMDL
MODEL 9
REMARK VINA RESULT:    -4.771     14.250     16.284
REMARK INTER + INTRA:          -5.593
REMARK INTER:                  -5.413
REMARK INTRA:                  -0.180
REMARK UNBOUND:                -0.264
REMARK SMILES COc1cc(C)ccc1C(C)C
REMARK SMILES IDX 6 1 5 2 4 3 3 4 9 5 8 6 7 7 2 8 1 9 10 10 11 11 12 12
REMARK H PARENT
REMARK Flexibility Score: inf
ROOT
ATOM      1  C   UNL     1       2.716   1.266  16.315  1.00  0.00     0.044 C 
ATOM      2  C   UNL     1       3.015   2.045  15.068  1.00  0.00    -0.047 A 
ATOM      3  C   UNL     1       2.645   1.539  13.815  1.00  0.00     0.050 A 
ATOM      4  C   UNL     1       2.887   2.278  12.638  1.00  0.00     0.122 A 
ATOM      5  C   UNL     1       3.501   3.552  12.730  1.00  0.00    -0.003 A 
ATOM      6  C   UNL     1       3.848   4.053  13.998  1.00  0.00     0.008 A 
ATOM      7  C   UNL     1       3.602   3.311  15.153  1.00  0.00     0.004 A 
ENDROOT
BRANCH   4   8
ATOM      8  O   UNL     1       2.528   1.774  11.377  1.00  0.00    -0.496 OA
ATOM      9  C   UNL     1       1.343   1.034  11.104  1.00  0.00     0.278 C 
ENDBRANCH   4   8
BRANCH   5  10
ATOM     10  C   UNL     1       3.795   4.407  11.503  1.00  0.00     0.017 C 
ATOM     11  C   UNL     1       2.525   5.062  10.944  1.00  0.00     0.012 C 
ATOM     12  C   UNL     1       4.892   5.442  11.776  1.00  0.00     0.012 C 
ENDBRANCH   5  10
TORSDOF 2
ENDMDL
