MODEL 1
REMARK VINA RESULT:    -4.168      0.000      0.000
REMARK INTER + INTRA:          -6.205
REMARK INTER:                  -6.361
REMARK INTRA:                   0.156
REMARK UNBOUND:                 0.156
REMARK SMILES CC1=CCC[C@H](C)C(=O)C[C@H](C(C)C)C(=O)C1
REMARK SMILES IDX 8 1 9 2 6 3 7 4 5 5 4 6 3 7 2 8 1 9 10 11 11 12 15 13 16 14
REMARK SMILES IDX 17 15 12 17 13 18 14 19
REMARK H PARENT
REMARK Flexibility Score: 70.00
ROOT
ATOM      1  C   UNL     1      36.548  18.620  25.744  1.00  0.00     0.136 C 
ATOM      2  O   UNL     1      36.068  18.694  26.867  1.00  0.00    -0.299 OA
ENDROOT
BRANCH   1   3
ATOM      3  C   UNL     1      36.166  19.648  24.698  1.00  0.00     0.053 C 
ATOM      4  C   UNL     1      34.670  19.522  24.387  1.00  0.00     0.016 C 
BRANCH   3   5
ATOM      5  C   UNL     1      36.496  21.093  25.147  1.00  0.00     0.015 C 
BRANCH   5   6
ATOM      6  C   UNL     1      37.997  21.371  25.325  1.00  0.00     0.028 C 
BRANCH   6   7
ATOM      7  C   UNL     1      38.392  21.375  26.783  1.00  0.00    -0.028 C 
ATOM      8  C   UNL     1      39.398  20.647  27.320  1.00  0.00    -0.070 CG0
ATOM      9  C   UNL     1      39.662  20.785  28.798  1.00  0.00     0.039 C 
ATOM     10  G   UNL     1      40.272  19.713  26.500  1.00  0.00     0.000 G0
ENDBRANCH   6   7
ENDBRANCH   5   6
ENDBRANCH   3   5
ENDBRANCH   1   3
BRANCH   1  11
ATOM     11  C   UNL     1      37.474  17.469  25.416  1.00  0.00     0.087 C 
BRANCH  11  12
ATOM     12  C   UNL     1      38.911  17.929  25.058  1.00  0.00     0.066 C 
BRANCH  12  13
ATOM     13  C   UNL     1      39.696  18.323  26.302  1.00  0.00     0.140 C 
ATOM     14  O   UNL     1      39.921  17.482  27.160  1.00  0.00    -0.299 OA
BRANCH  13  15
ATOM     15  C   UNL     1      40.277  19.707  26.491  1.00  0.00     0.106 CG0
ATOM     16  G   UNL     1      39.403  20.634  27.319  1.00  0.00     0.000 G0
ENDBRANCH  13  15
ENDBRANCH  12  13
BRANCH  12  17
ATOM     17  C   UNL     1      39.711  16.899  24.204  1.00  0.00    -0.006 C 
ATOM     18  C   UNL     1      39.008  15.533  24.150  1.00  0.00     0.008 C 
ATOM     19  C   UNL     1      41.174  16.718  24.642  1.00  0.00     0.008 C 
ENDBRANCH  12  17
ENDBRANCH  11  12
ENDBRANCH   1  11
TORSDOF 1
ENDMDL
MODEL 2
REMARK VINA RESULT:    -4.124      2.002      4.401
REMARK INTER + INTRA:          -6.138
REMARK INTER:                  -5.895
REMARK INTRA:                  -0.243
REMARK UNBOUND:                 0.156
REMARK SMILES CC1=CCC[C@H](C)C(=O)C[C@H](C(C)C)C(=O)C1
REMARK SMILES IDX 8 1 9 2 6 3 7 4 5 5 4 6 3 7 2 8 1 9 10 11 11 12 15 13 16 14
REMARK SMILES IDX 17 15 12 17 13 18 14 19
REMARK H PARENT
REMARK Flexibility Score: 70.00
ROOT
ATOM      1  C   UNL     1      36.935  20.662  25.462  1.00  0.00     0.136 C 
ATOM      2  O   UNL     1      36.205  21.178  24.628  1.00  0.00    -0.299 OA
ENDROOT
BRANCH   1   3
ATOM      3  C   UNL     1      36.594  19.291  26.009  1.00  0.00     0.053 C 
ATOM      4  C   UNL     1      35.175  18.910  25.573  1.00  0.00     0.016 C 
BRANCH   3   5
ATOM      5  C   UNL     1      37.601  18.207  25.549  1.00  0.00     0.015 C 
BRANCH   5   6
ATOM      6  C   UNL     1      38.551  17.719  26.654  1.00  0.00     0.028 C 
BRANCH   6   7
ATOM      7  C   UNL     1      39.939  18.288  26.484  1.00  0.00    -0.028 C 
ATOM      8  C   UNL     1      40.483  19.259  27.254  1.00  0.00    -0.070 CG0
ATOM      9  C   UNL     1      41.893  19.699  26.950  1.00  0.00     0.039 C 
ATOM     10  G   UNL     1      39.742  19.910  28.410  1.00  0.00     0.000 G0
ENDBRANCH   6   7
ENDBRANCH   5   6
ENDBRANCH   3   5
ENDBRANCH   1   3
BRANCH   1  11
ATOM     11  C   UNL     1      38.136  21.434  25.963  1.00  0.00     0.087 C 
BRANCH  11  12
ATOM     12  C   UNL     1      38.063  21.754  27.479  1.00  0.00     0.066 C 
BRANCH  12  13
ATOM     13  C   UNL     1      39.349  21.360  28.194  1.00  0.00     0.140 C 
ATOM     14  O   UNL     1      40.068  22.232  28.659  1.00  0.00    -0.299 OA
BRANCH  13  15
ATOM     15  C   UNL     1      39.744  19.917  28.417  1.00  0.00     0.106 CG0
ATOM     16  G   UNL     1      40.502  19.299  27.254  1.00  0.00     0.000 G0
ENDBRANCH  13  15
ENDBRANCH  12  13
BRANCH  12  17
ATOM     17  C   UNL     1      37.687  23.233  27.796  1.00  0.00    -0.006 C 
ATOM     18  C   UNL     1      36.174  23.404  28.010  1.00  0.00     0.008 C 
ATOM     19  C   UNL     1      38.187  24.248  26.754  1.00  0.00     0.008 C 
ENDBRANCH  12  17
ENDBRANCH  11  12
ENDBRANCH   1  11
TORSDOF 1
ENDMDL
MODEL 3
REMARK VINA RESULT:    -4.084      1.877      3.936
REMARK INTER + INTRA:          -6.077
REMARK INTER:                  -5.580
REMARK INTRA:                  -0.497
REMARK UNBOUND:                 0.156
REMARK SMILES CC1=CCC[C@H](C)C(=O)C[C@H](C(C)C)C(=O)C1
REMARK SMILES IDX 8 1 9 2 6 3 7 4 5 5 4 6 3 7 2 8 1 9 10 11 11 12 15 13 16 14
REMARK SMILES IDX 17 15 12 17 13 18 14 19
REMARK H PARENT
REMARK Flexibility Score: 70.00
ROOT
ATOM      1  C   UNL     1      41.094  18.956  25.278  1.00  0.00     0.136 C 
ATOM      2  O   UNL     1      41.947  19.441  24.546  1.00  0.00    -0.299 OA
ENDROOT
BRANCH   1   3
ATOM      3  C   UNL     1      41.389  18.777  26.753  1.00  0.00     0.053 C 
ATOM      4  C   UNL     1      42.811  18.228  26.922  1.00  0.00     0.016 C 
BRANCH   3   5
ATOM      5  C   UNL     1      41.231  20.096  27.549  1.00  0.00     0.015 C 
BRANCH   5   6
ATOM      6  C   UNL     1      39.927  20.191  28.358  1.00  0.00     0.028 C 
BRANCH   6   7
ATOM      7  C   UNL     1      38.932  21.119  27.701  1.00  0.00    -0.028 C 
ATOM      8  C   UNL     1      37.748  20.740  27.168  1.00  0.00    -0.070 CG0
ATOM      9  C   UNL     1      36.870  21.806  26.563  1.00  0.00     0.039 C 
ATOM     10  G   UNL     1      37.265  19.299  27.166  1.00  0.00     0.000 G0
ENDBRANCH   6   7
ENDBRANCH   5   6
ENDBRANCH   3   5
ENDBRANCH   1   3
BRANCH   1  11
ATOM     11  C   UNL     1      39.782  18.502  24.676  1.00  0.00     0.087 C 
BRANCH  11  12
ATOM     12  C   UNL     1      38.861  17.787  25.697  1.00  0.00     0.066 C 
BRANCH  12  13
ATOM     13  C   UNL     1      37.555  18.544  25.896  1.00  0.00     0.140 C 
ATOM     14  O   UNL     1      36.699  18.503  25.024  1.00  0.00    -0.299 OA
BRANCH  13  15
ATOM     15  C   UNL     1      37.239  19.296  27.171  1.00  0.00     0.106 CG0
ATOM     16  G   UNL     1      37.743  20.730  27.181  1.00  0.00     0.000 G0
ENDBRANCH  13  15
ENDBRANCH  12  13
BRANCH  12  17
ATOM     17  C   UNL     1      38.584  16.290  25.359  1.00  0.00    -0.006 C 
ATOM     18  C   UNL     1      39.418  15.342  26.237  1.00  0.00     0.008 C 
ATOM     19  C   UNL     1      38.775  15.933  23.875  1.00  0.00     0.008 C 
ENDBRANCH  12  17
ENDBRANCH  11  12
ENDBRANCH   1  11
TORSDOF 1
ENDMDL
MODEL 4
REMARK VINA RESULT:    -4.077      2.023      4.833
REMARK INTER + INTRA:          -6.066
REMARK INTER:                  -5.941
REMARK INTRA:                  -0.125
REMARK UNBOUND:                 0.156
REMARK SMILES CC1=CCC[C@H](C)C(=O)C[C@H](C(C)C)C(=O)C1
REMARK SMILES IDX 8 1 9 2 6 3 7 4 5 5 4 6 3 7 2 8 1 9 10 11 11 12 15 13 16 14
REMARK SMILES IDX 17 15 12 17 13 18 14 19
REMARK H PARENT
REMARK Flexibility Score: 70.00
ROOT
ATOM      1  C   UNL     1      38.569  16.645  25.896  1.00  0.00     0.136 C 
ATOM      2  O   UNL     1      38.208  16.878  27.041  1.00  0.00    -0.299 OA
ENDROOT
BRANCH   1   3
ATOM      3  C   UNL     1      38.849  15.216  25.477  1.00  0.00     0.053 C 
ATOM      4  C   UNL     1      38.934  15.144  23.948  1.00  0.00     0.016 C 
BRANCH   3   5
ATOM      5  C   UNL     1      40.152  14.664  26.108  1.00  0.00     0.015 C 
BRANCH   5   6
ATOM      6  C   UNL     1      41.175  15.745  26.490  1.00  0.00     0.028 C 
BRANCH   6   7
ATOM      7  C   UNL     1      42.150  16.009  25.366  1.00  0.00    -0.028 C 
ATOM      8  C   UNL     1      42.584  17.231  24.983  1.00  0.00    -0.070 CG0
ATOM      9  C   UNL     1      43.571  17.308  23.846  1.00  0.00     0.039 C 
ATOM     10  G   UNL     1      42.131  18.518  25.653  1.00  0.00     0.000 G0
ENDBRANCH   6   7
ENDBRANCH   5   6
ENDBRANCH   3   5
ENDBRANCH   1   3
BRANCH   1  11
ATOM     11  C   UNL     1      38.776  17.801  24.942  1.00  0.00     0.087 C 
BRANCH  11  12
ATOM     12  C   UNL     1      39.507  19.003  25.593  1.00  0.00     0.066 C 
BRANCH  12  13
ATOM     13  C   UNL     1      40.910  19.175  25.027  1.00  0.00     0.140 C 
ATOM     14  O   UNL     1      41.081  19.899  24.057  1.00  0.00    -0.299 OA
BRANCH  13  15
ATOM     15  C   UNL     1      42.126  18.538  25.664  1.00  0.00     0.106 CG0
ATOM     16  G   UNL     1      42.578  17.257  24.983  1.00  0.00     0.000 G0
ENDBRANCH  13  15
ENDBRANCH  12  13
BRANCH  12  17
ATOM     17  C   UNL     1      38.714  20.343  25.517  1.00  0.00    -0.006 C 
ATOM     18  C   UNL     1      38.347  20.870  26.913  1.00  0.00     0.008 C 
ATOM     19  C   UNL     1      37.456  20.282  24.633  1.00  0.00     0.008 C 
ENDBRANCH  12  17
ENDBRANCH  11  12
ENDBRANCH   1  11
TORSDOF 1
ENDMDL
MODEL 5
REMARK VINA RESULT:    -3.938      1.889      3.075
REMARK INTER + INTRA:          -5.854
REMARK INTER:                  -5.461
REMARK INTRA:                  -0.393
REMARK UNBOUND:                 0.156
REMARK SMILES CC1=CCC[C@H](C)C(=O)C[C@H](C(C)C)C(=O)C1
REMARK SMILES IDX 8 1 9 2 6 3 7 4 5 5 4 6 3 7 2 8 1 9 10 11 11 12 15 13 16 14
REMARK SMILES IDX 17 15 12 17 13 18 14 19
REMARK H PARENT
REMARK Flexibility Score: 70.00
ROOT
ATOM      1  C   UNL     1      39.466  16.270  26.109  1.00  0.00     0.136 C 
ATOM      2  O   UNL     1      38.838  15.451  26.764  1.00  0.00    -0.299 OA
ENDROOT
BRANCH   1   3
ATOM      3  C   UNL     1      38.866  16.825  24.833  1.00  0.00     0.053 C 
ATOM      4  C   UNL     1      38.548  15.668  23.878  1.00  0.00     0.016 C 
BRANCH   3   5
ATOM      5  C   UNL     1      37.588  17.660  25.099  1.00  0.00     0.015 C 
BRANCH   5   6
ATOM      6  C   UNL     1      37.853  19.154  25.348  1.00  0.00     0.028 C 
BRANCH   6   7
ATOM      7  C   UNL     1      37.657  19.518  26.801  1.00  0.00    -0.028 C 
ATOM      8  C   UNL     1      38.614  20.023  27.613  1.00  0.00    -0.070 CG0
ATOM      9  C   UNL     1      38.237  20.342  29.038  1.00  0.00     0.039 C 
ATOM     10  G   UNL     1      40.036  20.290  27.150  1.00  0.00     0.000 G0
ENDBRANCH   6   7
ENDBRANCH   5   6
ENDBRANCH   3   5
ENDBRANCH   1   3
BRANCH   1  11
ATOM     11  C   UNL     1      40.851  16.671  26.566  1.00  0.00     0.087 C 
BRANCH  11  12
ATOM     12  C   UNL     1      41.234  18.115  26.151  1.00  0.00     0.066 C 
BRANCH  12  13
ATOM     13  C   UNL     1      40.987  19.104  27.282  1.00  0.00     0.140 C 
ATOM     14  O   UNL     1      41.604  18.984  28.330  1.00  0.00    -0.299 OA
BRANCH  13  15
ATOM     15  C   UNL     1      40.051  20.285  27.138  1.00  0.00     0.106 CG0
ATOM     16  G   UNL     1      38.630  20.004  27.597  1.00  0.00     0.000 G0
ENDBRANCH  13  15
ENDBRANCH  12  13
BRANCH  12  17
ATOM     17  C   UNL     1      42.689  18.252  25.607  1.00  0.00    -0.006 C 
ATOM     18  C   UNL     1      42.722  18.948  24.237  1.00  0.00     0.008 C 
ATOM     19  C   UNL     1      43.464  16.925  25.540  1.00  0.00     0.008 C 
ENDBRANCH  12  17
ENDBRANCH  11  12
ENDBRANCH   1  11
TORSDOF 1
ENDMDL
MODEL 6
REMARK VINA RESULT:    -3.937      1.718      4.157
REMARK INTER + INTRA:          -5.853
REMARK INTER:                  -5.660
REMARK INTRA:                  -0.193
REMARK UNBOUND:                 0.156
REMARK SMILES CC1=CCC[C@H](C)C(=O)C[C@H](C(C)C)C(=O)C1
REMARK SMILES IDX 8 1 9 2 6 3 7 4 5 5 4 6 3 7 2 8 1 9 10 11 11 12 15 13 16 14
REMARK SMILES IDX 17 15 12 17 13 18 14 19
REMARK H PARENT
REMARK Flexibility Score: 70.00
ROOT
ATOM      1  C   UNL     1      37.650  20.057  25.472  1.00  0.00     0.136 C 
ATOM      2  O   UNL     1      37.311  20.334  24.329  1.00  0.00    -0.299 OA
ENDROOT
BRANCH   1   3
ATOM      3  C   UNL     1      37.176  18.763  26.100  1.00  0.00     0.053 C 
ATOM      4  C   UNL     1      35.649  18.676  25.991  1.00  0.00     0.016 C 
BRANCH   3   5
ATOM      5  C   UNL     1      37.827  17.519  25.446  1.00  0.00     0.015 C 
BRANCH   5   6
ATOM      6  C   UNL     1      39.223  17.775  24.855  1.00  0.00     0.028 C 
BRANCH   6   7
ATOM      7  C   UNL     1      40.314  17.261  25.765  1.00  0.00    -0.028 C 
ATOM      8  C   UNL     1      41.163  18.035  26.478  1.00  0.00    -0.070 CG0
ATOM      9  C   UNL     1      42.186  17.349  27.348  1.00  0.00     0.039 C 
ATOM     10  G   UNL     1      41.122  19.554  26.447  1.00  0.00     0.000 G0
ENDBRANCH   6   7
ENDBRANCH   5   6
ENDBRANCH   3   5
ENDBRANCH   1   3
BRANCH   1  11
ATOM     11  C   UNL     1      38.496  21.045  26.245  1.00  0.00     0.087 C 
BRANCH  11  12
ATOM     12  C   UNL     1      38.937  20.511  27.633  1.00  0.00     0.066 C 
BRANCH  12  13
ATOM     13  C   UNL     1      40.420  20.164  27.651  1.00  0.00     0.140 C 
ATOM     14  O   UNL     1      41.061  20.324  28.679  1.00  0.00    -0.299 OA
BRANCH  13  15
ATOM     15  C   UNL     1      41.126  19.557  26.458  1.00  0.00     0.106 CG0
ATOM     16  G   UNL     1      41.161  18.038  26.470  1.00  0.00     0.000 G0
ENDBRANCH  13  15
ENDBRANCH  12  13
BRANCH  12  17
ATOM     17  C   UNL     1      38.577  21.457  28.818  1.00  0.00    -0.006 C 
ATOM     18  C   UNL     1      38.064  20.675  30.038  1.00  0.00     0.008 C 
ATOM     19  C   UNL     1      37.583  22.573  28.455  1.00  0.00     0.008 C 
ENDBRANCH  12  17
ENDBRANCH  11  12
ENDBRANCH   1  11
TORSDOF 1
ENDMDL
MODEL 7
REMARK VINA RESULT:    -3.933      2.256      4.494
REMARK INTER + INTRA:          -5.847
REMARK INTER:                  -5.442
REMARK INTRA:                  -0.405
REMARK UNBOUND:                 0.156
REMARK SMILES CC1=CCC[C@H](C)C(=O)C[C@H](C(C)C)C(=O)C1
REMARK SMILES IDX 8 1 9 2 6 3 7 4 5 5 4 6 3 7 2 8 1 9 10 11 11 12 15 13 16 14
REMARK SMILES IDX 17 15 12 17 13 18 14 19
REMARK H PARENT
REMARK Flexibility Score: 70.00
ROOT
ATOM      1  C   UNL     1      40.031  19.718  25.462  1.00  0.00     0.136 C 
ATOM      2  O   UNL     1      40.740  19.482  24.494  1.00  0.00    -0.299 OA
ENDROOT
BRANCH   1   3
ATOM      3  C   UNL     1      40.278  18.987  26.766  1.00  0.00     0.053 C 
ATOM      4  C   UNL     1      40.898  17.617  26.469  1.00  0.00     0.016 C 
BRANCH   3   5
ATOM      5  C   UNL     1      41.195  19.788  27.724  1.00  0.00     0.015 C 
BRANCH   5   6
ATOM      6  C   UNL     1      40.496  20.280  29.001  1.00  0.00     0.028 C 
BRANCH   6   7
ATOM      7  C   UNL     1      40.484  21.788  29.082  1.00  0.00    -0.028 C 
ATOM      8  C   UNL     1      39.388  22.568  28.937  1.00  0.00    -0.070 CG0
ATOM      9  C   UNL     1      39.558  24.061  29.063  1.00  0.00     0.039 C 
ATOM     10  G   UNL     1      38.002  22.005  28.667  1.00  0.00     0.000 G0
ENDBRANCH   6   7
ENDBRANCH   5   6
ENDBRANCH   3   5
ENDBRANCH   1   3
BRANCH   1  11
ATOM     11  C   UNL     1      38.889  20.699  25.314  1.00  0.00     0.087 C 
BRANCH  11  12
ATOM     12  C   UNL     1      37.825  20.567  26.434  1.00  0.00     0.066 C 
BRANCH  12  13
ATOM     13  C   UNL     1      37.653  21.874  27.197  1.00  0.00     0.140 C 
ATOM     14  O   UNL     1      37.170  22.842  26.627  1.00  0.00    -0.299 OA
BRANCH  13  15
ATOM     15  C   UNL     1      37.993  22.007  28.665  1.00  0.00     0.106 CG0
ATOM     16  G   UNL     1      39.375  22.584  28.927  1.00  0.00     0.000 G0
ENDBRANCH  13  15
ENDBRANCH  12  13
BRANCH  12  17
ATOM     17  C   UNL     1      36.447  20.033  25.937  1.00  0.00    -0.006 C 
ATOM     18  C   UNL     1      36.234  18.559  26.318  1.00  0.00     0.008 C 
ATOM     19  C   UNL     1      36.202  20.225  24.430  1.00  0.00     0.008 C 
ENDBRANCH  12  17
ENDBRANCH  11  12
ENDBRANCH   1  11
TORSDOF 1
ENDMDL
MODEL 8
REMARK VINA RESULT:    -3.852      1.982      5.151
REMARK INTER + INTRA:          -5.723
REMARK INTER:                  -5.303
REMARK INTRA:                  -0.420
REMARK UNBOUND:                 0.156
REMARK SMILES CC1=CCC[C@H](C)C(=O)C[C@H](C(C)C)C(=O)C1
REMARK SMILES IDX 8 1 9 2 6 3 7 4 5 5 4 6 3 7 2 8 1 9 10 11 11 12 15 13 16 14
REMARK SMILES IDX 17 15 12 17 13 18 14 19
REMARK H PARENT
REMARK Flexibility Score: 70.00
ROOT
ATOM      1  C   UNL     1      39.283  20.473  29.454  1.00  0.00     0.136 C 
ATOM      2  O   UNL     1      39.296  20.500  30.677  1.00  0.00    -0.299 OA
ENDROOT
BRANCH   1   3
ATOM      3  C   UNL     1      40.565  20.729  28.687  1.00  0.00     0.053 C 
ATOM      4  C   UNL     1      41.442  21.706  29.478  1.00  0.00     0.016 C 
BRANCH   3   5
ATOM      5  C   UNL     1      41.348  19.424  28.400  1.00  0.00     0.015 C 
BRANCH   5   6
ATOM      6  C   UNL     1      41.321  18.983  26.927  1.00  0.00     0.028 C 
BRANCH   6   7
ATOM      7  C   UNL     1      40.590  17.673  26.753  1.00  0.00    -0.028 C 
ATOM      8  C   UNL     1      39.414  17.517  26.104  1.00  0.00    -0.070 CG0
ATOM      9  C   UNL     1      38.832  16.129  26.014  1.00  0.00     0.039 C 
ATOM     10  G   UNL     1      38.667  18.672  25.456  1.00  0.00     0.000 G0
ENDBRANCH   6   7
ENDBRANCH   5   6
ENDBRANCH   3   5
ENDBRANCH   1   3
BRANCH   1  11
ATOM     11  C   UNL     1      37.972  20.233  28.739  1.00  0.00     0.087 C 
BRANCH  11  12
ATOM     12  C   UNL     1      38.039  20.554  27.223  1.00  0.00     0.066 C 
BRANCH  12  13
ATOM     13  C   UNL     1      37.656  19.345  26.380  1.00  0.00     0.140 C 
ATOM     14  O   UNL     1      36.501  18.943  26.397  1.00  0.00    -0.299 OA
BRANCH  13  15
ATOM     15  C   UNL     1      38.637  18.656  25.457  1.00  0.00     0.106 CG0
ATOM     16  G   UNL     1      39.409  17.524  26.115  1.00  0.00     0.000 G0
ENDBRANCH  13  15
ENDBRANCH  12  13
BRANCH  12  17
ATOM     17  C   UNL     1      37.207  21.805  26.804  1.00  0.00    -0.006 C 
ATOM     18  C   UNL     1      37.573  22.287  25.392  1.00  0.00     0.008 C 
ATOM     19  C   UNL     1      37.290  22.977  27.796  1.00  0.00     0.008 C 
ENDBRANCH  12  17
ENDBRANCH  11  12
ENDBRANCH   1  11
TORSDOF 1
ENDMDL
MODEL 9
REMARK VINA RESULT:    -3.805      2.108      3.678
REMARK INTER + INTRA:          -5.651
REMARK INTER:                  -5.977
REMARK INTRA:                   0.326
REMARK UNBOUND:                 0.156
REMARK SMILES CC1=CCC[C@H](C)C(=O)C[C@H](C(C)C)C(=O)C1
REMARK SMILES IDX 8 1 9 2 6 3 7 4 5 5 4 6 3 7 2 8 1 9 10 11 11 12 15 13 16 14
REMARK SMILES IDX 17 15 12 17 13 18 14 19
REMARK H PARENT
REMARK Flexibility Score: 70.00
ROOT
ATOM      1  C   UNL     1      37.647  22.497  26.172  1.00  0.00     0.136 C 
ATOM      2  O   UNL     1      37.915  22.531  24.979  1.00  0.00    -0.299 OA
ENDROOT
BRANCH   1   3
ATOM      3  C   UNL     1      37.666  23.778  26.980  1.00  0.00     0.053 C 
ATOM      4  C   UNL     1      36.506  23.763  27.982  1.00  0.00     0.016 C 
BRANCH   3   5
ATOM      5  C   UNL     1      39.009  23.984  27.724  1.00  0.00     0.015 C 
BRANCH   5   6
ATOM      6  C   UNL     1      39.055  23.357  29.127  1.00  0.00     0.028 C 
BRANCH   6   7
ATOM      7  C   UNL     1      40.349  22.614  29.361  1.00  0.00    -0.028 C 
ATOM      8  C   UNL     1      40.518  21.280  29.216  1.00  0.00    -0.070 CG0
ATOM      9  C   UNL     1      41.888  20.706  29.479  1.00  0.00     0.039 C 
ATOM     10  G   UNL     1      39.398  20.344  28.793  1.00  0.00     0.000 G0
ENDBRANCH   6   7
ENDBRANCH   5   6
ENDBRANCH   3   5
ENDBRANCH   1   3
BRANCH   1  11
ATOM     11  C   UNL     1      37.353  21.162  26.819  1.00  0.00     0.087 C 
BRANCH  11  12
ATOM     12  C   UNL     1      38.329  20.042  26.374  1.00  0.00     0.066 C 
BRANCH  12  13
ATOM     13  C   UNL     1      39.501  19.909  27.337  1.00  0.00     0.140 C 
ATOM     14  O   UNL     1      40.573  19.490  26.924  1.00  0.00    -0.299 OA
BRANCH  13  15
ATOM     15  C   UNL     1      39.417  20.345  28.784  1.00  0.00     0.106 CG0
ATOM     16  G   UNL     1      40.535  21.281  29.211  1.00  0.00     0.000 G0
ENDBRANCH  13  15
ENDBRANCH  12  13
BRANCH  12  17
ATOM     17  C   UNL     1      37.645  18.660  26.144  1.00  0.00    -0.006 C 
ATOM     18  C   UNL     1      38.406  17.810  25.114  1.00  0.00     0.008 C 
ATOM     19  C   UNL     1      36.160  18.750  25.754  1.00  0.00     0.008 C 
ENDBRANCH  12  17
ENDBRANCH  11  12
ENDBRANCH   1  11
TORSDOF 1
ENDMDL
