MODEL 1
REMARK VINA RESULT:    -3.862      0.000      0.000
REMARK INTER + INTRA:          -6.171
REMARK INTER:                  -5.668
REMARK INTRA:                  -0.503
REMARK UNBOUND:                -0.503
REMARK SMILES C=C1C=C[C@@H](C(C)C)CCC(C)=CCC1
REMARK SMILES IDX 3 1 4 2 5 3 9 4 10 5 11 6 12 7 13 8 6 10 7 11 8 12 2 13 1 14
REMARK SMILES IDX 15 15 14 16
REMARK H PARENT
REMARK Flexibility Score: 70.00
ROOT
ATOM      1  C   UNL     1     164.269 162.191 198.223  1.00  0.00    -0.001 C 
ATOM      2  C   UNL     1     164.538 162.050 199.534  1.00  0.00    -0.023 C 
ENDROOT
BRANCH   2   3
ATOM      3  C   UNL     1     165.107 163.106 200.473  1.00  0.00     0.014 C 
BRANCH   3   4
ATOM      4  C   UNL     1     166.465 162.633 201.081  1.00  0.00     0.012 C 
BRANCH   4   5
ATOM      5  C   UNL     1     167.507 162.043 200.099  1.00  0.00     0.031 C 
BRANCH   5   6
ATOM      6  C   UNL     1     168.379 163.036 199.337  1.00  0.00    -0.077 C 
ATOM      7  C   UNL     1     169.637 163.553 199.992  1.00  0.00     0.039 C 
ATOM      8  C   UNL     1     168.147 163.418 198.061  1.00  0.00    -0.028 CG0
ATOM      9  G   UNL     1     166.967 163.005 197.222  1.00  0.00     0.000 G0
ENDBRANCH   5   6
ENDBRANCH   4   5
ENDBRANCH   3   4
BRANCH   3  10
ATOM     10  C   UNL     1     164.023 163.493 201.538  1.00  0.00    -0.010 C 
ATOM     11  C   UNL     1     164.599 163.931 202.898  1.00  0.00     0.008 C 
ATOM     12  C   UNL     1     163.025 164.539 201.028  1.00  0.00     0.008 C 
ENDBRANCH   3  10
ENDBRANCH   2   3
BRANCH   1  13
ATOM     13  C   UNL     1     164.481 163.402 197.389  1.00  0.00    -0.055 C 
ATOM     14  C   UNL     1     163.408 164.022 196.890  1.00  0.00     0.012 C 
BRANCH  13  15
ATOM     15  C   UNL     1     165.839 164.043 197.228  1.00  0.00     0.039 C 
BRANCH  15  16
ATOM     16  C   UNL     1     166.982 163.004 197.190  1.00  0.00     0.032 CG0
ATOM     17  G   UNL     1     168.137 163.426 198.058  1.00  0.00     0.000 G0
ENDBRANCH  15  16
ENDBRANCH  13  15
ENDBRANCH   1  13
TORSDOF 1
ENDMDL
MODEL 2
REMARK VINA RESULT:    -3.650      4.760      6.319
REMARK INTER + INTRA:          -5.860
REMARK INTER:                  -5.289
REMARK INTRA:                  -0.571
REMARK UNBOUND:                -0.503
REMARK SMILES C=C1C=C[C@@H](C(C)C)CCC(C)=CCC1
REMARK SMILES IDX 3 1 4 2 5 3 9 4 10 5 11 6 12 7 13 8 6 10 7 11 8 12 2 13 1 14
REMARK SMILES IDX 15 15 14 16
REMARK H PARENT
REMARK Flexibility Score: 70.00
ROOT
ATOM      1  C   UNL     1     165.341 170.061 200.015  1.00  0.00    -0.001 C 
ATOM      2  C   UNL     1     164.649 169.784 201.135  1.00  0.00    -0.023 C 
ENDROOT
BRANCH   2   3
ATOM      3  C   UNL     1     164.827 168.579 202.050  1.00  0.00     0.014 C 
BRANCH   3   4
ATOM      4  C   UNL     1     163.607 167.612 201.936  1.00  0.00     0.012 C 
BRANCH   4   5
ATOM      5  C   UNL     1     162.872 167.566 200.573  1.00  0.00     0.031 C 
BRANCH   5   6
ATOM      6  C   UNL     1     163.227 166.418 199.634  1.00  0.00    -0.077 C 
ATOM      7  C   UNL     1     162.566 165.077 199.840  1.00  0.00     0.039 C 
ATOM      8  C   UNL     1     164.036 166.547 198.558  1.00  0.00    -0.028 CG0
ATOM      9  G   UNL     1     164.776 167.797 198.161  1.00  0.00     0.000 G0
ENDBRANCH   5   6
ENDBRANCH   4   5
ENDBRANCH   3   4
BRANCH   3  10
ATOM     10  C   UNL     1     165.125 169.073 203.509  1.00  0.00    -0.010 C 
ATOM     11  C   UNL     1     166.605 169.409 203.773  1.00  0.00     0.008 C 
ATOM     12  C   UNL     1     164.234 170.242 203.943  1.00  0.00     0.008 C 
ENDBRANCH   3  10
ENDBRANCH   2   3
BRANCH   1  13
ATOM     13  C   UNL     1     166.422 169.246 199.404  1.00  0.00    -0.055 C 
ATOM     14  C   UNL     1     167.684 169.662 199.545  1.00  0.00     0.012 C 
BRANCH  13  15
ATOM     15  C   UNL     1     166.161 167.894 198.784  1.00  0.00     0.039 C 
BRANCH  15  16
ATOM     16  C   UNL     1     164.763 167.803 198.132  1.00  0.00     0.032 CG0
ATOM     17  G   UNL     1     164.039 166.554 198.557  1.00  0.00     0.000 G0
ENDBRANCH  15  16
ENDBRANCH  13  15
ENDBRANCH   1  13
TORSDOF 1
ENDMDL
MODEL 3
REMARK VINA RESULT:    -3.647      5.247      6.681
REMARK INTER + INTRA:          -5.856
REMARK INTER:                  -5.283
REMARK INTRA:                  -0.573
REMARK UNBOUND:                -0.503
REMARK SMILES C=C1C=C[C@@H](C(C)C)CCC(C)=CCC1
REMARK SMILES IDX 3 1 4 2 5 3 9 4 10 5 11 6 12 7 13 8 6 10 7 11 8 12 2 13 1 14
REMARK SMILES IDX 15 15 14 16
REMARK H PARENT
REMARK Flexibility Score: 70.00
ROOT
ATOM      1  C   UNL     1     164.924 169.749 201.781  1.00  0.00    -0.001 C 
ATOM      2  C   UNL     1     164.749 169.958 200.463  1.00  0.00    -0.023 C 
ENDROOT
BRANCH   2   3
ATOM      3  C   UNL     1     164.755 168.910 199.358  1.00  0.00     0.014 C 
BRANCH   3   4
ATOM      4  C   UNL     1     165.991 169.097 198.423  1.00  0.00     0.012 C 
BRANCH   4   5
ATOM      5  C   UNL     1     167.298 169.607 199.080  1.00  0.00     0.031 C 
BRANCH   5   6
ATOM      6  C   UNL     1     168.276 168.552 199.586  1.00  0.00    -0.077 C 
ATOM      7  C   UNL     1     169.197 167.879 198.598  1.00  0.00     0.039 C 
ATOM      8  C   UNL     1     168.440 168.241 200.892  1.00  0.00    -0.028 CG0
ATOM      9  G   UNL     1     167.643 168.808 202.036  1.00  0.00     0.000 G0
ENDBRANCH   5   6
ENDBRANCH   4   5
ENDBRANCH   3   4
BRANCH   3  10
ATOM     10  C   UNL     1     163.374 168.930 198.614  1.00  0.00    -0.010 C 
ATOM     11  C   UNL     1     163.402 168.293 197.211  1.00  0.00     0.008 C 
ATOM     12  C   UNL     1     162.236 168.326 199.443  1.00  0.00     0.008 C 
ENDBRANCH   3  10
ENDBRANCH   2   3
BRANCH   1  13
ATOM     13  C   UNL     1     165.180 168.452 202.456  1.00  0.00    -0.055 C 
ATOM     14  C   UNL     1     164.131 167.740 202.878  1.00  0.00     0.012 C 
BRANCH  13  15
ATOM     15  C   UNL     1     166.559 167.839 202.530  1.00  0.00     0.039 C 
BRANCH  15  16
ATOM     16  C   UNL     1     167.662 168.809 202.051  1.00  0.00     0.032 CG0
ATOM     17  G   UNL     1     168.438 168.231 200.898  1.00  0.00     0.000 G0
ENDBRANCH  15  16
ENDBRANCH  13  15
ENDBRANCH   1  13
TORSDOF 1
ENDMDL
MODEL 4
REMARK VINA RESULT:    -3.626      2.200      4.803
REMARK INTER + INTRA:          -5.825
REMARK INTER:                  -5.312
REMARK INTRA:                  -0.513
REMARK UNBOUND:                -0.503
REMARK SMILES C=C1C=C[C@@H](C(C)C)CCC(C)=CCC1
REMARK SMILES IDX 3 1 4 2 5 3 9 4 10 5 11 6 12 7 13 8 6 10 7 11 8 12 2 13 1 14
REMARK SMILES IDX 15 15 14 16
REMARK H PARENT
REMARK Flexibility Score: 70.00
ROOT
ATOM      1  C   UNL     1     167.414 162.104 200.097  1.00  0.00    -0.001 C 
ATOM      2  C   UNL     1     166.139 162.001 199.678  1.00  0.00    -0.023 C 
ENDROOT
BRANCH   2   3
ATOM      3  C   UNL     1     165.108 163.119 199.591  1.00  0.00     0.014 C 
BRANCH   3   4
ATOM      4  C   UNL     1     164.062 162.998 200.743  1.00  0.00     0.012 C 
BRANCH   4   5
ATOM      5  C   UNL     1     163.988 164.172 201.751  1.00  0.00     0.031 C 
BRANCH   5   6
ATOM      6  C   UNL     1     164.654 163.961 203.108  1.00  0.00    -0.077 C 
ATOM      7  C   UNL     1     163.840 163.372 204.234  1.00  0.00     0.039 C 
ATOM      8  C   UNL     1     165.967 164.183 203.347  1.00  0.00    -0.028 CG0
ATOM      9  G   UNL     1     166.955 164.745 202.360  1.00  0.00     0.000 G0
ENDBRANCH   5   6
ENDBRANCH   4   5
ENDBRANCH   3   4
BRANCH   3  10
ATOM     10  C   UNL     1     164.485 163.142 198.152  1.00  0.00    -0.010 C 
ATOM     11  C   UNL     1     164.811 161.900 197.301  1.00  0.00     0.008 C 
ATOM     12  C   UNL     1     162.974 163.396 198.155  1.00  0.00     0.008 C 
ENDBRANCH   3  10
ENDBRANCH   2   3
BRANCH   1  13
ATOM     13  C   UNL     1     168.100 163.325 200.588  1.00  0.00    -0.055 C 
ATOM     14  C   UNL     1     168.619 164.165 199.687  1.00  0.00     0.012 C 
BRANCH  13  15
ATOM     15  C   UNL     1     168.086 163.730 202.043  1.00  0.00     0.039 C 
BRANCH  15  16
ATOM     16  C   UNL     1     166.965 164.744 202.362  1.00  0.00     0.032 CG0
ATOM     17  G   UNL     1     165.975 164.178 203.345  1.00  0.00     0.000 G0
ENDBRANCH  15  16
ENDBRANCH  13  15
ENDBRANCH   1  13
TORSDOF 1
ENDMDL
MODEL 5
REMARK VINA RESULT:    -3.593      4.608      6.145
REMARK INTER + INTRA:          -5.777
REMARK INTER:                  -5.343
REMARK INTRA:                  -0.434
REMARK UNBOUND:                -0.503
REMARK SMILES C=C1C=C[C@@H](C(C)C)CCC(C)=CCC1
REMARK SMILES IDX 3 1 4 2 5 3 9 4 10 5 11 6 12 7 13 8 6 10 7 11 8 12 2 13 1 14
REMARK SMILES IDX 15 15 14 16
REMARK H PARENT
REMARK Flexibility Score: 70.00
ROOT
ATOM      1  C   UNL     1     168.065 168.079 201.466  1.00  0.00    -0.001 C 
ATOM      2  C   UNL     1     167.009 168.911 201.534  1.00  0.00    -0.023 C 
ENDROOT
BRANCH   2   3
ATOM      3  C   UNL     1     165.936 169.122 200.473  1.00  0.00     0.014 C 
BRANCH   3   4
ATOM      4  C   UNL     1     166.452 170.069 199.345  1.00  0.00     0.012 C 
BRANCH   4   5
ATOM      5  C   UNL     1     166.687 169.438 197.950  1.00  0.00     0.031 C 
BRANCH   5   6
ATOM      6  C   UNL     1     165.769 168.288 197.547  1.00  0.00    -0.077 C 
ATOM      7  C   UNL     1     164.411 168.609 196.971  1.00  0.00     0.039 C 
ATOM      8  C   UNL     1     166.130 166.985 197.585  1.00  0.00    -0.028 CG0
ATOM      9  G   UNL     1     167.440 166.453 198.102  1.00  0.00     0.000 G0
ENDBRANCH   5   6
ENDBRANCH   4   5
ENDBRANCH   3   4
BRANCH   3  10
ATOM     10  C   UNL     1     164.611 169.599 201.162  1.00  0.00    -0.010 C 
ATOM     11  C   UNL     1     163.383 168.723 200.848  1.00  0.00     0.008 C 
ATOM     12  C   UNL     1     164.752 169.785 202.677  1.00  0.00     0.008 C 
ENDBRANCH   3  10
ENDBRANCH   2   3
BRANCH   1  13
ATOM     13  C   UNL     1     168.435 167.191 200.335  1.00  0.00    -0.055 C 
ATOM     14  C   UNL     1     169.728 167.082 200.013  1.00  0.00     0.012 C 
BRANCH  13  15
ATOM     15  C   UNL     1     167.432 166.290 199.655  1.00  0.00     0.039 C 
BRANCH  15  16
ATOM     16  C   UNL     1     167.449 166.442 198.117  1.00  0.00     0.032 CG0
ATOM     17  G   UNL     1     166.138 166.973 197.603  1.00  0.00     0.000 G0
ENDBRANCH  15  16
ENDBRANCH  13  15
ENDBRANCH   1  13
TORSDOF 1
ENDMDL
MODEL 6
REMARK VINA RESULT:    -3.593      2.140      5.230
REMARK INTER + INTRA:          -5.775
REMARK INTER:                  -5.317
REMARK INTRA:                  -0.459
REMARK UNBOUND:                -0.503
REMARK SMILES C=C1C=C[C@@H](C(C)C)CCC(C)=CCC1
REMARK SMILES IDX 3 1 4 2 5 3 9 4 10 5 11 6 12 7 13 8 6 10 7 11 8 12 2 13 1 14
REMARK SMILES IDX 15 15 14 16
REMARK H PARENT
REMARK Flexibility Score: 70.00
ROOT
ATOM      1  C   UNL     1     167.492 162.643 201.618  1.00  0.00    -0.001 C 
ATOM      2  C   UNL     1     167.530 162.142 200.369  1.00  0.00    -0.023 C 
ENDROOT
BRANCH   2   3
ATOM      3  C   UNL     1     167.239 162.885 199.072  1.00  0.00     0.014 C 
BRANCH   3   4
ATOM      4  C   UNL     1     166.054 162.218 198.306  1.00  0.00     0.012 C 
BRANCH   4   5
ATOM      5  C   UNL     1     164.787 161.877 199.130  1.00  0.00     0.031 C 
BRANCH   5   6
ATOM      6  C   UNL     1     163.827 163.024 199.429  1.00  0.00    -0.077 C 
ATOM      7  C   UNL     1     162.810 163.414 198.384  1.00  0.00     0.039 C 
ATOM      8  C   UNL     1     163.763 163.663 200.620  1.00  0.00    -0.028 CG0
ATOM      9  G   UNL     1     164.667 163.415 201.798  1.00  0.00     0.000 G0
ENDBRANCH   5   6
ENDBRANCH   4   5
ENDBRANCH   3   4
BRANCH   3  10
ATOM     10  C   UNL     1     168.560 163.009 198.236  1.00  0.00    -0.010 C 
ATOM     11  C   UNL     1     168.444 163.920 196.999  1.00  0.00     0.008 C 
ATOM     12  C   UNL     1     169.771 163.420 199.081  1.00  0.00     0.008 C 
ENDBRANCH   3  10
ENDBRANCH   2   3
BRANCH   1  13
ATOM     13  C   UNL     1     167.140 164.030 202.016  1.00  0.00    -0.055 C 
ATOM     14  C   UNL     1     168.132 164.874 202.313  1.00  0.00     0.012 C 
BRANCH  13  15
ATOM     15  C   UNL     1     165.728 164.559 201.936  1.00  0.00     0.039 C 
BRANCH  15  16
ATOM     16  C   UNL     1     164.681 163.430 201.800  1.00  0.00     0.032 CG0
ATOM     17  G   UNL     1     163.768 163.665 200.627  1.00  0.00     0.000 G0
ENDBRANCH  15  16
ENDBRANCH  13  15
ENDBRANCH   1  13
TORSDOF 1
ENDMDL
MODEL 7
REMARK VINA RESULT:    -3.508      2.300      4.747
REMARK INTER + INTRA:          -5.651
REMARK INTER:                  -5.207
REMARK INTRA:                  -0.445
REMARK UNBOUND:                -0.503
REMARK SMILES C=C1C=C[C@@H](C(C)C)CCC(C)=CCC1
REMARK SMILES IDX 3 1 4 2 5 3 9 4 10 5 11 6 12 7 13 8 6 10 7 11 8 12 2 13 1 14
REMARK SMILES IDX 15 15 14 16
REMARK H PARENT
REMARK Flexibility Score: 70.00
ROOT
ATOM      1  C   UNL     1     167.833 162.596 200.751  1.00  0.00    -0.001 C 
ATOM      2  C   UNL     1     166.777 162.042 200.127  1.00  0.00    -0.023 C 
ENDROOT
BRANCH   2   3
ATOM      3  C   UNL     1     165.426 162.691 199.855  1.00  0.00     0.014 C 
BRANCH   3   4
ATOM      4  C   UNL     1     164.526 162.654 201.130  1.00  0.00     0.012 C 
BRANCH   4   5
ATOM      5  C   UNL     1     164.132 164.016 201.752  1.00  0.00     0.031 C 
BRANCH   5   6
ATOM      6  C   UNL     1     164.100 165.221 200.816  1.00  0.00    -0.077 C 
ATOM      7  C   UNL     1     162.835 165.512 200.047  1.00  0.00     0.039 C 
ATOM      8  C   UNL     1     165.112 166.111 200.698  1.00  0.00    -0.028 CG0
ATOM      9  G   UNL     1     166.446 166.019 201.390  1.00  0.00     0.000 G0
ENDBRANCH   5   6
ENDBRANCH   4   5
ENDBRANCH   3   4
BRANCH   3  10
ATOM     10  C   UNL     1     164.778 162.031 198.588  1.00  0.00    -0.010 C 
ATOM     11  C   UNL     1     163.244 162.151 198.526  1.00  0.00     0.008 C 
ATOM     12  C   UNL     1     165.397 162.519 197.273  1.00  0.00     0.008 C 
ENDBRANCH   3  10
ENDBRANCH   2   3
BRANCH   1  13
ATOM     13  C   UNL     1     167.916 163.960 201.332  1.00  0.00    -0.055 C 
ATOM     14  C   UNL     1     168.558 164.115 202.493  1.00  0.00     0.012 C 
BRANCH  13  15
ATOM     15  C   UNL     1     167.451 165.186 200.582  1.00  0.00     0.039 C 
BRANCH  15  16
ATOM     16  C   UNL     1     166.445 166.030 201.396  1.00  0.00     0.032 CG0
ATOM     17  G   UNL     1     165.110 166.112 200.703  1.00  0.00     0.000 G0
ENDBRANCH  15  16
ENDBRANCH  13  15
ENDBRANCH   1  13
TORSDOF 1
ENDMDL
MODEL 8
REMARK VINA RESULT:    -3.422      1.426      2.330
REMARK INTER + INTRA:          -5.525
REMARK INTER:                  -5.197
REMARK INTRA:                  -0.328
REMARK UNBOUND:                -0.503
REMARK SMILES C=C1C=C[C@@H](C(C)C)CCC(C)=CCC1
REMARK SMILES IDX 3 1 4 2 5 3 9 4 10 5 11 6 12 7 13 8 6 10 7 11 8 12 2 13 1 14
REMARK SMILES IDX 15 15 14 16
REMARK H PARENT
REMARK Flexibility Score: 70.00
ROOT
ATOM      1  C   UNL     1     164.280 162.657 200.381  1.00  0.00    -0.001 C 
ATOM      2  C   UNL     1     165.231 162.636 201.333  1.00  0.00    -0.023 C 
ENDROOT
BRANCH   2   3
ATOM      3  C   UNL     1     166.726 162.858 201.141  1.00  0.00     0.014 C 
BRANCH   3   4
ATOM      4  C   UNL     1     167.291 161.907 200.039  1.00  0.00     0.012 C 
BRANCH   4   5
ATOM      5  C   UNL     1     168.165 162.552 198.935  1.00  0.00     0.031 C 
BRANCH   5   6
ATOM      6  C   UNL     1     168.160 164.075 198.848  1.00  0.00    -0.077 C 
ATOM      7  C   UNL     1     169.297 164.843 199.476  1.00  0.00     0.039 C 
ATOM      8  C   UNL     1     167.240 164.788 198.159  1.00  0.00    -0.028 CG0
ATOM      9  G   UNL     1     166.043 164.219 197.446  1.00  0.00     0.000 G0
ENDBRANCH   5   6
ENDBRANCH   4   5
ENDBRANCH   3   4
BRANCH   3  10
ATOM     10  C   UNL     1     167.452 162.743 202.527  1.00  0.00    -0.010 C 
ATOM     11  C   UNL     1     168.160 164.034 202.980  1.00  0.00     0.008 C 
ATOM     12  C   UNL     1     166.538 162.225 203.642  1.00  0.00     0.008 C 
ENDBRANCH   3  10
ENDBRANCH   2   3
BRANCH   1  13
ATOM     13  C   UNL     1     164.471 162.882 198.926  1.00  0.00    -0.055 C 
ATOM     14  C   UNL     1     164.204 161.874 198.090  1.00  0.00     0.012 C 
BRANCH  13  15
ATOM     15  C   UNL     1     164.791 164.243 198.356  1.00  0.00     0.039 C 
BRANCH  15  16
ATOM     16  C   UNL     1     166.037 164.222 197.442  1.00  0.00     0.032 CG0
ATOM     17  G   UNL     1     167.242 164.787 198.145  1.00  0.00     0.000 G0
ENDBRANCH  15  16
ENDBRANCH  13  15
ENDBRANCH   1  13
TORSDOF 1
ENDMDL
MODEL 9
REMARK VINA RESULT:    -3.399      4.291      5.733
REMARK INTER + INTRA:          -5.491
REMARK INTER:                  -4.955
REMARK INTRA:                  -0.536
REMARK UNBOUND:                -0.503
REMARK SMILES C=C1C=C[C@@H](C(C)C)CCC(C)=CCC1
REMARK SMILES IDX 3 1 4 2 5 3 9 4 10 5 11 6 12 7 13 8 6 10 7 11 8 12 2 13 1 14
REMARK SMILES IDX 15 15 14 16
REMARK H PARENT
REMARK Flexibility Score: 70.00
ROOT
ATOM      1  C   UNL     1     167.750 169.786 198.871  1.00  0.00    -0.001 C 
ATOM      2  C   UNL     1     166.414 169.831 199.020  1.00  0.00    -0.023 C 
ENDROOT
BRANCH   2   3
ATOM      3  C   UNL     1     165.481 168.660 199.299  1.00  0.00     0.014 C 
BRANCH   3   4
ATOM      4  C   UNL     1     165.377 167.725 198.053  1.00  0.00     0.012 C 
BRANCH   4   5
ATOM      5  C   UNL     1     165.826 166.254 198.239  1.00  0.00     0.031 C 
BRANCH   5   6
ATOM      6  C   UNL     1     165.982 165.754 199.671  1.00  0.00    -0.077 C 
ATOM      7  C   UNL     1     164.777 165.184 200.379  1.00  0.00     0.039 C 
ATOM      8  C   UNL     1     167.164 165.700 200.327  1.00  0.00    -0.028 CG0
ATOM      9  G   UNL     1     168.484 166.195 199.799  1.00  0.00     0.000 G0
ENDBRANCH   5   6
ENDBRANCH   4   5
ENDBRANCH   3   4
BRANCH   3  10
ATOM     10  C   UNL     1     164.103 169.203 199.815  1.00  0.00    -0.010 C 
ATOM     11  C   UNL     1     162.919 168.930 198.867  1.00  0.00     0.008 C 
ATOM     12  C   UNL     1     163.762 168.730 201.232  1.00  0.00     0.008 C 
ENDBRANCH   3  10
ENDBRANCH   2   3
BRANCH   1  13
ATOM     13  C   UNL     1     168.618 168.583 198.926  1.00  0.00    -0.055 C 
ATOM     14  C   UNL     1     169.467 168.368 197.916  1.00  0.00     0.012 C 
BRANCH  13  15
ATOM     15  C   UNL     1     168.693 167.697 200.146  1.00  0.00     0.039 C 
BRANCH  15  16
ATOM     16  C   UNL     1     168.490 166.203 199.805  1.00  0.00     0.032 CG0
ATOM     17  G   UNL     1     167.169 165.697 200.319  1.00  0.00     0.000 G0
ENDBRANCH  15  16
ENDBRANCH  13  15
ENDBRANCH   1  13
TORSDOF 1
ENDMDL
