MODEL 1
REMARK VINA RESULT:    -4.261      0.000      0.000
REMARK INTER + INTRA:          -4.877
REMARK INTER:                  -4.634
REMARK INTRA:                  -0.242
REMARK UNBOUND:                -0.242
REMARK SMILES O=C([O-])c1ccccc1O
REMARK SMILES IDX 4 1 9 2 5 3 8 4 6 5 7 6 2 7 1 8 3 9 10 10
REMARK H PARENT 10 11
REMARK Flexibility Score: inf
ROOT
ATOM      1  C   UNL     1      28.192  42.605  26.717  1.00  0.00     0.039 A 
ATOM      2  C   UNL     1      27.398  41.918  27.673  1.00  0.00     0.124 A 
ATOM      3  C   UNL     1      27.680  42.797  25.421  1.00  0.00     0.014 A 
ATOM      4  C   UNL     1      26.157  41.393  27.292  1.00  0.00     0.047 A 
ATOM      5  C   UNL     1      26.432  42.285  25.064  1.00  0.00     0.001 A 
ATOM      6  C   UNL     1      25.675  41.575  25.996  1.00  0.00     0.004 A 
ENDROOT
BRANCH   1   7
ATOM      7  C   UNL     1      29.553  43.103  27.015  1.00  0.00     0.075 C 
ATOM      8  O   UNL     1      30.396  42.372  27.600  1.00  0.00    -0.545 OA
ATOM      9  O   UNL     1      29.940  44.367  26.586  1.00  0.00    -0.545 OA
ENDBRANCH   1   7
BRANCH   2  10
ATOM     10  O   UNL     1      27.785  41.767  29.006  1.00  0.00    -0.507 OA
ATOM     11  H   UNL     1      28.709  41.988  29.349  1.00  0.00     0.293 HD
ENDBRANCH   2  10
TORSDOF 2
ENDMDL
MODEL 2
REMARK VINA RESULT:    -4.100     15.075     15.460
REMARK INTER + INTRA:          -4.702
REMARK INTER:                  -4.498
REMARK INTRA:                  -0.204
REMARK UNBOUND:                -0.242
REMARK SMILES O=C([O-])c1ccccc1O
REMARK SMILES IDX 4 1 9 2 5 3 8 4 6 5 7 6 2 7 1 8 3 9 10 10
REMARK H PARENT 10 11
REMARK Flexibility Score: inf
ROOT
ATOM      1  C   UNL     1      29.570  50.053  39.904  1.00  0.00     0.039 A 
ATOM      2  C   UNL     1      28.223  50.488  40.026  1.00  0.00     0.124 A 
ATOM      3  C   UNL     1      30.465  50.823  39.139  1.00  0.00     0.014 A 
ATOM      4  C   UNL     1      27.800  51.630  39.335  1.00  0.00     0.047 A 
ATOM      5  C   UNL     1      30.031  51.970  38.474  1.00  0.00     0.001 A 
ATOM      6  C   UNL     1      28.698  52.369  38.564  1.00  0.00     0.004 A 
ENDROOT
BRANCH   1   7
ATOM      7  C   UNL     1      30.068  48.805  40.523  1.00  0.00     0.075 C 
ATOM      8  O   UNL     1      30.994  48.831  41.376  1.00  0.00    -0.545 OA
ATOM      9  O   UNL     1      29.466  47.589  40.218  1.00  0.00    -0.545 OA
ENDBRANCH   1   7
BRANCH   2  10
ATOM     10  O   UNL     1      27.292  49.840  40.841  1.00  0.00    -0.507 OA
ATOM     11  H   UNL     1      26.495  50.302  41.254  1.00  0.00     0.293 HD
ENDBRANCH   2  10
TORSDOF 2
ENDMDL
MODEL 3
REMARK VINA RESULT:    -4.094     15.146     15.550
REMARK INTER + INTRA:          -4.695
REMARK INTER:                  -4.446
REMARK INTRA:                  -0.249
REMARK UNBOUND:                -0.242
REMARK SMILES O=C([O-])c1ccccc1O
REMARK SMILES IDX 4 1 9 2 5 3 8 4 6 5 7 6 2 7 1 8 3 9 10 10
REMARK H PARENT 10 11
REMARK Flexibility Score: inf
ROOT
ATOM      1  C   UNL     1      28.983  50.425  39.741  1.00  0.00     0.039 A 
ATOM      2  C   UNL     1      30.160  50.958  39.151  1.00  0.00     0.124 A 
ATOM      3  C   UNL     1      27.759  51.085  39.530  1.00  0.00     0.014 A 
ATOM      4  C   UNL     1      30.091  52.157  38.430  1.00  0.00     0.047 A 
ATOM      5  C   UNL     1      27.704  52.268  38.791  1.00  0.00     0.001 A 
ATOM      6  C   UNL     1      28.870  52.808  38.250  1.00  0.00     0.004 A 
ENDROOT
BRANCH   1   7
ATOM      7  C   UNL     1      28.991  49.218  40.597  1.00  0.00     0.075 C 
ATOM      8  O   UNL     1      29.665  48.203  40.278  1.00  0.00    -0.545 OA
ATOM      9  O   UNL     1      28.306  49.219  41.807  1.00  0.00    -0.545 OA
ENDBRANCH   1   7
BRANCH   2  10
ATOM     10  O   UNL     1      31.399  50.317  39.228  1.00  0.00    -0.507 OA
ATOM     11  H   UNL     1      31.988  50.144  38.426  1.00  0.00     0.293 HD
ENDBRANCH   2  10
TORSDOF 2
ENDMDL
MODEL 4
REMARK VINA RESULT:    -3.989      2.686      3.569
REMARK INTER + INTRA:          -4.582
REMARK INTER:                  -4.504
REMARK INTRA:                  -0.078
REMARK UNBOUND:                -0.242
REMARK SMILES O=C([O-])c1ccccc1O
REMARK SMILES IDX 4 1 9 2 5 3 8 4 6 5 7 6 2 7 1 8 3 9 10 10
REMARK H PARENT 10 11
REMARK Flexibility Score: inf
ROOT
ATOM      1  C   UNL     1      26.319  41.636  25.632  1.00  0.00     0.039 A 
ATOM      2  C   UNL     1      25.695  41.369  24.385  1.00  0.00     0.124 A 
ATOM      3  C   UNL     1      26.311  40.637  26.623  1.00  0.00     0.014 A 
ATOM      4  C   UNL     1      25.033  40.151  24.188  1.00  0.00     0.047 A 
ATOM      5  C   UNL     1      25.665  39.419  26.403  1.00  0.00     0.001 A 
ATOM      6  C   UNL     1      25.019  39.180  25.191  1.00  0.00     0.004 A 
ENDROOT
BRANCH   1   7
ATOM      7  C   UNL     1      26.953  42.935  25.950  1.00  0.00     0.075 C 
ATOM      8  O   UNL     1      26.301  43.851  26.517  1.00  0.00    -0.545 OA
ATOM      9  O   UNL     1      28.304  43.132  25.687  1.00  0.00    -0.545 OA
ENDBRANCH   1   7
BRANCH   2  10
ATOM     10  O   UNL     1      25.738  42.264  23.313  1.00  0.00    -0.507 OA
ATOM     11  H   UNL     1      25.556  43.254  23.404  1.00  0.00     0.293 HD
ENDBRANCH   2  10
TORSDOF 2
ENDMDL
MODEL 5
REMARK VINA RESULT:    -3.905      1.917      3.688
REMARK INTER + INTRA:          -4.489
REMARK INTER:                  -4.237
REMARK INTRA:                  -0.253
REMARK UNBOUND:                -0.242
REMARK SMILES O=C([O-])c1ccccc1O
REMARK SMILES IDX 4 1 9 2 5 3 8 4 6 5 7 6 2 7 1 8 3 9 10 10
REMARK H PARENT 10 11
REMARK Flexibility Score: inf
ROOT
ATOM      1  C   UNL     1      26.138  40.745  26.867  1.00  0.00     0.039 A 
ATOM      2  C   UNL     1      26.921  41.840  27.321  1.00  0.00     0.124 A 
ATOM      3  C   UNL     1      25.702  40.732  25.530  1.00  0.00     0.014 A 
ATOM      4  C   UNL     1      27.188  42.907  26.454  1.00  0.00     0.047 A 
ATOM      5  C   UNL     1      25.995  41.794  24.673  1.00  0.00     0.001 A 
ATOM      6  C   UNL     1      26.728  42.885  25.137  1.00  0.00     0.004 A 
ENDROOT
BRANCH   1   7
ATOM      7  C   UNL     1      25.733  39.629  27.750  1.00  0.00     0.075 C 
ATOM      8  O   UNL     1      25.801  38.435  27.356  1.00  0.00    -0.545 OA
ATOM      9  O   UNL     1      25.336  39.885  29.057  1.00  0.00    -0.545 OA
ENDBRANCH   1   7
BRANCH   2  10
ATOM     10  O   UNL     1      27.476  41.890  28.602  1.00  0.00    -0.507 OA
ATOM     11  H   UNL     1      28.053  41.157  28.990  1.00  0.00     0.293 HD
ENDBRANCH   2  10
TORSDOF 2
ENDMDL
MODEL 6
REMARK VINA RESULT:    -3.884      3.169      4.684
REMARK INTER + INTRA:          -4.467
REMARK INTER:                  -4.255
REMARK INTRA:                  -0.212
REMARK UNBOUND:                -0.242
REMARK SMILES O=C([O-])c1ccccc1O
REMARK SMILES IDX 4 1 9 2 5 3 8 4 6 5 7 6 2 7 1 8 3 9 10 10
REMARK H PARENT 10 11
REMARK Flexibility Score: inf
ROOT
ATOM      1  C   UNL     1      25.964  41.134  25.587  1.00  0.00     0.039 A 
ATOM      2  C   UNL     1      26.356  42.257  24.811  1.00  0.00     0.124 A 
ATOM      3  C   UNL     1      26.348  41.077  26.940  1.00  0.00     0.014 A 
ATOM      4  C   UNL     1      27.163  43.247  25.384  1.00  0.00     0.047 A 
ATOM      5  C   UNL     1      27.135  42.084  27.501  1.00  0.00     0.001 A 
ATOM      6  C   UNL     1      27.550  43.163  26.722  1.00  0.00     0.004 A 
ENDROOT
BRANCH   1   7
ATOM      7  C   UNL     1      25.196  40.001  25.027  1.00  0.00     0.075 C 
ATOM      8  O   UNL     1      24.875  39.976  23.809  1.00  0.00    -0.545 OA
ATOM      9  O   UNL     1      24.878  38.912  25.830  1.00  0.00    -0.545 OA
ENDBRANCH   1   7
BRANCH   2  10
ATOM     10  O   UNL     1      25.941  42.443  23.490  1.00  0.00    -0.507 OA
ATOM     11  H   UNL     1      26.578  42.559  22.715  1.00  0.00     0.293 HD
ENDBRANCH   2  10
TORSDOF 2
ENDMDL
MODEL 7
REMARK VINA RESULT:    -3.848      2.020      3.368
REMARK INTER + INTRA:          -4.427
REMARK INTER:                  -4.185
REMARK INTRA:                  -0.243
REMARK UNBOUND:                -0.242
REMARK SMILES O=C([O-])c1ccccc1O
REMARK SMILES IDX 4 1 9 2 5 3 8 4 6 5 7 6 2 7 1 8 3 9 10 10
REMARK H PARENT 10 11
REMARK Flexibility Score: inf
ROOT
ATOM      1  C   UNL     1      27.975  42.920  26.552  1.00  0.00     0.039 A 
ATOM      2  C   UNL     1      28.420  42.344  27.771  1.00  0.00     0.124 A 
ATOM      3  C   UNL     1      28.932  43.316  25.599  1.00  0.00     0.014 A 
ATOM      4  C   UNL     1      29.792  42.240  28.027  1.00  0.00     0.047 A 
ATOM      5  C   UNL     1      30.296  43.185  25.862  1.00  0.00     0.001 A 
ATOM      6  C   UNL     1      30.726  42.657  27.078  1.00  0.00     0.004 A 
ENDROOT
BRANCH   1   7
ATOM      7  C   UNL     1      26.545  43.153  26.249  1.00  0.00     0.075 C 
ATOM      8  O   UNL     1      25.709  43.329  27.174  1.00  0.00    -0.545 OA
ATOM      9  O   UNL     1      26.121  43.253  24.930  1.00  0.00    -0.545 OA
ENDBRANCH   1   7
BRANCH   2  10
ATOM     10  O   UNL     1      27.540  41.836  28.730  1.00  0.00    -0.507 OA
ATOM     11  H   UNL     1      26.686  42.299  29.006  1.00  0.00     0.293 HD
ENDBRANCH   2  10
TORSDOF 2
ENDMDL
MODEL 8
REMARK VINA RESULT:    -3.825     15.414     15.880
REMARK INTER + INTRA:          -4.403
REMARK INTER:                  -4.161
REMARK INTRA:                  -0.242
REMARK UNBOUND:                -0.242
REMARK SMILES O=C([O-])c1ccccc1O
REMARK SMILES IDX 4 1 9 2 5 3 8 4 6 5 7 6 2 7 1 8 3 9 10 10
REMARK H PARENT 10 11
REMARK Flexibility Score: inf
ROOT
ATOM      1  C   UNL     1      28.456  51.524  39.503  1.00  0.00     0.039 A 
ATOM      2  C   UNL     1      28.635  50.286  40.175  1.00  0.00     0.124 A 
ATOM      3  C   UNL     1      29.504  52.022  38.707  1.00  0.00     0.014 A 
ATOM      4  C   UNL     1      29.864  49.621  40.086  1.00  0.00     0.047 A 
ATOM      5  C   UNL     1      30.716  51.335  38.612  1.00  0.00     0.001 A 
ATOM      6  C   UNL     1      30.899  50.141  39.308  1.00  0.00     0.004 A 
ENDROOT
BRANCH   1   7
ATOM      7  C   UNL     1      27.223  52.333  39.627  1.00  0.00     0.075 C 
ATOM      8  O   UNL     1      26.845  53.084  38.689  1.00  0.00    -0.545 OA
ATOM      9  O   UNL     1      26.427  52.217  40.761  1.00  0.00    -0.545 OA
ENDBRANCH   1   7
BRANCH   2  10
ATOM     10  O   UNL     1      27.616  49.671  40.907  1.00  0.00    -0.507 OA
ATOM     11  H   UNL     1      26.733  49.389  40.507  1.00  0.00     0.293 HD
ENDBRANCH   2  10
TORSDOF 2
ENDMDL
MODEL 9
REMARK VINA RESULT:    -3.726      2.227      3.036
REMARK INTER + INTRA:          -4.296
REMARK INTER:                  -4.057
REMARK INTRA:                  -0.239
REMARK UNBOUND:                -0.242
REMARK SMILES O=C([O-])c1ccccc1O
REMARK SMILES IDX 4 1 9 2 5 3 8 4 6 5 7 6 2 7 1 8 3 9 10 10
REMARK H PARENT 10 11
REMARK Flexibility Score: inf
ROOT
ATOM      1  C   UNL     1      26.119  41.399  26.204  1.00  0.00     0.039 A 
ATOM      2  C   UNL     1      26.377  41.371  27.600  1.00  0.00     0.124 A 
ATOM      3  C   UNL     1      25.347  40.370  25.635  1.00  0.00     0.014 A 
ATOM      4  C   UNL     1      25.916  40.294  28.368  1.00  0.00     0.047 A 
ATOM      5  C   UNL     1      24.877  39.315  26.419  1.00  0.00     0.001 A 
ATOM      6  C   UNL     1      25.169  39.272  27.782  1.00  0.00     0.004 A 
ENDROOT
BRANCH   1   7
ATOM      7  C   UNL     1      26.655  42.450  25.311  1.00  0.00     0.075 C 
ATOM      8  O   UNL     1      27.691  43.096  25.620  1.00  0.00    -0.545 OA
ATOM      9  O   UNL     1      26.056  42.688  24.079  1.00  0.00    -0.545 OA
ENDBRANCH   1   7
BRANCH   2  10
ATOM     10  O   UNL     1      27.051  42.399  28.263  1.00  0.00    -0.507 OA
ATOM     11  H   UNL     1      27.731  42.999  27.819  1.00  0.00     0.293 HD
ENDBRANCH   2  10
TORSDOF 2
ENDMDL
