MODEL 1
REMARK VINA RESULT:    -4.825      0.000      0.000
REMARK INTER + INTRA:          -4.825
REMARK INTER:                  -4.825
REMARK INTRA:                   0.000
REMARK UNBOUND:                 0.000
REMARK SMILES CC1=CC(=O)[C@@H]2C[C@H]1C2(C)C
REMARK SMILES IDX 1 1 2 2 3 3 4 4 5 5 6 6 7 7 8 8 9 9 10 10 11 11
REMARK H PARENT
REMARK Flexibility Score: inf
ROOT
ATOM      1  C   UNL     1      51.373  30.811  30.146  1.00  0.00     0.040 C 
ATOM      2  C   UNL     1      51.565  31.938  31.110  1.00  0.00    -0.066 C 
ATOM      3  C   UNL     1      52.742  32.113  31.770  1.00  0.00     0.047 C 
ATOM      4  C   UNL     1      52.820  33.298  32.686  1.00  0.00     0.159 C 
ATOM      5  O   UNL     1      53.866  33.589  33.321  1.00  0.00    -0.295 OA
ATOM      6  C   UNL     1      51.540  34.127  32.791  1.00  0.00     0.067 C 
ATOM      7  C   UNL     1      50.421  33.077  32.957  1.00  0.00     0.021 C 
ATOM      8  C   UNL     1      50.435  32.946  31.416  1.00  0.00     0.022 C 
ATOM      9  C   UNL     1      51.003  34.394  31.355  1.00  0.00    -0.019 C 
ATOM     10  C   UNL     1      52.026  34.735  30.235  1.00  0.00     0.012 C 
ATOM     11  C   UNL     1      49.884  35.465  31.334  1.00  0.00     0.012 C 
ENDROOT
TORSDOF 0
ENDMDL
MODEL 2
REMARK VINA RESULT:    -4.689      2.161      3.845
REMARK INTER + INTRA:          -4.689
REMARK INTER:                  -4.689
REMARK INTRA:                   0.000
REMARK UNBOUND:                 0.000
REMARK SMILES CC1=CC(=O)[C@@H]2C[C@H]1C2(C)C
REMARK SMILES IDX 1 1 2 2 3 3 4 4 5 5 6 6 7 7 8 8 9 9 10 10 11 11
REMARK H PARENT
REMARK Flexibility Score: inf
ROOT
ATOM      1  C   UNL     1      50.121  36.851  32.762  1.00  0.00     0.040 C 
ATOM      2  C   UNL     1      50.129  35.433  32.285  1.00  0.00    -0.066 C 
ATOM      3  C   UNL     1      49.209  34.982  31.389  1.00  0.00     0.047 C 
ATOM      4  C   UNL     1      49.341  33.550  30.966  1.00  0.00     0.159 C 
ATOM      5  O   UNL     1      48.577  33.027  30.114  1.00  0.00    -0.295 OA
ATOM      6  C   UNL     1      50.471  32.771  31.641  1.00  0.00     0.067 C 
ATOM      7  C   UNL     1      50.347  33.142  33.134  1.00  0.00     0.021 C 
ATOM      8  C   UNL     1      51.166  34.409  32.797  1.00  0.00     0.022 C 
ATOM      9  C   UNL     1      51.766  33.632  31.590  1.00  0.00    -0.019 C 
ATOM     10  C   UNL     1      52.076  34.424  30.287  1.00  0.00     0.012 C 
ATOM     11  C   UNL     1      53.028  32.822  31.978  1.00  0.00     0.012 C 
ENDROOT
TORSDOF 0
ENDMDL
MODEL 3
REMARK VINA RESULT:    -4.684      1.657      2.998
REMARK INTER + INTRA:          -4.684
REMARK INTER:                  -4.684
REMARK INTRA:                   0.000
REMARK UNBOUND:                 0.000
REMARK SMILES CC1=CC(=O)[C@@H]2C[C@H]1C2(C)C
REMARK SMILES IDX 1 1 2 2 3 3 4 4 5 5 6 6 7 7 8 8 9 9 10 10 11 11
REMARK H PARENT
REMARK Flexibility Score: inf
ROOT
ATOM      1  C   UNL     1      54.314  33.574  33.108  1.00  0.00     0.040 C 
ATOM      2  C   UNL     1      53.176  33.379  32.158  1.00  0.00    -0.066 C 
ATOM      3  C   UNL     1      52.940  32.173  31.573  1.00  0.00     0.047 C 
ATOM      4  C   UNL     1      51.751  32.097  30.664  1.00  0.00     0.159 C 
ATOM      5  O   UNL     1      51.405  31.028  30.096  1.00  0.00    -0.295 OA
ATOM      6  C   UNL     1      50.987  33.408  30.477  1.00  0.00     0.067 C 
ATOM      7  C   UNL     1      52.092  34.459  30.241  1.00  0.00     0.021 C 
ATOM      8  C   UNL     1      52.226  34.536  31.779  1.00  0.00     0.022 C 
ATOM      9  C   UNL     1      50.752  34.048  31.875  1.00  0.00    -0.019 C 
ATOM     10  C   UNL     1      50.361  33.117  33.058  1.00  0.00     0.012 C 
ATOM     11  C   UNL     1      49.738  35.219  31.824  1.00  0.00     0.012 C 
ENDROOT
TORSDOF 0
ENDMDL
MODEL 4
REMARK VINA RESULT:    -4.537      1.537      2.160
REMARK INTER + INTRA:          -4.537
REMARK INTER:                  -4.537
REMARK INTRA:                   0.000
REMARK UNBOUND:                 0.000
REMARK SMILES CC1=CC(=O)[C@@H]2C[C@H]1C2(C)C
REMARK SMILES IDX 1 1 2 2 3 3 4 4 5 5 6 6 7 7 8 8 9 9 10 10 11 11
REMARK H PARENT
REMARK Flexibility Score: inf
ROOT
ATOM      1  C   UNL     1      48.339  33.138  30.122  1.00  0.00     0.040 C 
ATOM      2  C   UNL     1      49.604  32.999  30.907  1.00  0.00    -0.066 C 
ATOM      3  C   UNL     1      50.459  31.961  30.695  1.00  0.00     0.047 C 
ATOM      4  C   UNL     1      51.708  31.950  31.524  1.00  0.00     0.159 C 
ATOM      5  O   UNL     1      52.594  31.066  31.393  1.00  0.00    -0.295 OA
ATOM      6  C   UNL     1      51.830  33.088  32.537  1.00  0.00     0.067 C 
ATOM      7  C   UNL     1      50.442  33.148  33.208  1.00  0.00     0.021 C 
ATOM      8  C   UNL     1      49.994  34.011  32.006  1.00  0.00     0.022 C 
ATOM      9  C   UNL     1      51.483  34.426  31.823  1.00  0.00    -0.019 C 
ATOM     10  C   UNL     1      52.011  34.651  30.378  1.00  0.00     0.012 C 
ATOM     11  C   UNL     1      51.859  35.664  32.676  1.00  0.00     0.012 C 
ENDROOT
TORSDOF 0
ENDMDL
MODEL 5
REMARK VINA RESULT:    -4.528      2.107      3.058
REMARK INTER + INTRA:          -4.528
REMARK INTER:                  -4.528
REMARK INTRA:                   0.000
REMARK UNBOUND:                 0.000
REMARK SMILES CC1=CC(=O)[C@@H]2C[C@H]1C2(C)C
REMARK SMILES IDX 1 1 2 2 3 3 4 4 5 5 6 6 7 7 8 8 9 9 10 10 11 11
REMARK H PARENT
REMARK Flexibility Score: inf
ROOT
ATOM      1  C   UNL     1      52.872  30.878  31.265  1.00  0.00     0.040 C 
ATOM      2  C   UNL     1      51.901  32.000  31.072  1.00  0.00    -0.066 C 
ATOM      3  C   UNL     1      50.646  31.777  30.594  1.00  0.00     0.047 C 
ATOM      4  C   UNL     1      49.758  32.979  30.474  1.00  0.00     0.159 C 
ATOM      5  O   UNL     1      48.565  32.897  30.083  1.00  0.00    -0.295 OA
ATOM      6  C   UNL     1      50.404  34.309  30.862  1.00  0.00     0.067 C 
ATOM      7  C   UNL     1      51.782  34.278  30.169  1.00  0.00     0.021 C 
ATOM      8  C   UNL     1      52.279  33.464  31.386  1.00  0.00     0.022 C 
ATOM      9  C   UNL     1      51.142  34.124  32.219  1.00  0.00    -0.019 C 
ATOM     10  C   UNL     1      50.454  33.276  33.326  1.00  0.00     0.012 C 
ATOM     11  C   UNL     1      51.576  35.475  32.842  1.00  0.00     0.012 C 
ENDROOT
TORSDOF 0
ENDMDL
MODEL 6
REMARK VINA RESULT:    -4.513      1.432      1.830
REMARK INTER + INTRA:          -4.513
REMARK INTER:                  -4.513
REMARK INTRA:                   0.000
REMARK UNBOUND:                 0.000
REMARK SMILES CC1=CC(=O)[C@@H]2C[C@H]1C2(C)C
REMARK SMILES IDX 1 1 2 2 3 3 4 4 5 5 6 6 7 7 8 8 9 9 10 10 11 11
REMARK H PARENT
REMARK Flexibility Score: inf
ROOT
ATOM      1  C   UNL     1      52.968  30.745  32.392  1.00  0.00     0.040 C 
ATOM      2  C   UNL     1      52.396  32.111  32.183  1.00  0.00    -0.066 C 
ATOM      3  C   UNL     1      53.194  33.180  31.911  1.00  0.00     0.047 C 
ATOM      4  C   UNL     1      52.498  34.489  31.691  1.00  0.00     0.159 C 
ATOM      5  O   UNL     1      53.121  35.541  31.394  1.00  0.00    -0.295 OA
ATOM      6  C   UNL     1      50.977  34.456  31.851  1.00  0.00     0.067 C 
ATOM      7  C   UNL     1      50.752  33.653  33.150  1.00  0.00     0.021 C 
ATOM      8  C   UNL     1      50.878  32.380  32.283  1.00  0.00     0.022 C 
ATOM      9  C   UNL     1      50.423  33.234  31.064  1.00  0.00    -0.019 C 
ATOM     10  C   UNL     1      51.035  32.913  29.671  1.00  0.00     0.012 C 
ATOM     11  C   UNL     1      48.881  33.278  30.918  1.00  0.00     0.012 C 
ENDROOT
TORSDOF 0
ENDMDL
MODEL 7
REMARK VINA RESULT:    -4.444      1.250      3.362
REMARK INTER + INTRA:          -4.444
REMARK INTER:                  -4.444
REMARK INTRA:                   0.000
REMARK UNBOUND:                 0.000
REMARK SMILES CC1=CC(=O)[C@@H]2C[C@H]1C2(C)C
REMARK SMILES IDX 1 1 2 2 3 3 4 4 5 5 6 6 7 7 8 8 9 9 10 10 11 11
REMARK H PARENT
REMARK Flexibility Score: inf
ROOT
ATOM      1  C   UNL     1      49.964  36.776  32.555  1.00  0.00     0.040 C 
ATOM      2  C   UNL     1      51.068  35.821  32.232  1.00  0.00    -0.066 C 
ATOM      3  C   UNL     1      52.145  35.677  33.053  1.00  0.00     0.047 C 
ATOM      4  C   UNL     1      53.169  34.666  32.634  1.00  0.00     0.159 C 
ATOM      5  O   UNL     1      54.188  34.414  33.329  1.00  0.00    -0.295 OA
ATOM      6  C   UNL     1      52.888  33.962  31.306  1.00  0.00     0.067 C 
ATOM      7  C   UNL     1      52.473  35.103  30.353  1.00  0.00     0.021 C 
ATOM      8  C   UNL     1      51.052  34.966  30.946  1.00  0.00     0.022 C 
ATOM      9  C   UNL     1      51.404  33.492  31.300  1.00  0.00    -0.019 C 
ATOM     10  C   UNL     1      50.815  32.888  32.606  1.00  0.00     0.012 C 
ATOM     11  C   UNL     1      51.101  32.517  30.135  1.00  0.00     0.012 C 
ENDROOT
TORSDOF 0
ENDMDL
MODEL 8
REMARK VINA RESULT:    -4.245      1.773      3.439
REMARK INTER + INTRA:          -4.245
REMARK INTER:                  -4.245
REMARK INTRA:                   0.000
REMARK UNBOUND:                 0.000
REMARK SMILES CC1=CC(=O)[C@@H]2C[C@H]1C2(C)C
REMARK SMILES IDX 1 1 2 2 3 3 4 4 5 5 6 6 7 7 8 8 9 9 10 10 11 11
REMARK H PARENT
REMARK Flexibility Score: inf
ROOT
ATOM      1  C   UNL     1      47.597  33.941  31.083  1.00  0.00     0.040 C 
ATOM      2  C   UNL     1      49.089  34.011  30.999  1.00  0.00    -0.066 C 
ATOM      3  C   UNL     1      49.744  35.204  31.006  1.00  0.00     0.047 C 
ATOM      4  C   UNL     1      51.240  35.140  30.948  1.00  0.00     0.159 C 
ATOM      5  O   UNL     1      51.960  36.172  30.988  1.00  0.00    -0.295 OA
ATOM      6  C   UNL     1      51.831  33.734  30.837  1.00  0.00     0.067 C 
ATOM      7  C   UNL     1      50.971  33.046  29.755  1.00  0.00     0.021 C 
ATOM      8  C   UNL     1      49.956  32.738  30.880  1.00  0.00     0.022 C 
ATOM      9  C   UNL     1      51.137  32.822  31.891  1.00  0.00    -0.019 C 
ATOM     10  C   UNL     1      50.856  33.406  33.304  1.00  0.00     0.012 C 
ATOM     11  C   UNL     1      51.863  31.464  32.062  1.00  0.00     0.012 C 
ENDROOT
TORSDOF 0
ENDMDL
MODEL 9
REMARK VINA RESULT:    -4.205      4.264      5.591
REMARK INTER + INTRA:          -4.205
REMARK INTER:                  -4.205
REMARK INTRA:                   0.000
REMARK UNBOUND:                 0.000
REMARK SMILES CC1=CC(=O)[C@@H]2C[C@H]1C2(C)C
REMARK SMILES IDX 1 1 2 2 3 3 4 4 5 5 6 6 7 7 8 8 9 9 10 10 11 11
REMARK H PARENT
REMARK Flexibility Score: inf
ROOT
ATOM      1  C   UNL     1      49.472  33.683  32.294  1.00  0.00     0.040 C 
ATOM      2  C   UNL     1      48.307  34.292  31.582  1.00  0.00    -0.066 C 
ATOM      3  C   UNL     1      48.480  35.245  30.625  1.00  0.00     0.047 C 
ATOM      4  C   UNL     1      47.236  35.755  29.963  1.00  0.00     0.159 C 
ATOM      5  O   UNL     1      47.267  36.607  29.037  1.00  0.00    -0.295 OA
ATOM      6  C   UNL     1      45.926  35.167  30.491  1.00  0.00     0.067 C 
ATOM      7  C   UNL     1      46.079  35.220  32.026  1.00  0.00     0.021 C 
ATOM      8  C   UNL     1      46.852  33.887  31.908  1.00  0.00     0.022 C 
ATOM      9  C   UNL     1      46.080  33.621  30.583  1.00  0.00    -0.019 C 
ATOM     10  C   UNL     1      46.822  32.882  29.434  1.00  0.00     0.012 C 
ATOM     11  C   UNL     1      44.725  32.909  30.823  1.00  0.00     0.012 C 
ENDROOT
TORSDOF 0
ENDMDL
