MODEL 1
REMARK VINA RESULT:    -4.588      0.000      0.000
REMARK INTER + INTRA:          -7.598
REMARK INTER:                  -7.002
REMARK INTRA:                  -0.596
REMARK UNBOUND:                -0.596
REMARK SMILES CCCCCCCCCCC(=O)[O-]
REMARK SMILES IDX 7 1 8 2 9 3 10 4 11 5 12 6 13 7 6 8 5 9 4 10 3 11 2 12 1 13
REMARK H PARENT
REMARK Flexibility Score: inf
ROOT
ATOM      1  C   UNL     1     -20.398  43.929  86.061  1.00  0.00     0.000 C 
ENDROOT
BRANCH   1   2
ATOM      2  C   UNL     1     -20.627  42.851  87.136  1.00  0.00     0.000 C 
BRANCH   2   3
ATOM      3  C   UNL     1     -20.180  41.451  86.680  1.00  0.00     0.006 C 
BRANCH   3   4
ATOM      4  C   UNL     1     -21.256  40.387  86.937  1.00  0.00     0.053 C 
BRANCH   4   5
ATOM      5  C   UNL     1     -20.692  39.001  86.889  1.00  0.00     0.041 C 
ATOM      6  O   UNL     1     -20.188  38.558  85.823  1.00  0.00    -0.550 OA
ATOM      7  O   UNL     1     -20.694  38.207  88.030  1.00  0.00    -0.550 OA
ENDBRANCH   4   5
ENDBRANCH   3   4
ENDBRANCH   2   3
ENDBRANCH   1   2
BRANCH   1   8
ATOM      8  C   UNL     1     -19.177  43.692  85.148  1.00  0.00     0.000 C 
BRANCH   8   9
ATOM      9  C   UNL     1     -17.999  44.664  85.360  1.00  0.00    -0.000 C 
BRANCH   9  10
ATOM     10  C   UNL     1     -17.752  45.650  84.203  1.00  0.00    -0.000 C 
BRANCH  10  11
ATOM     11  C   UNL     1     -18.859  46.711  84.077  1.00  0.00    -0.000 C 
BRANCH  11  12
ATOM     12  C   UNL     1     -19.510  46.718  82.686  1.00  0.00    -0.003 C 
ATOM     13  C   UNL     1     -20.835  45.957  82.646  1.00  0.00     0.004 C 
ENDBRANCH  11  12
ENDBRANCH  10  11
ENDBRANCH   9  10
ENDBRANCH   8   9
ENDBRANCH   1   8
TORSDOF 9
ENDMDL
MODEL 2
REMARK VINA RESULT:    -4.448      1.023      2.301
REMARK INTER + INTRA:          -7.384
REMARK INTER:                  -6.605
REMARK INTRA:                  -0.779
REMARK UNBOUND:                -0.596
REMARK SMILES CCCCCCCCCCC(=O)[O-]
REMARK SMILES IDX 7 1 8 2 9 3 10 4 11 5 12 6 13 7 6 8 5 9 4 10 3 11 2 12 1 13
REMARK H PARENT
REMARK Flexibility Score: inf
ROOT
ATOM      1  C   UNL     1     -20.609  43.537  87.138  1.00  0.00     0.000 C 
ENDROOT
BRANCH   1   2
ATOM      2  C   UNL     1     -20.074  42.409  86.236  1.00  0.00     0.000 C 
BRANCH   2   3
ATOM      3  C   UNL     1     -19.836  41.097  87.002  1.00  0.00     0.006 C 
BRANCH   3   4
ATOM      4  C   UNL     1     -21.060  40.172  86.960  1.00  0.00     0.053 C 
BRANCH   4   5
ATOM      5  C   UNL     1     -20.668  38.736  86.789  1.00  0.00     0.041 C 
ATOM      6  O   UNL     1     -20.815  37.922  87.739  1.00  0.00    -0.550 OA
ATOM      7  O   UNL     1     -20.167  38.290  85.572  1.00  0.00    -0.550 OA
ENDBRANCH   4   5
ENDBRANCH   3   4
ENDBRANCH   2   3
ENDBRANCH   1   2
BRANCH   1   8
ATOM      8  C   UNL     1     -21.716  44.407  86.509  1.00  0.00     0.000 C 
BRANCH   8   9
ATOM      9  C   UNL     1     -21.219  45.640  85.727  1.00  0.00    -0.000 C 
BRANCH   9  10
ATOM     10  C   UNL     1     -20.864  45.377  84.252  1.00  0.00    -0.000 C 
BRANCH  10  11
ATOM     11  C   UNL     1     -19.510  45.984  83.847  1.00  0.00    -0.000 C 
BRANCH  11  12
ATOM     12  C   UNL     1     -18.373  44.951  83.868  1.00  0.00    -0.003 C 
ATOM     13  C   UNL     1     -17.536  45.015  85.145  1.00  0.00     0.004 C 
ENDBRANCH  11  12
ENDBRANCH  10  11
ENDBRANCH   9  10
ENDBRANCH   8   9
ENDBRANCH   1   8
TORSDOF 9
ENDMDL
MODEL 3
REMARK VINA RESULT:    -4.438      1.798      2.677
REMARK INTER + INTRA:          -7.369
REMARK INTER:                  -6.477
REMARK INTRA:                  -0.893
REMARK UNBOUND:                -0.596
REMARK SMILES CCCCCCCCCCC(=O)[O-]
REMARK SMILES IDX 7 1 8 2 9 3 10 4 11 5 12 6 13 7 6 8 5 9 4 10 3 11 2 12 1 13
REMARK H PARENT
REMARK Flexibility Score: inf
ROOT
ATOM      1  C   UNL     1     -21.303  44.721  87.519  1.00  0.00     0.000 C 
ENDROOT
BRANCH   1   2
ATOM      2  C   UNL     1     -22.446  43.694  87.621  1.00  0.00     0.000 C 
BRANCH   2   3
ATOM      3  C   UNL     1     -21.942  42.241  87.622  1.00  0.00     0.006 C 
BRANCH   3   4
ATOM      4  C   UNL     1     -20.719  42.052  88.530  1.00  0.00     0.053 C 
BRANCH   4   5
ATOM      5  C   UNL     1     -19.924  40.842  88.149  1.00  0.00     0.041 C 
ATOM      6  O   UNL     1     -19.383  40.133  89.039  1.00  0.00    -0.550 OA
ATOM      7  O   UNL     1     -19.803  40.478  86.814  1.00  0.00    -0.550 OA
ENDBRANCH   4   5
ENDBRANCH   3   4
ENDBRANCH   2   3
ENDBRANCH   1   2
BRANCH   1   8
ATOM      8  C   UNL     1     -21.170  45.416  86.149  1.00  0.00     0.000 C 
BRANCH   8   9
ATOM      9  C   UNL     1     -20.604  44.534  85.017  1.00  0.00    -0.000 C 
BRANCH   9  10
ATOM     10  C   UNL     1     -19.322  43.759  85.372  1.00  0.00    -0.000 C 
BRANCH  10  11
ATOM     11  C   UNL     1     -18.068  44.650  85.377  1.00  0.00    -0.000 C 
BRANCH  11  12
ATOM     12  C   UNL     1     -17.884  45.412  84.056  1.00  0.00    -0.003 C 
ATOM     13  C   UNL     1     -17.658  46.910  84.261  1.00  0.00     0.004 C 
ENDBRANCH  11  12
ENDBRANCH  10  11
ENDBRANCH   9  10
ENDBRANCH   8   9
ENDBRANCH   1   8
TORSDOF 9
ENDMDL
MODEL 4
REMARK VINA RESULT:    -4.431      0.899      1.266
REMARK INTER + INTRA:          -7.359
REMARK INTER:                  -6.955
REMARK INTRA:                  -0.403
REMARK UNBOUND:                -0.596
REMARK SMILES CCCCCCCCCCC(=O)[O-]
REMARK SMILES IDX 7 1 8 2 9 3 10 4 11 5 12 6 13 7 6 8 5 9 4 10 3 11 2 12 1 13
REMARK H PARENT
REMARK Flexibility Score: inf
ROOT
ATOM      1  C   UNL     1     -19.884  42.982  85.746  1.00  0.00     0.000 C 
ENDROOT
BRANCH   1   2
ATOM      2  C   UNL     1     -20.730  42.628  86.984  1.00  0.00     0.000 C 
BRANCH   2   3
ATOM      3  C   UNL     1     -21.087  41.134  87.054  1.00  0.00     0.006 C 
BRANCH   3   4
ATOM      4  C   UNL     1     -20.743  40.519  88.417  1.00  0.00     0.053 C 
BRANCH   4   5
ATOM      5  C   UNL     1     -20.570  39.033  88.331  1.00  0.00     0.041 C 
ATOM      6  O   UNL     1     -19.999  38.407  89.263  1.00  0.00    -0.550 OA
ATOM      7  O   UNL     1     -21.065  38.336  87.236  1.00  0.00    -0.550 OA
ENDBRANCH   4   5
ENDBRANCH   3   4
ENDBRANCH   2   3
ENDBRANCH   1   2
BRANCH   1   8
ATOM      8  C   UNL     1     -19.487  44.467  85.631  1.00  0.00     0.000 C 
BRANCH   8   9
ATOM      9  C   UNL     1     -18.006  44.726  85.286  1.00  0.00    -0.000 C 
BRANCH   9  10
ATOM     10  C   UNL     1     -17.769  45.736  84.148  1.00  0.00    -0.000 C 
BRANCH  10  11
ATOM     11  C   UNL     1     -18.962  46.682  83.932  1.00  0.00    -0.000 C 
BRANCH  11  12
ATOM     12  C   UNL     1     -19.586  46.531  82.536  1.00  0.00    -0.003 C 
ATOM     13  C   UNL     1     -21.081  46.213  82.586  1.00  0.00     0.004 C 
ENDBRANCH  11  12
ENDBRANCH  10  11
ENDBRANCH   9  10
ENDBRANCH   8   9
ENDBRANCH   1   8
TORSDOF 9
ENDMDL
MODEL 5
REMARK VINA RESULT:    -4.419      3.241      5.580
REMARK INTER + INTRA:          -7.340
REMARK INTER:                  -7.006
REMARK INTRA:                  -0.334
REMARK UNBOUND:                -0.596
REMARK SMILES CCCCCCCCCCC(=O)[O-]
REMARK SMILES IDX 7 1 8 2 9 3 10 4 11 5 12 6 13 7 6 8 5 9 4 10 3 11 2 12 1 13
REMARK H PARENT
REMARK Flexibility Score: inf
ROOT
ATOM      1  C   UNL     1     -19.907  38.243  86.229  1.00  0.00     0.000 C 
ENDROOT
BRANCH   1   2
ATOM      2  C   UNL     1     -20.210  37.802  84.786  1.00  0.00     0.000 C 
BRANCH   2   3
ATOM      3  C   UNL     1     -18.939  37.631  83.936  1.00  0.00     0.006 C 
BRANCH   3   4
ATOM      4  C   UNL     1     -18.035  36.509  84.465  1.00  0.00     0.053 C 
BRANCH   4   5
ATOM      5  C   UNL     1     -16.956  36.156  83.488  1.00  0.00     0.041 C 
ATOM      6  O   UNL     1     -16.131  37.030  83.112  1.00  0.00    -0.550 OA
ATOM      7  O   UNL     1     -16.842  34.854  83.016  1.00  0.00    -0.550 OA
ENDBRANCH   4   5
ENDBRANCH   3   4
ENDBRANCH   2   3
ENDBRANCH   1   2
BRANCH   1   8
ATOM      8  C   UNL     1     -21.118  38.790  87.012  1.00  0.00     0.000 C 
BRANCH   8   9
ATOM      9  C   UNL     1     -20.813  39.973  87.953  1.00  0.00    -0.000 C 
BRANCH   9  10
ATOM     10  C   UNL     1     -21.139  41.364  87.379  1.00  0.00    -0.000 C 
BRANCH  10  11
ATOM     11  C   UNL     1     -20.019  41.917  86.482  1.00  0.00    -0.000 C 
BRANCH  11  12
ATOM     12  C   UNL     1     -20.238  43.391  86.109  1.00  0.00    -0.003 C 
ATOM     13  C   UNL     1     -19.132  43.947  85.213  1.00  0.00     0.004 C 
ENDBRANCH  11  12
ENDBRANCH  10  11
ENDBRANCH   9  10
ENDBRANCH   8   9
ENDBRANCH   1   8
TORSDOF 9
ENDMDL
MODEL 6
REMARK VINA RESULT:    -4.417      1.649      2.623
REMARK INTER + INTRA:          -7.336
REMARK INTER:                  -6.470
REMARK INTRA:                  -0.866
REMARK UNBOUND:                -0.596
REMARK SMILES CCCCCCCCCCC(=O)[O-]
REMARK SMILES IDX 7 1 8 2 9 3 10 4 11 5 12 6 13 7 6 8 5 9 4 10 3 11 2 12 1 13
REMARK H PARENT
REMARK Flexibility Score: inf
ROOT
ATOM      1  C   UNL     1     -20.274  44.336  86.561  1.00  0.00     0.000 C 
ENDROOT
BRANCH   1   2
ATOM      2  C   UNL     1     -19.892  43.090  85.741  1.00  0.00     0.000 C 
BRANCH   2   3
ATOM      3  C   UNL     1     -19.922  41.797  86.572  1.00  0.00     0.006 C 
BRANCH   3   4
ATOM      4  C   UNL     1     -21.021  41.822  87.644  1.00  0.00     0.053 C 
BRANCH   4   5
ATOM      5  C   UNL     1     -20.626  41.051  88.866  1.00  0.00     0.041 C 
ATOM      6  O   UNL     1     -20.682  41.593  90.002  1.00  0.00    -0.550 OA
ATOM      7  O   UNL     1     -20.225  39.726  88.754  1.00  0.00    -0.550 OA
ENDBRANCH   4   5
ENDBRANCH   3   4
ENDBRANCH   2   3
ENDBRANCH   1   2
BRANCH   1   8
ATOM      8  C   UNL     1     -20.891  45.490  85.746  1.00  0.00     0.000 C 
BRANCH   8   9
ATOM      9  C   UNL     1     -20.972  45.251  84.225  1.00  0.00    -0.000 C 
BRANCH   9  10
ATOM     10  C   UNL     1     -19.899  45.977  83.393  1.00  0.00    -0.000 C 
BRANCH  10  11
ATOM     11  C   UNL     1     -19.169  47.073  84.187  1.00  0.00    -0.000 C 
BRANCH  11  12
ATOM     12  C   UNL     1     -17.647  46.866  84.214  1.00  0.00    -0.003 C 
ATOM     13  C   UNL     1     -17.247  45.459  84.658  1.00  0.00     0.004 C 
ENDBRANCH  11  12
ENDBRANCH  10  11
ENDBRANCH   9  10
ENDBRANCH   8   9
ENDBRANCH   1   8
TORSDOF 9
ENDMDL
MODEL 7
REMARK VINA RESULT:    -4.415      5.986      7.637
REMARK INTER + INTRA:          -7.334
REMARK INTER:                  -7.009
REMARK INTRA:                  -0.325
REMARK UNBOUND:                -0.596
REMARK SMILES CCCCCCCCCCC(=O)[O-]
REMARK SMILES IDX 7 1 8 2 9 3 10 4 11 5 12 6 13 7 6 8 5 9 4 10 3 11 2 12 1 13
REMARK H PARENT
REMARK Flexibility Score: inf
ROOT
ATOM      1  C   UNL     1     -20.661  38.455  85.681  1.00  0.00     0.000 C 
ENDROOT
BRANCH   1   2
ATOM      2  C   UNL     1     -19.316  37.758  85.402  1.00  0.00     0.000 C 
BRANCH   2   3
ATOM      3  C   UNL     1     -19.127  37.402  83.918  1.00  0.00     0.006 C 
BRANCH   3   4
ATOM      4  C   UNL     1     -17.647  37.241  83.545  1.00  0.00     0.053 C 
BRANCH   4   5
ATOM      5  C   UNL     1     -17.137  35.869  83.863  1.00  0.00     0.041 C 
ATOM      6  O   UNL     1     -17.192  34.957  82.997  1.00  0.00    -0.550 OA
ATOM      7  O   UNL     1     -16.575  35.605  85.106  1.00  0.00    -0.550 OA
ENDBRANCH   4   5
ENDBRANCH   3   4
ENDBRANCH   2   3
ENDBRANCH   1   2
BRANCH   1   8
ATOM      8  C   UNL     1     -20.923  38.796  87.161  1.00  0.00     0.000 C 
BRANCH   8   9
ATOM      9  C   UNL     1     -20.250  37.857  88.183  1.00  0.00    -0.000 C 
BRANCH   9  10
ATOM     10  C   UNL     1     -20.055  38.455  89.588  1.00  0.00    -0.000 C 
BRANCH  10  11
ATOM     11  C   UNL     1     -18.718  38.045  90.230  1.00  0.00    -0.000 C 
BRANCH  11  12
ATOM     12  C   UNL     1     -18.371  38.895  91.461  1.00  0.00    -0.003 C 
ATOM     13  C   UNL     1     -17.642  40.190  91.102  1.00  0.00     0.004 C 
ENDBRANCH  11  12
ENDBRANCH  10  11
ENDBRANCH   9  10
ENDBRANCH   8   9
ENDBRANCH   1   8
TORSDOF 9
ENDMDL
MODEL 8
REMARK VINA RESULT:    -4.394      6.729      7.886
REMARK INTER + INTRA:          -7.302
REMARK INTER:                  -6.358
REMARK INTRA:                  -0.943
REMARK UNBOUND:                -0.596
REMARK SMILES CCCCCCCCCCC(=O)[O-]
REMARK SMILES IDX 7 1 8 2 9 3 10 4 11 5 12 6 13 7 6 8 5 9 4 10 3 11 2 12 1 13
REMARK H PARENT
REMARK Flexibility Score: inf
ROOT
ATOM      1  C   UNL     1     -26.593  46.828  88.575  1.00  0.00     0.000 C 
ENDROOT
BRANCH   1   2
ATOM      2  C   UNL     1     -26.184  46.208  89.924  1.00  0.00     0.000 C 
BRANCH   2   3
ATOM      3  C   UNL     1     -27.327  45.426  90.591  1.00  0.00     0.006 C 
BRANCH   3   4
ATOM      4  C   UNL     1     -27.002  43.933  90.734  1.00  0.00     0.053 C 
BRANCH   4   5
ATOM      5  C   UNL     1     -28.141  43.069  90.287  1.00  0.00     0.041 C 
ATOM      6  O   UNL     1     -28.205  42.673  89.093  1.00  0.00    -0.550 OA
ATOM      7  O   UNL     1     -29.116  42.675  91.196  1.00  0.00    -0.550 OA
ENDBRANCH   4   5
ENDBRANCH   3   4
ENDBRANCH   2   3
ENDBRANCH   1   2
BRANCH   1   8
ATOM      8  C   UNL     1     -26.169  46.021  87.331  1.00  0.00     0.000 C 
BRANCH   8   9
ATOM      9  C   UNL     1     -25.146  46.718  86.412  1.00  0.00    -0.000 C 
BRANCH   9  10
ATOM     10  C   UNL     1     -23.706  46.763  86.956  1.00  0.00    -0.000 C 
BRANCH  10  11
ATOM     11  C   UNL     1     -23.050  45.374  87.024  1.00  0.00    -0.000 C 
BRANCH  11  12
ATOM     12  C   UNL     1     -22.777  44.922  88.467  1.00  0.00    -0.003 C 
ATOM     13  C   UNL     1     -23.635  43.729  88.888  1.00  0.00     0.004 C 
ENDBRANCH  11  12
ENDBRANCH  10  11
ENDBRANCH   9  10
ENDBRANCH   8   9
ENDBRANCH   1   8
TORSDOF 9
ENDMDL
MODEL 9
REMARK VINA RESULT:    -4.363      1.607      2.272
REMARK INTER + INTRA:          -7.255
REMARK INTER:                  -6.577
REMARK INTRA:                  -0.678
REMARK UNBOUND:                -0.596
REMARK SMILES CCCCCCCCCCC(=O)[O-]
REMARK SMILES IDX 7 1 8 2 9 3 10 4 11 5 12 6 13 7 6 8 5 9 4 10 3 11 2 12 1 13
REMARK H PARENT
REMARK Flexibility Score: inf
ROOT
ATOM      1  C   UNL     1     -19.140  43.580  85.363  1.00  0.00     0.000 C 
ENDROOT
BRANCH   1   2
ATOM      2  C   UNL     1     -20.575  43.731  85.901  1.00  0.00     0.000 C 
BRANCH   2   3
ATOM      3  C   UNL     1     -20.734  43.198  87.335  1.00  0.00     0.006 C 
BRANCH   3   4
ATOM      4  C   UNL     1     -20.538  41.678  87.413  1.00  0.00     0.053 C 
BRANCH   4   5
ATOM      5  C   UNL     1     -20.228  41.227  88.807  1.00  0.00     0.041 C 
ATOM      6  O   UNL     1     -19.323  40.375  89.011  1.00  0.00    -0.550 OA
ATOM      7  O   UNL     1     -20.919  41.768  89.885  1.00  0.00    -0.550 OA
ENDBRANCH   4   5
ENDBRANCH   3   4
ENDBRANCH   2   3
ENDBRANCH   1   2
BRANCH   1   8
ATOM      8  C   UNL     1     -18.310  44.879  85.346  1.00  0.00     0.000 C 
BRANCH   8   9
ATOM      9  C   UNL     1     -18.062  45.482  83.949  1.00  0.00    -0.000 C 
BRANCH   9  10
ATOM     10  C   UNL     1     -18.849  46.771  83.646  1.00  0.00    -0.000 C 
BRANCH  10  11
ATOM     11  C   UNL     1     -19.679  46.674  82.355  1.00  0.00    -0.000 C 
BRANCH  11  12
ATOM     12  C   UNL     1     -21.152  46.335  82.627  1.00  0.00    -0.003 C 
ATOM     13  C   UNL     1     -21.581  46.658  84.059  1.00  0.00     0.004 C 
ENDBRANCH  11  12
ENDBRANCH  10  11
ENDBRANCH   9  10
ENDBRANCH   8   9
ENDBRANCH   1   8
TORSDOF 9
ENDMDL
