MODEL 1
REMARK VINA RESULT:    -5.196      0.000      0.000
REMARK INTER + INTRA:         -10.988
REMARK INTER:                  -9.145
REMARK INTRA:                  -1.842
REMARK UNBOUND:                -1.842
REMARK SMILES CCCCCCCCCCCCCCC(=O)[O-]
REMARK SMILES IDX 9 1 10 2 11 3 12 4 13 5 14 6 15 7 16 8 17 9 8 10 7 11 6 12
REMARK SMILES IDX 5 13 4 14 3 15 2 16 1 17
REMARK H PARENT
REMARK Flexibility Score: inf
ROOT
ATOM      1  C   UNL     1     122.631 178.248 126.076  1.00  0.00     0.000 C 
ENDROOT
BRANCH   1   2
ATOM      2  C   UNL     1     121.464 178.749 125.204  1.00  0.00     0.000 C 
BRANCH   2   3
ATOM      3  C   UNL     1     120.724 179.987 125.752  1.00  0.00     0.000 C 
BRANCH   3   4
ATOM      4  C   UNL     1     119.339 179.708 126.364  1.00  0.00     0.000 C 
BRANCH   4   5
ATOM      5  C   UNL     1     118.518 178.605 125.666  1.00  0.00     0.006 C 
BRANCH   5   6
ATOM      6  C   UNL     1     117.435 179.143 124.712  1.00  0.00     0.053 C 
BRANCH   6   7
ATOM      7  C   UNL     1     117.709 178.794 123.280  1.00  0.00     0.041 C 
ATOM      8  O   UNL     1     116.809 178.274 122.570  1.00  0.00    -0.550 OA
ATOM      9  O   UNL     1     118.970 179.010 122.738  1.00  0.00    -0.550 OA
ENDBRANCH   6   7
ENDBRANCH   5   6
ENDBRANCH   4   5
ENDBRANCH   3   4
ENDBRANCH   2   3
ENDBRANCH   1   2
BRANCH   1  10
ATOM     10  C   UNL     1     123.318 179.335 126.925  1.00  0.00     0.000 C 
BRANCH  10  11
ATOM     11  C   UNL     1     123.384 178.997 128.429  1.00  0.00    -0.000 C 
BRANCH  11  12
ATOM     12  C   UNL     1     121.993 178.972 129.087  1.00  0.00    -0.000 C 
BRANCH  12  13
ATOM     13  C   UNL     1     121.903 177.963 130.243  1.00  0.00    -0.000 C 
BRANCH  13  14
ATOM     14  C   UNL     1     121.283 176.625 129.810  1.00  0.00    -0.000 C 
BRANCH  14  15
ATOM     15  C   UNL     1     120.390 176.809 128.572  1.00  0.00    -0.000 C 
BRANCH  15  16
ATOM     16  C   UNL     1     118.894 176.816 128.920  1.00  0.00    -0.003 C 
ATOM     17  C   UNL     1     118.582 176.063 130.213  1.00  0.00     0.004 C 
ENDBRANCH  15  16
ENDBRANCH  14  15
ENDBRANCH  13  14
ENDBRANCH  12  13
ENDBRANCH  11  12
ENDBRANCH  10  11
ENDBRANCH   1  10
TORSDOF 13
ENDMDL
MODEL 2
REMARK VINA RESULT:    -4.901      1.291      2.469
REMARK INTER + INTRA:         -10.468
REMARK INTER:                  -8.767
REMARK INTRA:                  -1.700
REMARK UNBOUND:                -1.842
REMARK SMILES CCCCCCCCCCCCCCC(=O)[O-]
REMARK SMILES IDX 9 1 10 2 11 3 12 4 13 5 14 6 15 7 16 8 17 9 8 10 7 11 6 12
REMARK SMILES IDX 5 13 4 14 3 15 2 16 1 17
REMARK H PARENT
REMARK Flexibility Score: inf
ROOT
ATOM      1  C   UNL     1     121.714 179.020 127.825  1.00  0.00     0.000 C 
ENDROOT
BRANCH   1   2
ATOM      2  C   UNL     1     122.995 179.210 126.989  1.00  0.00     0.000 C 
BRANCH   2   3
ATOM      3  C   UNL     1     123.190 178.184 125.853  1.00  0.00     0.000 C 
BRANCH   3   4
ATOM      4  C   UNL     1     121.897 177.721 125.156  1.00  0.00     0.000 C 
BRANCH   4   5
ATOM      5  C   UNL     1     121.416 178.615 123.995  1.00  0.00     0.006 C 
BRANCH   5   6
ATOM      6  C   UNL     1     120.321 179.621 124.396  1.00  0.00     0.053 C 
BRANCH   6   7
ATOM      7  C   UNL     1     118.961 178.994 124.455  1.00  0.00     0.041 C 
ATOM      8  O   UNL     1     118.548 178.474 125.524  1.00  0.00    -0.550 OA
ATOM      9  O   UNL     1     118.163 178.953 123.319  1.00  0.00    -0.550 OA
ENDBRANCH   6   7
ENDBRANCH   5   6
ENDBRANCH   4   5
ENDBRANCH   3   4
ENDBRANCH   2   3
ENDBRANCH   1   2
BRANCH   1  10
ATOM     10  C   UNL     1     121.944 178.910 129.344  1.00  0.00     0.000 C 
BRANCH  10  11
ATOM     11  C   UNL     1     123.072 177.931 129.732  1.00  0.00    -0.000 C 
BRANCH  11  12
ATOM     12  C   UNL     1     122.531 176.624 130.338  1.00  0.00    -0.000 C 
BRANCH  12  13
ATOM     13  C   UNL     1     121.155 176.803 130.999  1.00  0.00    -0.000 C 
BRANCH  13  14
ATOM     14  C   UNL     1     120.246 175.580 130.810  1.00  0.00    -0.000 C 
BRANCH  14  15
ATOM     15  C   UNL     1     118.872 175.997 130.262  1.00  0.00    -0.000 C 
BRANCH  15  16
ATOM     16  C   UNL     1     118.974 176.752 128.928  1.00  0.00    -0.003 C 
ATOM     17  C   UNL     1     119.597 175.910 127.815  1.00  0.00     0.004 C 
ENDBRANCH  15  16
ENDBRANCH  14  15
ENDBRANCH  13  14
ENDBRANCH  12  13
ENDBRANCH  11  12
ENDBRANCH  10  11
ENDBRANCH   1  10
TORSDOF 13
ENDMDL
MODEL 3
REMARK VINA RESULT:    -4.847      1.437      3.763
REMARK INTER + INTRA:         -10.374
REMARK INTER:                  -8.246
REMARK INTRA:                  -2.128
REMARK UNBOUND:                -1.842
REMARK SMILES CCCCCCCCCCCCCCC(=O)[O-]
REMARK SMILES IDX 9 1 10 2 11 3 12 4 13 5 14 6 15 7 16 8 17 9 8 10 7 11 6 12
REMARK SMILES IDX 5 13 4 14 3 15 2 16 1 17
REMARK H PARENT
REMARK Flexibility Score: inf
ROOT
ATOM      1  C   UNL     1     121.773 175.769 129.337  1.00  0.00     0.000 C 
ENDROOT
BRANCH   1   2
ATOM      2  C   UNL     1     120.409 176.051 129.995  1.00  0.00     0.000 C 
BRANCH   2   3
ATOM      3  C   UNL     1     119.392 176.786 129.097  1.00  0.00     0.000 C 
BRANCH   3   4
ATOM      4  C   UNL     1     119.983 177.450 127.839  1.00  0.00     0.000 C 
BRANCH   4   5
ATOM      5  C   UNL     1     119.005 178.330 127.036  1.00  0.00     0.006 C 
BRANCH   5   6
ATOM      6  C   UNL     1     119.675 179.522 126.328  1.00  0.00     0.053 C 
BRANCH   6   7
ATOM      7  C   UNL     1     119.411 179.534 124.853  1.00  0.00     0.041 C 
ATOM      8  O   UNL     1     118.266 179.253 124.410  1.00  0.00    -0.550 OA
ATOM      9  O   UNL     1     120.438 179.822 123.962  1.00  0.00    -0.550 OA
ENDBRANCH   6   7
ENDBRANCH   5   6
ENDBRANCH   4   5
ENDBRANCH   3   4
ENDBRANCH   2   3
ENDBRANCH   1   2
BRANCH   1  10
ATOM     10  C   UNL     1     122.971 176.471 130.006  1.00  0.00     0.000 C 
BRANCH  10  11
ATOM     11  C   UNL     1     122.591 177.765 130.758  1.00  0.00    -0.000 C 
BRANCH  11  12
ATOM     12  C   UNL     1     122.609 179.002 129.843  1.00  0.00    -0.000 C 
BRANCH  12  13
ATOM     13  C   UNL     1     123.731 178.945 128.793  1.00  0.00    -0.000 C 
BRANCH  13  14
ATOM     14  C   UNL     1     123.222 179.220 127.370  1.00  0.00    -0.000 C 
BRANCH  14  15
ATOM     15  C   UNL     1     123.883 178.270 126.358  1.00  0.00    -0.000 C 
BRANCH  15  16
ATOM     16  C   UNL     1     122.867 177.629 125.401  1.00  0.00    -0.003 C 
ATOM     17  C   UNL     1     122.642 176.144 125.683  1.00  0.00     0.004 C 
ENDBRANCH  15  16
ENDBRANCH  14  15
ENDBRANCH  13  14
ENDBRANCH  12  13
ENDBRANCH  11  12
ENDBRANCH  10  11
ENDBRANCH   1  10
TORSDOF 13
ENDMDL
MODEL 4
REMARK VINA RESULT:    -4.829      1.757      4.161
REMARK INTER + INTRA:         -10.341
REMARK INTER:                  -8.199
REMARK INTRA:                  -2.143
REMARK UNBOUND:                -1.842
REMARK SMILES CCCCCCCCCCCCCCC(=O)[O-]
REMARK SMILES IDX 9 1 10 2 11 3 12 4 13 5 14 6 15 7 16 8 17 9 8 10 7 11 6 12
REMARK SMILES IDX 5 13 4 14 3 15 2 16 1 17
REMARK H PARENT
REMARK Flexibility Score: inf
ROOT
ATOM      1  C   UNL     1     122.588 176.402 129.711  1.00  0.00     0.000 C 
ENDROOT
BRANCH   1   2
ATOM      2  C   UNL     1     121.338 175.511 129.580  1.00  0.00     0.000 C 
BRANCH   2   3
ATOM      3  C   UNL     1     120.100 176.005 130.357  1.00  0.00     0.000 C 
BRANCH   3   4
ATOM      4  C   UNL     1     118.890 176.396 129.487  1.00  0.00     0.000 C 
BRANCH   4   5
ATOM      5  C   UNL     1     119.165 176.480 127.973  1.00  0.00     0.006 C 
BRANCH   5   6
ATOM      6  C   UNL     1     119.178 177.918 127.420  1.00  0.00     0.053 C 
BRANCH   6   7
ATOM      7  C   UNL     1     118.813 177.976 125.967  1.00  0.00     0.041 C 
ATOM      8  O   UNL     1     119.560 178.573 125.149  1.00  0.00    -0.550 OA
ATOM      9  O   UNL     1     117.629 177.400 125.522  1.00  0.00    -0.550 OA
ENDBRANCH   6   7
ENDBRANCH   5   6
ENDBRANCH   4   5
ENDBRANCH   3   4
ENDBRANCH   2   3
ENDBRANCH   1   2
BRANCH   1  10
ATOM     10  C   UNL     1     122.336 177.778 130.356  1.00  0.00     0.000 C 
BRANCH  10  11
ATOM     11  C   UNL     1     122.210 178.929 129.335  1.00  0.00    -0.000 C 
BRANCH  11  12
ATOM     12  C   UNL     1     123.350 178.923 128.300  1.00  0.00    -0.000 C 
BRANCH  12  13
ATOM     13  C   UNL     1     122.837 178.804 126.856  1.00  0.00    -0.000 C 
BRANCH  13  14
ATOM     14  C   UNL     1     123.901 178.249 125.896  1.00  0.00    -0.000 C 
BRANCH  14  15
ATOM     15  C   UNL     1     123.407 176.964 125.213  1.00  0.00    -0.000 C 
BRANCH  15  16
ATOM     16  C   UNL     1     122.205 176.337 125.936  1.00  0.00    -0.003 C 
ATOM     17  C   UNL     1     122.164 174.815 125.808  1.00  0.00     0.004 C 
ENDBRANCH  15  16
ENDBRANCH  14  15
ENDBRANCH  13  14
ENDBRANCH  12  13
ENDBRANCH  11  12
ENDBRANCH  10  11
ENDBRANCH   1  10
TORSDOF 13
ENDMDL
MODEL 5
REMARK VINA RESULT:    -4.820      2.764      5.155
REMARK INTER + INTRA:         -10.325
REMARK INTER:                  -8.372
REMARK INTRA:                  -1.953
REMARK UNBOUND:                -1.842
REMARK SMILES CCCCCCCCCCCCCCC(=O)[O-]
REMARK SMILES IDX 9 1 10 2 11 3 12 4 13 5 14 6 15 7 16 8 17 9 8 10 7 11 6 12
REMARK SMILES IDX 5 13 4 14 3 15 2 16 1 17
REMARK H PARENT
REMARK Flexibility Score: inf
ROOT
ATOM      1  C   UNL     1     121.802 176.611 129.948  1.00  0.00     0.000 C 
ENDROOT
BRANCH   1   2
ATOM      2  C   UNL     1     120.526 176.253 130.734  1.00  0.00     0.000 C 
BRANCH   2   3
ATOM      3  C   UNL     1     119.226 176.253 129.902  1.00  0.00     0.000 C 
BRANCH   3   4
ATOM      4  C   UNL     1     119.271 177.091 128.611  1.00  0.00     0.000 C 
BRANCH   4   5
ATOM      5  C   UNL     1     119.026 176.307 127.306  1.00  0.00     0.006 C 
BRANCH   5   6
ATOM      6  C   UNL     1     120.309 175.749 126.663  1.00  0.00     0.053 C 
BRANCH   6   7
ATOM      7  C   UNL     1     120.374 174.252 126.720  1.00  0.00     0.041 C 
ATOM      8  O   UNL     1     120.170 173.649 127.806  1.00  0.00    -0.550 OA
ATOM      9  O   UNL     1     120.695 173.525 125.580  1.00  0.00    -0.550 OA
ENDBRANCH   6   7
ENDBRANCH   5   6
ENDBRANCH   4   5
ENDBRANCH   3   4
ENDBRANCH   2   3
ENDBRANCH   1   2
BRANCH   1  10
ATOM     10  C   UNL     1     122.354 178.023 130.219  1.00  0.00     0.000 C 
BRANCH  10  11
ATOM     11  C   UNL     1     122.319 178.950 128.985  1.00  0.00    -0.000 C 
BRANCH  11  12
ATOM     12  C   UNL     1     122.854 178.260 127.718  1.00  0.00    -0.000 C 
BRANCH  12  13
ATOM     13  C   UNL     1     122.397 178.958 126.426  1.00  0.00    -0.000 C 
BRANCH  13  14
ATOM     14  C   UNL     1     120.998 179.579 126.554  1.00  0.00    -0.000 C 
BRANCH  14  15
ATOM     15  C   UNL     1     120.326 179.706 125.178  1.00  0.00    -0.000 C 
BRANCH  15  16
ATOM     16  C   UNL     1     121.040 178.882 124.095  1.00  0.00    -0.003 C 
ATOM     17  C   UNL     1     120.748 179.382 122.681  1.00  0.00     0.004 C 
ENDBRANCH  15  16
ENDBRANCH  14  15
ENDBRANCH  13  14
ENDBRANCH  12  13
ENDBRANCH  11  12
ENDBRANCH  10  11
ENDBRANCH   1  10
TORSDOF 13
ENDMDL
MODEL 6
REMARK VINA RESULT:    -4.787      1.783      3.679
REMARK INTER + INTRA:         -10.268
REMARK INTER:                  -8.174
REMARK INTRA:                  -2.094
REMARK UNBOUND:                -1.842
REMARK SMILES CCCCCCCCCCCCCCC(=O)[O-]
REMARK SMILES IDX 9 1 10 2 11 3 12 4 13 5 14 6 15 7 16 8 17 9 8 10 7 11 6 12
REMARK SMILES IDX 5 13 4 14 3 15 2 16 1 17
REMARK H PARENT
REMARK Flexibility Score: inf
ROOT
ATOM      1  C   UNL     1     122.498 176.720 130.040  1.00  0.00     0.000 C 
ENDROOT
BRANCH   1   2
ATOM      2  C   UNL     1     122.920 178.065 129.417  1.00  0.00     0.000 C 
BRANCH   2   3
ATOM      3  C   UNL     1     121.754 178.977 128.984  1.00  0.00     0.000 C 
BRANCH   3   4
ATOM      4  C   UNL     1     121.493 179.038 127.467  1.00  0.00     0.000 C 
BRANCH   4   5
ATOM      5  C   UNL     1     120.060 179.433 127.059  1.00  0.00     0.006 C 
BRANCH   5   6
ATOM      6  C   UNL     1     119.685 179.023 125.623  1.00  0.00     0.053 C 
BRANCH   6   7
ATOM      7  C   UNL     1     118.202 178.954 125.416  1.00  0.00     0.041 C 
ATOM      8  O   UNL     1     117.647 177.854 125.158  1.00  0.00    -0.550 OA
ATOM      9  O   UNL     1     117.436 180.112 125.473  1.00  0.00    -0.550 OA
ENDBRANCH   6   7
ENDBRANCH   5   6
ENDBRANCH   4   5
ENDBRANCH   3   4
ENDBRANCH   2   3
ENDBRANCH   1   2
BRANCH   1  10
ATOM     10  C   UNL     1     121.384 176.820 131.100  1.00  0.00     0.000 C 
BRANCH  10  11
ATOM     11  C   UNL     1     120.388 175.641 131.065  1.00  0.00    -0.000 C 
BRANCH  11  12
ATOM     12  C   UNL     1     118.953 176.095 130.745  1.00  0.00    -0.000 C 
BRANCH  12  13
ATOM     13  C   UNL     1     118.452 175.564 129.392  1.00  0.00    -0.000 C 
BRANCH  13  14
ATOM     14  C   UNL     1     119.004 176.365 128.203  1.00  0.00    -0.000 C 
BRANCH  14  15
ATOM     15  C   UNL     1     119.578 175.428 127.129  1.00  0.00    -0.000 C 
BRANCH  15  16
ATOM     16  C   UNL     1     121.103 175.554 126.992  1.00  0.00    -0.003 C 
ATOM     17  C   UNL     1     121.834 174.242 127.277  1.00  0.00     0.004 C 
ENDBRANCH  15  16
ENDBRANCH  14  15
ENDBRANCH  13  14
ENDBRANCH  12  13
ENDBRANCH  11  12
ENDBRANCH  10  11
ENDBRANCH   1  10
TORSDOF 13
ENDMDL
MODEL 7
REMARK VINA RESULT:    -4.764      2.358      5.318
REMARK INTER + INTRA:         -10.227
REMARK INTER:                  -8.379
REMARK INTRA:                  -1.848
REMARK UNBOUND:                -1.842
REMARK SMILES CCCCCCCCCCCCCCC(=O)[O-]
REMARK SMILES IDX 9 1 10 2 11 3 12 4 13 5 14 6 15 7 16 8 17 9 8 10 7 11 6 12
REMARK SMILES IDX 5 13 4 14 3 15 2 16 1 17
REMARK H PARENT
REMARK Flexibility Score: inf
ROOT
ATOM      1  C   UNL     1     121.540 176.472 130.249  1.00  0.00     0.000 C 
ENDROOT
BRANCH   1   2
ATOM      2  C   UNL     1     122.044 177.809 130.825  1.00  0.00     0.000 C 
BRANCH   2   3
ATOM      3  C   UNL     1     122.237 178.935 129.788  1.00  0.00     0.000 C 
BRANCH   3   4
ATOM      4  C   UNL     1     123.566 178.894 129.011  1.00  0.00     0.000 C 
BRANCH   4   5
ATOM      5  C   UNL     1     123.433 178.879 127.475  1.00  0.00     0.006 C 
BRANCH   5   6
ATOM      6  C   UNL     1     122.905 177.549 126.907  1.00  0.00     0.053 C 
BRANCH   6   7
ATOM      7  C   UNL     1     123.404 177.281 125.519  1.00  0.00     0.041 C 
ATOM      8  O   UNL     1     122.772 176.503 124.756  1.00  0.00    -0.550 OA
ATOM      9  O   UNL     1     124.587 177.862 125.079  1.00  0.00    -0.550 OA
ENDBRANCH   6   7
ENDBRANCH   5   6
ENDBRANCH   4   5
ENDBRANCH   3   4
ENDBRANCH   2   3
ENDBRANCH   1   2
BRANCH   1  10
ATOM     10  C   UNL     1     120.169 176.014 130.780  1.00  0.00     0.000 C 
BRANCH  10  11
ATOM     11  C   UNL     1     119.079 175.925 129.691  1.00  0.00    -0.000 C 
BRANCH  11  12
ATOM     12  C   UNL     1     119.105 177.132 128.736  1.00  0.00    -0.000 C 
BRANCH  12  13
ATOM     13  C   UNL     1     119.279 176.719 127.266  1.00  0.00    -0.000 C 
BRANCH  13  14
ATOM     14  C   UNL     1     119.001 177.874 126.292  1.00  0.00    -0.000 C 
BRANCH  14  15
ATOM     15  C   UNL     1     119.655 179.175 126.783  1.00  0.00    -0.000 C 
BRANCH  15  16
ATOM     16  C   UNL     1     120.022 180.122 125.630  1.00  0.00    -0.003 C 
ATOM     17  C   UNL     1     120.552 179.384 124.401  1.00  0.00     0.004 C 
ENDBRANCH  15  16
ENDBRANCH  14  15
ENDBRANCH  13  14
ENDBRANCH  12  13
ENDBRANCH  11  12
ENDBRANCH  10  11
ENDBRANCH   1  10
TORSDOF 13
ENDMDL
MODEL 8
REMARK VINA RESULT:    -4.749      1.785      3.615
REMARK INTER + INTRA:         -10.200
REMARK INTER:                  -8.130
REMARK INTRA:                  -2.070
REMARK UNBOUND:                -1.842
REMARK SMILES CCCCCCCCCCCCCCC(=O)[O-]
REMARK SMILES IDX 9 1 10 2 11 3 12 4 13 5 14 6 15 7 16 8 17 9 8 10 7 11 6 12
REMARK SMILES IDX 5 13 4 14 3 15 2 16 1 17
REMARK H PARENT
REMARK Flexibility Score: inf
ROOT
ATOM      1  C   UNL     1     119.673 175.858 126.919  1.00  0.00     0.000 C 
ENDROOT
BRANCH   1   2
ATOM      2  C   UNL     1     118.958 177.178 126.576  1.00  0.00     0.000 C 
BRANCH   2   3
ATOM      3  C   UNL     1     119.441 178.408 127.372  1.00  0.00     0.000 C 
BRANCH   3   4
ATOM      4  C   UNL     1     119.390 179.747 126.611  1.00  0.00     0.000 C 
BRANCH   4   5
ATOM      5  C   UNL     1     119.144 179.634 125.094  1.00  0.00     0.006 C 
BRANCH   5   6
ATOM      6  C   UNL     1     120.432 179.656 124.250  1.00  0.00     0.053 C 
BRANCH   6   7
ATOM      7  C   UNL     1     120.178 179.324 122.810  1.00  0.00     0.041 C 
ATOM      8  O   UNL     1     119.052 178.894 122.446  1.00  0.00    -0.550 OA
ATOM      9  O   UNL     1     121.197 179.455 121.874  1.00  0.00    -0.550 OA
ENDBRANCH   6   7
ENDBRANCH   5   6
ENDBRANCH   4   5
ENDBRANCH   3   4
ENDBRANCH   2   3
ENDBRANCH   1   2
BRANCH   1  10
ATOM     10  C   UNL     1     121.073 176.022 127.541  1.00  0.00     0.000 C 
BRANCH  10  11
ATOM     11  C   UNL     1     122.227 175.796 126.541  1.00  0.00    -0.000 C 
BRANCH  11  12
ATOM     12  C   UNL     1     122.438 177.000 125.606  1.00  0.00    -0.000 C 
BRANCH  12  13
ATOM     13  C   UNL     1     123.672 177.835 125.986  1.00  0.00    -0.000 C 
BRANCH  13  14
ATOM     14  C   UNL     1     123.299 179.196 126.592  1.00  0.00    -0.000 C 
BRANCH  14  15
ATOM     15  C   UNL     1     123.005 179.065 128.095  1.00  0.00    -0.000 C 
BRANCH  15  16
ATOM     16  C   UNL     1     124.160 178.408 128.867  1.00  0.00    -0.003 C 
ATOM     17  C   UNL     1     123.676 177.450 129.955  1.00  0.00     0.004 C 
ENDBRANCH  15  16
ENDBRANCH  14  15
ENDBRANCH  13  14
ENDBRANCH  12  13
ENDBRANCH  11  12
ENDBRANCH  10  11
ENDBRANCH   1  10
TORSDOF 13
ENDMDL
MODEL 9
REMARK VINA RESULT:    -4.725      2.654      5.289
REMARK INTER + INTRA:         -10.158
REMARK INTER:                  -8.355
REMARK INTRA:                  -1.804
REMARK UNBOUND:                -1.842
REMARK SMILES CCCCCCCCCCCCCCC(=O)[O-]
REMARK SMILES IDX 9 1 10 2 11 3 12 4 13 5 14 6 15 7 16 8 17 9 8 10 7 11 6 12
REMARK SMILES IDX 5 13 4 14 3 15 2 16 1 17
REMARK H PARENT
REMARK Flexibility Score: inf
ROOT
ATOM      1  C   UNL     1     123.515 178.176 125.743  1.00  0.00     0.000 C 
ENDROOT
BRANCH   1   2
ATOM      2  C   UNL     1     123.396 179.251 126.840  1.00  0.00     0.000 C 
BRANCH   2   3
ATOM      3  C   UNL     1     122.934 178.729 128.217  1.00  0.00     0.000 C 
BRANCH   3   4
ATOM      4  C   UNL     1     121.449 178.973 128.548  1.00  0.00     0.000 C 
BRANCH   4   5
ATOM      5  C   UNL     1     120.521 177.758 128.352  1.00  0.00     0.006 C 
BRANCH   5   6
ATOM      6  C   UNL     1     121.055 176.457 128.980  1.00  0.00     0.053 C 
BRANCH   6   7
ATOM      7  C   UNL     1     121.117 175.329 127.995  1.00  0.00     0.041 C 
ATOM      8  O   UNL     1     120.086 174.655 127.735  1.00  0.00    -0.550 OA
ATOM      9  O   UNL     1     122.323 174.997 127.390  1.00  0.00    -0.550 OA
ENDBRANCH   6   7
ENDBRANCH   5   6
ENDBRANCH   4   5
ENDBRANCH   3   4
ENDBRANCH   2   3
ENDBRANCH   1   2
BRANCH   1  10
ATOM     10  C   UNL     1     122.177 177.740 125.116  1.00  0.00     0.000 C 
BRANCH  10  11
ATOM     11  C   UNL     1     121.932 178.324 123.708  1.00  0.00    -0.000 C 
BRANCH  11  12
ATOM     12  C   UNL     1     120.645 179.164 123.637  1.00  0.00    -0.000 C 
BRANCH  12  13
ATOM     13  C   UNL     1     120.443 180.043 124.883  1.00  0.00    -0.000 C 
BRANCH  13  14
ATOM     14  C   UNL     1     119.088 179.798 125.563  1.00  0.00    -0.000 C 
BRANCH  14  15
ATOM     15  C   UNL     1     118.340 178.635 124.894  1.00  0.00    -0.000 C 
BRANCH  15  16
ATOM     16  C   UNL     1     117.093 179.099 124.126  1.00  0.00    -0.003 C 
ATOM     17  C   UNL     1     117.084 178.631 122.671  1.00  0.00     0.004 C 
ENDBRANCH  15  16
ENDBRANCH  14  15
ENDBRANCH  13  14
ENDBRANCH  12  13
ENDBRANCH  11  12
ENDBRANCH  10  11
ENDBRANCH   1  10
TORSDOF 13
ENDMDL
