MODEL 1
REMARK VINA RESULT:    -6.405      0.000      0.000
REMARK INTER + INTRA:          -8.205
REMARK INTER:                  -7.903
REMARK INTRA:                  -0.302
REMARK UNBOUND:                -0.302
REMARK SMILES Oc1cc(O)c2cc(O)c(-c3cc(O)c(O)c(O)c3)[o+]c2c1
REMARK SMILES IDX 10 1 20 2 21 3 22 4 2 5 3 6 4 7 6 8 7 9 8 10 11 11 12 12
REMARK SMILES IDX 13 13 19 14 15 15 17 16 14 17 16 19 18 21 9 23 1 25 5 27
REMARK H PARENT 14 18 16 20 18 22 9 24 1 26 5 28
REMARK Flexibility Score: inf
ROOT
ATOM      1  C   UNL     1       2.638 -12.049 -32.584  1.00  0.00     0.402 A 
ATOM      2  O   UNL     1       1.532 -11.365 -32.303  1.00  0.00    -0.202 OA
ATOM      3  C   UNL     1       0.931 -11.404 -31.119  1.00  0.00     0.368 A 
ATOM      4  C   UNL     1      -0.226 -10.647 -30.918  1.00  0.00     0.162 A 
ATOM      5  C   UNL     1      -0.877 -10.669 -29.681  1.00  0.00     0.128 A 
ATOM      6  C   UNL     1      -0.368 -11.449 -28.641  1.00  0.00     0.093 A 
ATOM      7  C   UNL     1       0.790 -12.217 -28.816  1.00  0.00     0.136 A 
ATOM      8  C   UNL     1       1.454 -12.201 -30.071  1.00  0.00     0.125 A 
ATOM      9  C   UNL     1       2.611 -12.948 -30.342  1.00  0.00     0.078 A 
ATOM     10  C   UNL     1       3.206 -12.886 -31.606  1.00  0.00     0.223 A 
ENDROOT
BRANCH   1  11
ATOM     11  C   UNL     1       3.220 -11.913 -33.939  1.00  0.00     0.091 A 
ATOM     12  C   UNL     1       2.619 -12.518 -35.058  1.00  0.00     0.068 A 
ATOM     13  C   UNL     1       3.198 -12.396 -36.329  1.00  0.00     0.162 A 
ATOM     14  C   UNL     1       4.425 -11.214 -34.107  1.00  0.00     0.068 A 
ATOM     15  C   UNL     1       4.393 -11.675 -36.489  1.00  0.00     0.200 A 
ATOM     16  C   UNL     1       5.006 -11.088 -35.375  1.00  0.00     0.162 A 
BRANCH  13  17
ATOM     17  O   UNL     1       2.591 -12.994 -37.433  1.00  0.00    -0.504 OA
ATOM     18  H   UNL     1       1.969 -13.788 -37.332  1.00  0.00     0.293 HD
ENDBRANCH  13  17
BRANCH  15  19
ATOM     19  O   UNL     1       4.984 -11.536 -37.744  1.00  0.00    -0.502 OA
ATOM     20  H   UNL     1       4.590 -10.941 -38.463  1.00  0.00     0.293 HD
ENDBRANCH  15  19
BRANCH  16  21
ATOM     21  O   UNL     1       6.196 -10.380 -35.537  1.00  0.00    -0.504 OA
ATOM     22  H   UNL     1       7.054 -10.842 -35.816  1.00  0.00     0.293 HD
ENDBRANCH  16  21
ENDBRANCH   1  11
BRANCH  10  23
ATOM     23  O   UNL     1       4.327 -13.665 -31.891  1.00  0.00    -0.500 OA
ATOM     24  H   UNL     1       4.380 -14.238 -32.724  1.00  0.00     0.294 HD
ENDBRANCH  10  23
BRANCH   5  25
ATOM     25  O   UNL     1      -2.031  -9.916 -29.473  1.00  0.00    -0.507 OA
ATOM     26  H   UNL     1      -2.772  -9.880 -30.163  1.00  0.00     0.293 HD
ENDBRANCH   5  25
BRANCH   7  27
ATOM     27  O   UNL     1       1.236 -12.968 -27.726  1.00  0.00    -0.507 OA
ATOM     28  H   UNL     1       2.197 -13.018 -27.422  1.00  0.00     0.293 HD
ENDBRANCH   7  27
TORSDOF 7
ENDMDL
MODEL 2
REMARK VINA RESULT:    -6.404      0.990      3.114
REMARK INTER + INTRA:          -8.204
REMARK INTER:                  -7.887
REMARK INTRA:                  -0.317
REMARK UNBOUND:                -0.302
REMARK SMILES Oc1cc(O)c2cc(O)c(-c3cc(O)c(O)c(O)c3)[o+]c2c1
REMARK SMILES IDX 10 1 20 2 21 3 22 4 2 5 3 6 4 7 6 8 7 9 8 10 11 11 12 12
REMARK SMILES IDX 13 13 19 14 15 15 17 16 14 17 16 19 18 21 9 23 1 25 5 27
REMARK H PARENT 14 18 16 20 18 22 9 24 1 26 5 28
REMARK Flexibility Score: inf
ROOT
ATOM      1  C   UNL     1       2.257 -11.500 -32.751  1.00  0.00     0.402 A 
ATOM      2  O   UNL     1       2.650 -12.232 -31.713  1.00  0.00    -0.202 OA
ATOM      3  C   UNL     1       2.007 -12.259 -30.552  1.00  0.00     0.368 A 
ATOM      4  C   UNL     1       2.496 -13.064 -29.519  1.00  0.00     0.162 A 
ATOM      5  C   UNL     1       1.836 -13.111 -28.288  1.00  0.00     0.128 A 
ATOM      6  C   UNL     1       0.680 -12.352 -28.089  1.00  0.00     0.093 A 
ATOM      7  C   UNL     1       0.169 -11.538 -29.107  1.00  0.00     0.136 A 
ATOM      8  C   UNL     1       0.837 -11.484 -30.358  1.00  0.00     0.125 A 
ATOM      9  C   UNL     1       0.405 -10.686 -31.429  1.00  0.00     0.078 A 
ATOM     10  C   UNL     1       1.120 -10.680 -32.631  1.00  0.00     0.223 A 
ENDROOT
BRANCH   1  11
ATOM     11  C   UNL     1       3.055 -11.564 -33.996  1.00  0.00     0.091 A 
ATOM     12  C   UNL     1       4.296 -10.911 -34.106  1.00  0.00     0.068 A 
ATOM     13  C   UNL     1       5.026 -10.965 -35.301  1.00  0.00     0.162 A 
ATOM     14  C   UNL     1       2.541 -12.244 -35.112  1.00  0.00     0.068 A 
ATOM     15  C   UNL     1       4.512 -11.667 -36.405  1.00  0.00     0.200 A 
ATOM     16  C   UNL     1       3.268 -12.302 -36.308  1.00  0.00     0.162 A 
BRANCH  13  17
ATOM     17  O   UNL     1       6.258 -10.319 -35.398  1.00  0.00    -0.504 OA
ATOM     18  H   UNL     1       6.325  -9.309 -35.453  1.00  0.00     0.293 HD
ENDBRANCH  13  17
BRANCH  15  19
ATOM     19  O   UNL     1       5.222 -11.739 -37.603  1.00  0.00    -0.502 OA
ATOM     20  H   UNL     1       4.892 -11.296 -38.453  1.00  0.00     0.293 HD
ENDBRANCH  15  19
BRANCH  16  21
ATOM     21  O   UNL     1       2.759 -12.991 -37.408  1.00  0.00    -0.504 OA
ATOM     22  H   UNL     1       1.884 -12.723 -37.843  1.00  0.00     0.293 HD
ENDBRANCH  16  21
ENDBRANCH   1  11
BRANCH  10  23
ATOM     23  O   UNL     1       0.719  -9.851 -33.680  1.00  0.00    -0.500 OA
ATOM     24  H   UNL     1      -0.259  -9.676 -33.875  1.00  0.00     0.294 HD
ENDBRANCH  10  23
BRANCH   5  25
ATOM     25  O   UNL     1       2.318 -13.912 -27.255  1.00  0.00    -0.507 OA
ATOM     26  H   UNL     1       2.636 -14.859 -27.423  1.00  0.00     0.293 HD
ENDBRANCH   5  25
BRANCH   7  27
ATOM     27  O   UNL     1      -0.993 -10.812 -28.828  1.00  0.00    -0.507 OA
ATOM     28  H   UNL     1      -1.137  -9.846 -29.083  1.00  0.00     0.293 HD
ENDBRANCH   7  27
TORSDOF 7
ENDMDL
MODEL 3
REMARK VINA RESULT:    -6.391      0.262      1.807
REMARK INTER + INTRA:          -8.188
REMARK INTER:                  -7.861
REMARK INTRA:                  -0.327
REMARK UNBOUND:                -0.302
REMARK SMILES Oc1cc(O)c2cc(O)c(-c3cc(O)c(O)c(O)c3)[o+]c2c1
REMARK SMILES IDX 10 1 20 2 21 3 22 4 2 5 3 6 4 7 6 8 7 9 8 10 11 11 12 12
REMARK SMILES IDX 13 13 19 14 15 15 17 16 14 17 16 19 18 21 9 23 1 25 5 27
REMARK H PARENT 14 18 16 20 18 22 9 24 1 26 5 28
REMARK Flexibility Score: inf
ROOT
ATOM      1  C   UNL     1       2.865 -12.010 -32.694  1.00  0.00     0.402 A 
ATOM      2  O   UNL     1       1.716 -11.394 -32.429  1.00  0.00    -0.202 OA
ATOM      3  C   UNL     1       1.105 -11.462 -31.252  1.00  0.00     0.368 A 
ATOM      4  C   UNL     1      -0.099 -10.777 -31.069  1.00  0.00     0.162 A 
ATOM      5  C   UNL     1      -0.762 -10.831 -29.840  1.00  0.00     0.128 A 
ATOM      6  C   UNL     1      -0.218 -11.572 -28.788  1.00  0.00     0.093 A 
ATOM      7  C   UNL     1       0.988 -12.268 -28.945  1.00  0.00     0.136 A 
ATOM      8  C   UNL     1       1.663 -12.218 -30.193  1.00  0.00     0.125 A 
ATOM      9  C   UNL     1       2.867 -12.894 -30.445  1.00  0.00     0.078 A 
ATOM     10  C   UNL     1       3.472 -12.804 -31.703  1.00  0.00     0.223 A 
ENDROOT
BRANCH   1  11
ATOM     11  C   UNL     1       3.453 -11.847 -34.043  1.00  0.00     0.091 A 
ATOM     12  C   UNL     1       4.597 -11.057 -34.253  1.00  0.00     0.068 A 
ATOM     13  C   UNL     1       5.126 -10.898 -35.542  1.00  0.00     0.162 A 
ATOM     14  C   UNL     1       2.826 -12.447 -35.146  1.00  0.00     0.068 A 
ATOM     15  C   UNL     1       4.503 -11.520 -36.637  1.00  0.00     0.200 A 
ATOM     16  C   UNL     1       3.351 -12.292 -36.436  1.00  0.00     0.162 A 
BRANCH  13  17
ATOM     17  O   UNL     1       6.264 -10.117 -35.738  1.00  0.00    -0.504 OA
ATOM     18  H   UNL     1       7.176 -10.535 -35.882  1.00  0.00     0.293 HD
ENDBRANCH  13  17
BRANCH  15  19
ATOM     19  O   UNL     1       5.013 -11.380 -37.926  1.00  0.00    -0.502 OA
ATOM     20  H   UNL     1       4.648 -10.695 -38.579  1.00  0.00     0.293 HD
ENDBRANCH  15  19
BRANCH  16  21
ATOM     21  O   UNL     1       2.732 -12.902 -37.526  1.00  0.00    -0.504 OA
ATOM     22  H   UNL     1       2.547 -12.394 -38.383  1.00  0.00     0.293 HD
ENDBRANCH  16  21
ENDBRANCH   1  11
BRANCH  10  23
ATOM     23  O   UNL     1       4.643 -13.514 -31.969  1.00  0.00    -0.500 OA
ATOM     24  H   UNL     1       5.512 -13.306 -31.493  1.00  0.00     0.294 HD
ENDBRANCH  10  23
BRANCH   5  25
ATOM     25  O   UNL     1      -1.962 -10.149 -29.651  1.00  0.00    -0.507 OA
ATOM     26  H   UNL     1      -2.016  -9.322 -29.069  1.00  0.00     0.293 HD
ENDBRANCH   5  25
BRANCH   7  27
ATOM     27  O   UNL     1       1.466 -12.982 -27.844  1.00  0.00    -0.507 OA
ATOM     28  H   UNL     1       2.298 -13.555 -27.853  1.00  0.00     0.293 HD
ENDBRANCH   7  27
TORSDOF 7
ENDMDL
MODEL 4
REMARK VINA RESULT:    -6.371      1.190      7.142
REMARK INTER + INTRA:          -8.162
REMARK INTER:                  -7.830
REMARK INTRA:                  -0.333
REMARK UNBOUND:                -0.302
REMARK SMILES Oc1cc(O)c2cc(O)c(-c3cc(O)c(O)c(O)c3)[o+]c2c1
REMARK SMILES IDX 10 1 20 2 21 3 22 4 2 5 3 6 4 7 6 8 7 9 8 10 11 11 12 12
REMARK SMILES IDX 13 13 19 14 15 15 17 16 14 17 16 19 18 21 9 23 1 25 5 27
REMARK H PARENT 14 18 16 20 18 22 9 24 1 26 5 28
REMARK Flexibility Score: inf
ROOT
ATOM      1  C   UNL     1       2.828 -11.684 -31.807  1.00  0.00     0.402 A 
ATOM      2  O   UNL     1       2.358 -12.182 -32.947  1.00  0.00    -0.202 OA
ATOM      3  C   UNL     1       2.992 -12.074 -34.109  1.00  0.00     0.368 A 
ATOM      4  C   UNL     1       2.419 -12.634 -35.253  1.00  0.00     0.162 A 
ATOM      5  C   UNL     1       3.068 -12.535 -36.488  1.00  0.00     0.128 A 
ATOM      6  C   UNL     1       4.296 -11.875 -36.577  1.00  0.00     0.093 A 
ATOM      7  C   UNL     1       4.892 -11.306 -35.445  1.00  0.00     0.136 A 
ATOM      8  C   UNL     1       4.236 -11.401 -34.190  1.00  0.00     0.125 A 
ATOM      9  C   UNL     1       4.752 -10.849 -33.007  1.00  0.00     0.078 A 
ATOM     10  C   UNL     1       4.044 -10.978 -31.807  1.00  0.00     0.223 A 
ENDROOT
BRANCH   1  11
ATOM     11  C   UNL     1       2.030 -11.881 -30.575  1.00  0.00     0.091 A 
ATOM     12  C   UNL     1       2.427 -12.797 -29.584  1.00  0.00     0.068 A 
ATOM     13  C   UNL     1       1.646 -12.985 -28.435  1.00  0.00     0.162 A 
ATOM     14  C   UNL     1       0.824 -11.182 -30.414  1.00  0.00     0.068 A 
ATOM     15  C   UNL     1       0.451 -12.263 -28.273  1.00  0.00     0.200 A 
ATOM     16  C   UNL     1       0.041 -11.365 -29.266  1.00  0.00     0.162 A 
BRANCH  13  17
ATOM     17  O   UNL     1       2.051 -13.891 -27.456  1.00  0.00    -0.504 OA
ATOM     18  H   UNL     1       2.466 -14.784 -27.698  1.00  0.00     0.293 HD
ENDBRANCH  13  17
BRANCH  15  19
ATOM     19  O   UNL     1      -0.339 -12.430 -27.137  1.00  0.00    -0.502 OA
ATOM     20  H   UNL     1      -0.271 -13.253 -26.549  1.00  0.00     0.293 HD
ENDBRANCH  15  19
BRANCH  16  21
ATOM     21  O   UNL     1      -1.148 -10.657 -29.106  1.00  0.00    -0.504 OA
ATOM     22  H   UNL     1      -1.467  -9.989 -29.799  1.00  0.00     0.293 HD
ENDBRANCH  16  21
ENDBRANCH   1  11
BRANCH  10  23
ATOM     23  O   UNL     1       4.532 -10.388 -30.640  1.00  0.00    -0.500 OA
ATOM     24  H   UNL     1       4.782  -9.407 -30.604  1.00  0.00     0.294 HD
ENDBRANCH  10  23
BRANCH   5  25
ATOM     25  O   UNL     1       2.502 -13.091 -37.633  1.00  0.00    -0.507 OA
ATOM     26  H   UNL     1       1.762 -12.621 -38.141  1.00  0.00     0.293 HD
ENDBRANCH   5  25
BRANCH   7  27
ATOM     27  O   UNL     1       6.122 -10.666 -35.619  1.00  0.00    -0.507 OA
ATOM     28  H   UNL     1       6.698 -10.322 -34.864  1.00  0.00     0.293 HD
ENDBRANCH   7  27
TORSDOF 7
ENDMDL
MODEL 5
REMARK VINA RESULT:    -6.043      2.512      3.960
REMARK INTER + INTRA:          -7.759
REMARK INTER:                  -7.378
REMARK INTRA:                  -0.381
REMARK UNBOUND:                -0.302
REMARK SMILES Oc1cc(O)c2cc(O)c(-c3cc(O)c(O)c(O)c3)[o+]c2c1
REMARK SMILES IDX 10 1 20 2 21 3 22 4 2 5 3 6 4 7 6 8 7 9 8 10 11 11 12 12
REMARK SMILES IDX 13 13 19 14 15 15 17 16 14 17 16 19 18 21 9 23 1 25 5 27
REMARK H PARENT 14 18 16 20 18 22 9 24 1 26 5 28
REMARK Flexibility Score: inf
ROOT
ATOM      1  C   UNL     1       3.937 -10.602 -33.779  1.00  0.00     0.402 A 
ATOM      2  O   UNL     1       3.975 -10.388 -32.467  1.00  0.00    -0.202 OA
ATOM      3  C   UNL     1       3.456 -11.224 -31.575  1.00  0.00     0.368 A 
ATOM      4  C   UNL     1       3.549 -10.914 -30.216  1.00  0.00     0.162 A 
ATOM      5  C   UNL     1       3.013 -11.778 -29.257  1.00  0.00     0.128 A 
ATOM      6  C   UNL     1       2.385 -12.959 -29.658  1.00  0.00     0.093 A 
ATOM      7  C   UNL     1       2.279 -13.294 -31.014  1.00  0.00     0.136 A 
ATOM      8  C   UNL     1       2.819 -12.418 -31.992  1.00  0.00     0.125 A 
ATOM      9  C   UNL     1       2.747 -12.665 -33.372  1.00  0.00     0.078 A 
ATOM     10  C   UNL     1       3.297 -11.752 -34.277  1.00  0.00     0.223 A 
ENDROOT
BRANCH   1  11
ATOM     11  C   UNL     1       4.560  -9.598 -34.671  1.00  0.00     0.091 A 
ATOM     12  C   UNL     1       5.924  -9.665 -35.008  1.00  0.00     0.068 A 
ATOM     13  C   UNL     1       6.501  -8.691 -35.837  1.00  0.00     0.162 A 
ATOM     14  C   UNL     1       3.791  -8.524 -35.147  1.00  0.00     0.068 A 
ATOM     15  C   UNL     1       5.716  -7.633 -36.326  1.00  0.00     0.200 A 
ATOM     16  C   UNL     1       4.363  -7.550 -35.976  1.00  0.00     0.162 A 
BRANCH  13  17
ATOM     17  O   UNL     1       7.852  -8.770 -36.170  1.00  0.00    -0.504 OA
ATOM     18  H   UNL     1       8.398  -7.940 -36.373  1.00  0.00     0.293 HD
ENDBRANCH  13  17
BRANCH  15  19
ATOM     19  O   UNL     1       6.267  -6.656 -37.155  1.00  0.00    -0.502 OA
ATOM     20  H   UNL     1       5.744  -5.837 -37.444  1.00  0.00     0.293 HD
ENDBRANCH  15  19
BRANCH  16  21
ATOM     21  O   UNL     1       3.590  -6.495 -36.458  1.00  0.00    -0.504 OA
ATOM     22  H   UNL     1       3.503  -5.624 -35.946  1.00  0.00     0.293 HD
ENDBRANCH  16  21
ENDBRANCH   1  11
BRANCH  10  23
ATOM     23  O   UNL     1       3.184 -11.973 -35.650  1.00  0.00    -0.500 OA
ATOM     24  H   UNL     1       2.714 -11.313 -36.258  1.00  0.00     0.294 HD
ENDBRANCH  10  23
BRANCH   5  25
ATOM     25  O   UNL     1       3.102 -11.475 -27.900  1.00  0.00    -0.507 OA
ATOM     26  H   UNL     1       2.290 -11.504 -27.296  1.00  0.00     0.293 HD
ENDBRANCH   5  25
BRANCH   7  27
ATOM     27  O   UNL     1       1.638 -14.494 -31.332  1.00  0.00    -0.507 OA
ATOM     28  H   UNL     1       0.668 -14.569 -31.600  1.00  0.00     0.293 HD
ENDBRANCH   7  27
TORSDOF 7
ENDMDL
MODEL 6
REMARK VINA RESULT:    -5.972      3.832      6.399
REMARK INTER + INTRA:          -7.671
REMARK INTER:                  -7.296
REMARK INTRA:                  -0.374
REMARK UNBOUND:                -0.302
REMARK SMILES Oc1cc(O)c2cc(O)c(-c3cc(O)c(O)c(O)c3)[o+]c2c1
REMARK SMILES IDX 10 1 20 2 21 3 22 4 2 5 3 6 4 7 6 8 7 9 8 10 11 11 12 12
REMARK SMILES IDX 13 13 19 14 15 15 17 16 14 17 16 19 18 21 9 23 1 25 5 27
REMARK H PARENT 14 18 16 20 18 22 9 24 1 26 5 28
REMARK Flexibility Score: inf
ROOT
ATOM      1  C   UNL     1       1.955 -12.103 -27.377  1.00  0.00     0.402 A 
ATOM      2  O   UNL     1       2.782 -11.121 -27.028  1.00  0.00    -0.202 OA
ATOM      3  C   UNL     1       3.255 -10.969 -25.796  1.00  0.00     0.368 A 
ATOM      4  C   UNL     1       4.123  -9.907 -25.527  1.00  0.00     0.162 A 
ATOM      5  C   UNL     1       4.636  -9.725 -24.239  1.00  0.00     0.128 A 
ATOM      6  C   UNL     1       4.283 -10.610 -23.218  1.00  0.00     0.093 A 
ATOM      7  C   UNL     1       3.415 -11.682 -23.462  1.00  0.00     0.136 A 
ATOM      8  C   UNL     1       2.889 -11.870 -24.766  1.00  0.00     0.125 A 
ATOM      9  C   UNL     1       2.004 -12.907 -25.099  1.00  0.00     0.078 A 
ATOM     10  C   UNL     1       1.521 -13.024 -26.406  1.00  0.00     0.223 A 
ENDROOT
BRANCH   1  11
ATOM     11  C   UNL     1       1.505 -12.172 -28.786  1.00  0.00     0.091 A 
ATOM     12  C   UNL     1       0.388 -11.446 -29.235  1.00  0.00     0.068 A 
ATOM     13  C   UNL     1      -0.035 -11.542 -30.568  1.00  0.00     0.162 A 
ATOM     14  C   UNL     1       2.172 -13.021 -29.683  1.00  0.00     0.068 A 
ATOM     15  C   UNL     1       0.653 -12.378 -31.463  1.00  0.00     0.200 A 
ATOM     16  C   UNL     1       1.754 -13.119 -31.017  1.00  0.00     0.162 A 
BRANCH  13  17
ATOM     17  O   UNL     1      -1.142 -10.813 -31.004  1.00  0.00    -0.504 OA
ATOM     18  H   UNL     1      -1.487 -10.012 -30.488  1.00  0.00     0.293 HD
ENDBRANCH  13  17
BRANCH  15  19
ATOM     19  O   UNL     1       0.254 -12.486 -32.795  1.00  0.00    -0.502 OA
ATOM     20  H   UNL     1       0.556 -11.827 -33.503  1.00  0.00     0.293 HD
ENDBRANCH  15  19
BRANCH  16  21
ATOM     21  O   UNL     1       2.430 -13.952 -31.907  1.00  0.00    -0.504 OA
ATOM     22  H   UNL     1       3.425 -13.856 -32.073  1.00  0.00     0.293 HD
ENDBRANCH  16  21
ENDBRANCH   1  11
BRANCH  10  23
ATOM     23  O   UNL     1       0.603 -14.026 -26.727  1.00  0.00    -0.500 OA
ATOM     24  H   UNL     1       0.411 -14.793 -26.094  1.00  0.00     0.294 HD
ENDBRANCH  10  23
BRANCH   5  25
ATOM     25  O   UNL     1       5.502  -8.669 -23.964  1.00  0.00    -0.507 OA
ATOM     26  H   UNL     1       6.425  -8.827 -23.579  1.00  0.00     0.293 HD
ENDBRANCH   5  25
BRANCH   7  27
ATOM     27  O   UNL     1       3.114 -12.523 -22.387  1.00  0.00    -0.507 OA
ATOM     28  H   UNL     1       2.287 -12.441 -21.813  1.00  0.00     0.293 HD
ENDBRANCH   7  27
TORSDOF 7
ENDMDL
MODEL 7
REMARK VINA RESULT:    -5.929      3.805      6.408
REMARK INTER + INTRA:          -7.617
REMARK INTER:                  -7.233
REMARK INTRA:                  -0.384
REMARK UNBOUND:                -0.302
REMARK SMILES Oc1cc(O)c2cc(O)c(-c3cc(O)c(O)c(O)c3)[o+]c2c1
REMARK SMILES IDX 10 1 20 2 21 3 22 4 2 5 3 6 4 7 6 8 7 9 8 10 11 11 12 12
REMARK SMILES IDX 13 13 19 14 15 15 17 16 14 17 16 19 18 21 9 23 1 25 5 27
REMARK H PARENT 14 18 16 20 18 22 9 24 1 26 5 28
REMARK Flexibility Score: inf
ROOT
ATOM      1  C   UNL     1       1.895 -12.139 -27.379  1.00  0.00     0.402 A 
ATOM      2  O   UNL     1       2.733 -11.158 -27.054  1.00  0.00    -0.202 OA
ATOM      3  C   UNL     1       3.185 -10.962 -25.821  1.00  0.00     0.368 A 
ATOM      4  C   UNL     1       4.066  -9.904 -25.579  1.00  0.00     0.162 A 
ATOM      5  C   UNL     1       4.558  -9.678 -24.290  1.00  0.00     0.128 A 
ATOM      6  C   UNL     1       4.169 -10.513 -23.240  1.00  0.00     0.093 A 
ATOM      7  C   UNL     1       3.287 -11.579 -23.456  1.00  0.00     0.136 A 
ATOM      8  C   UNL     1       2.783 -11.812 -24.762  1.00  0.00     0.125 A 
ATOM      9  C   UNL     1       1.886 -12.848 -25.069  1.00  0.00     0.078 A 
ATOM     10  C   UNL     1       1.427 -13.011 -26.380  1.00  0.00     0.223 A 
ENDROOT
BRANCH   1  11
ATOM     11  C   UNL     1       1.472 -12.259 -28.793  1.00  0.00     0.091 A 
ATOM     12  C   UNL     1       2.175 -13.072 -29.701  1.00  0.00     0.068 A 
ATOM     13  C   UNL     1       1.771 -13.155 -31.041  1.00  0.00     0.162 A 
ATOM     14  C   UNL     1       0.381 -11.506 -29.254  1.00  0.00     0.068 A 
ATOM     15  C   UNL     1       0.664 -12.414 -31.487  1.00  0.00     0.200 A 
ATOM     16  C   UNL     1      -0.027 -11.587 -30.592  1.00  0.00     0.162 A 
BRANCH  13  17
ATOM     17  O   UNL     1       2.471 -13.968 -31.932  1.00  0.00    -0.504 OA
ATOM     18  H   UNL     1       3.476 -14.084 -31.868  1.00  0.00     0.293 HD
ENDBRANCH  13  17
BRANCH  15  19
ATOM     19  O   UNL     1       0.242 -12.484 -32.814  1.00  0.00    -0.502 OA
ATOM     20  H   UNL     1       0.778 -12.080 -33.573  1.00  0.00     0.293 HD
ENDBRANCH  15  19
BRANCH  16  21
ATOM     21  O   UNL     1      -1.120 -10.848 -31.040  1.00  0.00    -0.504 OA
ATOM     22  H   UNL     1      -2.010 -10.869 -30.556  1.00  0.00     0.293 HD
ENDBRANCH  16  21
ENDBRANCH   1  11
BRANCH  10  23
ATOM     23  O   UNL     1       0.497 -14.010 -26.676  1.00  0.00    -0.500 OA
ATOM     24  H   UNL     1      -0.495 -13.815 -26.725  1.00  0.00     0.294 HD
ENDBRANCH  10  23
BRANCH   5  25
ATOM     25  O   UNL     1       5.436  -8.625 -24.041  1.00  0.00    -0.507 OA
ATOM     26  H   UNL     1       5.722  -7.988 -24.775  1.00  0.00     0.293 HD
ENDBRANCH   5  25
BRANCH   7  27
ATOM     27  O   UNL     1       2.950 -12.369 -22.354  1.00  0.00    -0.507 OA
ATOM     28  H   UNL     1       2.233 -13.079 -22.359  1.00  0.00     0.293 HD
ENDBRANCH   7  27
TORSDOF 7
ENDMDL
MODEL 8
REMARK VINA RESULT:    -5.898      2.373      3.114
REMARK INTER + INTRA:          -7.579
REMARK INTER:                  -7.249
REMARK INTRA:                  -0.331
REMARK UNBOUND:                -0.302
REMARK SMILES Oc1cc(O)c2cc(O)c(-c3cc(O)c(O)c(O)c3)[o+]c2c1
REMARK SMILES IDX 10 1 20 2 21 3 22 4 2 5 3 6 4 7 6 8 7 9 8 10 11 11 12 12
REMARK SMILES IDX 13 13 19 14 15 15 17 16 14 17 16 19 18 21 9 23 1 25 5 27
REMARK H PARENT 14 18 16 20 18 22 9 24 1 26 5 28
REMARK Flexibility Score: inf
ROOT
ATOM      1  C   UNL     1       3.037 -11.582 -31.527  1.00  0.00     0.402 A 
ATOM      2  O   UNL     1       3.526 -10.880 -30.509  1.00  0.00    -0.202 OA
ATOM      3  C   UNL     1       3.300 -11.184 -29.237  1.00  0.00     0.368 A 
ATOM      4  C   UNL     1       3.861 -10.386 -28.236  1.00  0.00     0.162 A 
ATOM      5  C   UNL     1       3.640 -10.687 -26.888  1.00  0.00     0.128 A 
ATOM      6  C   UNL     1       2.856 -11.789 -26.540  1.00  0.00     0.093 A 
ATOM      7  C   UNL     1       2.283 -12.605 -27.524  1.00  0.00     0.136 A 
ATOM      8  C   UNL     1       2.502 -12.303 -28.894  1.00  0.00     0.125 A 
ATOM      9  C   UNL     1       1.957 -13.056 -29.946  1.00  0.00     0.078 A 
ATOM     10  C   UNL     1       2.212 -12.694 -31.272  1.00  0.00     0.223 A 
ENDROOT
BRANCH   1  11
ATOM     11  C   UNL     1       3.370 -11.147 -32.903  1.00  0.00     0.091 A 
ATOM     12  C   UNL     1       4.285 -11.863 -33.696  1.00  0.00     0.068 A 
ATOM     13  C   UNL     1       4.604 -11.422 -34.988  1.00  0.00     0.162 A 
ATOM     14  C   UNL     1       2.806  -9.966 -33.410  1.00  0.00     0.068 A 
ATOM     15  C   UNL     1       4.017 -10.250 -35.494  1.00  0.00     0.200 A 
ATOM     16  C   UNL     1       3.120  -9.522 -34.701  1.00  0.00     0.162 A 
BRANCH  13  17
ATOM     17  O   UNL     1       5.509 -12.141 -35.769  1.00  0.00    -0.504 OA
ATOM     18  H   UNL     1       5.611 -13.145 -35.673  1.00  0.00     0.293 HD
ENDBRANCH  13  17
BRANCH  15  19
ATOM     19  O   UNL     1       4.315  -9.794 -36.777  1.00  0.00    -0.502 OA
ATOM     20  H   UNL     1       3.954 -10.249 -37.608  1.00  0.00     0.293 HD
ENDBRANCH  15  19
BRANCH  16  21
ATOM     21  O   UNL     1       2.545  -8.357 -35.204  1.00  0.00    -0.504 OA
ATOM     22  H   UNL     1       2.553  -8.146 -36.195  1.00  0.00     0.293 HD
ENDBRANCH  16  21
ENDBRANCH   1  11
BRANCH  10  23
ATOM     23  O   UNL     1       1.631 -13.412 -32.318  1.00  0.00    -0.500 OA
ATOM     24  H   UNL     1       1.897 -13.256 -33.283  1.00  0.00     0.294 HD
ENDBRANCH  10  23
BRANCH   5  25
ATOM     25  O   UNL     1       4.196  -9.895 -25.885  1.00  0.00    -0.507 OA
ATOM     26  H   UNL     1       5.155  -9.574 -25.934  1.00  0.00     0.293 HD
ENDBRANCH   5  25
BRANCH   7  27
ATOM     27  O   UNL     1       1.516 -13.690 -27.093  1.00  0.00    -0.507 OA
ATOM     28  H   UNL     1       0.548 -13.838 -27.339  1.00  0.00     0.293 HD
ENDBRANCH   7  27
TORSDOF 7
ENDMDL
MODEL 9
REMARK VINA RESULT:    -5.886      3.978      6.511
REMARK INTER + INTRA:          -7.564
REMARK INTER:                  -7.182
REMARK INTRA:                  -0.382
REMARK UNBOUND:                -0.302
REMARK SMILES Oc1cc(O)c2cc(O)c(-c3cc(O)c(O)c(O)c3)[o+]c2c1
REMARK SMILES IDX 10 1 20 2 21 3 22 4 2 5 3 6 4 7 6 8 7 9 8 10 11 11 12 12
REMARK SMILES IDX 13 13 19 14 15 15 17 16 14 17 16 19 18 21 9 23 1 25 5 27
REMARK H PARENT 14 18 16 20 18 22 9 24 1 26 5 28
REMARK Flexibility Score: inf
ROOT
ATOM      1  C   UNL     1       2.563 -11.638 -27.534  1.00  0.00     0.402 A 
ATOM      2  O   UNL     1       2.234 -12.370 -26.473  1.00  0.00    -0.202 OA
ATOM      3  C   UNL     1       2.756 -12.182 -25.266  1.00  0.00     0.368 A 
ATOM      4  C   UNL     1       2.345 -13.001 -24.211  1.00  0.00     0.162 A 
ATOM      5  C   UNL     1       2.878 -12.822 -22.931  1.00  0.00     0.128 A 
ATOM      6  C   UNL     1       3.823 -11.819 -22.705  1.00  0.00     0.093 A 
ATOM      7  C   UNL     1       4.251 -10.985 -23.745  1.00  0.00     0.136 A 
ATOM      8  C   UNL     1       3.716 -11.164 -25.047  1.00  0.00     0.125 A 
ATOM      9  C   UNL     1       4.096 -10.384 -26.151  1.00  0.00     0.078 A 
ATOM     10  C   UNL     1       3.529 -10.624 -27.406  1.00  0.00     0.223 A 
ENDROOT
BRANCH   1  11
ATOM     11  C   UNL     1       1.902 -11.939 -28.825  1.00  0.00     0.091 A 
ATOM     12  C   UNL     1       0.773 -11.219 -29.255  1.00  0.00     0.068 A 
ATOM     13  C   UNL     1       0.148 -11.534 -30.470  1.00  0.00     0.162 A 
ATOM     14  C   UNL     1       2.374 -13.001 -29.611  1.00  0.00     0.068 A 
ATOM     15  C   UNL     1       0.643 -12.585 -31.261  1.00  0.00     0.200 A 
ATOM     16  C   UNL     1       1.754 -13.319 -30.827  1.00  0.00     0.162 A 
BRANCH  13  17
ATOM     17  O   UNL     1      -0.967 -10.810 -30.891  1.00  0.00    -0.504 OA
ATOM     18  H   UNL     1      -1.406 -10.117 -30.295  1.00  0.00     0.293 HD
ENDBRANCH  13  17
BRANCH  15  19
ATOM     19  O   UNL     1       0.041 -12.914 -32.474  1.00  0.00    -0.502 OA
ATOM     20  H   UNL     1       0.518 -13.462 -33.182  1.00  0.00     0.293 HD
ENDBRANCH  15  19
BRANCH  16  21
ATOM     21  O   UNL     1       2.237 -14.366 -31.610  1.00  0.00    -0.504 OA
ATOM     22  H   UNL     1       1.612 -15.028 -32.055  1.00  0.00     0.293 HD
ENDBRANCH  16  21
ENDBRANCH   1  11
BRANCH  10  23
ATOM     23  O   UNL     1       3.942  -9.882 -28.514  1.00  0.00    -0.500 OA
ATOM     24  H   UNL     1       4.463 -10.304 -29.273  1.00  0.00     0.294 HD
ENDBRANCH  10  23
BRANCH   5  25
ATOM     25  O   UNL     1       2.472 -13.635 -21.875  1.00  0.00    -0.507 OA
ATOM     26  H   UNL     1       1.603 -13.469 -21.381  1.00  0.00     0.293 HD
ENDBRANCH   5  25
BRANCH   7  27
ATOM     27  O   UNL     1       5.198 -10.004 -23.435  1.00  0.00    -0.507 OA
ATOM     28  H   UNL     1       5.430  -9.226 -24.034  1.00  0.00     0.293 HD
ENDBRANCH   7  27
TORSDOF 7
ENDMDL
