MODEL 1
REMARK VINA RESULT:    -4.591      0.000      0.000
REMARK INTER + INTRA:          -4.591
REMARK INTER:                  -4.591
REMARK INTRA:                   0.000
REMARK UNBOUND:                 0.000
REMARK SMILES CC(C)=C1CC[C@H](C)CC1=O
REMARK SMILES IDX 8 1 7 2 6 3 5 4 4 5 2 6 1 7 3 8 10 9 11 10 9 11
REMARK H PARENT
REMARK Flexibility Score: inf
ROOT
ATOM      1  C   UNL     1      -6.029   2.471  -9.783  1.00  0.00     0.008 C 
ATOM      2  C   UNL     1      -6.315   1.697  -8.485  1.00  0.00    -0.006 C 
ATOM      3  C   UNL     1      -7.307   0.541  -8.703  1.00  0.00     0.008 C 
ATOM      4  C   UNL     1      -6.738  -0.583  -9.585  1.00  0.00     0.039 C 
ATOM      5  C   UNL     1      -5.353  -1.040  -9.144  1.00  0.00    -0.006 C 
ATOM      6  C   UNL     1      -4.937  -2.325  -9.346  1.00  0.00    -0.070 C 
ATOM      7  C   UNL     1      -3.588  -2.810  -8.866  1.00  0.00     0.039 C 
ATOM      8  C   UNL     1      -5.827  -3.339 -10.030  1.00  0.00     0.039 C 
ATOM      9  C   UNL     1      -4.451   0.015  -8.598  1.00  0.00     0.159 C 
ATOM     10  O   UNL     1      -3.203  -0.037  -8.770  1.00  0.00    -0.295 OA
ATOM     11  C   UNL     1      -5.024   1.176  -7.838  1.00  0.00     0.084 C 
ENDROOT
TORSDOF 0
ENDMDL
MODEL 2
REMARK VINA RESULT:    -4.543      8.333      9.357
REMARK INTER + INTRA:          -4.543
REMARK INTER:                  -4.543
REMARK INTRA:                   0.000
REMARK UNBOUND:                 0.000
REMARK SMILES CC(C)=C1CC[C@H](C)CC1=O
REMARK SMILES IDX 8 1 7 2 6 3 5 4 4 5 2 6 1 7 3 8 10 9 11 10 9 11
REMARK H PARENT
REMARK Flexibility Score: inf
ROOT
ATOM      1  C   UNL     1      -0.433  -2.832 -19.489  1.00  0.00     0.008 C 
ATOM      2  C   UNL     1      -1.322  -1.604 -19.231  1.00  0.00    -0.006 C 
ATOM      3  C   UNL     1      -2.821  -1.948 -19.286  1.00  0.00     0.008 C 
ATOM      4  C   UNL     1      -3.269  -2.870 -18.140  1.00  0.00     0.039 C 
ATOM      5  C   UNL     1      -2.802  -2.387 -16.772  1.00  0.00    -0.006 C 
ATOM      6  C   UNL     1      -3.528  -2.649 -15.645  1.00  0.00    -0.070 C 
ATOM      7  C   UNL     1      -3.108  -2.130 -14.289  1.00  0.00     0.039 C 
ATOM      8  C   UNL     1      -4.813  -3.444 -15.709  1.00  0.00     0.039 C 
ATOM      9  C   UNL     1      -1.465  -1.726 -16.725  1.00  0.00     0.159 C 
ATOM     10  O   UNL     1      -0.716  -1.834 -15.717  1.00  0.00    -0.295 OA
ATOM     11  C   UNL     1      -0.980  -0.924 -17.898  1.00  0.00     0.084 C 
ENDROOT
TORSDOF 0
ENDMDL
MODEL 3
REMARK VINA RESULT:    -4.539      2.086      2.130
REMARK INTER + INTRA:          -4.539
REMARK INTER:                  -4.539
REMARK INTRA:                   0.000
REMARK UNBOUND:                 0.000
REMARK SMILES CC(C)=C1CC[C@H](C)CC1=O
REMARK SMILES IDX 8 1 7 2 6 3 5 4 4 5 2 6 1 7 3 8 10 9 11 10 9 11
REMARK H PARENT
REMARK Flexibility Score: inf
ROOT
ATOM      1  C   UNL     1      -7.215   3.114  -9.921  1.00  0.00     0.008 C 
ATOM      2  C   UNL     1      -6.464   2.184  -8.953  1.00  0.00    -0.006 C 
ATOM      3  C   UNL     1      -7.068   0.769  -8.919  1.00  0.00     0.008 C 
ATOM      4  C   UNL     1      -6.890   0.007 -10.243  1.00  0.00     0.039 C 
ATOM      5  C   UNL     1      -5.460   0.048 -10.764  1.00  0.00    -0.006 C 
ATOM      6  C   UNL     1      -4.950  -0.976 -11.510  1.00  0.00    -0.070 C 
ATOM      7  C   UNL     1      -3.516  -0.977 -11.989  1.00  0.00     0.039 C 
ATOM      8  C   UNL     1      -5.791  -2.183 -11.862  1.00  0.00     0.039 C 
ATOM      9  C   UNL     1      -4.702   1.310 -10.517  1.00  0.00     0.159 C 
ATOM     10  O   UNL     1      -3.842   1.729 -11.338  1.00  0.00    -0.295 OA
ATOM     11  C   UNL     1      -4.965   2.115  -9.278  1.00  0.00     0.084 C 
ENDROOT
TORSDOF 0
ENDMDL
MODEL 4
REMARK VINA RESULT:    -4.489      6.912      8.452
REMARK INTER + INTRA:          -4.489
REMARK INTER:                  -4.489
REMARK INTRA:                   0.000
REMARK UNBOUND:                 0.000
REMARK SMILES CC(C)=C1CC[C@H](C)CC1=O
REMARK SMILES IDX 8 1 7 2 6 3 5 4 4 5 2 6 1 7 3 8 10 9 11 10 9 11
REMARK H PARENT
REMARK Flexibility Score: inf
ROOT
ATOM      1  C   UNL     1      -6.067  -4.357 -15.285  1.00  0.00     0.008 C 
ATOM      2  C   UNL     1      -6.812  -3.966 -13.997  1.00  0.00    -0.006 C 
ATOM      3  C   UNL     1      -8.032  -3.072 -14.279  1.00  0.00     0.008 C 
ATOM      4  C   UNL     1      -9.149  -3.802 -15.043  1.00  0.00     0.039 C 
ATOM      5  C   UNL     1      -9.507  -5.149 -14.429  1.00  0.00    -0.006 C 
ATOM      6  C   UNL     1     -10.770  -5.657 -14.528  1.00  0.00    -0.070 C 
ATOM      7  C   UNL     1     -11.156  -6.966 -13.877  1.00  0.00     0.039 C 
ATOM      8  C   UNL     1     -11.859  -4.912 -15.268  1.00  0.00     0.039 C 
ATOM      9  C   UNL     1      -8.381  -5.921 -13.827  1.00  0.00     0.159 C 
ATOM     10  O   UNL     1      -8.363  -7.182 -13.852  1.00  0.00    -0.295 OA
ATOM     11  C   UNL     1      -7.232  -5.200 -13.185  1.00  0.00     0.084 C 
ENDROOT
TORSDOF 0
ENDMDL
MODEL 5
REMARK VINA RESULT:    -4.444      7.872      9.157
REMARK INTER + INTRA:          -4.444
REMARK INTER:                  -4.444
REMARK INTRA:                   0.000
REMARK UNBOUND:                 0.000
REMARK SMILES CC(C)=C1CC[C@H](C)CC1=O
REMARK SMILES IDX 8 1 7 2 6 3 5 4 4 5 2 6 1 7 3 8 10 9 11 10 9 11
REMARK H PARENT
REMARK Flexibility Score: inf
ROOT
ATOM      1  C   UNL     1      -9.979  -3.811 -16.506  1.00  0.00     0.008 C 
ATOM      2  C   UNL     1     -10.161  -3.875 -14.981  1.00  0.00    -0.006 C 
ATOM      3  C   UNL     1     -11.358  -4.754 -14.574  1.00  0.00     0.008 C 
ATOM      4  C   UNL     1     -11.150  -6.242 -14.899  1.00  0.00     0.039 C 
ATOM      5  C   UNL     1      -9.808  -6.774 -14.413  1.00  0.00    -0.006 C 
ATOM      6  C   UNL     1      -9.658  -8.082 -14.048  1.00  0.00    -0.070 C 
ATOM      7  C   UNL     1      -8.348  -8.613 -13.512  1.00  0.00     0.039 C 
ATOM      8  C   UNL     1     -10.812  -9.056 -14.130  1.00  0.00     0.039 C 
ATOM      9  C   UNL     1      -8.658  -5.825 -14.475  1.00  0.00     0.159 C 
ATOM     10  O   UNL     1      -7.487  -6.230 -14.705  1.00  0.00    -0.295 OA
ATOM     11  C   UNL     1      -8.885  -4.355 -14.275  1.00  0.00     0.084 C 
ENDROOT
TORSDOF 0
ENDMDL
MODEL 6
REMARK VINA RESULT:    -4.409      9.160     10.248
REMARK INTER + INTRA:          -4.409
REMARK INTER:                  -4.409
REMARK INTRA:                   0.000
REMARK UNBOUND:                 0.000
REMARK SMILES CC(C)=C1CC[C@H](C)CC1=O
REMARK SMILES IDX 8 1 7 2 6 3 5 4 4 5 2 6 1 7 3 8 10 9 11 10 9 11
REMARK H PARENT
REMARK Flexibility Score: inf
ROOT
ATOM      1  C   UNL     1      -8.064  -7.980 -13.446  1.00  0.00     0.008 C 
ATOM      2  C   UNL     1      -8.863  -8.235 -14.735  1.00  0.00    -0.006 C 
ATOM      3  C   UNL     1     -10.381  -8.260 -14.484  1.00  0.00     0.008 C 
ATOM      4  C   UNL     1     -10.944  -6.892 -14.066  1.00  0.00     0.039 C 
ATOM      5  C   UNL     1     -10.494  -5.760 -14.981  1.00  0.00    -0.006 C 
ATOM      6  C   UNL     1     -11.281  -4.663 -15.187  1.00  0.00    -0.070 C 
ATOM      7  C   UNL     1     -10.874  -3.557 -16.134  1.00  0.00     0.039 C 
ATOM      8  C   UNL     1     -12.621  -4.520 -14.501  1.00  0.00     0.039 C 
ATOM      9  C   UNL     1      -9.112  -5.865 -15.533  1.00  0.00     0.159 C 
ATOM     10  O   UNL     1      -8.413  -4.839 -15.752  1.00  0.00    -0.295 OA
ATOM     11  C   UNL     1      -8.520  -7.213 -15.828  1.00  0.00     0.084 C 
ENDROOT
TORSDOF 0
ENDMDL
MODEL 7
REMARK VINA RESULT:    -4.405      1.985      4.297
REMARK INTER + INTRA:          -4.405
REMARK INTER:                  -4.405
REMARK INTRA:                   0.000
REMARK UNBOUND:                 0.000
REMARK SMILES CC(C)=C1CC[C@H](C)CC1=O
REMARK SMILES IDX 8 1 7 2 6 3 5 4 4 5 2 6 1 7 3 8 10 9 11 10 9 11
REMARK H PARENT
REMARK Flexibility Score: inf
ROOT
ATOM      1  C   UNL     1      -5.872  -3.375 -10.137  1.00  0.00     0.008 C 
ATOM      2  C   UNL     1      -6.259  -2.676 -11.451  1.00  0.00    -0.006 C 
ATOM      3  C   UNL     1      -7.355  -1.615 -11.245  1.00  0.00     0.008 C 
ATOM      4  C   UNL     1      -6.880  -0.414 -10.411  1.00  0.00     0.039 C 
ATOM      5  C   UNL     1      -5.557   0.162 -10.898  1.00  0.00    -0.006 C 
ATOM      6  C   UNL     1      -5.264   1.487 -10.746  1.00  0.00    -0.070 C 
ATOM      7  C   UNL     1      -3.980   2.085 -11.273  1.00  0.00     0.039 C 
ATOM      8  C   UNL     1      -6.234   2.431 -10.071  1.00  0.00     0.039 C 
ATOM      9  C   UNL     1      -4.566  -0.818 -11.434  1.00  0.00     0.159 C 
ATOM     10  O   UNL     1      -3.326  -0.639 -11.294  1.00  0.00    -0.295 OA
ATOM     11  C   UNL     1      -5.039  -2.053 -12.145  1.00  0.00     0.084 C 
ENDROOT
TORSDOF 0
ENDMDL
MODEL 8
REMARK VINA RESULT:    -4.344      2.419      4.057
REMARK INTER + INTRA:          -4.344
REMARK INTER:                  -4.344
REMARK INTRA:                   0.000
REMARK UNBOUND:                 0.000
REMARK SMILES CC(C)=C1CC[C@H](C)CC1=O
REMARK SMILES IDX 8 1 7 2 6 3 5 4 4 5 2 6 1 7 3 8 10 9 11 10 9 11
REMARK H PARENT
REMARK Flexibility Score: inf
ROOT
ATOM      1  C   UNL     1      -6.660   0.040 -10.361  1.00  0.00     0.008 C 
ATOM      2  C   UNL     1      -6.571   1.572 -10.448  1.00  0.00    -0.006 C 
ATOM      3  C   UNL     1      -6.638   2.239  -9.062  1.00  0.00     0.008 C 
ATOM      4  C   UNL     1      -5.412   1.931  -8.186  1.00  0.00     0.039 C 
ATOM      5  C   UNL     1      -4.092   2.159  -8.911  1.00  0.00    -0.006 C 
ATOM      6  C   UNL     1      -2.968   2.532  -8.231  1.00  0.00    -0.070 C 
ATOM      7  C   UNL     1      -1.664   2.816  -8.941  1.00  0.00     0.039 C 
ATOM      8  C   UNL     1      -2.986   2.715  -6.730  1.00  0.00     0.039 C 
ATOM      9  C   UNL     1      -4.073   1.837 -10.368  1.00  0.00     0.159 C 
ATOM     10  O   UNL     1      -3.034   1.394 -10.928  1.00  0.00    -0.295 OA
ATOM     11  C   UNL     1      -5.310   2.027 -11.197  1.00  0.00     0.084 C 
ENDROOT
TORSDOF 0
ENDMDL
MODEL 9
REMARK VINA RESULT:    -4.324      6.644      8.690
REMARK INTER + INTRA:          -4.324
REMARK INTER:                  -4.324
REMARK INTRA:                   0.000
REMARK UNBOUND:                 0.000
REMARK SMILES CC(C)=C1CC[C@H](C)CC1=O
REMARK SMILES IDX 8 1 7 2 6 3 5 4 4 5 2 6 1 7 3 8 10 9 11 10 9 11
REMARK H PARENT
REMARK Flexibility Score: inf
ROOT
ATOM      1  C   UNL     1     -10.416  -6.195 -14.495  1.00  0.00     0.008 C 
ATOM      2  C   UNL     1     -10.117  -5.329 -15.729  1.00  0.00    -0.006 C 
ATOM      3  C   UNL     1      -9.899  -3.850 -15.364  1.00  0.00     0.008 C 
ATOM      4  C   UNL     1      -8.625  -3.616 -14.536  1.00  0.00     0.039 C 
ATOM      5  C   UNL     1      -7.395  -4.284 -15.137  1.00  0.00    -0.006 C 
ATOM      6  C   UNL     1      -6.148  -3.757 -14.961  1.00  0.00    -0.070 C 
ATOM      7  C   UNL     1      -4.924  -4.376 -15.596  1.00  0.00     0.039 C 
ATOM      8  C   UNL     1      -5.937  -2.499 -14.148  1.00  0.00     0.039 C 
ATOM      9  C   UNL     1      -7.619  -5.595 -15.815  1.00  0.00     0.159 C 
ATOM     10  O   UNL     1      -6.741  -6.498 -15.801  1.00  0.00    -0.295 OA
ATOM     11  C   UNL     1      -8.916  -5.863 -16.523  1.00  0.00     0.084 C 
ENDROOT
TORSDOF 0
ENDMDL
