MODEL 1
REMARK VINA RESULT:    -2.327      0.000      0.000
REMARK INTER + INTRA:          -3.218
REMARK INTER:                  -3.007
REMARK INTRA:                  -0.212
REMARK UNBOUND:                -0.212
REMARK SMILES CCOC(=O)C=Cc1ccc(O)c(O)c1
REMARK SMILES IDX 6 1 7 2 4 3 5 4 3 5 2 6 1 7 8 8 15 9 9 10 13 11 10 12 11 13
REMARK SMILES IDX 14 14 12 16
REMARK H PARENT 14 15 12 17
REMARK Flexibility Score: inf
ROOT
ATOM      1  C   UNL     1      -7.642  21.211  20.041  1.00  0.00     0.094 C 
ATOM      2  C   UNL     1      -8.150  20.701  18.911  1.00  0.00     0.016 C 
ENDROOT
BRANCH   1   3
ATOM      3  C   UNL     1      -8.389  21.190  21.308  1.00  0.00     0.330 C 
ATOM      4  O   UNL     1      -9.095  22.188  21.620  1.00  0.00    -0.247 OA
BRANCH   3   5
ATOM      5  O   UNL     1      -8.321  20.076  22.154  1.00  0.00    -0.463 OA
BRANCH   5   6
ATOM      6  C   UNL     1      -7.879  20.143  23.509  1.00  0.00     0.230 C 
ATOM      7  C   UNL     1      -9.036  19.884  24.467  1.00  0.00     0.049 C 
ENDBRANCH   5   6
ENDBRANCH   3   5
ENDBRANCH   1   3
BRANCH   2   8
ATOM      8  C   UNL     1      -7.437  20.710  17.609  1.00  0.00    -0.021 A 
ATOM      9  C   UNL     1      -6.098  20.288  17.474  1.00  0.00     0.058 A 
ATOM     10  C   UNL     1      -8.136  21.121  16.464  1.00  0.00     0.012 A 
ATOM     11  C   UNL     1      -5.469  20.301  16.223  1.00  0.00     0.157 A 
ATOM     12  C   UNL     1      -7.509  21.138  15.215  1.00  0.00     0.051 A 
ATOM     13  C   UNL     1      -6.176  20.732  15.089  1.00  0.00     0.157 A 
BRANCH  11  14
ATOM     14  O   UNL     1      -4.143  19.879  16.129  1.00  0.00    -0.504 OA
ATOM     15  H   UNL     1      -3.520  20.220  15.407  1.00  0.00     0.293 HD
ENDBRANCH  11  14
BRANCH  13  16
ATOM     16  O   UNL     1      -5.552  20.752  13.842  1.00  0.00    -0.504 OA
ATOM     17  H   UNL     1      -5.244  21.618  13.416  1.00  0.00     0.293 HD
ENDBRANCH  13  16
ENDBRANCH   2   8
TORSDOF 6
ENDMDL
MODEL 2
REMARK VINA RESULT:    -1.739      3.164      5.232
REMARK INTER + INTRA:          -2.459
REMARK INTER:                  -2.215
REMARK INTRA:                  -0.245
REMARK UNBOUND:                -0.212
REMARK SMILES CCOC(=O)C=Cc1ccc(O)c(O)c1
REMARK SMILES IDX 6 1 7 2 4 3 5 4 3 5 2 6 1 7 8 8 15 9 9 10 13 11 10 12 11 13
REMARK SMILES IDX 14 14 12 16
REMARK H PARENT 14 15 12 17
REMARK Flexibility Score: inf
ROOT
ATOM      1  C   UNL     1      -6.456  20.619  16.718  1.00  0.00     0.094 C 
ATOM      2  C   UNL     1      -5.376  20.049  16.167  1.00  0.00     0.016 C 
ENDROOT
BRANCH   1   3
ATOM      3  C   UNL     1      -7.754  20.657  16.027  1.00  0.00     0.330 C 
ATOM      4  O   UNL     1      -7.827  20.246  14.836  1.00  0.00    -0.247 OA
BRANCH   3   5
ATOM      5  O   UNL     1      -8.895  21.137  16.683  1.00  0.00    -0.463 OA
BRANCH   5   6
ATOM      6  C   UNL     1      -8.873  22.226  17.605  1.00  0.00     0.230 C 
ATOM      7  C   UNL     1      -8.916  21.718  19.041  1.00  0.00     0.049 C 
ENDBRANCH   5   6
ENDBRANCH   3   5
ENDBRANCH   1   3
BRANCH   2   8
ATOM      8  C   UNL     1      -4.046  19.998  16.822  1.00  0.00    -0.021 A 
ATOM      9  C   UNL     1      -2.839  20.062  16.095  1.00  0.00     0.058 A 
ATOM     10  C   UNL     1      -3.989  19.917  18.222  1.00  0.00     0.012 A 
ATOM     11  C   UNL     1      -1.605  20.023  16.757  1.00  0.00     0.157 A 
ATOM     12  C   UNL     1      -2.759  19.875  18.884  1.00  0.00     0.051 A 
ATOM     13  C   UNL     1      -1.564  19.925  18.157  1.00  0.00     0.157 A 
BRANCH  11  14
ATOM     14  O   UNL     1      -0.432  20.086  16.005  1.00  0.00    -0.504 OA
ATOM     15  H   UNL     1       0.394  19.556  16.251  1.00  0.00     0.293 HD
ENDBRANCH  11  14
BRANCH  13  16
ATOM     16  O   UNL     1      -0.338  19.880  18.820  1.00  0.00    -0.504 OA
ATOM     17  H   UNL     1       0.401  19.253  18.525  1.00  0.00     0.293 HD
ENDBRANCH  13  16
ENDBRANCH   2   8
TORSDOF 6
ENDMDL
MODEL 3
REMARK VINA RESULT:    -0.771     16.152     18.698
REMARK INTER + INTRA:          -1.208
REMARK INTER:                  -0.899
REMARK INTRA:                  -0.309
REMARK UNBOUND:                -0.212
REMARK SMILES CCOC(=O)C=Cc1ccc(O)c(O)c1
REMARK SMILES IDX 6 1 7 2 4 3 5 4 3 5 2 6 1 7 8 8 15 9 9 10 13 11 10 12 11 13
REMARK SMILES IDX 14 14 12 16
REMARK H PARENT 14 15 12 17
REMARK Flexibility Score: inf
ROOT
ATOM      1  C   UNL     1      10.436  21.662  13.970  1.00  0.00     0.094 C 
ATOM      2  C   UNL     1      10.097  21.318  12.720  1.00  0.00     0.016 C 
ENDROOT
BRANCH   1   3
ATOM      3  C   UNL     1      10.127  20.804  15.124  1.00  0.00     0.330 C 
ATOM      4  O   UNL     1      10.965  20.713  16.062  1.00  0.00    -0.247 OA
BRANCH   3   5
ATOM      5  O   UNL     1       8.916  20.102  15.183  1.00  0.00    -0.463 OA
BRANCH   5   6
ATOM      6  C   UNL     1       7.663  20.716  15.480  1.00  0.00     0.230 C 
ATOM      7  C   UNL     1       6.515  19.918  14.873  1.00  0.00     0.049 C 
ENDBRANCH   5   6
ENDBRANCH   3   5
ENDBRANCH   1   3
BRANCH   2   8
ATOM      8  C   UNL     1      10.378  22.156  11.528  1.00  0.00    -0.021 A 
ATOM      9  C   UNL     1      10.628  21.605  10.254  1.00  0.00     0.058 A 
ATOM     10  C   UNL     1      10.361  23.552  11.670  1.00  0.00     0.012 A 
ATOM     11  C   UNL     1      10.876  22.436   9.154  1.00  0.00     0.157 A 
ATOM     12  C   UNL     1      10.612  24.382  10.575  1.00  0.00     0.051 A 
ATOM     13  C   UNL     1      10.873  23.831   9.315  1.00  0.00     0.157 A 
BRANCH  11  14
ATOM     14  O   UNL     1      11.121  21.854   7.910  1.00  0.00    -0.504 OA
ATOM     15  H   UNL     1      11.687  22.310   7.205  1.00  0.00     0.293 HD
ENDBRANCH  11  14
BRANCH  13  16
ATOM     16  O   UNL     1      11.125  24.661   8.224  1.00  0.00    -0.504 OA
ATOM     17  H   UNL     1      11.013  24.334   7.272  1.00  0.00     0.293 HD
ENDBRANCH  13  16
ENDBRANCH   2   8
TORSDOF 6
ENDMDL
MODEL 4
REMARK VINA RESULT:    -0.029      2.561      3.713
REMARK INTER + INTRA:          -0.249
REMARK INTER:                   0.048
REMARK INTRA:                  -0.297
REMARK UNBOUND:                -0.212
REMARK SMILES CCOC(=O)C=Cc1ccc(O)c(O)c1
REMARK SMILES IDX 6 1 7 2 4 3 5 4 3 5 2 6 1 7 8 8 15 9 9 10 13 11 10 12 11 13
REMARK SMILES IDX 14 14 12 16
REMARK H PARENT 14 15 12 17
REMARK Flexibility Score: inf
ROOT
ATOM      1  C   UNL     1      -6.941  20.222  19.120  1.00  0.00     0.094 C 
ATOM      2  C   UNL     1      -6.190  20.478  18.040  1.00  0.00     0.016 C 
ENDROOT
BRANCH   1   3
ATOM      3  C   UNL     1      -8.400  20.406  19.115  1.00  0.00     0.330 C 
ATOM      4  O   UNL     1      -9.015  20.399  18.013  1.00  0.00    -0.247 OA
BRANCH   3   5
ATOM      5  O   UNL     1      -9.099  20.582  20.316  1.00  0.00    -0.463 OA
BRANCH   5   6
ATOM      6  C   UNL     1      -8.489  21.045  21.521  1.00  0.00     0.230 C 
ATOM      7  C   UNL     1      -8.371  19.912  22.534  1.00  0.00     0.049 C 
ENDBRANCH   5   6
ENDBRANCH   3   5
ENDBRANCH   1   3
BRANCH   2   8
ATOM      8  C   UNL     1      -4.716  20.317  18.004  1.00  0.00    -0.021 A 
ATOM      9  C   UNL     1      -3.974  20.390  16.807  1.00  0.00     0.058 A 
ATOM     10  C   UNL     1      -4.032  20.120  19.213  1.00  0.00     0.012 A 
ATOM     11  C   UNL     1      -2.581  20.245  16.821  1.00  0.00     0.157 A 
ATOM     12  C   UNL     1      -2.643  19.972  19.229  1.00  0.00     0.051 A 
ATOM     13  C   UNL     1      -1.912  20.031  18.037  1.00  0.00     0.157 A 
BRANCH  11  14
ATOM     14  O   UNL     1      -1.881  20.320  15.617  1.00  0.00    -0.504 OA
ATOM     15  H   UNL     1      -0.969  20.754  15.551  1.00  0.00     0.293 HD
ENDBRANCH  11  14
BRANCH  13  16
ATOM     16  O   UNL     1      -0.526  19.881  18.055  1.00  0.00    -0.504 OA
ATOM     17  H   UNL     1      -0.080  19.033  17.724  1.00  0.00     0.293 HD
ENDBRANCH  13  16
ENDBRANCH   2   8
TORSDOF 6
ENDMDL
