MODEL 1
REMARK VINA RESULT:    -3.989      0.000      0.000
REMARK INTER + INTRA:          -4.639
REMARK INTER:                  -4.456
REMARK INTRA:                  -0.183
REMARK UNBOUND:                -0.183
REMARK SMILES CC(C)c1ccc(C=O)cc1
REMARK SMILES IDX 4 1 5 2 6 3 7 4 10 5 11 6 2 7 1 8 3 9 8 10 9 11
REMARK H PARENT
REMARK Flexibility Score: inf
ROOT
ATOM      1  C   UNL     1     -23.289  24.376  11.046  1.00  0.00    -0.045 A 
ATOM      2  C   UNL     1     -22.976  25.746  11.060  1.00  0.00     0.005 A 
ATOM      3  C   UNL     1     -23.125  26.520   9.906  1.00  0.00     0.012 A 
ATOM      4  C   UNL     1     -23.589  25.941   8.716  1.00  0.00     0.014 A 
ATOM      5  C   UNL     1     -23.903  24.573   8.697  1.00  0.00     0.012 A 
ATOM      6  C   UNL     1     -23.754  23.797   9.850  1.00  0.00     0.005 A 
ENDROOT
BRANCH   1   7
ATOM      7  C   UNL     1     -23.122  23.546  12.305  1.00  0.00     0.013 C 
ATOM      8  C   UNL     1     -21.684  23.619  12.829  1.00  0.00     0.012 C 
ATOM      9  C   UNL     1     -24.125  23.971  13.384  1.00  0.00     0.012 C 
ENDBRANCH   1   7
BRANCH   4  10
ATOM     10  C   UNL     1     -23.740  26.776   7.510  1.00  0.00     0.260 C 
ATOM     11  O   UNL     1     -24.108  27.979   7.593  1.00  0.00    -0.298 OA
ENDBRANCH   4  10
TORSDOF 2
ENDMDL
MODEL 2
REMARK VINA RESULT:    -3.743     11.629     13.422
REMARK INTER + INTRA:          -4.364
REMARK INTER:                  -4.173
REMARK INTRA:                  -0.191
REMARK UNBOUND:                -0.183
REMARK SMILES CC(C)c1ccc(C=O)cc1
REMARK SMILES IDX 4 1 5 2 6 3 7 4 10 5 11 6 2 7 1 8 3 9 8 10 9 11
REMARK H PARENT
REMARK Flexibility Score: inf
ROOT
ATOM      1  C   UNL     1     -20.046  29.220  20.797  1.00  0.00    -0.045 A 
ATOM      2  C   UNL     1     -18.893  28.858  21.514  1.00  0.00     0.005 A 
ATOM      3  C   UNL     1     -18.458  29.629  22.596  1.00  0.00     0.012 A 
ATOM      4  C   UNL     1     -19.166  30.776  22.981  1.00  0.00     0.014 A 
ATOM      5  C   UNL     1     -20.319  31.142  22.268  1.00  0.00     0.012 A 
ATOM      6  C   UNL     1     -20.755  30.373  21.186  1.00  0.00     0.005 A 
ENDROOT
BRANCH   1   7
ATOM      7  C   UNL     1     -20.508  28.374  19.625  1.00  0.00     0.013 C 
ATOM      8  C   UNL     1     -20.331  26.880  19.918  1.00  0.00     0.012 C 
ATOM      9  C   UNL     1     -21.959  28.695  19.250  1.00  0.00     0.012 C 
ENDBRANCH   1   7
BRANCH   4  10
ATOM     10  C   UNL     1     -18.691  31.576  24.125  1.00  0.00     0.260 C 
ATOM     11  O   UNL     1     -18.492  32.816  24.014  1.00  0.00    -0.298 OA
ENDBRANCH   4  10
TORSDOF 2
ENDMDL
MODEL 3
REMARK VINA RESULT:    -3.737      2.493      4.685
REMARK INTER + INTRA:          -4.357
REMARK INTER:                  -4.164
REMARK INTRA:                  -0.194
REMARK UNBOUND:                -0.183
REMARK SMILES CC(C)c1ccc(C=O)cc1
REMARK SMILES IDX 4 1 5 2 6 3 7 4 10 5 11 6 2 7 1 8 3 9 8 10 9 11
REMARK H PARENT
REMARK Flexibility Score: inf
ROOT
ATOM      1  C   UNL     1     -23.650  25.977   9.298  1.00  0.00    -0.045 A 
ATOM      2  C   UNL     1     -23.001  26.355  10.485  1.00  0.00     0.005 A 
ATOM      3  C   UNL     1     -22.560  25.387  11.392  1.00  0.00     0.012 A 
ATOM      4  C   UNL     1     -22.759  24.024  11.130  1.00  0.00     0.014 A 
ATOM      5  C   UNL     1     -23.407  23.641   9.945  1.00  0.00     0.012 A 
ATOM      6  C   UNL     1     -23.849  24.607   9.037  1.00  0.00     0.005 A 
ENDROOT
BRANCH   1   7
ATOM      7  C   UNL     1     -24.125  27.037   8.322  1.00  0.00     0.013 C 
ATOM      8  C   UNL     1     -23.375  28.357   8.531  1.00  0.00     0.012 C 
ATOM      9  C   UNL     1     -23.995  26.552   6.873  1.00  0.00     0.012 C 
ENDBRANCH   1   7
BRANCH   4  10
ATOM     10  C   UNL     1     -22.285  23.018  12.099  1.00  0.00     0.260 C 
ATOM     11  O   UNL     1     -21.173  23.147  12.679  1.00  0.00    -0.298 OA
ENDBRANCH   4  10
TORSDOF 2
ENDMDL
MODEL 4
REMARK VINA RESULT:    -3.690      4.251      6.669
REMARK INTER + INTRA:          -4.305
REMARK INTER:                  -4.111
REMARK INTRA:                  -0.193
REMARK UNBOUND:                -0.183
REMARK SMILES CC(C)c1ccc(C=O)cc1
REMARK SMILES IDX 4 1 5 2 6 3 7 4 10 5 11 6 2 7 1 8 3 9 8 10 9 11
REMARK H PARENT
REMARK Flexibility Score: inf
ROOT
ATOM      1  C   UNL     1     -21.702  23.629  13.295  1.00  0.00    -0.045 A 
ATOM      2  C   UNL     1     -22.211  23.235  14.544  1.00  0.00     0.005 A 
ATOM      3  C   UNL     1     -21.390  23.232  15.676  1.00  0.00     0.012 A 
ATOM      4  C   UNL     1     -20.047  23.621  15.581  1.00  0.00     0.014 A 
ATOM      5  C   UNL     1     -19.534  24.016  14.335  1.00  0.00     0.012 A 
ATOM      6  C   UNL     1     -20.353  24.019  13.202  1.00  0.00     0.005 A 
ENDROOT
BRANCH   1   7
ATOM      7  C   UNL     1     -22.603  23.628  12.074  1.00  0.00     0.013 C 
ATOM      8  C   UNL     1     -23.989  24.190  12.410  1.00  0.00     0.012 C 
ATOM      9  C   UNL     1     -21.962  24.396  10.913  1.00  0.00     0.012 C 
ENDBRANCH   1   7
BRANCH   4  10
ATOM     10  C   UNL     1     -19.197  23.611  16.787  1.00  0.00     0.260 C 
ATOM     11  O   UNL     1     -19.644  24.000  17.900  1.00  0.00    -0.298 OA
ENDBRANCH   4  10
TORSDOF 2
ENDMDL
MODEL 5
REMARK VINA RESULT:    -3.683      4.403      6.543
REMARK INTER + INTRA:          -4.297
REMARK INTER:                  -4.116
REMARK INTRA:                  -0.181
REMARK UNBOUND:                -0.183
REMARK SMILES CC(C)c1ccc(C=O)cc1
REMARK SMILES IDX 4 1 5 2 6 3 7 4 10 5 11 6 2 7 1 8 3 9 8 10 9 11
REMARK H PARENT
REMARK Flexibility Score: inf
ROOT
ATOM      1  C   UNL     1     -20.159  23.435  16.563  1.00  0.00    -0.045 A 
ATOM      2  C   UNL     1     -21.447  23.073  16.131  1.00  0.00     0.005 A 
ATOM      3  C   UNL     1     -21.824  23.251  14.797  1.00  0.00     0.012 A 
ATOM      4  C   UNL     1     -20.924  23.793  13.870  1.00  0.00     0.014 A 
ATOM      5  C   UNL     1     -19.636  24.156  14.296  1.00  0.00     0.012 A 
ATOM      6  C   UNL     1     -19.257  23.980  15.629  1.00  0.00     0.005 A 
ENDROOT
BRANCH   1   7
ATOM      7  C   UNL     1     -19.761  23.237  18.013  1.00  0.00     0.013 C 
ATOM      8  C   UNL     1     -18.247  23.039  18.150  1.00  0.00     0.012 C 
ATOM      9  C   UNL     1     -20.246  24.403  18.883  1.00  0.00     0.012 C 
ENDBRANCH   1   7
BRANCH   4  10
ATOM     10  C   UNL     1     -21.342  23.972  12.467  1.00  0.00     0.260 C 
ATOM     11  O   UNL     1     -21.543  22.980  11.716  1.00  0.00    -0.298 OA
ENDBRANCH   4  10
TORSDOF 2
ENDMDL
MODEL 6
REMARK VINA RESULT:    -3.627      3.035      5.164
REMARK INTER + INTRA:          -4.235
REMARK INTER:                  -4.053
REMARK INTRA:                  -0.182
REMARK UNBOUND:                -0.183
REMARK SMILES CC(C)c1ccc(C=O)cc1
REMARK SMILES IDX 4 1 5 2 6 3 7 4 10 5 11 6 2 7 1 8 3 9 8 10 9 11
REMARK H PARENT
REMARK Flexibility Score: inf
ROOT
ATOM      1  C   UNL     1     -23.345  24.494  11.149  1.00  0.00    -0.045 A 
ATOM      2  C   UNL     1     -21.947  24.381  11.232  1.00  0.00     0.005 A 
ATOM      3  C   UNL     1     -21.341  23.895  12.394  1.00  0.00     0.012 A 
ATOM      4  C   UNL     1     -22.120  23.513  13.496  1.00  0.00     0.014 A 
ATOM      5  C   UNL     1     -23.518  23.625  13.418  1.00  0.00     0.012 A 
ATOM      6  C   UNL     1     -24.125  24.111  12.257  1.00  0.00     0.005 A 
ENDROOT
BRANCH   1   7
ATOM      7  C   UNL     1     -23.990  25.023   9.882  1.00  0.00     0.013 C 
ATOM      8  C   UNL     1     -23.370  26.361   9.463  1.00  0.00     0.012 C 
ATOM      9  C   UNL     1     -23.904  23.996   8.748  1.00  0.00     0.012 C 
ENDBRANCH   1   7
BRANCH   4  10
ATOM     10  C   UNL     1     -21.462  23.003  14.713  1.00  0.00     0.260 C 
ATOM     11  O   UNL     1     -20.510  23.631  15.250  1.00  0.00    -0.298 OA
ENDBRANCH   4  10
TORSDOF 2
ENDMDL
MODEL 7
REMARK VINA RESULT:    -3.600     13.280     14.874
REMARK INTER + INTRA:          -4.205
REMARK INTER:                  -4.016
REMARK INTRA:                  -0.188
REMARK UNBOUND:                -0.183
REMARK SMILES CC(C)c1ccc(C=O)cc1
REMARK SMILES IDX 4 1 5 2 6 3 7 4 10 5 11 6 2 7 1 8 3 9 8 10 9 11
REMARK H PARENT
REMARK Flexibility Score: inf
ROOT
ATOM      1  C   UNL     1     -21.757  33.046  21.839  1.00  0.00    -0.045 A 
ATOM      2  C   UNL     1     -20.933  33.774  22.713  1.00  0.00     0.005 A 
ATOM      3  C   UNL     1     -19.873  33.148  23.376  1.00  0.00     0.012 A 
ATOM      4  C   UNL     1     -19.617  31.784  23.177  1.00  0.00     0.014 A 
ATOM      5  C   UNL     1     -20.438  31.052  22.304  1.00  0.00     0.012 A 
ATOM      6  C   UNL     1     -21.498  31.676  21.642  1.00  0.00     0.005 A 
ENDROOT
BRANCH   1   7
ATOM      7  C   UNL     1     -22.904  33.737  21.126  1.00  0.00     0.013 C 
ATOM      8  C   UNL     1     -22.388  34.783  20.132  1.00  0.00     0.012 C 
ATOM      9  C   UNL     1     -23.817  32.719  20.431  1.00  0.00     0.012 C 
ENDBRANCH   1   7
BRANCH   4  10
ATOM     10  C   UNL     1     -18.493  31.142  23.886  1.00  0.00     0.260 C 
ATOM     11  O   UNL     1     -17.978  30.075  23.456  1.00  0.00    -0.298 OA
ENDBRANCH   4  10
TORSDOF 2
ENDMDL
MODEL 8
REMARK VINA RESULT:    -3.568     12.713     14.267
REMARK INTER + INTRA:          -4.168
REMARK INTER:                  -3.976
REMARK INTRA:                  -0.192
REMARK UNBOUND:                -0.183
REMARK SMILES CC(C)c1ccc(C=O)cc1
REMARK SMILES IDX 4 1 5 2 6 3 7 4 10 5 11 6 2 7 1 8 3 9 8 10 9 11
REMARK H PARENT
REMARK Flexibility Score: inf
ROOT
ATOM      1  C   UNL     1     -20.270  30.707  21.932  1.00  0.00    -0.045 A 
ATOM      2  C   UNL     1     -21.419  31.345  21.432  1.00  0.00     0.005 A 
ATOM      3  C   UNL     1     -21.789  32.609  21.900  1.00  0.00     0.012 A 
ATOM      4  C   UNL     1     -21.020  33.259  22.876  1.00  0.00     0.014 A 
ATOM      5  C   UNL     1     -19.872  32.626  23.378  1.00  0.00     0.012 A 
ATOM      6  C   UNL     1     -19.501  31.362  22.912  1.00  0.00     0.005 A 
ENDROOT
BRANCH   1   7
ATOM      7  C   UNL     1     -19.880  29.335  21.416  1.00  0.00     0.013 C 
ATOM      8  C   UNL     1     -20.021  29.257  19.891  1.00  0.00     0.012 C 
ATOM      9  C   UNL     1     -18.460  28.962  21.858  1.00  0.00     0.012 C 
ENDBRANCH   1   7
BRANCH   4  10
ATOM     10  C   UNL     1     -21.427  34.593  23.357  1.00  0.00     0.260 C 
ATOM     11  O   UNL     1     -21.731  35.511  22.548  1.00  0.00    -0.298 OA
ENDBRANCH   4  10
TORSDOF 2
ENDMDL
MODEL 9
REMARK VINA RESULT:    -3.567      2.014      3.258
REMARK INTER + INTRA:          -4.168
REMARK INTER:                  -3.976
REMARK INTRA:                  -0.192
REMARK UNBOUND:                -0.183
REMARK SMILES CC(C)c1ccc(C=O)cc1
REMARK SMILES IDX 4 1 5 2 6 3 7 4 10 5 11 6 2 7 1 8 3 9 8 10 9 11
REMARK H PARENT
REMARK Flexibility Score: inf
ROOT
ATOM      1  C   UNL     1     -21.824  23.575  13.360  1.00  0.00    -0.045 A 
ATOM      2  C   UNL     1     -21.191  23.905  12.150  1.00  0.00     0.005 A 
ATOM      3  C   UNL     1     -21.946  24.191  11.009  1.00  0.00     0.012 A 
ATOM      4  C   UNL     1     -23.347  24.154  11.055  1.00  0.00     0.014 A 
ATOM      5  C   UNL     1     -23.984  23.825  12.263  1.00  0.00     0.012 A 
ATOM      6  C   UNL     1     -23.230  23.538  13.404  1.00  0.00     0.005 A 
ENDROOT
BRANCH   1   7
ATOM      7  C   UNL     1     -20.993  23.266  14.591  1.00  0.00     0.013 C 
ATOM      8  C   UNL     1     -19.726  24.128  14.634  1.00  0.00     0.012 C 
ATOM      9  C   UNL     1     -21.818  23.436  15.872  1.00  0.00     0.012 C 
ENDBRANCH   1   7
BRANCH   4  10
ATOM     10  C   UNL     1     -24.125  24.459   9.841  1.00  0.00     0.260 C 
ATOM     11  O   UNL     1     -23.851  23.914   8.738  1.00  0.00    -0.298 OA
ENDBRANCH   4  10
TORSDOF 2
ENDMDL
