MODEL 1
REMARK VINA RESULT:    50.024      0.000      0.000
REMARK INTER + INTRA:          54.586
REMARK INTER:                  54.410
REMARK INTRA:                   0.176
REMARK UNBOUND:                 0.176
REMARK SMILES C[C@@H]1[C@@H](C)CC[C@@]2(C(=O)[O-])CC[C@]3(C)C(=CC[C@@H]4[C@@]5(C)CC[C@H](O)C(C)(C)[C@@H]5CC[C@]43C)[C@@H]12
REMARK SMILES IDX 7 1 6 2 11 3 33 4 5 5 12 6 15 7 2 8 3 9 13 10 16 11 1 12
REMARK SMILES IDX 4 13 14 14 31 15 17 16 18 17 30 18 32 19 19 20 29 21 28 22
REMARK SMILES IDX 21 23 20 24 25 25 22 26 23 27 26 28 27 29 8 30 9 31 10 32
REMARK SMILES IDX 24 33
REMARK H PARENT 24 34
REMARK Flexibility Score: inf
ROOT
ATOM      1  C   UNL     1      12.855  22.959  -2.584  1.00  0.00     0.017 C 
ATOM      2  C   UNL     1      11.376  22.727  -3.060  1.00  0.00     0.014 C 
ATOM      3  C   UNL     1      12.833  23.968  -1.397  1.00  0.00     0.014 C 
ATOM      4  C   UNL     1      13.552  21.593  -2.151  1.00  0.00     0.030 C 
ATOM      5  C   UNL     1      10.788  21.395  -2.585  1.00  0.00     0.004 C 
ATOM      6  C   UNL     1      14.094  23.878  -0.517  1.00  0.00     0.013 C 
ATOM      7  C   UNL     1      13.525  21.415  -0.605  1.00  0.00    -0.063 C 
ATOM      8  C   UNL     1      13.104  20.352  -3.021  1.00  0.00    -0.003 C 
ATOM      9  C   UNL     1      11.557  20.250  -3.252  1.00  0.00    -0.011 C 
ATOM     10  C   UNL     1      14.237  22.499   0.234  1.00  0.00    -0.006 C 
ATOM     11  C   UNL     1      13.005  20.314  -0.016  1.00  0.00    -0.027 C 
ATOM     12  C   UNL     1      13.828  20.345  -4.383  1.00  0.00     0.008 C 
ATOM     13  C   UNL     1      10.974  18.879  -2.873  1.00  0.00     0.008 C 
ATOM     14  C   UNL     1      15.760  22.140   0.200  1.00  0.00     0.017 C 
ATOM     15  C   UNL     1      13.666  22.561   1.749  1.00  0.00    -0.020 C 
ATOM     16  C   UNL     1      12.788  20.144   1.458  1.00  0.00     0.032 C 
ATOM     17  C   UNL     1      13.609  21.102   2.351  1.00  0.00     0.006 C 
ATOM     18  C   UNL     1      14.596  23.424   2.667  1.00  0.00     0.008 C 
ATOM     19  C   UNL     1      12.246  23.212   1.751  1.00  0.00     0.012 C 
ATOM     20  C   UNL     1      13.293  20.970   3.915  1.00  0.00    -0.025 C 
ATOM     21  C   UNL     1      14.245  23.361   4.156  1.00  0.00     0.005 C 
ATOM     22  C   UNL     1      14.287  21.909   4.691  1.00  0.00     0.003 C 
ATOM     23  C   UNL     1      13.615  19.507   4.363  1.00  0.00     0.010 C 
ATOM     24  C   UNL     1      11.794  21.266   4.244  1.00  0.00     0.012 C 
ATOM     25  C   UNL     1      14.279  21.800   6.281  1.00  0.00    -0.006 C 
ATOM     26  C   UNL     1      13.761  19.269   5.886  1.00  0.00     0.033 C 
ATOM     27  C   UNL     1      13.572  20.498   6.801  1.00  0.00     0.120 C 
ATOM     28  C   UNL     1      15.755  21.771   6.774  1.00  0.00     0.014 C 
ATOM     29  C   UNL     1      13.618  23.034   6.975  1.00  0.00     0.014 C 
ENDROOT
BRANCH   1  30
ATOM     30  C   UNL     1      13.632  23.643  -3.713  1.00  0.00     0.048 C 
ATOM     31  O   UNL     1      14.536  24.486  -3.467  1.00  0.00    -0.550 OA
ATOM     32  O   UNL     1      13.270  23.429  -5.039  1.00  0.00    -0.550 OA
ENDBRANCH   1  30
BRANCH  27  33
ATOM     33  O   UNL     1      12.204  20.723   7.048  1.00  0.00    -0.393 OA
ATOM     34  H   UNL     1      11.884  21.388   6.380  1.00  0.00     0.210 HD
ENDBRANCH  27  33
TORSDOF 2
ENDMDL
