MODEL 1
REMARK VINA RESULT:    -5.455      0.000      0.000
REMARK INTER + INTRA:          -9.129
REMARK INTER:                  -8.325
REMARK INTRA:                  -0.804
REMARK UNBOUND:                -0.804
REMARK SMILES OC[C@@H]1O[C@H](O[C@]2(CO)O[C@H](CO)[C@@H](O)[C@@H]2O)[C@H](O)[C@@H](O)[C@H]1O
REMARK SMILES IDX 6 1 5 2 3 3 22 4 4 5 20 6 18 7 2 8 1 9 23 11 21 13 19 15
REMARK SMILES IDX 7 17 16 18 10 19 14 20 11 21 8 22 9 23 17 25 15 27 12 29
REMARK SMILES IDX 13 30
REMARK H PARENT 1 10 23 12 21 14 19 16 9 24 17 26 15 28 13 31
REMARK Flexibility Score: inf
ROOT
ATOM      1  O   UNL     1      23.509  48.069  36.256  1.00  0.00    -0.313 OA
ENDROOT
BRANCH   1   2
ATOM      2  C   UNL     1      23.098  48.043  34.890  1.00  0.00     0.285 C 
ATOM      3  C   UNL     1      23.141  49.171  32.845  1.00  0.00     0.178 C 
ATOM      4  C   UNL     1      22.777  47.822  32.140  1.00  0.00     0.177 C 
ATOM      5  O   UNL     1      23.798  48.981  34.092  1.00  0.00    -0.341 OA
ATOM      6  C   UNL     1      23.562  46.658  32.783  1.00  0.00     0.179 C 
ATOM      7  C   UNL     1      23.338  46.621  34.315  1.00  0.00     0.202 C 
BRANCH   3   8
ATOM      8  C   UNL     1      24.038  50.046  31.955  1.00  0.00     0.191 C 
BRANCH   8   9
ATOM      9  O   UNL     1      25.378  49.980  32.368  1.00  0.00    -0.394 OA
ATOM     10  H   UNL     1      25.598  49.018  32.475  1.00  0.00     0.210 HD
ENDBRANCH   8   9
ENDBRANCH   3   8
BRANCH   4  11
ATOM     11  O   UNL     1      21.394  47.595  32.262  1.00  0.00    -0.387 OA
ATOM     12  H   UNL     1      21.136  46.967  31.537  1.00  0.00     0.211 HD
ENDBRANCH   4  11
BRANCH   6  13
ATOM     13  O   UNL     1      23.182  45.427  32.223  1.00  0.00    -0.387 OA
ATOM     14  H   UNL     1      23.523  44.718  32.832  1.00  0.00     0.211 HD
ENDBRANCH   6  13
BRANCH   7  15
ATOM     15  O   UNL     1      24.424  45.983  34.944  1.00  0.00    -0.385 OA
ATOM     16  H   UNL     1      24.153  45.781  35.879  1.00  0.00     0.211 HD
ENDBRANCH   7  15
ENDBRANCH   1   2
BRANCH   1  17
ATOM     17  C   UNL     1      22.592  48.631  37.201  1.00  0.00     0.224 C 
ATOM     18  C   UNL     1      22.564  47.892  38.561  1.00  0.00     0.208 C 
ATOM     19  O   UNL     1      23.050  49.942  37.473  1.00  0.00    -0.337 OA
ATOM     20  C   UNL     1      22.262  48.995  39.546  1.00  0.00     0.180 C 
ATOM     21  C   UNL     1      22.782  50.248  38.829  1.00  0.00     0.179 C 
BRANCH  17  22
ATOM     22  C   UNL     1      21.175  48.750  36.550  1.00  0.00     0.225 C 
BRANCH  22  23
ATOM     23  O   UNL     1      20.876  50.074  36.199  1.00  0.00    -0.391 OA
ATOM     24  H   UNL     1      20.648  50.062  35.233  1.00  0.00     0.210 HD
ENDBRANCH  22  23
ENDBRANCH  17  22
BRANCH  18  25
ATOM     25  O   UNL     1      23.830  47.358  38.863  1.00  0.00    -0.385 OA
ATOM     26  H   UNL     1      24.187  46.978  38.018  1.00  0.00     0.211 HD
ENDBRANCH  18  25
BRANCH  20  27
ATOM     27  O   UNL     1      20.876  49.079  39.756  1.00  0.00    -0.387 OA
ATOM     28  H   UNL     1      20.540  49.786  39.147  1.00  0.00     0.211 HD
ENDBRANCH  20  27
BRANCH  21  29
ATOM     29  C   UNL     1      24.049  50.821  39.483  1.00  0.00     0.191 C 
BRANCH  29  30
ATOM     30  O   UNL     1      24.946  49.797  39.825  1.00  0.00    -0.394 OA
ATOM     31  H   UNL     1      24.456  48.939  39.733  1.00  0.00     0.210 HD
ENDBRANCH  29  30
ENDBRANCH  21  29
ENDBRANCH   1  17
TORSDOF 13
ENDMDL
MODEL 2
REMARK VINA RESULT:    -5.218      1.600      3.113
REMARK INTER + INTRA:          -8.767
REMARK INTER:                  -7.787
REMARK INTRA:                  -0.980
REMARK UNBOUND:                -0.804
REMARK SMILES OC[C@@H]1O[C@H](O[C@]2(CO)O[C@H](CO)[C@@H](O)[C@@H]2O)[C@H](O)[C@@H](O)[C@H]1O
REMARK SMILES IDX 6 1 5 2 3 3 22 4 4 5 20 6 18 7 2 8 1 9 23 11 21 13 19 15
REMARK SMILES IDX 7 17 16 18 10 19 14 20 11 21 8 22 9 23 17 25 15 27 12 29
REMARK SMILES IDX 13 30
REMARK H PARENT 1 10 23 12 21 14 19 16 9 24 17 26 15 28 13 31
REMARK Flexibility Score: inf
ROOT
ATOM      1  O   UNL     1      22.463  49.802  35.740  1.00  0.00    -0.313 OA
ENDROOT
BRANCH   1   2
ATOM      2  C   UNL     1      23.104  48.686  35.123  1.00  0.00     0.285 C 
ATOM      3  C   UNL     1      22.787  46.672  33.983  1.00  0.00     0.178 C 
ATOM      4  C   UNL     1      24.266  46.771  33.481  1.00  0.00     0.177 C 
ATOM      5  O   UNL     1      22.226  47.941  34.298  1.00  0.00    -0.341 OA
ATOM      6  C   UNL     1      24.598  48.227  33.090  1.00  0.00     0.179 C 
ATOM      7  C   UNL     1      24.288  49.196  34.258  1.00  0.00     0.202 C 
BRANCH   3   8
ATOM      8  C   UNL     1      21.884  45.990  32.942  1.00  0.00     0.191 C 
BRANCH   8   9
ATOM      9  O   UNL     1      20.970  46.902  32.391  1.00  0.00    -0.394 OA
ATOM     10  H   UNL     1      21.197  47.795  32.762  1.00  0.00     0.210 HD
ENDBRANCH   8   9
ENDBRANCH   3   8
BRANCH   4  11
ATOM     11  O   UNL     1      25.130  46.337  34.502  1.00  0.00    -0.387 OA
ATOM     12  H   UNL     1      25.188  47.073  35.169  1.00  0.00     0.211 HD
ENDBRANCH   4  11
BRANCH   6  13
ATOM     13  O   UNL     1      25.947  48.352  32.722  1.00  0.00    -0.387 OA
ATOM     14  H   UNL     1      26.266  47.439  32.487  1.00  0.00     0.211 HD
ENDBRANCH   6  13
BRANCH   7  15
ATOM     15  O   UNL     1      24.048  50.490  33.759  1.00  0.00    -0.385 OA
ATOM     16  H   UNL     1      24.480  50.553  32.866  1.00  0.00     0.211 HD
ENDBRANCH   7  15
ENDBRANCH   1   2
BRANCH   1  17
ATOM     17  C   UNL     1      22.391  49.802  37.170  1.00  0.00     0.224 C 
ATOM     18  C   UNL     1      21.190  49.003  37.735  1.00  0.00     0.208 C 
ATOM     19  O   UNL     1      23.556  49.142  37.630  1.00  0.00    -0.337 OA
ATOM     20  C   UNL     1      21.721  48.462  39.040  1.00  0.00     0.180 C 
ATOM     21  C   UNL     1      23.237  48.414  38.802  1.00  0.00     0.179 C 
BRANCH  17  22
ATOM     22  C   UNL     1      22.440  51.272  37.698  1.00  0.00     0.225 C 
BRANCH  22  23
ATOM     23  O   UNL     1      23.520  51.982  37.155  1.00  0.00    -0.391 OA
ATOM     24  H   UNL     1      23.128  52.712  36.608  1.00  0.00     0.210 HD
ENDBRANCH  22  23
ENDBRANCH  17  22
BRANCH  18  25
ATOM     25  O   UNL     1      20.875  47.919  36.896  1.00  0.00    -0.385 OA
ATOM     26  H   UNL     1      19.926  48.035  36.627  1.00  0.00     0.211 HD
ENDBRANCH  18  25
BRANCH  20  27
ATOM     27  O   UNL     1      21.407  49.346  40.085  1.00  0.00    -0.387 OA
ATOM     28  H   UNL     1      21.514  48.835  40.929  1.00  0.00     0.211 HD
ENDBRANCH  20  27
BRANCH  21  29
ATOM     29  C   UNL     1      23.771  46.980  38.674  1.00  0.00     0.191 C 
BRANCH  29  30
ATOM     30  O   UNL     1      23.111  46.287  37.646  1.00  0.00    -0.394 OA
ATOM     31  H   UNL     1      22.366  46.865  37.338  1.00  0.00     0.210 HD
ENDBRANCH  29  30
ENDBRANCH  21  29
ENDBRANCH   1  17
TORSDOF 13
ENDMDL
MODEL 3
REMARK VINA RESULT:    -4.921      1.695      3.174
REMARK INTER + INTRA:          -8.314
REMARK INTER:                  -7.413
REMARK INTRA:                  -0.901
REMARK UNBOUND:                -0.804
REMARK SMILES OC[C@@H]1O[C@H](O[C@]2(CO)O[C@H](CO)[C@@H](O)[C@@H]2O)[C@H](O)[C@@H](O)[C@H]1O
REMARK SMILES IDX 6 1 5 2 3 3 22 4 4 5 20 6 18 7 2 8 1 9 23 11 21 13 19 15
REMARK SMILES IDX 7 17 16 18 10 19 14 20 11 21 8 22 9 23 17 25 15 27 12 29
REMARK SMILES IDX 13 30
REMARK H PARENT 1 10 23 12 21 14 19 16 9 24 17 26 15 28 13 31
REMARK Flexibility Score: inf
ROOT
ATOM      1  O   UNL     1      21.404  49.295  35.506  1.00  0.00    -0.313 OA
ENDROOT
BRANCH   1   2
ATOM      2  C   UNL     1      22.491  48.424  35.197  1.00  0.00     0.285 C 
ATOM      3  C   UNL     1      23.827  46.667  35.960  1.00  0.00     0.178 C 
ATOM      4  C   UNL     1      24.238  46.389  34.476  1.00  0.00     0.177 C 
ATOM      5  O   UNL     1      22.564  47.312  36.071  1.00  0.00    -0.341 OA
ATOM      6  C   UNL     1      23.010  46.529  33.550  1.00  0.00     0.179 C 
ATOM      7  C   UNL     1      22.327  47.907  33.743  1.00  0.00     0.202 C 
BRANCH   3   8
ATOM      8  C   UNL     1      23.781  45.370  36.783  1.00  0.00     0.191 C 
BRANCH   8   9
ATOM      9  O   UNL     1      23.205  45.591  38.043  1.00  0.00    -0.394 OA
ATOM     10  H   UNL     1      23.930  45.921  38.636  1.00  0.00     0.210 HD
ENDBRANCH   8   9
ENDBRANCH   3   8
BRANCH   4  11
ATOM     11  O   UNL     1      25.235  47.304  34.093  1.00  0.00    -0.387 OA
ATOM     12  H   UNL     1      25.622  46.975  33.239  1.00  0.00     0.211 HD
ENDBRANCH   4  11
BRANCH   6  13
ATOM     13  O   UNL     1      23.376  46.371  32.204  1.00  0.00    -0.387 OA
ATOM     14  H   UNL     1      23.427  45.392  32.034  1.00  0.00     0.211 HD
ENDBRANCH   6  13
BRANCH   7  15
ATOM     15  O   UNL     1      20.973  47.829  33.368  1.00  0.00    -0.385 OA
ATOM     16  H   UNL     1      20.426  48.050  34.167  1.00  0.00     0.211 HD
ENDBRANCH   7  15
ENDBRANCH   1   2
BRANCH   1  17
ATOM     17  C   UNL     1      21.577  50.184  36.615  1.00  0.00     0.224 C 
ATOM     18  C   UNL     1      20.886  49.704  37.915  1.00  0.00     0.208 C 
ATOM     19  O   UNL     1      22.965  50.213  36.893  1.00  0.00    -0.337 OA
ATOM     20  C   UNL     1      21.794  50.229  39.001  1.00  0.00     0.180 C 
ATOM     21  C   UNL     1      23.149  50.346  38.290  1.00  0.00     0.179 C 
BRANCH  17  22
ATOM     22  C   UNL     1      21.146  51.629  36.202  1.00  0.00     0.225 C 
BRANCH  22  23
ATOM     23  O   UNL     1      22.148  52.277  35.465  1.00  0.00    -0.391 OA
ATOM     24  H   UNL     1      22.236  51.777  34.611  1.00  0.00     0.210 HD
ENDBRANCH  22  23
ENDBRANCH  17  22
BRANCH  18  25
ATOM     25  O   UNL     1      20.875  48.299  37.983  1.00  0.00    -0.385 OA
ATOM     26  H   UNL     1      19.951  48.011  37.758  1.00  0.00     0.211 HD
ENDBRANCH  18  25
BRANCH  20  27
ATOM     27  O   UNL     1      21.345  51.489  39.429  1.00  0.00    -0.387 OA
ATOM     28  H   UNL     1      21.687  51.612  40.352  1.00  0.00     0.211 HD
ENDBRANCH  20  27
BRANCH  21  29
ATOM     29  C   UNL     1      24.163  49.297  38.773  1.00  0.00     0.191 C 
BRANCH  29  30
ATOM     30  O   UNL     1      24.983  49.818  39.787  1.00  0.00    -0.394 OA
ATOM     31  H   UNL     1      25.871  49.384  39.694  1.00  0.00     0.210 HD
ENDBRANCH  29  30
ENDBRANCH  21  29
ENDBRANCH   1  17
TORSDOF 13
ENDMDL
MODEL 4
REMARK VINA RESULT:    -4.878      1.748      5.704
REMARK INTER + INTRA:          -8.249
REMARK INTER:                  -6.684
REMARK INTRA:                  -1.565
REMARK UNBOUND:                -0.804
REMARK SMILES OC[C@@H]1O[C@H](O[C@]2(CO)O[C@H](CO)[C@@H](O)[C@@H]2O)[C@H](O)[C@@H](O)[C@H]1O
REMARK SMILES IDX 6 1 5 2 3 3 22 4 4 5 20 6 18 7 2 8 1 9 23 11 21 13 19 15
REMARK SMILES IDX 7 17 16 18 10 19 14 20 11 21 8 22 9 23 17 25 15 27 12 29
REMARK SMILES IDX 13 30
REMARK H PARENT 1 10 23 12 21 14 19 16 9 24 17 26 15 28 13 31
REMARK Flexibility Score: inf
ROOT
ATOM      1  O   UNL     1      22.177  47.667  36.166  1.00  0.00    -0.313 OA
ENDROOT
BRANCH   1   2
ATOM      2  C   UNL     1      22.341  49.023  36.583  1.00  0.00     0.285 C 
ATOM      3  C   UNL     1      21.996  51.264  36.025  1.00  0.00     0.178 C 
ATOM      4  C   UNL     1      22.166  51.625  37.538  1.00  0.00     0.177 C 
ATOM      5  O   UNL     1      21.559  49.925  35.823  1.00  0.00    -0.341 OA
ATOM      6  C   UNL     1      21.450  50.576  38.417  1.00  0.00     0.179 C 
ATOM      7  C   UNL     1      21.936  49.145  38.077  1.00  0.00     0.202 C 
BRANCH   3   8
ATOM      8  C   UNL     1      21.000  52.207  35.330  1.00  0.00     0.191 C 
BRANCH   8   9
ATOM      9  O   UNL     1      20.875  51.895  33.968  1.00  0.00    -0.394 OA
ATOM     10  H   UNL     1      21.794  51.752  33.621  1.00  0.00     0.210 HD
ENDBRANCH   8   9
ENDBRANCH   3   8
BRANCH   4  11
ATOM     11  O   UNL     1      23.536  51.662  37.853  1.00  0.00    -0.387 OA
ATOM     12  H   UNL     1      24.010  51.129  37.161  1.00  0.00     0.211 HD
ENDBRANCH   4  11
BRANCH   6  13
ATOM     13  O   UNL     1      21.667  50.834  39.781  1.00  0.00    -0.387 OA
ATOM     14  H   UNL     1      22.065  51.743  39.841  1.00  0.00     0.211 HD
ENDBRANCH   6  13
BRANCH   7  15
ATOM     15  O   UNL     1      20.948  48.206  38.426  1.00  0.00    -0.385 OA
ATOM     16  H   UNL     1      21.410  47.404  38.788  1.00  0.00     0.211 HD
ENDBRANCH   7  15
ENDBRANCH   1   2
BRANCH   1  17
ATOM     17  C   UNL     1      23.034  47.200  35.119  1.00  0.00     0.224 C 
ATOM     18  C   UNL     1      22.287  46.847  33.809  1.00  0.00     0.208 C 
ATOM     19  O   UNL     1      23.901  48.274  34.802  1.00  0.00    -0.337 OA
ATOM     20  C   UNL     1      23.293  47.186  32.737  1.00  0.00     0.180 C 
ATOM     21  C   UNL     1      24.172  48.248  33.412  1.00  0.00     0.179 C 
BRANCH  17  22
ATOM     22  C   UNL     1      23.914  46.022  35.648  1.00  0.00     0.225 C 
BRANCH  22  23
ATOM     23  O   UNL     1      23.958  45.996  37.049  1.00  0.00    -0.391 OA
ATOM     24  H   UNL     1      24.442  46.817  37.329  1.00  0.00     0.210 HD
ENDBRANCH  22  23
ENDBRANCH  17  22
BRANCH  18  25
ATOM     25  O   UNL     1      21.160  47.672  33.642  1.00  0.00    -0.385 OA
ATOM     26  H   UNL     1      20.614  47.265  32.919  1.00  0.00     0.211 HD
ENDBRANCH  18  25
BRANCH  20  27
ATOM     27  O   UNL     1      24.047  46.046  32.414  1.00  0.00    -0.387 OA
ATOM     28  H   UNL     1      23.431  45.272  32.482  1.00  0.00     0.211 HD
ENDBRANCH  20  27
BRANCH  21  29
ATOM     29  C   UNL     1      23.961  49.652  32.825  1.00  0.00     0.191 C 
BRANCH  29  30
ATOM     30  O   UNL     1      22.600  50.000  32.830  1.00  0.00    -0.394 OA
ATOM     31  H   UNL     1      22.509  50.824  32.283  1.00  0.00     0.210 HD
ENDBRANCH  29  30
ENDBRANCH  21  29
ENDBRANCH   1  17
TORSDOF 13
ENDMDL
MODEL 5
REMARK VINA RESULT:    -4.872      1.642      3.340
REMARK INTER + INTRA:          -8.240
REMARK INTER:                  -7.172
REMARK INTRA:                  -1.068
REMARK UNBOUND:                -0.804
REMARK SMILES OC[C@@H]1O[C@H](O[C@]2(CO)O[C@H](CO)[C@@H](O)[C@@H]2O)[C@H](O)[C@@H](O)[C@H]1O
REMARK SMILES IDX 6 1 5 2 3 3 22 4 4 5 20 6 18 7 2 8 1 9 23 11 21 13 19 15
REMARK SMILES IDX 7 17 16 18 10 19 14 20 11 21 8 22 9 23 17 25 15 27 12 29
REMARK SMILES IDX 13 30
REMARK H PARENT 1 10 23 12 21 14 19 16 9 24 17 26 15 28 13 31
REMARK Flexibility Score: inf
ROOT
ATOM      1  O   UNL     1      22.030  49.722  36.520  1.00  0.00    -0.313 OA
ENDROOT
BRANCH   1   2
ATOM      2  C   UNL     1      22.633  48.883  35.535  1.00  0.00     0.285 C 
ATOM      3  C   UNL     1      22.251  47.335  33.829  1.00  0.00     0.178 C 
ATOM      4  C   UNL     1      23.690  47.633  33.292  1.00  0.00     0.177 C 
ATOM      5  O   UNL     1      21.705  48.418  34.573  1.00  0.00    -0.341 OA
ATOM      6  C   UNL     1      23.984  49.146  33.372  1.00  0.00     0.179 C 
ATOM      7  C   UNL     1      23.751  49.679  34.808  1.00  0.00     0.202 C 
BRANCH   3   8
ATOM      8  C   UNL     1      21.281  46.998  32.684  1.00  0.00     0.191 C 
BRANCH   8   9
ATOM      9  O   UNL     1      21.030  45.619  32.624  1.00  0.00    -0.394 OA
ATOM     10  H   UNL     1      21.613  45.252  31.908  1.00  0.00     0.210 HD
ENDBRANCH   8   9
ENDBRANCH   3   8
BRANCH   4  11
ATOM     11  O   UNL     1      24.627  46.919  34.061  1.00  0.00    -0.387 OA
ATOM     12  H   UNL     1      24.326  45.972  34.085  1.00  0.00     0.211 HD
ENDBRANCH   4  11
BRANCH   6  13
ATOM     13  O   UNL     1      25.304  49.423  32.978  1.00  0.00    -0.387 OA
ATOM     14  H   UNL     1      25.584  48.682  32.376  1.00  0.00     0.211 HD
ENDBRANCH   6  13
BRANCH   7  15
ATOM     15  O   UNL     1      23.467  51.057  34.770  1.00  0.00    -0.385 OA
ATOM     16  H   UNL     1      24.329  51.544  34.858  1.00  0.00     0.211 HD
ENDBRANCH   7  15
ENDBRANCH   1   2
BRANCH   1  17
ATOM     17  C   UNL     1      22.321  49.429  37.891  1.00  0.00     0.224 C 
ATOM     18  C   UNL     1      23.496  50.253  38.471  1.00  0.00     0.208 C 
ATOM     19  O   UNL     1      21.173  49.801  38.632  1.00  0.00    -0.337 OA
ATOM     20  C   UNL     1      23.114  50.422  39.921  1.00  0.00     0.180 C 
ATOM     21  C   UNL     1      21.585  50.301  39.891  1.00  0.00     0.179 C 
BRANCH  17  22
ATOM     22  C   UNL     1      22.519  47.888  38.068  1.00  0.00     0.225 C 
BRANCH  22  23
ATOM     23  O   UNL     1      23.819  47.578  38.492  1.00  0.00    -0.391 OA
ATOM     24  H   UNL     1      24.412  48.280  38.113  1.00  0.00     0.210 HD
ENDBRANCH  22  23
ENDBRANCH  17  22
BRANCH  18  25
ATOM     25  O   UNL     1      23.555  51.524  37.873  1.00  0.00    -0.385 OA
ATOM     26  H   UNL     1      22.856  51.539  37.167  1.00  0.00     0.211 HD
ENDBRANCH  18  25
BRANCH  20  27
ATOM     27  O   UNL     1      23.682  49.391  40.687  1.00  0.00    -0.387 OA
ATOM     28  H   UNL     1      24.572  49.203  40.291  1.00  0.00     0.211 HD
ENDBRANCH  20  27
BRANCH  21  29
ATOM     29  C   UNL     1      20.879  51.638  40.165  1.00  0.00     0.191 C 
BRANCH  29  30
ATOM     30  O   UNL     1      21.073  52.046  41.495  1.00  0.00    -0.394 OA
ATOM     31  H   UNL     1      20.440  51.525  42.054  1.00  0.00     0.210 HD
ENDBRANCH  29  30
ENDBRANCH  21  29
ENDBRANCH   1  17
TORSDOF 13
ENDMDL
MODEL 6
REMARK VINA RESULT:    -4.853      1.539      6.172
REMARK INTER + INTRA:          -8.210
REMARK INTER:                  -7.169
REMARK INTRA:                  -1.041
REMARK UNBOUND:                -0.804
REMARK SMILES OC[C@@H]1O[C@H](O[C@]2(CO)O[C@H](CO)[C@@H](O)[C@@H]2O)[C@H](O)[C@@H](O)[C@H]1O
REMARK SMILES IDX 6 1 5 2 3 3 22 4 4 5 20 6 18 7 2 8 1 9 23 11 21 13 19 15
REMARK SMILES IDX 7 17 16 18 10 19 14 20 11 21 8 22 9 23 17 25 15 27 12 29
REMARK SMILES IDX 13 30
REMARK H PARENT 1 10 23 12 21 14 19 16 9 24 17 26 15 28 13 31
REMARK Flexibility Score: inf
ROOT
ATOM      1  O   UNL     1      22.435  48.583  35.386  1.00  0.00    -0.313 OA
ENDROOT
BRANCH   1   2
ATOM      2  C   UNL     1      22.715  49.283  36.599  1.00  0.00     0.285 C 
ATOM      3  C   UNL     1      22.099  51.062  37.981  1.00  0.00     0.178 C 
ATOM      4  C   UNL     1      22.871  50.366  39.151  1.00  0.00     0.177 C 
ATOM      5  O   UNL     1      21.659  50.143  36.987  1.00  0.00    -0.341 OA
ATOM      6  C   UNL     1      22.618  48.843  39.122  1.00  0.00     0.179 C 
ATOM      7  C   UNL     1      22.964  48.252  37.733  1.00  0.00     0.202 C 
BRANCH   3   8
ATOM      8  C   UNL     1      20.875  51.837  38.497  1.00  0.00     0.191 C 
BRANCH   8   9
ATOM      9  O   UNL     1      20.926  51.992  39.890  1.00  0.00    -0.394 OA
ATOM     10  H   UNL     1      21.886  52.046  40.138  1.00  0.00     0.210 HD
ENDBRANCH   8   9
ENDBRANCH   3   8
BRANCH   4  11
ATOM     11  O   UNL     1      24.246  50.628  39.018  1.00  0.00    -0.387 OA
ATOM     12  H   UNL     1      24.605  50.778  39.932  1.00  0.00     0.211 HD
ENDBRANCH   4  11
BRANCH   6  13
ATOM     13  O   UNL     1      23.373  48.191  40.111  1.00  0.00    -0.387 OA
ATOM     14  H   UNL     1      24.253  48.654  40.152  1.00  0.00     0.211 HD
ENDBRANCH   6  13
BRANCH   7  15
ATOM     15  O   UNL     1      22.240  47.063  37.522  1.00  0.00    -0.385 OA
ATOM     16  H   UNL     1      21.554  47.248  36.827  1.00  0.00     0.211 HD
ENDBRANCH   7  15
ENDBRANCH   1   2
BRANCH   1  17
ATOM     17  C   UNL     1      23.415  48.668  34.345  1.00  0.00     0.224 C 
ATOM     18  C   UNL     1      24.620  47.715  34.542  1.00  0.00     0.208 C 
ATOM     19  O   UNL     1      22.771  48.251  33.155  1.00  0.00    -0.337 OA
ATOM     20  C   UNL     1      25.013  47.363  33.128  1.00  0.00     0.180 C 
ATOM     21  C   UNL     1      23.707  47.560  32.347  1.00  0.00     0.179 C 
BRANCH  17  22
ATOM     22  C   UNL     1      23.848  50.157  34.152  1.00  0.00     0.225 C 
BRANCH  22  23
ATOM     23  O   UNL     1      23.011  50.827  33.249  1.00  0.00    -0.391 OA
ATOM     24  H   UNL     1      22.756  50.161  32.557  1.00  0.00     0.210 HD
ENDBRANCH  22  23
ENDBRANCH  17  22
BRANCH  18  25
ATOM     25  O   UNL     1      24.221  46.538  35.201  1.00  0.00    -0.385 OA
ATOM     26  H   UNL     1      24.781  46.467  36.018  1.00  0.00     0.211 HD
ENDBRANCH  18  25
BRANCH  20  27
ATOM     27  O   UNL     1      26.005  48.248  32.675  1.00  0.00    -0.387 OA
ATOM     28  H   UNL     1      25.874  49.097  33.172  1.00  0.00     0.211 HD
ENDBRANCH  20  27
BRANCH  21  29
ATOM     29  C   UNL     1      23.093  46.234  31.875  1.00  0.00     0.191 C 
BRANCH  29  30
ATOM     30  O   UNL     1      22.116  45.781  32.777  1.00  0.00    -0.394 OA
ATOM     31  H   UNL     1      22.066  46.449  33.510  1.00  0.00     0.210 HD
ENDBRANCH  29  30
ENDBRANCH  21  29
ENDBRANCH   1  17
TORSDOF 13
ENDMDL
MODEL 7
REMARK VINA RESULT:    -4.721      1.680      6.282
REMARK INTER + INTRA:          -8.008
REMARK INTER:                  -7.062
REMARK INTRA:                  -0.946
REMARK UNBOUND:                -0.804
REMARK SMILES OC[C@@H]1O[C@H](O[C@]2(CO)O[C@H](CO)[C@@H](O)[C@@H]2O)[C@H](O)[C@@H](O)[C@H]1O
REMARK SMILES IDX 6 1 5 2 3 3 22 4 4 5 20 6 18 7 2 8 1 9 23 11 21 13 19 15
REMARK SMILES IDX 7 17 16 18 10 19 14 20 11 21 8 22 9 23 17 25 15 27 12 29
REMARK SMILES IDX 13 30
REMARK H PARENT 1 10 23 12 21 14 19 16 9 24 17 26 15 28 13 31
REMARK Flexibility Score: inf
ROOT
ATOM      1  O   UNL     1      23.538  49.417  36.163  1.00  0.00    -0.313 OA
ENDROOT
BRANCH   1   2
ATOM      2  C   UNL     1      22.950  49.747  37.420  1.00  0.00     0.285 C 
ATOM      3  C   UNL     1      23.292  49.900  39.726  1.00  0.00     0.178 C 
ATOM      4  C   UNL     1      22.046  50.842  39.807  1.00  0.00     0.177 C 
ATOM      5  O   UNL     1      23.912  49.915  38.445  1.00  0.00    -0.341 OA
ATOM      6  C   UNL     1      22.046  51.826  38.617  1.00  0.00     0.179 C 
ATOM      7  C   UNL     1      22.143  51.066  37.271  1.00  0.00     0.202 C 
BRANCH   3   8
ATOM      8  C   UNL     1      24.349  50.272  40.778  1.00  0.00     0.191 C 
BRANCH   8   9
ATOM      9  O   UNL     1      25.592  50.528  40.178  1.00  0.00    -0.394 OA
ATOM     10  H   UNL     1      25.972  49.647  39.920  1.00  0.00     0.210 HD
ENDBRANCH   8   9
ENDBRANCH   3   8
BRANCH   4  11
ATOM     11  O   UNL     1      20.875  50.063  39.787  1.00  0.00    -0.387 OA
ATOM     12  H   UNL     1      20.973  49.407  39.047  1.00  0.00     0.211 HD
ENDBRANCH   4  11
BRANCH   6  13
ATOM     13  O   UNL     1      20.888  52.622  38.624  1.00  0.00    -0.387 OA
ATOM     14  H   UNL     1      21.184  53.557  38.787  1.00  0.00     0.211 HD
ENDBRANCH   6  13
BRANCH   7  15
ATOM     15  O   UNL     1      22.694  51.903  36.284  1.00  0.00    -0.385 OA
ATOM     16  H   UNL     1      23.373  52.481  36.724  1.00  0.00     0.211 HD
ENDBRANCH   7  15
ENDBRANCH   1   2
BRANCH   1  17
ATOM     17  C   UNL     1      22.880  48.416  35.379  1.00  0.00     0.224 C 
ATOM     18  C   UNL     1      22.119  48.981  34.155  1.00  0.00     0.208 C 
ATOM     19  O   UNL     1      23.898  47.580  34.860  1.00  0.00    -0.337 OA
ATOM     20  C   UNL     1      22.238  47.875  33.135  1.00  0.00     0.180 C 
ATOM     21  C   UNL     1      23.517  47.144  33.568  1.00  0.00     0.179 C 
BRANCH  17  22
ATOM     22  C   UNL     1      21.972  47.540  36.302  1.00  0.00     0.225 C 
BRANCH  22  23
ATOM     23  O   UNL     1      22.490  46.246  36.461  1.00  0.00    -0.391 OA
ATOM     24  H   UNL     1      22.514  46.074  37.439  1.00  0.00     0.210 HD
ENDBRANCH  22  23
ENDBRANCH  17  22
BRANCH  18  25
ATOM     25  O   UNL     1      22.765  50.124  33.652  1.00  0.00    -0.385 OA
ATOM     26  H   UNL     1      22.907  49.967  32.681  1.00  0.00     0.211 HD
ENDBRANCH  18  25
BRANCH  20  27
ATOM     27  O   UNL     1      21.124  47.025  33.221  1.00  0.00    -0.387 OA
ATOM     28  H   UNL     1      20.676  47.233  34.082  1.00  0.00     0.211 HD
ENDBRANCH  20  27
BRANCH  21  29
ATOM     29  C   UNL     1      24.683  47.363  32.591  1.00  0.00     0.191 C 
BRANCH  29  30
ATOM     30  O   UNL     1      25.717  48.096  33.197  1.00  0.00    -0.394 OA
ATOM     31  H   UNL     1      26.098  47.522  33.912  1.00  0.00     0.210 HD
ENDBRANCH  29  30
ENDBRANCH  21  29
ENDBRANCH   1  17
TORSDOF 13
ENDMDL
MODEL 8
REMARK VINA RESULT:    -4.696      2.067      3.317
REMARK INTER + INTRA:          -7.971
REMARK INTER:                  -6.375
REMARK INTRA:                  -1.596
REMARK UNBOUND:                -0.804
REMARK SMILES OC[C@@H]1O[C@H](O[C@]2(CO)O[C@H](CO)[C@@H](O)[C@@H]2O)[C@H](O)[C@@H](O)[C@H]1O
REMARK SMILES IDX 6 1 5 2 3 3 22 4 4 5 20 6 18 7 2 8 1 9 23 11 21 13 19 15
REMARK SMILES IDX 7 17 16 18 10 19 14 20 11 21 8 22 9 23 17 25 15 27 12 29
REMARK SMILES IDX 13 30
REMARK H PARENT 1 10 23 12 21 14 19 16 9 24 17 26 15 28 13 31
REMARK Flexibility Score: inf
ROOT
ATOM      1  O   UNL     1      22.799  48.918  38.859  1.00  0.00    -0.313 OA
ENDROOT
BRANCH   1   2
ATOM      2  C   UNL     1      22.467  48.886  37.471  1.00  0.00     0.285 C 
ATOM      3  C   UNL     1      22.631  50.004  35.426  1.00  0.00     0.178 C 
ATOM      4  C   UNL     1      22.304  48.653  34.708  1.00  0.00     0.177 C 
ATOM      5  O   UNL     1      23.214  49.819  36.711  1.00  0.00    -0.341 OA
ATOM      6  C   UNL     1      23.048  47.490  35.401  1.00  0.00     0.179 C 
ATOM      7  C   UNL     1      22.737  47.461  36.918  1.00  0.00     0.202 C 
BRANCH   3   8
ATOM      8  C   UNL     1      23.580  50.873  34.585  1.00  0.00     0.191 C 
BRANCH   8   9
ATOM      9  O   UNL     1      23.425  52.233  34.893  1.00  0.00    -0.394 OA
ATOM     10  H   UNL     1      22.504  52.345  35.247  1.00  0.00     0.210 HD
ENDBRANCH   8   9
ENDBRANCH   3   8
BRANCH   4  11
ATOM     11  O   UNL     1      20.916  48.430  34.752  1.00  0.00    -0.387 OA
ATOM     12  H   UNL     1      20.493  49.099  34.152  1.00  0.00     0.211 HD
ENDBRANCH   4  11
BRANCH   6  13
ATOM     13  O   UNL     1      22.698  46.257  34.826  1.00  0.00    -0.387 OA
ATOM     14  H   UNL     1      22.712  45.585  35.559  1.00  0.00     0.211 HD
ENDBRANCH   6  13
BRANCH   7  15
ATOM     15  O   UNL     1      23.782  46.823  37.611  1.00  0.00    -0.385 OA
ATOM     16  H   UNL     1      23.402  46.022  38.059  1.00  0.00     0.211 HD
ENDBRANCH   7  15
ENDBRANCH   1   2
BRANCH   1  17
ATOM     17  C   UNL     1      22.216  49.964  39.644  1.00  0.00     0.224 C 
ATOM     18  C   UNL     1      23.254  50.917  40.286  1.00  0.00     0.208 C 
ATOM     19  O   UNL     1      21.451  50.755  38.753  1.00  0.00    -0.337 OA
ATOM     20  C   UNL     1      22.533  52.242  40.312  1.00  0.00     0.180 C 
ATOM     21  C   UNL     1      21.520  52.107  39.167  1.00  0.00     0.179 C 
BRANCH  17  22
ATOM     22  C   UNL     1      21.234  49.347  40.692  1.00  0.00     0.225 C 
BRANCH  22  23
ATOM     23  O   UNL     1      21.727  49.469  41.999  1.00  0.00    -0.391 OA
ATOM     24  H   UNL     1      21.186  48.853  42.560  1.00  0.00     0.210 HD
ENDBRANCH  22  23
ENDBRANCH  17  22
BRANCH  18  25
ATOM     25  O   UNL     1      24.389  51.041  39.465  1.00  0.00    -0.385 OA
ATOM     26  H   UNL     1      24.888  51.837  39.789  1.00  0.00     0.211 HD
ENDBRANCH  18  25
BRANCH  20  27
ATOM     27  O   UNL     1      21.877  52.403  41.544  1.00  0.00    -0.387 OA
ATOM     28  H   UNL     1      22.521  52.124  42.245  1.00  0.00     0.211 HD
ENDBRANCH  20  27
BRANCH  21  29
ATOM     29  C   UNL     1      21.867  52.994  37.962  1.00  0.00     0.191 C 
BRANCH  29  30
ATOM     30  O   UNL     1      23.217  52.849  37.603  1.00  0.00    -0.394 OA
ATOM     31  H   UNL     1      23.380  53.458  36.836  1.00  0.00     0.210 HD
ENDBRANCH  29  30
ENDBRANCH  21  29
ENDBRANCH   1  17
TORSDOF 13
ENDMDL
MODEL 9
REMARK VINA RESULT:    -4.606      1.675      6.076
REMARK INTER + INTRA:          -7.833
REMARK INTER:                  -6.374
REMARK INTRA:                  -1.460
REMARK UNBOUND:                -0.804
REMARK SMILES OC[C@@H]1O[C@H](O[C@]2(CO)O[C@H](CO)[C@@H](O)[C@@H]2O)[C@H](O)[C@@H](O)[C@H]1O
REMARK SMILES IDX 6 1 5 2 3 3 22 4 4 5 20 6 18 7 2 8 1 9 23 11 21 13 19 15
REMARK SMILES IDX 7 17 16 18 10 19 14 20 11 21 8 22 9 23 17 25 15 27 12 29
REMARK SMILES IDX 13 30
REMARK H PARENT 1 10 23 12 21 14 19 16 9 24 17 26 15 28 13 31
REMARK Flexibility Score: inf
ROOT
ATOM      1  O   UNL     1      22.859  50.516  35.953  1.00  0.00    -0.313 OA
ENDROOT
BRANCH   1   2
ATOM      2  C   UNL     1      22.532  49.896  37.197  1.00  0.00     0.285 C 
ATOM      3  C   UNL     1      22.683  47.947  38.475  1.00  0.00     0.178 C 
ATOM      4  C   UNL     1      22.382  48.806  39.747  1.00  0.00     0.177 C 
ATOM      5  O   UNL     1      23.266  48.706  37.421  1.00  0.00    -0.341 OA
ATOM      6  C   UNL     1      23.144  50.147  39.674  1.00  0.00     0.179 C 
ATOM      7  C   UNL     1      22.828  50.891  38.352  1.00  0.00     0.202 C 
BRANCH   3   8
ATOM      8  C   UNL     1      23.620  46.771  38.798  1.00  0.00     0.191 C 
BRANCH   8   9
ATOM      9  O   UNL     1      23.423  45.707  37.905  1.00  0.00    -0.394 OA
ATOM     10  H   UNL     1      24.319  45.327  37.710  1.00  0.00     0.210 HD
ENDBRANCH   8   9
ENDBRANCH   3   8
BRANCH   4  11
ATOM     11  O   UNL     1      20.998  49.043  39.828  1.00  0.00    -0.387 OA
ATOM     12  H   UNL     1      20.591  48.249  40.267  1.00  0.00     0.211 HD
ENDBRANCH   4  11
BRANCH   6  13
ATOM     13  O   UNL     1      22.817  50.970  40.764  1.00  0.00    -0.387 OA
ATOM     14  H   UNL     1      23.282  50.592  41.558  1.00  0.00     0.211 HD
ENDBRANCH   6  13
BRANCH   7  15
ATOM     15  O   UNL     1      23.882  51.765  38.028  1.00  0.00    -0.385 OA
ATOM     16  H   UNL     1      23.580  52.333  37.270  1.00  0.00     0.211 HD
ENDBRANCH   7  15
ENDBRANCH   1   2
BRANCH   1  17
ATOM     17  C   UNL     1      22.127  50.087  34.800  1.00  0.00     0.224 C 
ATOM     18  C   UNL     1      22.990  49.967  33.520  1.00  0.00     0.208 C 
ATOM     19  O   UNL     1      21.659  48.781  35.085  1.00  0.00    -0.337 OA
ATOM     20  C   UNL     1      22.339  48.830  32.772  1.00  0.00     0.180 C 
ATOM     21  C   UNL     1      21.666  48.022  33.890  1.00  0.00     0.179 C 
BRANCH  17  22
ATOM     22  C   UNL     1      20.877  51.004  34.602  1.00  0.00     0.225 C 
BRANCH  22  23
ATOM     23  O   UNL     1      21.053  51.897  33.534  1.00  0.00    -0.391 OA
ATOM     24  H   UNL     1      20.174  51.959  33.074  1.00  0.00     0.210 HD
ENDBRANCH  22  23
ENDBRANCH  17  22
BRANCH  18  25
ATOM     25  O   UNL     1      24.307  49.595  33.842  1.00  0.00    -0.385 OA
ATOM     26  H   UNL     1      24.799  49.519  32.982  1.00  0.00     0.211 HD
ENDBRANCH  18  25
BRANCH  20  27
ATOM     27  O   UNL     1      21.383  49.335  31.875  1.00  0.00    -0.387 OA
ATOM     28  H   UNL     1      20.532  48.866  32.076  1.00  0.00     0.211 HD
ENDBRANCH  20  27
BRANCH  21  29
ATOM     29  C   UNL     1      22.357  46.674  34.145  1.00  0.00     0.191 C 
BRANCH  29  30
ATOM     30  O   UNL     1      23.383  46.806  35.094  1.00  0.00    -0.394 OA
ATOM     31  H   UNL     1      24.053  46.100  34.897  1.00  0.00     0.210 HD
ENDBRANCH  29  30
ENDBRANCH  21  29
ENDBRANCH   1  17
TORSDOF 13
ENDMDL
