MODEL 1
REMARK VINA RESULT:    -3.535      0.000      0.000
REMARK INTER + INTRA:          -9.850
REMARK INTER:                  -6.842
REMARK INTRA:                  -3.008
REMARK UNBOUND:                -3.008
REMARK SMILES CCCCCCCCCCCCCCCCCC(=O)[O-]
REMARK SMILES IDX 10 1 11 2 12 3 13 4 14 5 15 6 16 7 17 8 18 9 19 10 20 11
REMARK SMILES IDX 9 12 8 13 7 14 6 15 5 16 4 17 3 18 2 19 1 20
REMARK H PARENT
REMARK Flexibility Score: inf
ROOT
ATOM      1  C   UNL     1       5.439  -0.836  -5.787  1.00  0.00     0.000 C 
ENDROOT
BRANCH   1   2
ATOM      2  C   UNL     1       6.866  -0.804  -6.349  1.00  0.00     0.000 C 
BRANCH   2   3
ATOM      3  C   UNL     1       6.855  -0.891  -7.882  1.00  0.00     0.000 C 
BRANCH   3   4
ATOM      4  C   UNL     1       5.468  -1.230  -8.457  1.00  0.00     0.000 C 
BRANCH   4   5
ATOM      5  C   UNL     1       5.310  -2.669  -8.984  1.00  0.00     0.000 C 
BRANCH   5   6
ATOM      6  C   UNL     1       6.591  -3.507  -8.832  1.00  0.00     0.000 C 
BRANCH   6   7
ATOM      7  C   UNL     1       6.463  -4.598  -7.752  1.00  0.00     0.006 C 
BRANCH   7   8
ATOM      8  C   UNL     1       7.371  -4.392  -6.529  1.00  0.00     0.053 C 
BRANCH   8   9
ATOM      9  C   UNL     1       6.643  -4.636  -5.242  1.00  0.00     0.041 C 
ATOM     10  O   UNL     1       5.473  -4.197  -5.083  1.00  0.00    -0.550 OA
ATOM     11  O   UNL     1       7.245  -5.376  -4.231  1.00  0.00    -0.550 OA
ENDBRANCH   8   9
ENDBRANCH   7   8
ENDBRANCH   6   7
ENDBRANCH   5   6
ENDBRANCH   4   5
ENDBRANCH   3   4
ENDBRANCH   2   3
ENDBRANCH   1   2
BRANCH   1  12
ATOM     12  C   UNL     1       5.176   0.375  -4.880  1.00  0.00     0.000 C 
BRANCH  12  13
ATOM     13  C   UNL     1       4.917   1.673  -5.667  1.00  0.00    -0.000 C 
BRANCH  13  14
ATOM     14  C   UNL     1       3.777   1.595  -6.700  1.00  0.00    -0.000 C 
BRANCH  14  15
ATOM     15  C   UNL     1       4.135   2.263  -8.038  1.00  0.00    -0.000 C 
BRANCH  15  16
ATOM     16  C   UNL     1       5.496   2.977  -7.998  1.00  0.00    -0.000 C 
BRANCH  16  17
ATOM     17  C   UNL     1       6.417   2.573  -9.164  1.00  0.00    -0.000 C 
BRANCH  17  18
ATOM     18  C   UNL     1       7.908   2.612  -8.767  1.00  0.00    -0.000 C 
BRANCH  18  19
ATOM     19  C   UNL     1       8.140   2.550  -7.248  1.00  0.00    -0.003 C 
ATOM     20  C   UNL     1       9.436   1.836  -6.870  1.00  0.00     0.004 C 
ENDBRANCH  18  19
ENDBRANCH  17  18
ENDBRANCH  16  17
ENDBRANCH  15  16
ENDBRANCH  14  15
ENDBRANCH  13  14
ENDBRANCH  12  13
ENDBRANCH   1  12
TORSDOF 16
ENDMDL
MODEL 2
REMARK VINA RESULT:    -3.469      1.861      3.150
REMARK INTER + INTRA:          -9.723
REMARK INTER:                  -7.189
REMARK INTRA:                  -2.534
REMARK UNBOUND:                -3.008
REMARK SMILES CCCCCCCCCCCCCCCCCC(=O)[O-]
REMARK SMILES IDX 10 1 11 2 12 3 13 4 14 5 15 6 16 7 17 8 18 9 19 10 20 11
REMARK SMILES IDX 9 12 8 13 7 14 6 15 5 16 4 17 3 18 2 19 1 20
REMARK H PARENT
REMARK Flexibility Score: inf
ROOT
ATOM      1  C   UNL     1       4.011   2.118  -6.815  1.00  0.00     0.000 C 
ENDROOT
BRANCH   1   2
ATOM      2  C   UNL     1       4.044   0.822  -5.996  1.00  0.00     0.000 C 
BRANCH   2   3
ATOM      3  C   UNL     1       5.287   0.773  -5.094  1.00  0.00     0.000 C 
BRANCH   3   4
ATOM      4  C   UNL     1       6.345  -0.233  -5.580  1.00  0.00     0.000 C 
BRANCH   4   5
ATOM      5  C   UNL     1       5.817  -1.651  -5.871  1.00  0.00     0.000 C 
BRANCH   5   6
ATOM      6  C   UNL     1       6.768  -2.757  -5.381  1.00  0.00     0.000 C 
BRANCH   6   7
ATOM      7  C   UNL     1       6.221  -4.172  -5.646  1.00  0.00     0.006 C 
BRANCH   7   8
ATOM      8  C   UNL     1       7.123  -5.308  -5.139  1.00  0.00     0.053 C 
BRANCH   8   9
ATOM      9  C   UNL     1       8.027  -5.832  -6.213  1.00  0.00     0.041 C 
ATOM     10  O   UNL     1       9.120  -5.255  -6.457  1.00  0.00    -0.550 OA
ATOM     11  O   UNL     1       7.677  -6.975  -6.921  1.00  0.00    -0.550 OA
ENDBRANCH   8   9
ENDBRANCH   7   8
ENDBRANCH   6   7
ENDBRANCH   5   6
ENDBRANCH   4   5
ENDBRANCH   3   4
ENDBRANCH   2   3
ENDBRANCH   1   2
BRANCH   1  12
ATOM     12  C   UNL     1       4.038   1.820  -8.321  1.00  0.00     0.000 C 
BRANCH  12  13
ATOM     13  C   UNL     1       4.103   0.314  -8.636  1.00  0.00    -0.000 C 
BRANCH  13  14
ATOM     14  C   UNL     1       5.399  -0.154  -9.325  1.00  0.00    -0.000 C 
BRANCH  14  15
ATOM     15  C   UNL     1       6.484   0.935  -9.364  1.00  0.00    -0.000 C 
BRANCH  15  16
ATOM     16  C   UNL     1       7.833   0.448  -8.809  1.00  0.00    -0.000 C 
BRANCH  16  17
ATOM     17  C   UNL     1       8.615   1.556  -8.080  1.00  0.00    -0.000 C 
BRANCH  17  18
ATOM     18  C   UNL     1       7.678   2.582  -7.408  1.00  0.00    -0.000 C 
BRANCH  18  19
ATOM     19  C   UNL     1       7.778   3.993  -8.012  1.00  0.00    -0.003 C 
ATOM     20  C   UNL     1       6.416   4.647  -8.234  1.00  0.00     0.004 C 
ENDBRANCH  18  19
ENDBRANCH  17  18
ENDBRANCH  16  17
ENDBRANCH  15  16
ENDBRANCH  14  15
ENDBRANCH  13  14
ENDBRANCH  12  13
ENDBRANCH   1  12
TORSDOF 16
ENDMDL
MODEL 3
REMARK VINA RESULT:    -3.360      1.017      2.698
REMARK INTER + INTRA:          -9.512
REMARK INTER:                  -6.437
REMARK INTRA:                  -3.075
REMARK UNBOUND:                -3.008
REMARK SMILES CCCCCCCCCCCCCCCCCC(=O)[O-]
REMARK SMILES IDX 10 1 11 2 12 3 13 4 14 5 15 6 16 7 17 8 18 9 19 10 20 11
REMARK SMILES IDX 9 12 8 13 7 14 6 15 5 16 4 17 3 18 2 19 1 20
REMARK H PARENT
REMARK Flexibility Score: inf
ROOT
ATOM      1  C   UNL     1       4.237   1.293  -9.051  1.00  0.00     0.000 C 
ENDROOT
BRANCH   1   2
ATOM      2  C   UNL     1       5.445   0.942  -9.928  1.00  0.00     0.000 C 
BRANCH   2   3
ATOM      3  C   UNL     1       5.720  -0.569  -9.906  1.00  0.00     0.000 C 
BRANCH   3   4
ATOM      4  C   UNL     1       4.483  -1.401  -9.525  1.00  0.00     0.000 C 
BRANCH   4   5
ATOM      5  C   UNL     1       4.720  -2.920  -9.420  1.00  0.00     0.000 C 
BRANCH   5   6
ATOM      6  C   UNL     1       6.137  -3.273  -8.935  1.00  0.00     0.000 C 
BRANCH   6   7
ATOM      7  C   UNL     1       6.145  -4.411  -7.898  1.00  0.00     0.006 C 
BRANCH   7   8
ATOM      8  C   UNL     1       7.378  -4.427  -6.980  1.00  0.00     0.053 C 
BRANCH   8   9
ATOM      9  C   UNL     1       7.059  -4.966  -5.618  1.00  0.00     0.041 C 
ATOM     10  O   UNL     1       7.762  -5.884  -5.120  1.00  0.00    -0.550 OA
ATOM     11  O   UNL     1       6.006  -4.430  -4.887  1.00  0.00    -0.550 OA
ENDBRANCH   8   9
ENDBRANCH   7   8
ENDBRANCH   6   7
ENDBRANCH   5   6
ENDBRANCH   4   5
ENDBRANCH   3   4
ENDBRANCH   2   3
ENDBRANCH   1   2
BRANCH   1  12
ATOM     12  C   UNL     1       4.502   2.564  -8.230  1.00  0.00     0.000 C 
BRANCH  12  13
ATOM     13  C   UNL     1       4.329   2.350  -6.715  1.00  0.00    -0.000 C 
BRANCH  13  14
ATOM     14  C   UNL     1       3.816   0.956  -6.305  1.00  0.00    -0.000 C 
BRANCH  14  15
ATOM     15  C   UNL     1       4.747   0.244  -5.310  1.00  0.00    -0.000 C 
BRANCH  15  16
ATOM     16  C   UNL     1       5.365  -1.038  -5.891  1.00  0.00    -0.000 C 
BRANCH  16  17
ATOM     17  C   UNL     1       6.905  -1.026  -5.861  1.00  0.00    -0.000 C 
BRANCH  17  18
ATOM     18  C   UNL     1       7.502  -0.212  -7.028  1.00  0.00    -0.000 C 
BRANCH  18  19
ATOM     19  C   UNL     1       7.744   1.267  -6.685  1.00  0.00    -0.003 C 
ATOM     20  C   UNL     1       8.381   2.051  -7.830  1.00  0.00     0.004 C 
ENDBRANCH  18  19
ENDBRANCH  17  18
ENDBRANCH  16  17
ENDBRANCH  15  16
ENDBRANCH  14  15
ENDBRANCH  13  14
ENDBRANCH  12  13
ENDBRANCH   1  12
TORSDOF 16
ENDMDL
MODEL 4
REMARK VINA RESULT:    -3.328      1.395      3.045
REMARK INTER + INTRA:          -9.450
REMARK INTER:                  -7.159
REMARK INTRA:                  -2.291
REMARK UNBOUND:                -3.008
REMARK SMILES CCCCCCCCCCCCCCCCCC(=O)[O-]
REMARK SMILES IDX 10 1 11 2 12 3 13 4 14 5 15 6 16 7 17 8 18 9 19 10 20 11
REMARK SMILES IDX 9 12 8 13 7 14 6 15 5 16 4 17 3 18 2 19 1 20
REMARK H PARENT
REMARK Flexibility Score: inf
ROOT
ATOM      1  C   UNL     1       7.940   2.242  -6.879  1.00  0.00     0.000 C 
ENDROOT
BRANCH   1   2
ATOM      2  C   UNL     1       7.966   0.716  -7.025  1.00  0.00     0.000 C 
BRANCH   2   3
ATOM      3  C   UNL     1       8.377   0.307  -8.448  1.00  0.00     0.000 C 
BRANCH   3   4
ATOM      4  C   UNL     1       7.437  -0.742  -9.068  1.00  0.00     0.000 C 
BRANCH   4   5
ATOM      5  C   UNL     1       7.460  -2.126  -8.392  1.00  0.00     0.000 C 
BRANCH   5   6
ATOM      6  C   UNL     1       6.499  -2.223  -7.194  1.00  0.00     0.000 C 
BRANCH   6   7
ATOM      7  C   UNL     1       5.929  -3.641  -7.003  1.00  0.00     0.006 C 
BRANCH   7   8
ATOM      8  C   UNL     1       5.818  -4.091  -5.538  1.00  0.00     0.053 C 
BRANCH   8   9
ATOM      9  C   UNL     1       7.053  -4.801  -5.072  1.00  0.00     0.041 C 
ATOM     10  O   UNL     1       7.152  -5.180  -3.875  1.00  0.00    -0.550 OA
ATOM     11  O   UNL     1       8.079  -5.073  -5.968  1.00  0.00    -0.550 OA
ENDBRANCH   8   9
ENDBRANCH   7   8
ENDBRANCH   6   7
ENDBRANCH   5   6
ENDBRANCH   4   5
ENDBRANCH   3   4
ENDBRANCH   2   3
ENDBRANCH   1   2
BRANCH   1  12
ATOM     12  C   UNL     1       7.402   2.909  -8.153  1.00  0.00     0.000 C 
BRANCH  12  13
ATOM     13  C   UNL     1       6.245   3.887  -7.880  1.00  0.00    -0.000 C 
BRANCH  13  14
ATOM     14  C   UNL     1       5.125   3.887  -8.937  1.00  0.00    -0.000 C 
BRANCH  14  15
ATOM     15  C   UNL     1       4.979   2.535  -9.655  1.00  0.00    -0.000 C 
BRANCH  15  16
ATOM     16  C   UNL     1       3.862   1.664  -9.056  1.00  0.00    -0.000 C 
BRANCH  16  17
ATOM     17  C   UNL     1       4.378   0.677  -7.993  1.00  0.00    -0.000 C 
BRANCH  17  18
ATOM     18  C   UNL     1       3.928   1.069  -6.570  1.00  0.00    -0.000 C 
BRANCH  18  19
ATOM     19  C   UNL     1       4.428   0.105  -5.480  1.00  0.00    -0.003 C 
ATOM     20  C   UNL     1       5.478   0.730  -4.565  1.00  0.00     0.004 C 
ENDBRANCH  18  19
ENDBRANCH  17  18
ENDBRANCH  16  17
ENDBRANCH  15  16
ENDBRANCH  14  15
ENDBRANCH  13  14
ENDBRANCH  12  13
ENDBRANCH   1  12
TORSDOF 16
ENDMDL
MODEL 5
REMARK VINA RESULT:    -3.258      1.282      2.670
REMARK INTER + INTRA:          -9.313
REMARK INTER:                  -6.612
REMARK INTRA:                  -2.702
REMARK UNBOUND:                -3.008
REMARK SMILES CCCCCCCCCCCCCCCCCC(=O)[O-]
REMARK SMILES IDX 10 1 11 2 12 3 13 4 14 5 15 6 16 7 17 8 18 9 19 10 20 11
REMARK SMILES IDX 9 12 8 13 7 14 6 15 5 16 4 17 3 18 2 19 1 20
REMARK H PARENT
REMARK Flexibility Score: inf
ROOT
ATOM      1  C   UNL     1       4.016   1.597  -7.032  1.00  0.00     0.000 C 
ENDROOT
BRANCH   1   2
ATOM      2  C   UNL     1       3.804   1.101  -8.468  1.00  0.00     0.000 C 
BRANCH   2   3
ATOM      3  C   UNL     1       4.756  -0.058  -8.796  1.00  0.00     0.000 C 
BRANCH   3   4
ATOM      4  C   UNL     1       4.131  -1.103  -9.737  1.00  0.00     0.000 C 
BRANCH   4   5
ATOM      5  C   UNL     1       4.464  -2.570  -9.403  1.00  0.00     0.000 C 
BRANCH   5   6
ATOM      6  C   UNL     1       5.657  -2.709  -8.441  1.00  0.00     0.000 C 
BRANCH   6   7
ATOM      7  C   UNL     1       5.735  -4.103  -7.789  1.00  0.00     0.006 C 
BRANCH   7   8
ATOM      8  C   UNL     1       5.541  -4.104  -6.265  1.00  0.00     0.053 C 
BRANCH   8   9
ATOM      9  C   UNL     1       6.829  -4.331  -5.533  1.00  0.00     0.041 C 
ATOM     10  O   UNL     1       7.922  -3.982  -6.053  1.00  0.00    -0.550 OA
ATOM     11  O   UNL     1       6.819  -4.896  -4.264  1.00  0.00    -0.550 OA
ENDBRANCH   8   9
ENDBRANCH   7   8
ENDBRANCH   6   7
ENDBRANCH   5   6
ENDBRANCH   4   5
ENDBRANCH   3   4
ENDBRANCH   2   3
ENDBRANCH   1   2
BRANCH   1  12
ATOM     12  C   UNL     1       4.107   0.419  -6.051  1.00  0.00     0.000 C 
BRANCH  12  13
ATOM     13  C   UNL     1       5.383   0.448  -5.190  1.00  0.00    -0.000 C 
BRANCH  13  14
ATOM     14  C   UNL     1       6.439  -0.614  -5.549  1.00  0.00    -0.000 C 
BRANCH  14  15
ATOM     15  C   UNL     1       7.505  -0.093  -6.527  1.00  0.00    -0.000 C 
BRANCH  15  16
ATOM     16  C   UNL     1       7.614   1.440  -6.523  1.00  0.00    -0.000 C 
BRANCH  16  17
ATOM     17  C   UNL     1       7.650   2.041  -7.941  1.00  0.00    -0.000 C 
BRANCH  17  18
ATOM     18  C   UNL     1       7.068   3.470  -7.981  1.00  0.00    -0.000 C 
BRANCH  18  19
ATOM     19  C   UNL     1       6.484   3.857  -9.350  1.00  0.00    -0.003 C 
ATOM     20  C   UNL     1       5.095   4.484  -9.252  1.00  0.00     0.004 C 
ENDBRANCH  18  19
ENDBRANCH  17  18
ENDBRANCH  16  17
ENDBRANCH  15  16
ENDBRANCH  14  15
ENDBRANCH  13  14
ENDBRANCH  12  13
ENDBRANCH   1  12
TORSDOF 16
ENDMDL
MODEL 6
REMARK VINA RESULT:    -3.251      1.510      2.248
REMARK INTER + INTRA:          -9.300
REMARK INTER:                  -6.084
REMARK INTRA:                  -3.215
REMARK UNBOUND:                -3.008
REMARK SMILES CCCCCCCCCCCCCCCCCC(=O)[O-]
REMARK SMILES IDX 10 1 11 2 12 3 13 4 14 5 15 6 16 7 17 8 18 9 19 10 20 11
REMARK SMILES IDX 9 12 8 13 7 14 6 15 5 16 4 17 3 18 2 19 1 20
REMARK H PARENT
REMARK Flexibility Score: inf
ROOT
ATOM      1  C   UNL     1       6.726   1.851  -6.338  1.00  0.00     0.000 C 
ENDROOT
BRANCH   1   2
ATOM      2  C   UNL     1       8.119   1.581  -6.922  1.00  0.00     0.000 C 
BRANCH   2   3
ATOM      3  C   UNL     1       8.284   0.098  -7.286  1.00  0.00     0.000 C 
BRANCH   3   4
ATOM      4  C   UNL     1       7.865  -0.217  -8.733  1.00  0.00     0.000 C 
BRANCH   4   5
ATOM      5  C   UNL     1       7.238  -1.608  -8.947  1.00  0.00     0.000 C 
BRANCH   5   6
ATOM      6  C   UNL     1       7.351  -2.513  -7.708  1.00  0.00     0.000 C 
BRANCH   6   7
ATOM      7  C   UNL     1       5.978  -2.920  -7.141  1.00  0.00     0.006 C 
BRANCH   7   8
ATOM      8  C   UNL     1       5.974  -3.216  -5.633  1.00  0.00     0.053 C 
BRANCH   8   9
ATOM      9  C   UNL     1       6.568  -4.556  -5.321  1.00  0.00     0.041 C 
ATOM     10  O   UNL     1       6.684  -5.423  -6.227  1.00  0.00    -0.550 OA
ATOM     11  O   UNL     1       7.024  -4.834  -4.038  1.00  0.00    -0.550 OA
ENDBRANCH   8   9
ENDBRANCH   7   8
ENDBRANCH   6   7
ENDBRANCH   5   6
ENDBRANCH   4   5
ENDBRANCH   3   4
ENDBRANCH   2   3
ENDBRANCH   1   2
BRANCH   1  12
ATOM     12  C   UNL     1       6.185   0.614  -5.608  1.00  0.00     0.000 C 
BRANCH  12  13
ATOM     13  C   UNL     1       4.679   0.390  -5.836  1.00  0.00    -0.000 C 
BRANCH  13  14
ATOM     14  C   UNL     1       4.087   1.119  -7.057  1.00  0.00    -0.000 C 
BRANCH  14  15
ATOM     15  C   UNL     1       4.155   0.282  -8.346  1.00  0.00    -0.000 C 
BRANCH  15  16
ATOM     16  C   UNL     1       4.345   1.145  -9.603  1.00  0.00    -0.000 C 
BRANCH  16  17
ATOM     17  C   UNL     1       4.783   2.586  -9.279  1.00  0.00    -0.000 C 
BRANCH  17  18
ATOM     18  C   UNL     1       6.160   2.924  -9.889  1.00  0.00    -0.000 C 
BRANCH  18  19
ATOM     19  C   UNL     1       6.806   4.184  -9.286  1.00  0.00    -0.003 C 
ATOM     20  C   UNL     1       5.923   4.870  -8.246  1.00  0.00     0.004 C 
ENDBRANCH  18  19
ENDBRANCH  17  18
ENDBRANCH  16  17
ENDBRANCH  15  16
ENDBRANCH  14  15
ENDBRANCH  13  14
ENDBRANCH  12  13
ENDBRANCH   1  12
TORSDOF 16
ENDMDL
MODEL 7
REMARK VINA RESULT:    -3.111      3.652      6.711
REMARK INTER + INTRA:          -9.029
REMARK INTER:                  -6.316
REMARK INTRA:                  -2.713
REMARK UNBOUND:                -3.008
REMARK SMILES CCCCCCCCCCCCCCCCCC(=O)[O-]
REMARK SMILES IDX 10 1 11 2 12 3 13 4 14 5 15 6 16 7 17 8 18 9 19 10 20 11
REMARK SMILES IDX 9 12 8 13 7 14 6 15 5 16 4 17 3 18 2 19 1 20
REMARK H PARENT
REMARK Flexibility Score: inf
ROOT
ATOM      1  C   UNL     1       6.653  -1.028  -6.084  1.00  0.00     0.000 C 
ENDROOT
BRANCH   1   2
ATOM      2  C   UNL     1       6.042   0.148  -5.312  1.00  0.00     0.000 C 
BRANCH   2   3
ATOM      3  C   UNL     1       4.519  -0.010  -5.186  1.00  0.00     0.000 C 
BRANCH   3   4
ATOM      4  C   UNL     1       3.740   0.819  -6.223  1.00  0.00     0.000 C 
BRANCH   4   5
ATOM      5  C   UNL     1       4.420   2.130  -6.660  1.00  0.00     0.000 C 
BRANCH   5   6
ATOM      6  C   UNL     1       4.412   2.329  -8.186  1.00  0.00     0.000 C 
BRANCH   6   7
ATOM      7  C   UNL     1       5.816   2.606  -8.757  1.00  0.00     0.006 C 
BRANCH   7   8
ATOM      8  C   UNL     1       6.742   3.393  -7.816  1.00  0.00     0.053 C 
BRANCH   8   9
ATOM      9  C   UNL     1       6.943   4.805  -8.276  1.00  0.00     0.041 C 
ATOM     10  O   UNL     1       6.023   5.653  -8.134  1.00  0.00    -0.550 OA
ATOM     11  O   UNL     1       8.157   5.190  -8.830  1.00  0.00    -0.550 OA
ENDBRANCH   8   9
ENDBRANCH   7   8
ENDBRANCH   6   7
ENDBRANCH   5   6
ENDBRANCH   4   5
ENDBRANCH   3   4
ENDBRANCH   2   3
ENDBRANCH   1   2
BRANCH   1  12
ATOM     12  C   UNL     1       7.355  -0.544  -7.362  1.00  0.00     0.000 C 
BRANCH  12  13
ATOM     13  C   UNL     1       6.626  -0.971  -8.649  1.00  0.00    -0.000 C 
BRANCH  13  14
ATOM     14  C   UNL     1       5.279  -1.685  -8.431  1.00  0.00    -0.000 C 
BRANCH  14  15
ATOM     15  C   UNL     1       5.198  -3.043  -9.147  1.00  0.00    -0.000 C 
BRANCH  15  16
ATOM     16  C   UNL     1       5.676  -4.208  -8.265  1.00  0.00    -0.000 C 
BRANCH  16  17
ATOM     17  C   UNL     1       7.188  -4.473  -8.392  1.00  0.00    -0.000 C 
BRANCH  17  18
ATOM     18  C   UNL     1       7.898  -4.450  -7.022  1.00  0.00    -0.000 C 
BRANCH  18  19
ATOM     19  C   UNL     1       7.181  -5.279  -5.944  1.00  0.00    -0.003 C 
ATOM     20  C   UNL     1       6.837  -4.469  -4.696  1.00  0.00     0.004 C 
ENDBRANCH  18  19
ENDBRANCH  17  18
ENDBRANCH  16  17
ENDBRANCH  15  16
ENDBRANCH  14  15
ENDBRANCH  13  14
ENDBRANCH  12  13
ENDBRANCH   1  12
TORSDOF 16
ENDMDL
MODEL 8
REMARK VINA RESULT:    -3.053      1.011      2.072
REMARK INTER + INTRA:          -8.918
REMARK INTER:                  -6.117
REMARK INTRA:                  -2.801
REMARK UNBOUND:                -3.008
REMARK SMILES CCCCCCCCCCCCCCCCCC(=O)[O-]
REMARK SMILES IDX 10 1 11 2 12 3 13 4 14 5 15 6 16 7 17 8 18 9 19 10 20 11
REMARK SMILES IDX 9 12 8 13 7 14 6 15 5 16 4 17 3 18 2 19 1 20
REMARK H PARENT
REMARK Flexibility Score: inf
ROOT
ATOM      1  C   UNL     1       5.176   1.351  -5.563  1.00  0.00     0.000 C 
ENDROOT
BRANCH   1   2
ATOM      2  C   UNL     1       4.676  -0.081  -5.332  1.00  0.00     0.000 C 
BRANCH   2   3
ATOM      3  C   UNL     1       5.792  -1.103  -5.595  1.00  0.00     0.000 C 
BRANCH   3   4
ATOM      4  C   UNL     1       6.935  -0.538  -6.457  1.00  0.00     0.000 C 
BRANCH   4   5
ATOM      5  C   UNL     1       6.944  -1.007  -7.924  1.00  0.00     0.000 C 
BRANCH   5   6
ATOM      6  C   UNL     1       5.888  -2.089  -8.214  1.00  0.00     0.000 C 
BRANCH   6   7
ATOM      7  C   UNL     1       6.505  -3.395  -8.747  1.00  0.00     0.006 C 
BRANCH   7   8
ATOM      8  C   UNL     1       7.688  -3.924  -7.920  1.00  0.00     0.053 C 
BRANCH   8   9
ATOM      9  C   UNL     1       7.233  -4.670  -6.701  1.00  0.00     0.041 C 
ATOM     10  O   UNL     1       8.075  -5.076  -5.858  1.00  0.00    -0.550 OA
ATOM     11  O   UNL     1       5.878  -4.885  -6.482  1.00  0.00    -0.550 OA
ENDBRANCH   8   9
ENDBRANCH   7   8
ENDBRANCH   6   7
ENDBRANCH   5   6
ENDBRANCH   4   5
ENDBRANCH   3   4
ENDBRANCH   2   3
ENDBRANCH   1   2
BRANCH   1  12
ATOM     12  C   UNL     1       4.239   2.116  -6.508  1.00  0.00     0.000 C 
BRANCH  12  13
ATOM     13  C   UNL     1       3.824   1.293  -7.741  1.00  0.00    -0.000 C 
BRANCH  13  14
ATOM     14  C   UNL     1       4.503   1.704  -9.062  1.00  0.00    -0.000 C 
BRANCH  14  15
ATOM     15  C   UNL     1       4.728   3.221  -9.173  1.00  0.00    -0.000 C 
BRANCH  15  16
ATOM     16  C   UNL     1       6.194   3.582  -9.460  1.00  0.00    -0.000 C 
BRANCH  16  17
ATOM     17  C   UNL     1       7.188   2.564  -8.870  1.00  0.00    -0.000 C 
BRANCH  17  18
ATOM     18  C   UNL     1       7.823   3.065  -7.557  1.00  0.00    -0.000 C 
BRANCH  18  19
ATOM     19  C   UNL     1       9.154   2.375  -7.215  1.00  0.00    -0.003 C 
ATOM     20  C   UNL     1       9.659   1.462  -8.330  1.00  0.00     0.004 C 
ENDBRANCH  18  19
ENDBRANCH  17  18
ENDBRANCH  16  17
ENDBRANCH  15  16
ENDBRANCH  14  15
ENDBRANCH  13  14
ENDBRANCH  12  13
ENDBRANCH   1  12
TORSDOF 16
ENDMDL
MODEL 9
REMARK VINA RESULT:    -2.941      2.629      5.998
REMARK INTER + INTRA:          -8.701
REMARK INTER:                  -6.112
REMARK INTRA:                  -2.589
REMARK UNBOUND:                -3.008
REMARK SMILES CCCCCCCCCCCCCCCCCC(=O)[O-]
REMARK SMILES IDX 10 1 11 2 12 3 13 4 14 5 15 6 16 7 17 8 18 9 19 10 20 11
REMARK SMILES IDX 9 12 8 13 7 14 6 15 5 16 4 17 3 18 2 19 1 20
REMARK H PARENT
REMARK Flexibility Score: inf
ROOT
ATOM      1  C   UNL     1       4.542  -0.079  -5.279  1.00  0.00     0.000 C 
ENDROOT
BRANCH   1   2
ATOM      2  C   UNL     1       5.041   1.339  -5.587  1.00  0.00     0.000 C 
BRANCH   2   3
ATOM      3  C   UNL     1       4.073   2.070  -6.528  1.00  0.00     0.000 C 
BRANCH   3   4
ATOM      4  C   UNL     1       4.112   1.533  -7.970  1.00  0.00     0.000 C 
BRANCH   4   5
ATOM      5  C   UNL     1       4.642   2.522  -9.025  1.00  0.00     0.000 C 
BRANCH   5   6
ATOM      6  C   UNL     1       6.029   2.134  -9.568  1.00  0.00     0.000 C 
BRANCH   6   7
ATOM      7  C   UNL     1       7.134   3.113  -9.130  1.00  0.00     0.006 C 
BRANCH   7   8
ATOM      8  C   UNL     1       7.651   2.891  -7.699  1.00  0.00     0.053 C 
BRANCH   8   9
ATOM      9  C   UNL     1       8.981   2.200  -7.682  1.00  0.00     0.041 C 
ATOM     10  O   UNL     1       9.457   1.718  -8.744  1.00  0.00    -0.550 OA
ATOM     11  O   UNL     1       9.709   2.121  -6.501  1.00  0.00    -0.550 OA
ENDBRANCH   8   9
ENDBRANCH   7   8
ENDBRANCH   6   7
ENDBRANCH   5   6
ENDBRANCH   4   5
ENDBRANCH   3   4
ENDBRANCH   2   3
ENDBRANCH   1   2
BRANCH   1  12
ATOM     12  C   UNL     1       5.616  -1.125  -5.609  1.00  0.00     0.000 C 
BRANCH  12  13
ATOM     13  C   UNL     1       6.818  -0.536  -6.369  1.00  0.00    -0.000 C 
BRANCH  13  14
ATOM     14  C   UNL     1       6.940  -0.973  -7.841  1.00  0.00    -0.000 C 
BRANCH  14  15
ATOM     15  C   UNL     1       6.000  -2.135  -8.201  1.00  0.00    -0.000 C 
BRANCH  15  16
ATOM     16  C   UNL     1       6.695  -3.222  -9.036  1.00  0.00    -0.000 C 
BRANCH  16  17
ATOM     17  C   UNL     1       6.791  -4.572  -8.301  1.00  0.00    -0.000 C 
BRANCH  17  18
ATOM     18  C   UNL     1       7.818  -4.534  -7.150  1.00  0.00    -0.000 C 
BRANCH  18  19
ATOM     19  C   UNL     1       7.392  -5.350  -5.918  1.00  0.00    -0.003 C 
ATOM     20  C   UNL     1       6.811  -4.488  -4.800  1.00  0.00     0.004 C 
ENDBRANCH  18  19
ENDBRANCH  17  18
ENDBRANCH  16  17
ENDBRANCH  15  16
ENDBRANCH  14  15
ENDBRANCH  13  14
ENDBRANCH  12  13
ENDBRANCH   1  12
TORSDOF 16
ENDMDL
