MODEL 1
REMARK VINA RESULT:    -5.804      0.000      0.000
REMARK INTER + INTRA:          -5.973
REMARK INTER:                  -5.973
REMARK INTRA:                   0.000
REMARK UNBOUND:                 0.000
REMARK SMILES O=c1ccc2ccc(O)cc2o1
REMARK SMILES IDX 6 1 7 2 8 3 10 4 11 5 5 6 4 7 3 8 2 9 1 10 12 11 9 12
REMARK H PARENT 9 13
REMARK Flexibility Score: inf
ROOT
ATOM      1  C   UNL     1     -31.465  -2.837 -18.540  1.00  0.00     0.016 A 
ATOM      2  C   UNL     1     -30.792  -2.425 -19.694  1.00  0.00     0.047 A 
ATOM      3  C   UNL     1     -31.429  -2.480 -20.941  1.00  0.00     0.119 A 
ATOM      4  C   UNL     1     -32.746  -2.950 -21.034  1.00  0.00     0.094 A 
ATOM      5  C   UNL     1     -33.427  -3.364 -19.883  1.00  0.00     0.142 A 
ATOM      6  C   UNL     1     -32.782  -3.308 -18.628  1.00  0.00     0.018 A 
ATOM      7  C   UNL     1     -33.488  -3.728 -17.496  1.00  0.00     0.019 A 
ATOM      8  C   UNL     1     -34.797  -4.188 -17.638  1.00  0.00     0.094 A 
ATOM      9  C   UNL     1     -35.371  -4.217 -18.913  1.00  0.00     0.336 A 
ATOM     10  O   UNL     1     -36.552  -4.628 -19.062  1.00  0.00    -0.246 OA
ATOM     11  O   UNL     1     -34.678  -3.810 -19.974  1.00  0.00    -0.423 OA
ENDROOT
BRANCH   3  12
ATOM     12  O   UNL     1     -30.742  -2.065 -22.080  1.00  0.00    -0.508 OA
ATOM     13  H   UNL     1     -31.079  -1.299 -22.651  1.00  0.00     0.293 HD
ENDBRANCH   3  12
TORSDOF 1
ENDMDL
MODEL 2
REMARK VINA RESULT:    -5.619      7.693      9.041
REMARK INTER + INTRA:          -5.783
REMARK INTER:                  -5.783
REMARK INTRA:                   0.000
REMARK UNBOUND:                 0.000
REMARK SMILES O=c1ccc2ccc(O)cc2o1
REMARK SMILES IDX 6 1 7 2 8 3 10 4 11 5 5 6 4 7 3 8 2 9 1 10 12 11 9 12
REMARK H PARENT 9 13
REMARK Flexibility Score: inf
ROOT
ATOM      1  C   UNL     1     -39.434  -8.464 -13.990  1.00  0.00     0.016 A 
ATOM      2  C   UNL     1     -38.476  -9.107 -14.780  1.00  0.00     0.047 A 
ATOM      3  C   UNL     1     -37.271  -8.467 -15.094  1.00  0.00     0.119 A 
ATOM      4  C   UNL     1     -37.020  -7.173 -14.613  1.00  0.00     0.094 A 
ATOM      5  C   UNL     1     -37.973  -6.522 -13.821  1.00  0.00     0.142 A 
ATOM      6  C   UNL     1     -39.188  -7.171 -13.508  1.00  0.00     0.018 A 
ATOM      7  C   UNL     1     -40.120  -6.495 -12.714  1.00  0.00     0.019 A 
ATOM      8  C   UNL     1     -39.826  -5.209 -12.260  1.00  0.00     0.094 A 
ATOM      9  C   UNL     1     -38.603  -4.629 -12.610  1.00  0.00     0.336 A 
ATOM     10  O   UNL     1     -38.319  -3.469 -12.208  1.00  0.00    -0.246 OA
ATOM     11  O   UNL     1     -37.733  -5.294 -13.365  1.00  0.00    -0.423 OA
ENDROOT
BRANCH   3  12
ATOM     12  O   UNL     1     -36.329  -9.124 -15.883  1.00  0.00    -0.508 OA
ATOM     13  H   UNL     1     -35.342  -9.101 -15.658  1.00  0.00     0.293 HD
ENDBRANCH   3  12
TORSDOF 1
ENDMDL
MODEL 3
REMARK VINA RESULT:    -5.487      7.597      8.601
REMARK INTER + INTRA:          -5.647
REMARK INTER:                  -5.647
REMARK INTRA:                   0.000
REMARK UNBOUND:                 0.000
REMARK SMILES O=c1ccc2ccc(O)cc2o1
REMARK SMILES IDX 6 1 7 2 8 3 10 4 11 5 5 6 4 7 3 8 2 9 1 10 12 11 9 12
REMARK H PARENT 9 13
REMARK Flexibility Score: inf
ROOT
ATOM      1  C   UNL     1     -36.293  -7.720 -14.626  1.00  0.00     0.016 A 
ATOM      2  C   UNL     1     -37.310  -8.577 -15.057  1.00  0.00     0.047 A 
ATOM      3  C   UNL     1     -38.653  -8.258 -14.817  1.00  0.00     0.119 A 
ATOM      4  C   UNL     1     -38.981  -7.073 -14.142  1.00  0.00     0.094 A 
ATOM      5  C   UNL     1     -37.969  -6.209 -13.708  1.00  0.00     0.142 A 
ATOM      6  C   UNL     1     -36.616  -6.534 -13.951  1.00  0.00     0.018 A 
ATOM      7  C   UNL     1     -35.627  -5.652 -13.506  1.00  0.00     0.019 A 
ATOM      8  C   UNL     1     -36.002  -4.485 -12.839  1.00  0.00     0.094 A 
ATOM      9  C   UNL     1     -37.362  -4.228 -12.633  1.00  0.00     0.336 A 
ATOM     10  O   UNL     1     -37.720  -3.180 -12.034  1.00  0.00    -0.246 OA
ATOM     11  O   UNL     1     -38.283  -5.085 -13.069  1.00  0.00    -0.423 OA
ENDROOT
BRANCH   3  12
ATOM     12  O   UNL     1     -39.652  -9.125 -15.254  1.00  0.00    -0.508 OA
ATOM     13  H   UNL     1     -39.520 -10.129 -15.249  1.00  0.00     0.293 HD
ENDBRANCH   3  12
TORSDOF 1
ENDMDL
MODEL 4
REMARK VINA RESULT:    -5.443      6.650      7.615
REMARK INTER + INTRA:          -5.602
REMARK INTER:                  -5.602
REMARK INTRA:                   0.000
REMARK UNBOUND:                 0.000
REMARK SMILES O=c1ccc2ccc(O)cc2o1
REMARK SMILES IDX 6 1 7 2 8 3 10 4 11 5 5 6 4 7 3 8 2 9 1 10 12 11 9 12
REMARK H PARENT 9 13
REMARK Flexibility Score: inf
ROOT
ATOM      1  C   UNL     1     -36.542  -8.502 -15.130  1.00  0.00     0.016 A 
ATOM      2  C   UNL     1     -35.673  -8.734 -14.060  1.00  0.00     0.047 A 
ATOM      3  C   UNL     1     -35.292  -7.682 -13.217  1.00  0.00     0.119 A 
ATOM      4  C   UNL     1     -35.783  -6.389 -13.446  1.00  0.00     0.094 A 
ATOM      5  C   UNL     1     -36.654  -6.148 -14.515  1.00  0.00     0.142 A 
ATOM      6  C   UNL     1     -37.036  -7.211 -15.364  1.00  0.00     0.018 A 
ATOM      7  C   UNL     1     -37.907  -6.939 -16.423  1.00  0.00     0.019 A 
ATOM      8  C   UNL     1     -38.369  -5.637 -16.611  1.00  0.00     0.094 A 
ATOM      9  C   UNL     1     -37.949  -4.633 -15.732  1.00  0.00     0.336 A 
ATOM     10  O   UNL     1     -38.356  -3.452 -15.884  1.00  0.00    -0.246 OA
ATOM     11  O   UNL     1     -37.120  -4.919 -14.730  1.00  0.00    -0.423 OA
ENDROOT
BRANCH   3  12
ATOM     12  O   UNL     1     -34.425  -7.933 -12.156  1.00  0.00    -0.508 OA
ATOM     13  H   UNL     1     -33.430  -7.763 -12.235  1.00  0.00     0.293 HD
ENDBRANCH   3  12
TORSDOF 1
ENDMDL
MODEL 5
REMARK VINA RESULT:    -5.280      7.934      9.149
REMARK INTER + INTRA:          -5.434
REMARK INTER:                  -5.434
REMARK INTRA:                   0.000
REMARK UNBOUND:                 0.000
REMARK SMILES O=c1ccc2ccc(O)cc2o1
REMARK SMILES IDX 6 1 7 2 8 3 10 4 11 5 5 6 4 7 3 8 2 9 1 10 12 11 9 12
REMARK H PARENT 9 13
REMARK Flexibility Score: inf
ROOT
ATOM      1  C   UNL     1     -40.038  -6.301 -12.512  1.00  0.00     0.016 A 
ATOM      2  C   UNL     1     -39.672  -5.012 -12.114  1.00  0.00     0.047 A 
ATOM      3  C   UNL     1     -38.493  -4.430 -12.597  1.00  0.00     0.119 A 
ATOM      4  C   UNL     1     -37.674  -5.141 -13.485  1.00  0.00     0.094 A 
ATOM      5  C   UNL     1     -38.033  -6.433 -13.889  1.00  0.00     0.142 A 
ATOM      6  C   UNL     1     -39.222  -7.017 -13.399  1.00  0.00     0.018 A 
ATOM      7  C   UNL     1     -39.554  -8.308 -13.821  1.00  0.00     0.019 A 
ATOM      8  C   UNL     1     -38.708  -8.977 -14.705  1.00  0.00     0.094 A 
ATOM      9  C   UNL     1     -37.546  -8.337 -15.149  1.00  0.00     0.336 A 
ATOM     10  O   UNL     1     -36.770  -8.924 -15.948  1.00  0.00    -0.246 OA
ATOM     11  O   UNL     1     -37.254  -7.107 -14.733  1.00  0.00    -0.423 OA
ENDROOT
BRANCH   3  12
ATOM     12  O   UNL     1     -38.146  -3.143 -12.189  1.00  0.00    -0.508 OA
ATOM     13  H   UNL     1     -38.703  -2.635 -11.512  1.00  0.00     0.293 HD
ENDBRANCH   3  12
TORSDOF 1
ENDMDL
MODEL 6
REMARK VINA RESULT:    -5.264      4.170      6.192
REMARK INTER + INTRA:          -5.418
REMARK INTER:                  -5.418
REMARK INTRA:                   0.000
REMARK UNBOUND:                 0.000
REMARK SMILES O=c1ccc2ccc(O)cc2o1
REMARK SMILES IDX 6 1 7 2 8 3 10 4 11 5 5 6 4 7 3 8 2 9 1 10 12 11 9 12
REMARK H PARENT 9 13
REMARK Flexibility Score: inf
ROOT
ATOM      1  C   UNL     1     -36.032  -5.855 -14.032  1.00  0.00     0.016 A 
ATOM      2  C   UNL     1     -36.060  -7.236 -14.251  1.00  0.00     0.047 A 
ATOM      3  C   UNL     1     -36.104  -7.745 -15.555  1.00  0.00     0.119 A 
ATOM      4  C   UNL     1     -36.121  -6.867 -16.649  1.00  0.00     0.094 A 
ATOM      5  C   UNL     1     -36.093  -5.484 -16.439  1.00  0.00     0.142 A 
ATOM      6  C   UNL     1     -36.049  -4.974 -15.122  1.00  0.00     0.018 A 
ATOM      7  C   UNL     1     -36.021  -3.587 -14.944  1.00  0.00     0.019 A 
ATOM      8  C   UNL     1     -36.039  -2.754 -16.062  1.00  0.00     0.094 A 
ATOM      9  C   UNL     1     -36.083  -3.329 -17.337  1.00  0.00     0.336 A 
ATOM     10  O   UNL     1     -36.099  -2.593 -18.359  1.00  0.00    -0.246 OA
ATOM     11  O   UNL     1     -36.107  -4.652 -17.478  1.00  0.00    -0.423 OA
ENDROOT
BRANCH   3  12
ATOM     12  O   UNL     1     -36.132  -9.124 -15.753  1.00  0.00    -0.508 OA
ATOM     13  H   UNL     1     -35.752  -9.545 -16.593  1.00  0.00     0.293 HD
ENDBRANCH   3  12
TORSDOF 1
ENDMDL
MODEL 7
REMARK VINA RESULT:    -5.202      3.432      4.599
REMARK INTER + INTRA:          -5.354
REMARK INTER:                  -5.354
REMARK INTRA:                   0.000
REMARK UNBOUND:                 0.000
REMARK SMILES O=c1ccc2ccc(O)cc2o1
REMARK SMILES IDX 6 1 7 2 8 3 10 4 11 5 5 6 4 7 3 8 2 9 1 10 12 11 9 12
REMARK H PARENT 9 13
REMARK Flexibility Score: inf
ROOT
ATOM      1  C   UNL     1     -35.784  -3.227 -16.395  1.00  0.00     0.016 A 
ATOM      2  C   UNL     1     -35.672  -2.713 -17.690  1.00  0.00     0.047 A 
ATOM      3  C   UNL     1     -35.706  -3.570 -18.797  1.00  0.00     0.119 A 
ATOM      4  C   UNL     1     -35.854  -4.952 -18.608  1.00  0.00     0.094 A 
ATOM      5  C   UNL     1     -35.968  -5.475 -17.315  1.00  0.00     0.142 A 
ATOM      6  C   UNL     1     -35.932  -4.608 -16.201  1.00  0.00     0.018 A 
ATOM      7  C   UNL     1     -36.048  -5.160 -14.922  1.00  0.00     0.019 A 
ATOM      8  C   UNL     1     -36.193  -6.541 -14.783  1.00  0.00     0.094 A 
ATOM      9  C   UNL     1     -36.220  -7.339 -15.932  1.00  0.00     0.336 A 
ATOM     10  O   UNL     1     -36.351  -8.587 -15.828  1.00  0.00    -0.246 OA
ATOM     11  O   UNL     1     -36.108  -6.787 -17.138  1.00  0.00    -0.423 OA
ENDROOT
BRANCH   3  12
ATOM     12  O   UNL     1     -35.593  -3.039 -20.080  1.00  0.00    -0.508 OA
ATOM     13  H   UNL     1     -35.462  -2.045 -20.231  1.00  0.00     0.293 HD
ENDBRANCH   3  12
TORSDOF 1
ENDMDL
MODEL 8
REMARK VINA RESULT:    -4.139      7.574      8.198
REMARK INTER + INTRA:          -4.260
REMARK INTER:                  -4.260
REMARK INTRA:                   0.000
REMARK UNBOUND:                 0.000
REMARK SMILES O=c1ccc2ccc(O)cc2o1
REMARK SMILES IDX 6 1 7 2 8 3 10 4 11 5 5 6 4 7 3 8 2 9 1 10 12 11 9 12
REMARK H PARENT 9 13
REMARK Flexibility Score: inf
ROOT
ATOM      1  C   UNL     1     -35.625  -5.512 -13.419  1.00  0.00     0.016 A 
ATOM      2  C   UNL     1     -36.040  -4.243 -13.005  1.00  0.00     0.047 A 
ATOM      3  C   UNL     1     -37.404  -3.929 -12.942  1.00  0.00     0.119 A 
ATOM      4  C   UNL     1     -38.360  -4.892 -13.295  1.00  0.00     0.094 A 
ATOM      5  C   UNL     1     -37.954  -6.166 -13.709  1.00  0.00     0.142 A 
ATOM      6  C   UNL     1     -36.578  -6.479 -13.772  1.00  0.00     0.018 A 
ATOM      7  C   UNL     1     -36.203  -7.759 -14.190  1.00  0.00     0.019 A 
ATOM      8  C   UNL     1     -37.190  -8.684 -14.530  1.00  0.00     0.094 A 
ATOM      9  C   UNL     1     -38.534  -8.305 -14.444  1.00  0.00     0.336 A 
ATOM     10  O   UNL     1     -39.440  -9.125 -14.746  1.00  0.00    -0.246 OA
ATOM     11  O   UNL     1     -38.864  -7.079 -14.042  1.00  0.00    -0.423 OA
ENDROOT
BRANCH   3  12
ATOM     12  O   UNL     1     -37.797  -2.658 -12.528  1.00  0.00    -0.508 OA
ATOM     13  H   UNL     1     -37.123  -1.978 -12.196  1.00  0.00     0.293 HD
ENDBRANCH   3  12
TORSDOF 1
ENDMDL
