MODEL 1
REMARK VINA RESULT:    -6.116      0.000      0.000
REMARK INTER + INTRA:          -7.684
REMARK INTER:                  -7.368
REMARK INTRA:                  -0.317
REMARK UNBOUND:                -0.317
REMARK SMILES O=c1c(O)c(-c2ccc(O)c(O)c2)oc2cc(O)cc(O)c12
REMARK SMILES IDX 5 1 3 2 2 3 1 4 22 5 20 6 19 7 17 8 16 9 15 10 14 11 6 12
REMARK SMILES IDX 7 13 8 14 9 15 13 16 11 17 10 18 12 20 4 22 21 24 18 26
REMARK H PARENT 10 19 12 21 4 23 21 25 18 27
REMARK Flexibility Score: inf
ROOT
ATOM      1  C   UNL     1      -2.673 -11.748  98.879  1.00  0.00     0.180 A 
ATOM      2  C   UNL     1      -3.785 -10.958  98.543  1.00  0.00     0.208 A 
ATOM      3  C   UNL     1      -4.893 -10.938  99.405  1.00  0.00     0.238 A 
ATOM      4  O   UNL     1      -5.914 -10.289  99.061  1.00  0.00    -0.285 OA
ATOM      5  C   UNL     1      -4.853 -11.664 100.621  1.00  0.00     0.111 A 
ATOM      6  C   UNL     1      -5.900 -11.681 101.592  1.00  0.00     0.134 A 
ATOM      7  C   UNL     1      -5.794 -12.520 102.707  1.00  0.00     0.093 A 
ATOM      8  C   UNL     1      -4.652 -13.295 102.920  1.00  0.00     0.123 A 
ATOM      9  C   UNL     1      -3.601 -13.244 102.007  1.00  0.00     0.094 A 
ATOM     10  C   UNL     1      -3.693 -12.445 100.865  1.00  0.00     0.146 A 
ATOM     11  O   UNL     1      -2.678 -12.443 100.010  1.00  0.00    -0.452 OA
ENDROOT
BRANCH   1  12
ATOM     12  C   UNL     1      -1.474 -11.830  98.015  1.00  0.00     0.025 A 
ATOM     13  C   UNL     1      -1.301 -12.885  97.101  1.00  0.00     0.016 A 
ATOM     14  C   UNL     1      -0.149 -12.955  96.313  1.00  0.00     0.051 A 
ATOM     15  C   UNL     1       0.852 -11.984  96.437  1.00  0.00     0.157 A 
ATOM     16  C   UNL     1      -0.458 -10.871  98.150  1.00  0.00     0.062 A 
ATOM     17  C   UNL     1       0.698 -10.939  97.361  1.00  0.00     0.158 A 
BRANCH  15  18
ATOM     18  O   UNL     1       2.000 -12.055  95.648  1.00  0.00    -0.504 OA
ATOM     19  H   UNL     1       2.178 -12.848  95.041  1.00  0.00     0.293 HD
ENDBRANCH  15  18
BRANCH  17  20
ATOM     20  O   UNL     1       1.679  -9.959  97.514  1.00  0.00    -0.504 OA
ATOM     21  H   UNL     1       2.267  -9.910  98.337  1.00  0.00     0.293 HD
ENDBRANCH  17  20
ENDBRANCH   1  12
BRANCH   2  22
ATOM     22  O   UNL     1      -3.774 -10.188  97.376  1.00  0.00    -0.502 OA
ATOM     23  H   UNL     1      -4.192  -9.266  97.328  1.00  0.00     0.293 HD
ENDBRANCH   2  22
BRANCH   6  24
ATOM     24  O   UNL     1      -7.045 -10.881 101.522  1.00  0.00    -0.507 OA
ATOM     25  H   UNL     1      -7.123 -10.027 100.993  1.00  0.00     0.293 HD
ENDBRANCH   6  24
BRANCH   8  26
ATOM     26  O   UNL     1      -4.548 -14.114 104.043  1.00  0.00    -0.508 OA
ATOM     27  H   UNL     1      -4.988 -13.869 104.921  1.00  0.00     0.293 HD
ENDBRANCH   8  26
TORSDOF 6
ENDMDL
MODEL 2
REMARK VINA RESULT:    -5.805     12.530     14.500
REMARK INTER + INTRA:          -7.310
REMARK INTER:                  -6.996
REMARK INTRA:                  -0.314
REMARK UNBOUND:                -0.317
REMARK SMILES O=c1c(O)c(-c2ccc(O)c(O)c2)oc2cc(O)cc(O)c12
REMARK SMILES IDX 5 1 3 2 2 3 1 4 22 5 20 6 19 7 17 8 16 9 15 10 14 11 6 12
REMARK SMILES IDX 7 13 8 14 9 15 13 16 11 17 10 18 12 20 4 22 21 24 18 26
REMARK H PARENT 10 19 12 21 4 23 21 25 18 27
REMARK Flexibility Score: inf
ROOT
ATOM      1  C   UNL     1     -11.580  -8.614  89.756  1.00  0.00     0.180 A 
ATOM      2  C   UNL     1     -12.392  -8.847  90.879  1.00  0.00     0.208 A 
ATOM      3  C   UNL     1     -13.561  -8.085  91.045  1.00  0.00     0.238 A 
ATOM      4  O   UNL     1     -14.242  -8.246  92.089  1.00  0.00    -0.285 OA
ATOM      5  C   UNL     1     -13.933  -7.140  90.057  1.00  0.00     0.111 A 
ATOM      6  C   UNL     1     -15.118  -6.345  90.099  1.00  0.00     0.134 A 
ATOM      7  C   UNL     1     -15.328  -5.367  89.120  1.00  0.00     0.093 A 
ATOM      8  C   UNL     1     -14.428  -5.198  88.065  1.00  0.00     0.123 A 
ATOM      9  C   UNL     1     -13.297  -6.006  87.985  1.00  0.00     0.094 A 
ATOM     10  C   UNL     1     -13.039  -6.965  88.967  1.00  0.00     0.146 A 
ATOM     11  O   UNL     1     -11.938  -7.698  88.864  1.00  0.00    -0.452 OA
ENDROOT
BRANCH   1  12
ATOM     12  C   UNL     1     -10.327  -9.366  89.519  1.00  0.00     0.025 A 
ATOM     13  C   UNL     1      -9.074  -8.829  89.865  1.00  0.00     0.016 A 
ATOM     14  C   UNL     1      -7.903  -9.547  89.609  1.00  0.00     0.051 A 
ATOM     15  C   UNL     1      -7.965 -10.803  88.992  1.00  0.00     0.157 A 
ATOM     16  C   UNL     1     -10.382 -10.616  88.882  1.00  0.00     0.062 A 
ATOM     17  C   UNL     1      -9.210 -11.339  88.625  1.00  0.00     0.158 A 
BRANCH  15  18
ATOM     18  O   UNL     1      -6.795 -11.519  88.740  1.00  0.00    -0.504 OA
ATOM     19  H   UNL     1      -6.054 -11.138  88.162  1.00  0.00     0.293 HD
ENDBRANCH  15  18
BRANCH  17  20
ATOM     20  O   UNL     1      -9.305 -12.584  88.004  1.00  0.00    -0.504 OA
ATOM     21  H   UNL     1      -9.718 -13.385  88.466  1.00  0.00     0.293 HD
ENDBRANCH  17  20
ENDBRANCH   1  12
BRANCH   2  22
ATOM     22  O   UNL     1     -12.048  -9.837  91.803  1.00  0.00    -0.502 OA
ATOM     23  H   UNL     1     -11.157  -9.844  92.286  1.00  0.00     0.293 HD
ENDBRANCH   2  22
BRANCH   6  24
ATOM     24  O   UNL     1     -16.125  -6.492  91.058  1.00  0.00    -0.507 OA
ATOM     25  H   UNL     1     -16.541  -5.736  91.579  1.00  0.00     0.293 HD
ENDBRANCH   6  24
BRANCH   8  26
ATOM     26  O   UNL     1     -14.655  -4.233  87.085  1.00  0.00    -0.508 OA
ATOM     27  H   UNL     1     -14.709  -3.248  87.314  1.00  0.00     0.293 HD
ENDBRANCH   8  26
TORSDOF 6
ENDMDL
MODEL 3
REMARK VINA RESULT:    -5.781      9.248     11.290
REMARK INTER + INTRA:          -7.281
REMARK INTER:                  -6.964
REMARK INTRA:                  -0.317
REMARK UNBOUND:                -0.317
REMARK SMILES O=c1c(O)c(-c2ccc(O)c(O)c2)oc2cc(O)cc(O)c12
REMARK SMILES IDX 5 1 3 2 2 3 1 4 22 5 20 6 19 7 17 8 16 9 15 10 14 11 6 12
REMARK SMILES IDX 7 13 8 14 9 15 13 16 11 17 10 18 12 20 4 22 21 24 18 26
REMARK H PARENT 10 19 12 21 4 23 21 25 18 27
REMARK Flexibility Score: inf
ROOT
ATOM      1  C   UNL     1      -7.891  -7.382  91.574  1.00  0.00     0.180 A 
ATOM      2  C   UNL     1      -9.235  -7.290  91.974  1.00  0.00     0.208 A 
ATOM      3  C   UNL     1     -10.173  -8.176  91.420  1.00  0.00     0.238 A 
ATOM      4  O   UNL     1     -11.386  -8.039  91.724  1.00  0.00    -0.285 OA
ATOM      5  C   UNL     1      -9.746  -9.180  90.516  1.00  0.00     0.111 A 
ATOM      6  C   UNL     1     -10.602 -10.160  89.926  1.00  0.00     0.134 A 
ATOM      7  C   UNL     1     -10.087 -11.036  88.964  1.00  0.00     0.093 A 
ATOM      8  C   UNL     1      -8.735 -11.010  88.615  1.00  0.00     0.123 A 
ATOM      9  C   UNL     1      -7.881 -10.095  89.224  1.00  0.00     0.094 A 
ATOM     10  C   UNL     1      -8.371  -9.182  90.161  1.00  0.00     0.146 A 
ATOM     11  O   UNL     1      -7.526  -8.312  90.701  1.00  0.00    -0.452 OA
ENDROOT
BRANCH   1  12
ATOM     12  C   UNL     1      -6.848  -6.475  92.104  1.00  0.00     0.025 A 
ATOM     13  C   UNL     1      -6.434  -5.338  91.388  1.00  0.00     0.016 A 
ATOM     14  C   UNL     1      -5.429  -4.510  91.896  1.00  0.00     0.051 A 
ATOM     15  C   UNL     1      -4.814  -4.813  93.117  1.00  0.00     0.157 A 
ATOM     16  C   UNL     1      -6.213  -6.786  93.317  1.00  0.00     0.062 A 
ATOM     17  C   UNL     1      -5.206  -5.958  93.829  1.00  0.00     0.158 A 
BRANCH  15  18
ATOM     18  O   UNL     1      -3.813  -3.984  93.623  1.00  0.00    -0.504 OA
ATOM     19  H   UNL     1      -2.864  -4.020  93.267  1.00  0.00     0.293 HD
ENDBRANCH  15  18
BRANCH  17  20
ATOM     20  O   UNL     1      -4.609  -6.291  95.045  1.00  0.00    -0.504 OA
ATOM     21  H   UNL     1      -4.920  -5.894  95.923  1.00  0.00     0.293 HD
ENDBRANCH  17  20
ENDBRANCH   1  12
BRANCH   2  22
ATOM     22  O   UNL     1      -9.623  -6.342  92.925  1.00  0.00    -0.502 OA
ATOM     23  H   UNL     1     -10.444  -5.759  92.809  1.00  0.00     0.293 HD
ENDBRANCH   2  22
BRANCH   6  24
ATOM     24  O   UNL     1     -11.947 -10.330  90.267  1.00  0.00    -0.507 OA
ATOM     25  H   UNL     1     -12.288 -10.525  91.195  1.00  0.00     0.293 HD
ENDBRANCH   6  24
BRANCH   8  26
ATOM     26  O   UNL     1      -8.228 -11.899  87.668  1.00  0.00    -0.508 OA
ATOM     27  H   UNL     1      -7.655 -12.690  87.937  1.00  0.00     0.293 HD
ENDBRANCH   8  26
TORSDOF 6
ENDMDL
MODEL 4
REMARK VINA RESULT:    -5.520      9.629     12.533
REMARK INTER + INTRA:          -6.966
REMARK INTER:                  -6.642
REMARK INTRA:                  -0.324
REMARK UNBOUND:                -0.317
REMARK SMILES O=c1c(O)c(-c2ccc(O)c(O)c2)oc2cc(O)cc(O)c12
REMARK SMILES IDX 5 1 3 2 2 3 1 4 22 5 20 6 19 7 17 8 16 9 15 10 14 11 6 12
REMARK SMILES IDX 7 13 8 14 9 15 13 16 11 17 10 18 12 20 4 22 21 24 18 26
REMARK H PARENT 10 19 12 21 4 23 21 25 18 27
REMARK Flexibility Score: inf
ROOT
ATOM      1  C   UNL     1     -11.320  -9.571  93.581  1.00  0.00     0.180 A 
ATOM      2  C   UNL     1     -11.608 -10.251  92.386  1.00  0.00     0.208 A 
ATOM      3  C   UNL     1     -10.776 -10.052  91.271  1.00  0.00     0.238 A 
ATOM      4  O   UNL     1     -11.083 -10.604  90.184  1.00  0.00    -0.285 OA
ATOM      5  C   UNL     1      -9.635  -9.220  91.382  1.00  0.00     0.111 A 
ATOM      6  C   UNL     1      -8.698  -8.982  90.332  1.00  0.00     0.134 A 
ATOM      7  C   UNL     1      -7.665  -8.056  90.524  1.00  0.00     0.093 A 
ATOM      8  C   UNL     1      -7.499  -7.407  91.749  1.00  0.00     0.123 A 
ATOM      9  C   UNL     1      -8.375  -7.674  92.798  1.00  0.00     0.094 A 
ATOM     10  C   UNL     1      -9.437  -8.564  92.626  1.00  0.00     0.146 A 
ATOM     11  O   UNL     1     -10.262  -8.772  93.645  1.00  0.00    -0.452 OA
ENDROOT
BRANCH   1  12
ATOM     12  C   UNL     1     -12.157  -9.718  94.793  1.00  0.00     0.025 A 
ATOM     13  C   UNL     1     -11.909 -10.732  95.735  1.00  0.00     0.016 A 
ATOM     14  C   UNL     1     -12.728 -10.867  96.859  1.00  0.00     0.051 A 
ATOM     15  C   UNL     1     -13.813 -10.003  97.052  1.00  0.00     0.157 A 
ATOM     16  C   UNL     1     -13.258  -8.867  94.980  1.00  0.00     0.062 A 
ATOM     17  C   UNL     1     -14.080  -9.000  96.106  1.00  0.00     0.158 A 
BRANCH  15  18
ATOM     18  O   UNL     1     -14.627 -10.138  98.176  1.00  0.00    -0.504 OA
ATOM     19  H   UNL     1     -14.239 -10.170  99.111  1.00  0.00     0.293 HD
ENDBRANCH  15  18
BRANCH  17  20
ATOM     20  O   UNL     1     -15.156  -8.127  96.264  1.00  0.00    -0.504 OA
ATOM     21  H   UNL     1     -15.772  -8.173  97.067  1.00  0.00     0.293 HD
ENDBRANCH  17  20
ENDBRANCH   1  12
BRANCH   2  22
ATOM     22  O   UNL     1     -12.695 -11.127  92.318  1.00  0.00    -0.502 OA
ATOM     23  H   UNL     1     -12.601 -12.123  92.474  1.00  0.00     0.293 HD
ENDBRANCH   2  22
BRANCH   6  24
ATOM     24  O   UNL     1      -8.720  -9.641  89.099  1.00  0.00    -0.507 OA
ATOM     25  H   UNL     1      -9.543  -9.787  88.536  1.00  0.00     0.293 HD
ENDBRANCH   6  24
BRANCH   8  26
ATOM     26  O   UNL     1      -6.457  -6.500  91.937  1.00  0.00    -0.508 OA
ATOM     27  H   UNL     1      -5.995  -6.054  91.154  1.00  0.00     0.293 HD
ENDBRANCH   8  26
TORSDOF 6
ENDMDL
MODEL 5
REMARK VINA RESULT:    -5.435      9.620     12.901
REMARK INTER + INTRA:          -6.864
REMARK INTER:                  -6.531
REMARK INTRA:                  -0.332
REMARK UNBOUND:                -0.317
REMARK SMILES O=c1c(O)c(-c2ccc(O)c(O)c2)oc2cc(O)cc(O)c12
REMARK SMILES IDX 5 1 3 2 2 3 1 4 22 5 20 6 19 7 17 8 16 9 15 10 14 11 6 12
REMARK SMILES IDX 7 13 8 14 9 15 13 16 11 17 10 18 12 20 4 22 21 24 18 26
REMARK H PARENT 10 19 12 21 4 23 21 25 18 27
REMARK Flexibility Score: inf
ROOT
ATOM      1  C   UNL     1     -11.691  -9.477  94.106  1.00  0.00     0.180 A 
ATOM      2  C   UNL     1     -10.379  -9.030  94.338  1.00  0.00     0.208 A 
ATOM      3  C   UNL     1      -9.451  -9.064  93.284  1.00  0.00     0.238 A 
ATOM      4  O   UNL     1      -8.260  -8.734  93.518  1.00  0.00    -0.285 OA
ATOM      5  C   UNL     1      -9.861  -9.490  91.997  1.00  0.00     0.111 A 
ATOM      6  C   UNL     1      -9.019  -9.523  90.845  1.00  0.00     0.134 A 
ATOM      7  C   UNL     1      -9.505 -10.064  89.649  1.00  0.00     0.093 A 
ATOM      8  C   UNL     1     -10.823 -10.516  89.546  1.00  0.00     0.123 A 
ATOM      9  C   UNL     1     -11.669 -10.437  90.648  1.00  0.00     0.094 A 
ATOM     10  C   UNL     1     -11.203  -9.938  91.866  1.00  0.00     0.146 A 
ATOM     11  O   UNL     1     -12.038  -9.901  92.898  1.00  0.00    -0.452 OA
ENDROOT
BRANCH   1  12
ATOM     12  C   UNL     1     -12.720  -9.484  95.170  1.00  0.00     0.025 A 
ATOM     13  C   UNL     1     -12.865 -10.579  96.041  1.00  0.00     0.016 A 
ATOM     14  C   UNL     1     -13.861 -10.574  97.022  1.00  0.00     0.051 A 
ATOM     15  C   UNL     1     -14.734  -9.485  97.137  1.00  0.00     0.157 A 
ATOM     16  C   UNL     1     -13.612  -8.404  95.276  1.00  0.00     0.062 A 
ATOM     17  C   UNL     1     -14.610  -8.397  96.259  1.00  0.00     0.158 A 
BRANCH  15  18
ATOM     18  O   UNL     1     -15.726  -9.482  98.118  1.00  0.00    -0.504 OA
ATOM     19  H   UNL     1     -16.415  -8.740  98.173  1.00  0.00     0.293 HD
ENDBRANCH  15  18
BRANCH  17  20
ATOM     20  O   UNL     1     -15.468  -7.300  96.343  1.00  0.00    -0.504 OA
ATOM     21  H   UNL     1     -15.311  -6.452  95.810  1.00  0.00     0.293 HD
ENDBRANCH  17  20
ENDBRANCH   1  12
BRANCH   2  22
ATOM     22  O   UNL     1     -10.013  -8.542  95.596  1.00  0.00    -0.502 OA
ATOM     23  H   UNL     1      -9.089  -8.174  95.789  1.00  0.00     0.293 HD
ENDBRANCH   2  22
BRANCH   6  24
ATOM     24  O   UNL     1      -7.715  -9.018  90.814  1.00  0.00    -0.507 OA
ATOM     25  H   UNL     1      -7.050  -9.088  91.568  1.00  0.00     0.293 HD
ENDBRANCH   6  24
BRANCH   8  26
ATOM     26  O   UNL     1     -11.303 -11.037  88.346  1.00  0.00    -0.508 OA
ATOM     27  H   UNL     1     -11.797 -11.921  88.311  1.00  0.00     0.293 HD
ENDBRANCH   8  26
TORSDOF 6
ENDMDL
MODEL 6
REMARK VINA RESULT:    -5.378     10.165     12.144
REMARK INTER + INTRA:          -6.796
REMARK INTER:                  -6.463
REMARK INTRA:                  -0.333
REMARK UNBOUND:                -0.317
REMARK SMILES O=c1c(O)c(-c2ccc(O)c(O)c2)oc2cc(O)cc(O)c12
REMARK SMILES IDX 5 1 3 2 2 3 1 4 22 5 20 6 19 7 17 8 16 9 15 10 14 11 6 12
REMARK SMILES IDX 7 13 8 14 9 15 13 16 11 17 10 18 12 20 4 22 21 24 18 26
REMARK H PARENT 10 19 12 21 4 23 21 25 18 27
REMARK Flexibility Score: inf
ROOT
ATOM      1  C   UNL     1      -9.067  -8.568  91.040  1.00  0.00     0.180 A 
ATOM      2  C   UNL     1      -8.831  -9.635  90.157  1.00  0.00     0.208 A 
ATOM      3  C   UNL     1      -9.924 -10.256  89.530  1.00  0.00     0.238 A 
ATOM      4  O   UNL     1      -9.711 -11.258  88.801  1.00  0.00    -0.285 OA
ATOM      5  C   UNL     1     -11.234  -9.766  89.750  1.00  0.00     0.111 A 
ATOM      6  C   UNL     1     -12.411 -10.290  89.134  1.00  0.00     0.134 A 
ATOM      7  C   UNL     1     -13.666  -9.794  89.509  1.00  0.00     0.093 A 
ATOM      8  C   UNL     1     -13.782  -8.751  90.431  1.00  0.00     0.123 A 
ATOM      9  C   UNL     1     -12.637  -8.197  90.997  1.00  0.00     0.094 A 
ATOM     10  C   UNL     1     -11.373  -8.695  90.672  1.00  0.00     0.146 A 
ATOM     11  O   UNL     1     -10.310  -8.152  91.251  1.00  0.00    -0.452 OA
ENDROOT
BRANCH   1  12
ATOM     12  C   UNL     1      -7.969  -7.872  91.747  1.00  0.00     0.025 A 
ATOM     13  C   UNL     1      -7.484  -8.336  92.983  1.00  0.00     0.016 A 
ATOM     14  C   UNL     1      -6.464  -7.648  93.645  1.00  0.00     0.051 A 
ATOM     15  C   UNL     1      -5.922  -6.481  93.091  1.00  0.00     0.157 A 
ATOM     16  C   UNL     1      -7.438  -6.690  91.206  1.00  0.00     0.062 A 
ATOM     17  C   UNL     1      -6.414  -5.999  91.867  1.00  0.00     0.158 A 
BRANCH  15  18
ATOM     18  O   UNL     1      -4.902  -5.798  93.752  1.00  0.00    -0.504 OA
ATOM     19  H   UNL     1      -4.627  -6.041  94.696  1.00  0.00     0.293 HD
ENDBRANCH  15  18
BRANCH  17  20
ATOM     20  O   UNL     1      -5.902  -4.837  91.291  1.00  0.00    -0.504 OA
ATOM     21  H   UNL     1      -5.135  -4.857  90.630  1.00  0.00     0.293 HD
ENDBRANCH  17  20
ENDBRANCH   1  12
BRANCH   2  22
ATOM     22  O   UNL     1      -7.523 -10.054  89.894  1.00  0.00    -0.502 OA
ATOM     23  H   UNL     1      -6.743  -9.410  89.854  1.00  0.00     0.293 HD
ENDBRANCH   2  22
BRANCH   6  24
ATOM     24  O   UNL     1     -12.403 -11.270  88.137  1.00  0.00    -0.507 OA
ATOM     25  H   UNL     1     -11.593 -11.797  87.852  1.00  0.00     0.293 HD
ENDBRANCH   6  24
BRANCH   8  26
ATOM     26  O   UNL     1     -15.035  -8.253  90.786  1.00  0.00    -0.508 OA
ATOM     27  H   UNL     1     -15.133  -7.397  91.319  1.00  0.00     0.293 HD
ENDBRANCH   8  26
TORSDOF 6
ENDMDL
MODEL 7
REMARK VINA RESULT:    -5.371      9.960     13.001
REMARK INTER + INTRA:          -6.787
REMARK INTER:                  -6.483
REMARK INTRA:                  -0.305
REMARK UNBOUND:                -0.317
REMARK SMILES O=c1c(O)c(-c2ccc(O)c(O)c2)oc2cc(O)cc(O)c12
REMARK SMILES IDX 5 1 3 2 2 3 1 4 22 5 20 6 19 7 17 8 16 9 15 10 14 11 6 12
REMARK SMILES IDX 7 13 8 14 9 15 13 16 11 17 10 18 12 20 4 22 21 24 18 26
REMARK H PARENT 10 19 12 21 4 23 21 25 18 27
REMARK Flexibility Score: inf
ROOT
ATOM      1  C   UNL     1     -12.757 -10.244  94.309  1.00  0.00     0.180 A 
ATOM      2  C   UNL     1     -13.690 -10.580  93.314  1.00  0.00     0.208 A 
ATOM      3  C   UNL     1     -13.281 -10.586  91.970  1.00  0.00     0.238 A 
ATOM      4  O   UNL     1     -14.139 -10.813  91.079  1.00  0.00    -0.285 OA
ATOM      5  C   UNL     1     -11.931 -10.310  91.643  1.00  0.00     0.111 A 
ATOM      6  C   UNL     1     -11.394 -10.331  90.320  1.00  0.00     0.134 A 
ATOM      7  C   UNL     1     -10.068  -9.938  90.106  1.00  0.00     0.093 A 
ATOM      8  C   UNL     1      -9.240  -9.585  91.174  1.00  0.00     0.123 A 
ATOM      9  C   UNL     1      -9.737  -9.614  92.474  1.00  0.00     0.094 A 
ATOM     10  C   UNL     1     -11.067  -9.966  92.716  1.00  0.00     0.146 A 
ATOM     11  O   UNL     1     -11.506  -9.959  93.969  1.00  0.00    -0.452 OA
ENDROOT
BRANCH   1  12
ATOM     12  C   UNL     1     -13.116 -10.203  95.745  1.00  0.00     0.025 A 
ATOM     13  C   UNL     1     -12.884 -11.304  96.589  1.00  0.00     0.016 A 
ATOM     14  C   UNL     1     -13.254 -11.251  97.936  1.00  0.00     0.051 A 
ATOM     15  C   UNL     1     -13.873 -10.107  98.455  1.00  0.00     0.157 A 
ATOM     16  C   UNL     1     -13.756  -9.067  96.265  1.00  0.00     0.062 A 
ATOM     17  C   UNL     1     -14.127  -9.011  97.614  1.00  0.00     0.158 A 
BRANCH  15  18
ATOM     18  O   UNL     1     -14.239 -10.056  99.799  1.00  0.00    -0.504 OA
ATOM     19  H   UNL     1     -15.074  -9.568 100.103  1.00  0.00     0.293 HD
ENDBRANCH  15  18
BRANCH  17  20
ATOM     20  O   UNL     1     -14.748  -7.860  98.098  1.00  0.00    -0.504 OA
ATOM     21  H   UNL     1     -15.094  -7.794  99.047  1.00  0.00     0.293 HD
ENDBRANCH  17  20
ENDBRANCH   1  12
BRANCH   2  22
ATOM     22  O   UNL     1     -14.999 -10.923  93.663  1.00  0.00    -0.502 OA
ATOM     23  H   UNL     1     -15.808 -10.501  93.224  1.00  0.00     0.293 HD
ENDBRANCH   2  22
BRANCH   6  24
ATOM     24  O   UNL     1     -12.108 -10.751  89.193  1.00  0.00    -0.507 OA
ATOM     25  H   UNL     1     -12.915 -11.354  89.211  1.00  0.00     0.293 HD
ENDBRANCH   6  24
BRANCH   8  26
ATOM     26  O   UNL     1      -7.915  -9.212  90.952  1.00  0.00    -0.508 OA
ATOM     27  H   UNL     1      -7.356  -8.785  91.681  1.00  0.00     0.293 HD
ENDBRANCH   8  26
TORSDOF 6
ENDMDL
MODEL 8
REMARK VINA RESULT:    -5.368     11.078     12.023
REMARK INTER + INTRA:          -6.783
REMARK INTER:                  -6.567
REMARK INTRA:                  -0.216
REMARK UNBOUND:                -0.317
REMARK SMILES O=c1c(O)c(-c2ccc(O)c(O)c2)oc2cc(O)cc(O)c12
REMARK SMILES IDX 5 1 3 2 2 3 1 4 22 5 20 6 19 7 17 8 16 9 15 10 14 11 6 12
REMARK SMILES IDX 7 13 8 14 9 15 13 16 11 17 10 18 12 20 4 22 21 24 18 26
REMARK H PARENT 10 19 12 21 4 23 21 25 18 27
REMARK Flexibility Score: inf
ROOT
ATOM      1  C   UNL     1     -13.880  -9.556  96.140  1.00  0.00     0.180 A 
ATOM      2  C   UNL     1     -14.449  -8.338  96.549  1.00  0.00     0.208 A 
ATOM      3  C   UNL     1     -14.715  -8.133  97.913  1.00  0.00     0.238 A 
ATOM      4  O   UNL     1     -15.293  -7.073  98.262  1.00  0.00    -0.285 OA
ATOM      5  C   UNL     1     -14.356  -9.126  98.857  1.00  0.00     0.111 A 
ATOM      6  C   UNL     1     -14.537  -9.007 100.269  1.00  0.00     0.134 A 
ATOM      7  C   UNL     1     -14.242 -10.096 101.097  1.00  0.00     0.093 A 
ATOM      8  C   UNL     1     -13.713 -11.278 100.572  1.00  0.00     0.123 A 
ATOM      9  C   UNL     1     -13.481 -11.384  99.203  1.00  0.00     0.094 A 
ATOM     10  C   UNL     1     -13.801 -10.329  98.346  1.00  0.00     0.146 A 
ATOM     11  O   UNL     1     -13.584 -10.481  97.045  1.00  0.00    -0.452 OA
ENDROOT
BRANCH   1  12
ATOM     12  C   UNL     1     -13.583  -9.851  94.720  1.00  0.00     0.025 A 
ATOM     13  C   UNL     1     -12.560  -9.177  94.030  1.00  0.00     0.016 A 
ATOM     14  C   UNL     1     -12.315  -9.455  92.683  1.00  0.00     0.051 A 
ATOM     15  C   UNL     1     -13.096 -10.397  92.001  1.00  0.00     0.157 A 
ATOM     16  C   UNL     1     -14.377 -10.779  94.027  1.00  0.00     0.062 A 
ATOM     17  C   UNL     1     -14.134 -11.060  92.677  1.00  0.00     0.158 A 
BRANCH  15  18
ATOM     18  O   UNL     1     -12.848 -10.674  90.657  1.00  0.00    -0.504 OA
ATOM     19  H   UNL     1     -12.729  -9.932  89.977  1.00  0.00     0.293 HD
ENDBRANCH  15  18
BRANCH  17  20
ATOM     20  O   UNL     1     -14.934 -11.998  92.026  1.00  0.00    -0.504 OA
ATOM     21  H   UNL     1     -14.582 -12.907  91.749  1.00  0.00     0.293 HD
ENDBRANCH  17  20
ENDBRANCH   1  12
BRANCH   2  22
ATOM     22  O   UNL     1     -14.726  -7.341  95.609  1.00  0.00    -0.502 OA
ATOM     23  H   UNL     1     -14.041  -6.647  95.335  1.00  0.00     0.293 HD
ENDBRANCH   2  22
BRANCH   6  24
ATOM     24  O   UNL     1     -14.975  -7.842 100.906  1.00  0.00    -0.507 OA
ATOM     25  H   UNL     1     -14.443  -6.990 100.983  1.00  0.00     0.293 HD
ENDBRANCH   6  24
BRANCH   8  26
ATOM     26  O   UNL     1     -13.407 -12.351 101.407  1.00  0.00    -0.508 OA
ATOM     27  H   UNL     1     -12.592 -12.932 101.246  1.00  0.00     0.293 HD
ENDBRANCH   8  26
TORSDOF 6
ENDMDL
MODEL 9
REMARK VINA RESULT:    -5.334     11.233     14.287
REMARK INTER + INTRA:          -6.742
REMARK INTER:                  -6.510
REMARK INTRA:                  -0.232
REMARK UNBOUND:                -0.317
REMARK SMILES O=c1c(O)c(-c2ccc(O)c(O)c2)oc2cc(O)cc(O)c12
REMARK SMILES IDX 5 1 3 2 2 3 1 4 22 5 20 6 19 7 17 8 16 9 15 10 14 11 6 12
REMARK SMILES IDX 7 13 8 14 9 15 13 16 11 17 10 18 12 20 4 22 21 24 18 26
REMARK H PARENT 10 19 12 21 4 23 21 25 18 27
REMARK Flexibility Score: inf
ROOT
ATOM      1  C   UNL     1     -12.754 -10.337  92.523  1.00  0.00     0.180 A 
ATOM      2  C   UNL     1     -11.424 -10.215  92.087  1.00  0.00     0.208 A 
ATOM      3  C   UNL     1     -11.151 -10.268  90.710  1.00  0.00     0.238 A 
ATOM      4  O   UNL     1      -9.952 -10.233  90.332  1.00  0.00    -0.285 OA
ATOM      5  C   UNL     1     -12.216 -10.385  89.784  1.00  0.00     0.111 A 
ATOM      6  C   UNL     1     -12.060 -10.404  88.365  1.00  0.00     0.134 A 
ATOM      7  C   UNL     1     -13.176 -10.631  87.551  1.00  0.00     0.093 A 
ATOM      8  C   UNL     1     -14.452 -10.778  88.101  1.00  0.00     0.123 A 
ATOM      9  C   UNL     1     -14.622 -10.707  89.481  1.00  0.00     0.094 A 
ATOM     10  C   UNL     1     -13.523 -10.519  90.322  1.00  0.00     0.146 A 
ATOM     11  O   UNL     1     -13.728 -10.479  91.633  1.00  0.00    -0.452 OA
ENDROOT
BRANCH   1  12
ATOM     12  C   UNL     1     -13.119 -10.304  93.958  1.00  0.00     0.025 A 
ATOM     13  C   UNL     1     -12.778 -11.358  94.824  1.00  0.00     0.016 A 
ATOM     14  C   UNL     1     -13.156 -11.316  96.169  1.00  0.00     0.051 A 
ATOM     15  C   UNL     1     -13.890 -10.232  96.664  1.00  0.00     0.157 A 
ATOM     16  C   UNL     1     -13.874  -9.229  94.454  1.00  0.00     0.062 A 
ATOM     17  C   UNL     1     -14.253  -9.185  95.801  1.00  0.00     0.158 A 
BRANCH  15  18
ATOM     18  O   UNL     1     -14.264 -10.192  98.007  1.00  0.00    -0.504 OA
ATOM     19  H   UNL     1     -13.770  -9.615  98.678  1.00  0.00     0.293 HD
ENDBRANCH  15  18
BRANCH  17  20
ATOM     20  O   UNL     1     -14.990  -8.094  96.261  1.00  0.00    -0.504 OA
ATOM     21  H   UNL     1     -15.985  -8.005  96.088  1.00  0.00     0.293 HD
ENDBRANCH  17  20
ENDBRANCH   1  12
BRANCH   2  22
ATOM     22  O   UNL     1     -10.394 -10.023  93.013  1.00  0.00    -0.502 OA
ATOM     23  H   UNL     1     -10.126 -10.733  93.683  1.00  0.00     0.293 HD
ENDBRANCH   2  22
BRANCH   6  24
ATOM     24  O   UNL     1     -10.846 -10.180  87.708  1.00  0.00    -0.507 OA
ATOM     25  H   UNL     1     -10.547  -9.295  87.332  1.00  0.00     0.293 HD
ENDBRANCH   6  24
BRANCH   8  26
ATOM     26  O   UNL     1     -15.559 -10.987  87.281  1.00  0.00    -0.508 OA
ATOM     27  H   UNL     1     -15.995 -10.226  86.773  1.00  0.00     0.293 HD
ENDBRANCH   8  26
TORSDOF 6
ENDMDL
