MODEL 1
REMARK VINA RESULT:    -5.252      0.000      0.000
REMARK INTER + INTRA:          -9.150
REMARK INTER:                  -8.015
REMARK INTRA:                  -1.135
REMARK UNBOUND:                -1.135
REMARK SMILES CC(=O)CCC=C(C)CCC=C(C)CCC=C(C)C
REMARK SMILES IDX 10 1 11 2 12 3 13 4 14 5 15 6 16 7 18 8 17 9 19 10 9 11 7 12
REMARK SMILES IDX 6 13 8 14 5 15 4 16 2 17 3 18 1 19
REMARK H PARENT
REMARK Flexibility Score: inf
ROOT
ATOM      1  C   UNL     1      15.919 -47.883  -2.786  1.00  0.00     0.032 C 
ENDROOT
BRANCH   1   2
ATOM      2  C   UNL     1      17.265 -48.210  -2.193  1.00  0.00    -0.028 C 
ATOM      3  C   UNL     1      17.450 -48.771  -0.975  1.00  0.00    -0.077 C 
ATOM      4  C   UNL     1      16.289 -49.206  -0.113  1.00  0.00     0.039 C 
BRANCH   3   5
ATOM      5  C   UNL     1      18.859 -49.038  -0.488  1.00  0.00     0.034 C 
BRANCH   5   6
ATOM      6  C   UNL     1      19.562 -50.103  -1.340  1.00  0.00     0.032 C 
BRANCH   6   7
ATOM      7  C   UNL     1      20.993 -49.729  -1.647  1.00  0.00    -0.028 C 
ATOM      8  C   UNL     1      20.471 -48.955  -3.972  1.00  0.00     0.039 C 
ATOM      9  C   UNL     1      21.421 -49.253  -2.838  1.00  0.00    -0.080 C 
ATOM     10  C   UNL     1      22.882 -48.944  -3.038  1.00  0.00     0.039 C 
ENDBRANCH   6   7
ENDBRANCH   5   6
ENDBRANCH   3   5
ENDBRANCH   1   2
BRANCH   1  11
ATOM     11  C   UNL     1      15.384 -49.065  -3.600  1.00  0.00     0.034 C 
BRANCH  11  12
ATOM     12  C   UNL     1      15.836 -48.966  -5.044  1.00  0.00    -0.077 C 
ATOM     13  C   UNL     1      15.175 -48.239  -5.975  1.00  0.00    -0.028 C 
ATOM     14  C   UNL     1      17.118 -49.648  -5.447  1.00  0.00     0.039 C 
BRANCH  13  15
ATOM     15  C   UNL     1      13.883 -47.501  -5.733  1.00  0.00     0.035 C 
BRANCH  15  16
ATOM     16  C   UNL     1      13.322 -46.938  -7.043  1.00  0.00     0.079 C 
BRANCH  16  17
ATOM     17  C   UNL     1      12.389 -45.791  -6.774  1.00  0.00     0.130 C 
ATOM     18  O   UNL     1      12.647 -44.682  -7.217  1.00  0.00    -0.300 OA
ATOM     19  C   UNL     1      11.155 -45.993  -5.947  1.00  0.00     0.087 C 
ENDBRANCH  16  17
ENDBRANCH  15  16
ENDBRANCH  13  15
ENDBRANCH  11  12
ENDBRANCH   1  11
TORSDOF 9
ENDMDL
MODEL 2
REMARK VINA RESULT:    -5.023      1.574      2.930
REMARK INTER + INTRA:          -8.800
REMARK INTER:                  -7.606
REMARK INTRA:                  -1.195
REMARK UNBOUND:                -1.135
REMARK SMILES CC(=O)CCC=C(C)CCC=C(C)CCC=C(C)C
REMARK SMILES IDX 10 1 11 2 12 3 13 4 14 5 15 6 16 7 18 8 17 9 19 10 9 11 7 12
REMARK SMILES IDX 6 13 8 14 5 15 4 16 2 17 3 18 1 19
REMARK H PARENT
REMARK Flexibility Score: inf
ROOT
ATOM      1  C   UNL     1      15.940 -48.712  -5.753  1.00  0.00     0.032 C 
ENDROOT
BRANCH   1   2
ATOM      2  C   UNL     1      16.070 -49.383  -4.410  1.00  0.00    -0.028 C 
ATOM      3  C   UNL     1      15.714 -48.817  -3.233  1.00  0.00    -0.077 C 
ATOM      4  C   UNL     1      15.063 -47.456  -3.167  1.00  0.00     0.039 C 
BRANCH   3   5
ATOM      5  C   UNL     1      15.908 -49.595  -1.948  1.00  0.00     0.034 C 
BRANCH   5   6
ATOM      6  C   UNL     1      16.562 -48.736  -0.857  1.00  0.00     0.032 C 
BRANCH   6   7
ATOM      7  C   UNL     1      17.974 -49.178  -0.557  1.00  0.00    -0.028 C 
ATOM      8  C   UNL     1      18.969 -47.864  -2.443  1.00  0.00     0.039 C 
ATOM      9  C   UNL     1      19.057 -48.829  -1.287  1.00  0.00    -0.080 C 
ATOM     10  C   UNL     1      20.416 -49.359  -0.910  1.00  0.00     0.039 C 
ENDBRANCH   6   7
ENDBRANCH   5   6
ENDBRANCH   3   5
ENDBRANCH   1   2
BRANCH   1  11
ATOM     11  C   UNL     1      14.814 -49.352  -6.571  1.00  0.00     0.034 C 
BRANCH  11  12
ATOM     12  C   UNL     1      14.425 -48.458  -7.733  1.00  0.00    -0.077 C 
ATOM     13  C   UNL     1      13.716 -47.316  -7.578  1.00  0.00    -0.028 C 
ATOM     14  C   UNL     1      14.910 -48.818  -9.113  1.00  0.00     0.039 C 
BRANCH  13  15
ATOM     15  C   UNL     1      13.160 -46.818  -6.267  1.00  0.00     0.035 C 
BRANCH  15  16
ATOM     16  C   UNL     1      12.021 -45.820  -6.503  1.00  0.00     0.079 C 
BRANCH  16  17
ATOM     17  C   UNL     1      10.703 -46.410  -6.085  1.00  0.00     0.130 C 
ATOM     18  O   UNL     1       9.704 -45.706  -6.057  1.00  0.00    -0.300 OA
ATOM     19  C   UNL     1      10.608 -47.851  -5.683  1.00  0.00     0.087 C 
ENDBRANCH  16  17
ENDBRANCH  15  16
ENDBRANCH  13  15
ENDBRANCH  11  12
ENDBRANCH   1  11
TORSDOF 9
ENDMDL
MODEL 3
REMARK VINA RESULT:    -4.939     19.416     21.035
REMARK INTER + INTRA:          -8.673
REMARK INTER:                  -6.444
REMARK INTRA:                  -2.229
REMARK UNBOUND:                -1.135
REMARK SMILES CC(=O)CCC=C(C)CCC=C(C)CCC=C(C)C
REMARK SMILES IDX 10 1 11 2 12 3 13 4 14 5 15 6 16 7 18 8 17 9 19 10 9 11 7 12
REMARK SMILES IDX 6 13 8 14 5 15 4 16 2 17 3 18 1 19
REMARK H PARENT
REMARK Flexibility Score: inf
ROOT
ATOM      1  C   UNL     1      23.490 -32.546 -11.974  1.00  0.00     0.032 C 
ENDROOT
BRANCH   1   2
ATOM      2  C   UNL     1      24.835 -32.844 -12.586  1.00  0.00    -0.028 C 
ATOM      3  C   UNL     1      25.489 -32.021 -13.438  1.00  0.00    -0.077 C 
ATOM      4  C   UNL     1      24.951 -30.657 -13.799  1.00  0.00     0.039 C 
BRANCH   3   5
ATOM      5  C   UNL     1      26.832 -32.445 -13.993  1.00  0.00     0.034 C 
BRANCH   5   6
ATOM      6  C   UNL     1      26.711 -32.981 -15.426  1.00  0.00     0.032 C 
BRANCH   6   7
ATOM      7  C   UNL     1      27.043 -34.452 -15.510  1.00  0.00    -0.028 C 
ATOM      8  C   UNL     1      24.642 -35.168 -15.519  1.00  0.00     0.039 C 
ATOM      9  C   UNL     1      26.125 -35.445 -15.510  1.00  0.00    -0.080 C 
ATOM     10  C   UNL     1      26.577 -36.881 -15.565  1.00  0.00     0.039 C 
ENDBRANCH   6   7
ENDBRANCH   5   6
ENDBRANCH   3   5
ENDBRANCH   1   2
BRANCH   1  11
ATOM     11  C   UNL     1      23.617 -32.332 -10.463  1.00  0.00     0.034 C 
BRANCH  11  12
ATOM     12  C   UNL     1      23.675 -30.853 -10.137  1.00  0.00    -0.077 C 
ATOM     13  C   UNL     1      24.599 -30.316  -9.307  1.00  0.00    -0.028 C 
ATOM     14  C   UNL     1      22.705 -29.925 -10.822  1.00  0.00     0.039 C 
BRANCH  13  15
ATOM     15  C   UNL     1      25.635 -31.106  -8.546  1.00  0.00     0.035 C 
BRANCH  15  16
ATOM     16  C   UNL     1      27.045 -30.588  -8.849  1.00  0.00     0.079 C 
BRANCH  16  17
ATOM     17  C   UNL     1      27.473 -30.989 -10.234  1.00  0.00     0.130 C 
ATOM     18  O   UNL     1      27.666 -32.168 -10.492  1.00  0.00    -0.300 OA
ATOM     19  C   UNL     1      27.685 -29.952 -11.295  1.00  0.00     0.087 C 
ENDBRANCH  16  17
ENDBRANCH  15  16
ENDBRANCH  13  15
ENDBRANCH  11  12
ENDBRANCH   1  11
TORSDOF 9
ENDMDL
MODEL 4
REMARK VINA RESULT:    -4.850      2.561      7.707
REMARK INTER + INTRA:          -8.536
REMARK INTER:                  -6.563
REMARK INTRA:                  -1.974
REMARK UNBOUND:                -1.135
REMARK SMILES CC(=O)CCC=C(C)CCC=C(C)CCC=C(C)C
REMARK SMILES IDX 10 1 11 2 12 3 13 4 14 5 15 6 16 7 18 8 17 9 19 10 9 11 7 12
REMARK SMILES IDX 6 13 8 14 5 15 4 16 2 17 3 18 1 19
REMARK H PARENT
REMARK Flexibility Score: inf
ROOT
ATOM      1  C   UNL     1      13.212 -49.218  -2.127  1.00  0.00     0.032 C 
ENDROOT
BRANCH   1   2
ATOM      2  C   UNL     1      13.651 -49.036  -3.557  1.00  0.00    -0.028 C 
ATOM      3  C   UNL     1      14.252 -47.923  -4.039  1.00  0.00    -0.077 C 
ATOM      4  C   UNL     1      14.618 -46.764  -3.143  1.00  0.00     0.039 C 
BRANCH   3   5
ATOM      5  C   UNL     1      14.633 -47.861  -5.503  1.00  0.00     0.034 C 
BRANCH   5   6
ATOM      6  C   UNL     1      13.396 -47.851  -6.412  1.00  0.00     0.032 C 
BRANCH   6   7
ATOM      7  C   UNL     1      12.584 -46.589  -6.250  1.00  0.00    -0.028 C 
ATOM      8  C   UNL     1      10.467 -47.817  -5.716  1.00  0.00     0.039 C 
ATOM      9  C   UNL     1      11.259 -46.560  -5.980  1.00  0.00    -0.080 C 
ATOM     10  C   UNL     1      10.546 -45.238  -5.872  1.00  0.00     0.039 C 
ENDBRANCH   6   7
ENDBRANCH   5   6
ENDBRANCH   3   5
ENDBRANCH   1   2
BRANCH   1  11
ATOM     11  C   UNL     1      14.245 -50.033  -1.343  1.00  0.00     0.034 C 
BRANCH  11  12
ATOM     12  C   UNL     1      14.962 -49.155  -0.335  1.00  0.00    -0.077 C 
ATOM     13  C   UNL     1      16.270 -48.828  -0.442  1.00  0.00    -0.028 C 
ATOM     14  C   UNL     1      14.166 -48.562   0.799  1.00  0.00     0.039 C 
BRANCH  13  15
ATOM     15  C   UNL     1      17.201 -49.337  -1.513  1.00  0.00     0.035 C 
BRANCH  15  16
ATOM     16  C   UNL     1      17.880 -48.173  -2.243  1.00  0.00     0.079 C 
BRANCH  16  17
ATOM     17  C   UNL     1      19.325 -48.488  -2.519  1.00  0.00     0.130 C 
ATOM     18  O   UNL     1      19.721 -48.556  -3.673  1.00  0.00    -0.300 OA
ATOM     19  C   UNL     1      20.276 -48.742  -1.389  1.00  0.00     0.087 C 
ENDBRANCH  16  17
ENDBRANCH  15  16
ENDBRANCH  13  15
ENDBRANCH  11  12
ENDBRANCH   1  11
TORSDOF 9
ENDMDL
MODEL 5
REMARK VINA RESULT:    -4.849      3.106      7.657
REMARK INTER + INTRA:          -8.535
REMARK INTER:                  -7.096
REMARK INTRA:                  -1.439
REMARK UNBOUND:                -1.135
REMARK SMILES CC(=O)CCC=C(C)CCC=C(C)CCC=C(C)C
REMARK SMILES IDX 10 1 11 2 12 3 13 4 14 5 15 6 16 7 18 8 17 9 19 10 9 11 7 12
REMARK SMILES IDX 6 13 8 14 5 15 4 16 2 17 3 18 1 19
REMARK H PARENT
REMARK Flexibility Score: inf
ROOT
ATOM      1  C   UNL     1      17.011 -48.261  -3.187  1.00  0.00     0.032 C 
ENDROOT
BRANCH   1   2
ATOM      2  C   UNL     1      15.827 -48.547  -4.074  1.00  0.00    -0.028 C 
ATOM      3  C   UNL     1      14.646 -47.889  -4.011  1.00  0.00    -0.077 C 
ATOM      4  C   UNL     1      14.431 -46.724  -3.075  1.00  0.00     0.039 C 
BRANCH   3   5
ATOM      5  C   UNL     1      13.527 -48.283  -4.953  1.00  0.00     0.034 C 
BRANCH   5   6
ATOM      6  C   UNL     1      13.558 -47.458  -6.247  1.00  0.00     0.032 C 
BRANCH   6   7
ATOM      7  C   UNL     1      13.483 -48.332  -7.477  1.00  0.00    -0.028 C 
ATOM      8  C   UNL     1      15.964 -48.359  -7.818  1.00  0.00     0.039 C 
ATOM      9  C   UNL     1      14.551 -48.708  -8.216  1.00  0.00    -0.080 C 
ATOM     10  C   UNL     1      14.350 -49.556  -9.444  1.00  0.00     0.039 C 
ENDBRANCH   6   7
ENDBRANCH   5   6
ENDBRANCH   3   5
ENDBRANCH   1   2
BRANCH   1  11
ATOM     11  C   UNL     1      17.526 -49.550  -2.538  1.00  0.00     0.034 C 
BRANCH  11  12
ATOM     12  C   UNL     1      17.574 -49.404  -1.029  1.00  0.00    -0.077 C 
ATOM     13  C   UNL     1      18.706 -49.572  -0.308  1.00  0.00    -0.028 C 
ATOM     14  C   UNL     1      16.321 -48.983  -0.305  1.00  0.00     0.039 C 
BRANCH  13  15
ATOM     15  C   UNL     1      20.037 -49.992  -0.880  1.00  0.00     0.035 C 
BRANCH  15  16
ATOM     16  C   UNL     1      20.889 -48.768  -1.234  1.00  0.00     0.079 C 
BRANCH  16  17
ATOM     17  C   UNL     1      21.696 -49.023  -2.477  1.00  0.00     0.130 C 
ATOM     18  O   UNL     1      22.877 -48.709  -2.509  1.00  0.00    -0.300 OA
ATOM     19  C   UNL     1      21.057 -49.640  -3.685  1.00  0.00     0.087 C 
ENDBRANCH  16  17
ENDBRANCH  15  16
ENDBRANCH  13  15
ENDBRANCH  11  12
ENDBRANCH   1  11
TORSDOF 9
ENDMDL
MODEL 6
REMARK VINA RESULT:    -4.807     17.986     19.540
REMARK INTER + INTRA:          -8.471
REMARK INTER:                  -7.547
REMARK INTRA:                  -0.924
REMARK UNBOUND:                -1.135
REMARK SMILES CC(=O)CCC=C(C)CCC=C(C)CCC=C(C)C
REMARK SMILES IDX 10 1 11 2 12 3 13 4 14 5 15 6 16 7 18 8 17 9 19 10 9 11 7 12
REMARK SMILES IDX 6 13 8 14 5 15 4 16 2 17 3 18 1 19
REMARK H PARENT
REMARK Flexibility Score: inf
ROOT
ATOM      1  C   UNL     1      26.996 -34.605 -14.695  1.00  0.00     0.032 C 
ENDROOT
BRANCH   1   2
ATOM      2  C   UNL     1      26.888 -35.877 -15.497  1.00  0.00    -0.028 C 
ATOM      3  C   UNL     1      27.508 -37.038 -15.180  1.00  0.00    -0.077 C 
ATOM      4  C   UNL     1      28.321 -37.188 -13.916  1.00  0.00     0.039 C 
BRANCH   3   5
ATOM      5  C   UNL     1      27.327 -38.243 -16.078  1.00  0.00     0.034 C 
BRANCH   5   6
ATOM      6  C   UNL     1      26.236 -39.185 -15.552  1.00  0.00     0.032 C 
BRANCH   6   7
ATOM      7  C   UNL     1      24.945 -39.043 -16.323  1.00  0.00    -0.028 C 
ATOM      8  C   UNL     1      25.481 -40.915 -17.899  1.00  0.00     0.039 C 
ATOM      9  C   UNL     1      24.613 -39.784 -17.405  1.00  0.00    -0.080 C 
ATOM     10  C   UNL     1      23.310 -39.530 -18.114  1.00  0.00     0.039 C 
ENDBRANCH   6   7
ENDBRANCH   5   6
ENDBRANCH   3   5
ENDBRANCH   1   2
BRANCH   1  11
ATOM     11  C   UNL     1      25.953 -33.583 -15.158  1.00  0.00     0.034 C 
BRANCH  11  12
ATOM     12  C   UNL     1      24.581 -33.942 -14.623  1.00  0.00    -0.077 C 
ATOM     13  C   UNL     1      24.112 -33.492 -13.436  1.00  0.00    -0.028 C 
ATOM     14  C   UNL     1      23.668 -34.779 -15.482  1.00  0.00     0.039 C 
BRANCH  13  15
ATOM     15  C   UNL     1      24.897 -32.649 -12.463  1.00  0.00     0.035 C 
BRANCH  15  16
ATOM     16  C   UNL     1      24.232 -31.283 -12.266  1.00  0.00     0.079 C 
BRANCH  16  17
ATOM     17  C   UNL     1      23.518 -31.225 -10.943  1.00  0.00     0.130 C 
ATOM     18  O   UNL     1      22.449 -30.639 -10.855  1.00  0.00    -0.300 OA
ATOM     19  C   UNL     1      24.120 -31.861  -9.727  1.00  0.00     0.087 C 
ENDBRANCH  16  17
ENDBRANCH  15  16
ENDBRANCH  13  15
ENDBRANCH  11  12
ENDBRANCH   1  11
TORSDOF 9
ENDMDL
MODEL 7
REMARK VINA RESULT:    -4.764      1.837      2.559
REMARK INTER + INTRA:          -8.405
REMARK INTER:                  -7.087
REMARK INTRA:                  -1.318
REMARK UNBOUND:                -1.135
REMARK SMILES CC(=O)CCC=C(C)CCC=C(C)CCC=C(C)C
REMARK SMILES IDX 10 1 11 2 12 3 13 4 14 5 15 6 16 7 18 8 17 9 19 10 9 11 7 12
REMARK SMILES IDX 6 13 8 14 5 15 4 16 2 17 3 18 1 19
REMARK H PARENT
REMARK Flexibility Score: inf
ROOT
ATOM      1  C   UNL     1      15.434 -47.547  -3.019  1.00  0.00     0.032 C 
ENDROOT
BRANCH   1   2
ATOM      2  C   UNL     1      16.749 -47.979  -2.421  1.00  0.00    -0.028 C 
ATOM      3  C   UNL     1      16.883 -48.569  -1.210  1.00  0.00    -0.077 C 
ATOM      4  C   UNL     1      15.686 -48.931  -0.363  1.00  0.00     0.039 C 
BRANCH   3   5
ATOM      5  C   UNL     1      18.265 -48.943  -0.718  1.00  0.00     0.034 C 
BRANCH   5   6
ATOM      6  C   UNL     1      19.010 -49.823  -1.730  1.00  0.00     0.032 C 
BRANCH   6   7
ATOM      7  C   UNL     1      20.488 -49.513  -1.771  1.00  0.00    -0.028 C 
ATOM      8  C   UNL     1      20.495 -49.040  -4.231  1.00  0.00     0.039 C 
ATOM      9  C   UNL     1      21.175 -49.202  -2.893  1.00  0.00    -0.080 C 
ATOM     10  C   UNL     1      22.656 -48.943  -2.816  1.00  0.00     0.039 C 
ENDBRANCH   6   7
ENDBRANCH   5   6
ENDBRANCH   3   5
ENDBRANCH   1   2
BRANCH   1  11
ATOM     11  C   UNL     1      14.988 -48.526  -4.110  1.00  0.00     0.034 C 
BRANCH  11  12
ATOM     12  C   UNL     1      13.493 -48.766  -4.032  1.00  0.00    -0.077 C 
ATOM     13  C   UNL     1      12.661 -48.580  -5.083  1.00  0.00    -0.028 C 
ATOM     14  C   UNL     1      12.915 -49.306  -2.749  1.00  0.00     0.039 C 
BRANCH  13  15
ATOM     15  C   UNL     1      13.081 -48.047  -6.430  1.00  0.00     0.035 C 
BRANCH  15  16
ATOM     16  C   UNL     1      13.232 -49.187  -7.444  1.00  0.00     0.079 C 
BRANCH  16  17
ATOM     17  C   UNL     1      14.410 -48.943  -8.347  1.00  0.00     0.130 C 
ATOM     18  O   UNL     1      14.357 -49.288  -9.518  1.00  0.00    -0.300 OA
ATOM     19  C   UNL     1      15.655 -48.300  -7.816  1.00  0.00     0.087 C 
ENDBRANCH  16  17
ENDBRANCH  15  16
ENDBRANCH  13  15
ENDBRANCH  11  12
ENDBRANCH   1  11
TORSDOF 9
ENDMDL
MODEL 8
REMARK VINA RESULT:    -4.762     18.147     19.627
REMARK INTER + INTRA:          -8.402
REMARK INTER:                  -6.983
REMARK INTRA:                  -1.420
REMARK UNBOUND:                -1.135
REMARK SMILES CC(=O)CCC=C(C)CCC=C(C)CCC=C(C)C
REMARK SMILES IDX 10 1 11 2 12 3 13 4 14 5 15 6 16 7 18 8 17 9 19 10 9 11 7 12
REMARK SMILES IDX 6 13 8 14 5 15 4 16 2 17 3 18 1 19
REMARK H PARENT
REMARK Flexibility Score: inf
ROOT
ATOM      1  C   UNL     1      24.453 -32.535 -11.441  1.00  0.00     0.032 C 
ENDROOT
BRANCH   1   2
ATOM      2  C   UNL     1      24.301 -33.461 -12.621  1.00  0.00    -0.028 C 
ATOM      3  C   UNL     1      23.882 -33.075 -13.849  1.00  0.00    -0.077 C 
ATOM      4  C   UNL     1      23.599 -31.628 -14.176  1.00  0.00     0.039 C 
BRANCH   3   5
ATOM      5  C   UNL     1      23.759 -34.108 -14.949  1.00  0.00     0.034 C 
BRANCH   5   6
ATOM      6  C   UNL     1      25.034 -34.953 -15.080  1.00  0.00     0.032 C 
BRANCH   6   7
ATOM      7  C   UNL     1      26.129 -34.215 -15.813  1.00  0.00    -0.028 C 
ATOM      8  C   UNL     1      27.721 -34.311 -13.882  1.00  0.00     0.039 C 
ATOM      9  C   UNL     1      27.323 -33.883 -15.273  1.00  0.00    -0.080 C 
ATOM     10  C   UNL     1      28.328 -33.116 -16.092  1.00  0.00     0.039 C 
ENDBRANCH   6   7
ENDBRANCH   5   6
ENDBRANCH   3   5
ENDBRANCH   1   2
BRANCH   1  11
ATOM     11  C   UNL     1      23.122 -32.382 -10.698  1.00  0.00     0.034 C 
BRANCH  11  12
ATOM     12  C   UNL     1      22.735 -30.920 -10.594  1.00  0.00    -0.077 C 
ATOM     13  C   UNL     1      21.494 -30.509 -10.242  1.00  0.00    -0.028 C 
ATOM     14  C   UNL     1      23.797 -29.875 -10.820  1.00  0.00     0.039 C 
BRANCH  13  15
ATOM     15  C   UNL     1      20.325 -31.426  -9.983  1.00  0.00     0.035 C 
BRANCH  15  16
ATOM     16  C   UNL     1      19.115 -30.635  -9.474  1.00  0.00     0.079 C 
BRANCH  16  17
ATOM     17  C   UNL     1      17.877 -31.488  -9.491  1.00  0.00     0.130 C 
ATOM     18  O   UNL     1      16.803 -30.993  -9.803  1.00  0.00    -0.300 OA
ATOM     19  C   UNL     1      17.946 -32.935  -9.106  1.00  0.00     0.087 C 
ENDBRANCH  16  17
ENDBRANCH  15  16
ENDBRANCH  13  15
ENDBRANCH  11  12
ENDBRANCH   1  11
TORSDOF 9
ENDMDL
MODEL 9
REMARK VINA RESULT:    -4.728      2.793      8.057
REMARK INTER + INTRA:          -8.351
REMARK INTER:                  -7.153
REMARK INTRA:                  -1.198
REMARK UNBOUND:                -1.135
REMARK SMILES CC(=O)CCC=C(C)CCC=C(C)CCC=C(C)C
REMARK SMILES IDX 10 1 11 2 12 3 13 4 14 5 15 6 16 7 18 8 17 9 19 10 9 11 7 12
REMARK SMILES IDX 6 13 8 14 5 15 4 16 2 17 3 18 1 19
REMARK H PARENT
REMARK Flexibility Score: inf
ROOT
ATOM      1  C   UNL     1      17.309 -48.930  -3.591  1.00  0.00     0.032 C 
ENDROOT
BRANCH   1   2
ATOM      2  C   UNL     1      15.897 -48.858  -4.114  1.00  0.00    -0.028 C 
ATOM      3  C   UNL     1      15.535 -49.150  -5.385  1.00  0.00    -0.077 C 
ATOM      4  C   UNL     1      16.529 -49.665  -6.399  1.00  0.00     0.039 C 
BRANCH   3   5
ATOM      5  C   UNL     1      14.081 -49.026  -5.788  1.00  0.00     0.034 C 
BRANCH   5   6
ATOM      6  C   UNL     1      13.235 -48.391  -4.677  1.00  0.00     0.032 C 
BRANCH   6   7
ATOM      7  C   UNL     1      12.631 -47.075  -5.106  1.00  0.00    -0.028 C 
ATOM      8  C   UNL     1      10.416 -48.088  -5.693  1.00  0.00     0.039 C 
ATOM      9  C   UNL     1      11.382 -46.932  -5.604  1.00  0.00    -0.080 C 
ATOM     10  C   UNL     1      10.898 -45.571  -6.031  1.00  0.00     0.039 C 
ENDBRANCH   6   7
ENDBRANCH   5   6
ENDBRANCH   3   5
ENDBRANCH   1   2
BRANCH   1  11
ATOM     11  C   UNL     1      17.496 -47.978  -2.406  1.00  0.00     0.034 C 
BRANCH  11  12
ATOM     12  C   UNL     1      17.727 -48.759  -1.127  1.00  0.00    -0.077 C 
ATOM     13  C   UNL     1      18.960 -49.019  -0.635  1.00  0.00    -0.028 C 
ATOM     14  C   UNL     1      16.529 -49.203  -0.327  1.00  0.00     0.039 C 
BRANCH  13  15
ATOM     15  C   UNL     1      20.255 -48.644  -1.312  1.00  0.00     0.035 C 
BRANCH  15  16
ATOM     16  C   UNL     1      20.839 -49.839  -2.072  1.00  0.00     0.079 C 
BRANCH  16  17
ATOM     17  C   UNL     1      21.374 -49.408  -3.410  1.00  0.00     0.130 C 
ATOM     18  O   UNL     1      22.407 -48.759  -3.470  1.00  0.00    -0.300 OA
ATOM     19  C   UNL     1      20.637 -49.752  -4.669  1.00  0.00     0.087 C 
ENDBRANCH  16  17
ENDBRANCH  15  16
ENDBRANCH  13  15
ENDBRANCH  11  12
ENDBRANCH   1  11
TORSDOF 9
ENDMDL
