MODEL 1
REMARK VINA RESULT:    -3.388      0.000      0.000
REMARK INTER + INTRA:          -7.972
REMARK INTER:                  -6.260
REMARK INTRA:                  -1.713
REMARK UNBOUND:                -1.713
REMARK SMILES CCCCCCCCCCCCCCCCO
REMARK SMILES IDX 9 1 8 2 7 3 6 4 5 5 4 6 3 7 2 8 1 9 10 10 11 11 12 12 13 13
REMARK SMILES IDX 14 14 15 15 16 16 17 17
REMARK H PARENT 17 18
REMARK Flexibility Score: inf
ROOT
ATOM      1  C   UNL     1      26.625 -22.122  24.223  1.00  0.00     0.000 C 
ENDROOT
BRANCH   1   2
ATOM      2  C   UNL     1      26.835 -23.091  23.049  1.00  0.00    -0.000 C 
BRANCH   2   3
ATOM      3  C   UNL     1      27.225 -22.365  21.748  1.00  0.00    -0.000 C 
BRANCH   3   4
ATOM      4  C   UNL     1      28.621 -22.765  21.245  1.00  0.00    -0.000 C 
BRANCH   4   5
ATOM      5  C   UNL     1      29.730 -22.458  22.263  1.00  0.00    -0.000 C 
BRANCH   5   6
ATOM      6  C   UNL     1      30.733 -21.445  21.690  1.00  0.00    -0.000 C 
BRANCH   6   7
ATOM      7  C   UNL     1      30.474 -20.012  22.179  1.00  0.00    -0.000 C 
BRANCH   7   8
ATOM      8  C   UNL     1      29.395 -19.293  21.356  1.00  0.00    -0.003 C 
ATOM      9  C   UNL     1      28.288 -18.751  22.256  1.00  0.00     0.004 C 
ENDBRANCH   7   8
ENDBRANCH   6   7
ENDBRANCH   5   6
ENDBRANCH   4   5
ENDBRANCH   3   4
ENDBRANCH   2   3
ENDBRANCH   1   2
BRANCH   1  10
ATOM     10  C   UNL     1      27.243 -22.634  25.535  1.00  0.00     0.000 C 
BRANCH  10  11
ATOM     11  C   UNL     1      28.036 -21.549  26.287  1.00  0.00     0.000 C 
BRANCH  11  12
ATOM     12  C   UNL     1      28.780 -20.543  25.390  1.00  0.00     0.000 C 
BRANCH  12  13
ATOM     13  C   UNL     1      29.804 -19.694  26.163  1.00  0.00     0.000 C 
BRANCH  13  14
ATOM     14  C   UNL     1      30.372 -20.417  27.398  1.00  0.00     0.002 C 
BRANCH  14  15
ATOM     15  C   UNL     1      30.799 -19.497  28.557  1.00  0.00     0.028 C 
BRANCH  15  16
ATOM     16  C   UNL     1      30.465 -20.074  29.938  1.00  0.00     0.156 C 
BRANCH  16  17
ATOM     17  O   UNL     1      30.134 -21.432  29.826  1.00  0.00    -0.396 OA
ATOM     18  H   UNL     1      29.524 -21.514  29.048  1.00  0.00     0.210 HD
ENDBRANCH  16  17
ENDBRANCH  15  16
ENDBRANCH  14  15
ENDBRANCH  13  14
ENDBRANCH  12  13
ENDBRANCH  11  12
ENDBRANCH  10  11
ENDBRANCH   1  10
TORSDOF 15
ENDMDL
MODEL 2
REMARK VINA RESULT:    -3.351      1.086      1.473
REMARK INTER + INTRA:          -7.903
REMARK INTER:                  -5.869
REMARK INTRA:                  -2.034
REMARK UNBOUND:                -1.713
REMARK SMILES CCCCCCCCCCCCCCCCO
REMARK SMILES IDX 9 1 8 2 7 3 6 4 5 5 4 6 3 7 2 8 1 9 10 10 11 11 12 12 13 13
REMARK SMILES IDX 14 14 15 15 16 16 17 17
REMARK H PARENT 17 18
REMARK Flexibility Score: inf
ROOT
ATOM      1  C   UNL     1      26.331 -21.586  22.832  1.00  0.00     0.000 C 
ENDROOT
BRANCH   1   2
ATOM      2  C   UNL     1      26.677 -21.384  21.349  1.00  0.00    -0.000 C 
BRANCH   2   3
ATOM      3  C   UNL     1      27.291 -22.643  20.710  1.00  0.00    -0.000 C 
BRANCH   3   4
ATOM      4  C   UNL     1      28.636 -22.359  20.022  1.00  0.00    -0.000 C 
BRANCH   4   5
ATOM      5  C   UNL     1      29.840 -22.831  20.852  1.00  0.00    -0.000 C 
BRANCH   5   6
ATOM      6  C   UNL     1      30.809 -21.670  21.119  1.00  0.00    -0.000 C 
BRANCH   6   7
ATOM      7  C   UNL     1      30.452 -20.877  22.386  1.00  0.00    -0.000 C 
BRANCH   7   8
ATOM      8  C   UNL     1      29.893 -19.481  22.071  1.00  0.00    -0.003 C 
ATOM      9  C   UNL     1      29.578 -18.714  23.351  1.00  0.00     0.004 C 
ENDBRANCH   7   8
ENDBRANCH   6   7
ENDBRANCH   5   6
ENDBRANCH   4   5
ENDBRANCH   3   4
ENDBRANCH   2   3
ENDBRANCH   1   2
BRANCH   1  10
ATOM     10  C   UNL     1      26.879 -22.908  23.396  1.00  0.00     0.000 C 
BRANCH  10  11
ATOM     11  C   UNL     1      27.920 -22.700  24.511  1.00  0.00     0.000 C 
BRANCH  11  12
ATOM     12  C   UNL     1      27.911 -21.303  25.160  1.00  0.00     0.000 C 
BRANCH  12  13
ATOM     13  C   UNL     1      28.493 -21.300  26.584  1.00  0.00     0.000 C 
BRANCH  13  14
ATOM     14  C   UNL     1      29.787 -20.474  26.701  1.00  0.00     0.002 C 
BRANCH  14  15
ATOM     15  C   UNL     1      29.958 -19.709  28.026  1.00  0.00     0.028 C 
BRANCH  15  16
ATOM     16  C   UNL     1      29.321 -20.428  29.223  1.00  0.00     0.156 C 
BRANCH  16  17
ATOM     17  O   UNL     1      30.179 -21.430  29.695  1.00  0.00    -0.396 OA
ATOM     18  H   UNL     1      30.208 -22.134  28.996  1.00  0.00     0.210 HD
ENDBRANCH  16  17
ENDBRANCH  15  16
ENDBRANCH  14  15
ENDBRANCH  13  14
ENDBRANCH  12  13
ENDBRANCH  11  12
ENDBRANCH  10  11
ENDBRANCH   1  10
TORSDOF 15
ENDMDL
MODEL 3
REMARK VINA RESULT:    -3.339      1.561      3.156
REMARK INTER + INTRA:          -7.881
REMARK INTER:                  -5.491
REMARK INTRA:                  -2.390
REMARK UNBOUND:                -1.713
REMARK SMILES CCCCCCCCCCCCCCCCO
REMARK SMILES IDX 9 1 8 2 7 3 6 4 5 5 4 6 3 7 2 8 1 9 10 10 11 11 12 12 13 13
REMARK SMILES IDX 14 14 15 15 16 16 17 17
REMARK H PARENT 17 18
REMARK Flexibility Score: inf
ROOT
ATOM      1  C   UNL     1      26.009 -20.358  22.808  1.00  0.00     0.000 C 
ENDROOT
BRANCH   1   2
ATOM      2  C   UNL     1      27.303 -19.807  22.188  1.00  0.00    -0.000 C 
BRANCH   2   3
ATOM      3  C   UNL     1      28.093 -18.919  23.166  1.00  0.00    -0.000 C 
BRANCH   3   4
ATOM      4  C   UNL     1      29.586 -19.279  23.214  1.00  0.00    -0.000 C 
BRANCH   4   5
ATOM      5  C   UNL     1      29.842 -20.782  23.020  1.00  0.00    -0.000 C 
BRANCH   5   6
ATOM      6  C   UNL     1      30.951 -21.020  21.985  1.00  0.00    -0.000 C 
BRANCH   6   7
ATOM      7  C   UNL     1      30.511 -21.955  20.848  1.00  0.00    -0.000 C 
BRANCH   7   8
ATOM      8  C   UNL     1      29.273 -22.787  21.212  1.00  0.00    -0.003 C 
ATOM      9  C   UNL     1      28.319 -22.901  20.026  1.00  0.00     0.004 C 
ENDBRANCH   7   8
ENDBRANCH   6   7
ENDBRANCH   5   6
ENDBRANCH   4   5
ENDBRANCH   3   4
ENDBRANCH   2   3
ENDBRANCH   1   2
BRANCH   1  10
ATOM     10  C   UNL     1      25.919 -21.892  22.731  1.00  0.00     0.000 C 
BRANCH  10  11
ATOM     11  C   UNL     1      25.927 -22.563  24.116  1.00  0.00     0.000 C 
BRANCH  11  12
ATOM     12  C   UNL     1      27.324 -22.856  24.694  1.00  0.00     0.000 C 
BRANCH  12  13
ATOM     13  C   UNL     1      27.505 -22.323  26.125  1.00  0.00     0.000 C 
BRANCH  13  14
ATOM     14  C   UNL     1      27.489 -20.784  26.198  1.00  0.00     0.002 C 
BRANCH  14  15
ATOM     15  C   UNL     1      28.329 -20.174  27.336  1.00  0.00     0.028 C 
BRANCH  15  16
ATOM     16  C   UNL     1      29.734 -19.753  26.888  1.00  0.00     0.156 C 
BRANCH  16  17
ATOM     17  O   UNL     1      30.628 -20.822  27.034  1.00  0.00    -0.396 OA
ATOM     18  H   UNL     1      30.786 -20.930  28.008  1.00  0.00     0.210 HD
ENDBRANCH  16  17
ENDBRANCH  15  16
ENDBRANCH  14  15
ENDBRANCH  13  14
ENDBRANCH  12  13
ENDBRANCH  11  12
ENDBRANCH  10  11
ENDBRANCH   1  10
TORSDOF 15
ENDMDL
MODEL 4
REMARK VINA RESULT:    -3.184      3.243      4.251
REMARK INTER + INTRA:          -7.595
REMARK INTER:                  -5.285
REMARK INTRA:                  -2.310
REMARK UNBOUND:                -1.713
REMARK SMILES CCCCCCCCCCCCCCCCO
REMARK SMILES IDX 9 1 8 2 7 3 6 4 5 5 4 6 3 7 2 8 1 9 10 10 11 11 12 12 13 13
REMARK SMILES IDX 14 14 15 15 16 16 17 17
REMARK H PARENT 17 18
REMARK Flexibility Score: inf
ROOT
ATOM      1  C   UNL     1      27.753 -21.517  25.145  1.00  0.00     0.000 C 
ENDROOT
BRANCH   1   2
ATOM      2  C   UNL     1      28.508 -22.479  24.214  1.00  0.00    -0.000 C 
BRANCH   2   3
ATOM      3  C   UNL     1      27.995 -22.420  22.764  1.00  0.00    -0.000 C 
BRANCH   3   4
ATOM      4  C   UNL     1      29.115 -22.128  21.753  1.00  0.00    -0.000 C 
BRANCH   4   5
ATOM      5  C   UNL     1      30.325 -21.428  22.391  1.00  0.00    -0.000 C 
BRANCH   5   6
ATOM      6  C   UNL     1      30.307 -19.922  22.092  1.00  0.00    -0.000 C 
BRANCH   6   7
ATOM      7  C   UNL     1      29.144 -19.512  21.175  1.00  0.00    -0.000 C 
BRANCH   7   8
ATOM      8  C   UNL     1      28.347 -18.322  21.728  1.00  0.00    -0.003 C 
ATOM      9  C   UNL     1      27.244 -18.791  22.674  1.00  0.00     0.004 C 
ENDBRANCH   7   8
ENDBRANCH   6   7
ENDBRANCH   5   6
ENDBRANCH   4   5
ENDBRANCH   3   4
ENDBRANCH   2   3
ENDBRANCH   1   2
BRANCH   1  10
ATOM     10  C   UNL     1      28.638 -20.965  26.276  1.00  0.00     0.000 C 
BRANCH  10  11
ATOM     11  C   UNL     1      29.676 -19.942  25.780  1.00  0.00     0.000 C 
BRANCH  11  12
ATOM     12  C   UNL     1      29.251 -18.467  25.906  1.00  0.00     0.000 C 
BRANCH  12  13
ATOM     13  C   UNL     1      30.052 -17.532  24.984  1.00  0.00     0.000 C 
BRANCH  13  14
ATOM     14  C   UNL     1      29.272 -16.261  24.596  1.00  0.00     0.002 C 
BRANCH  14  15
ATOM     15  C   UNL     1      30.047 -15.260  23.718  1.00  0.00     0.028 C 
BRANCH  15  16
ATOM     16  C   UNL     1      29.181 -14.626  22.622  1.00  0.00     0.156 C 
BRANCH  16  17
ATOM     17  O   UNL     1      29.582 -15.091  21.362  1.00  0.00    -0.396 OA
ATOM     18  H   UNL     1      29.316 -14.397  20.703  1.00  0.00     0.210 HD
ENDBRANCH  16  17
ENDBRANCH  15  16
ENDBRANCH  14  15
ENDBRANCH  13  14
ENDBRANCH  12  13
ENDBRANCH  11  12
ENDBRANCH  10  11
ENDBRANCH   1  10
TORSDOF 15
ENDMDL
MODEL 5
REMARK VINA RESULT:    -3.160      2.699      3.761
REMARK INTER + INTRA:          -7.552
REMARK INTER:                  -5.053
REMARK INTRA:                  -2.499
REMARK UNBOUND:                -1.713
REMARK SMILES CCCCCCCCCCCCCCCCO
REMARK SMILES IDX 9 1 8 2 7 3 6 4 5 5 4 6 3 7 2 8 1 9 10 10 11 11 12 12 13 13
REMARK SMILES IDX 14 14 15 15 16 16 17 17
REMARK H PARENT 17 18
REMARK Flexibility Score: inf
ROOT
ATOM      1  C   UNL     1      28.483 -22.419  24.155  1.00  0.00     0.000 C 
ENDROOT
BRANCH   1   2
ATOM      2  C   UNL     1      27.428 -22.645  23.061  1.00  0.00    -0.000 C 
BRANCH   2   3
ATOM      3  C   UNL     1      26.550 -21.403  22.825  1.00  0.00    -0.000 C 
BRANCH   3   4
ATOM      4  C   UNL     1      26.941 -20.638  21.551  1.00  0.00    -0.000 C 
BRANCH   4   5
ATOM      5  C   UNL     1      27.808 -19.402  21.841  1.00  0.00    -0.000 C 
BRANCH   5   6
ATOM      6  C   UNL     1      29.191 -19.538  21.190  1.00  0.00    -0.000 C 
BRANCH   6   7
ATOM      7  C   UNL     1      30.309 -19.786  22.214  1.00  0.00    -0.000 C 
BRANCH   7   8
ATOM      8  C   UNL     1      31.077 -21.089  21.948  1.00  0.00    -0.003 C 
ATOM      9  C   UNL     1      30.399 -21.913  20.857  1.00  0.00     0.004 C 
ENDBRANCH   7   8
ENDBRANCH   6   7
ENDBRANCH   5   6
ENDBRANCH   4   5
ENDBRANCH   3   4
ENDBRANCH   2   3
ENDBRANCH   1   2
BRANCH   1  10
ATOM     10  C   UNL     1      27.861 -22.159  25.538  1.00  0.00     0.000 C 
BRANCH  10  11
ATOM     11  C   UNL     1      28.533 -20.995  26.288  1.00  0.00     0.000 C 
BRANCH  11  12
ATOM     12  C   UNL     1      28.576 -19.661  25.521  1.00  0.00     0.000 C 
BRANCH  12  13
ATOM     13  C   UNL     1      29.832 -18.829  25.833  1.00  0.00     0.000 C 
BRANCH  13  14
ATOM     14  C   UNL     1      29.825 -17.451  25.146  1.00  0.00     0.002 C 
BRANCH  14  15
ATOM     15  C   UNL     1      28.468 -17.018  24.560  1.00  0.00     0.028 C 
BRANCH  15  16
ATOM     16  C   UNL     1      28.606 -16.133  23.314  1.00  0.00     0.156 C 
BRANCH  16  17
ATOM     17  O   UNL     1      29.913 -16.202  22.815  1.00  0.00    -0.396 OA
ATOM     18  H   UNL     1      29.862 -16.683  21.948  1.00  0.00     0.210 HD
ENDBRANCH  16  17
ENDBRANCH  15  16
ENDBRANCH  14  15
ENDBRANCH  13  14
ENDBRANCH  12  13
ENDBRANCH  11  12
ENDBRANCH  10  11
ENDBRANCH   1  10
TORSDOF 15
ENDMDL
MODEL 6
REMARK VINA RESULT:    -3.155      2.813      5.705
REMARK INTER + INTRA:          -7.542
REMARK INTER:                  -5.353
REMARK INTRA:                  -2.189
REMARK UNBOUND:                -1.713
REMARK SMILES CCCCCCCCCCCCCCCCO
REMARK SMILES IDX 9 1 8 2 7 3 6 4 5 5 4 6 3 7 2 8 1 9 10 10 11 11 12 12 13 13
REMARK SMILES IDX 14 14 15 15 16 16 17 17
REMARK H PARENT 17 18
REMARK Flexibility Score: inf
ROOT
ATOM      1  C   UNL     1      26.695 -20.084  24.405  1.00  0.00     0.000 C 
ENDROOT
BRANCH   1   2
ATOM      2  C   UNL     1      27.032 -21.575  24.241  1.00  0.00    -0.000 C 
BRANCH   2   3
ATOM      3  C   UNL     1      28.178 -22.025  25.164  1.00  0.00    -0.000 C 
BRANCH   3   4
ATOM      4  C   UNL     1      28.047 -21.459  26.586  1.00  0.00    -0.000 C 
BRANCH   4   5
ATOM      5  C   UNL     1      29.378 -20.922  27.138  1.00  0.00    -0.000 C 
BRANCH   5   6
ATOM      6  C   UNL     1      29.969 -19.858  26.201  1.00  0.00    -0.000 C 
BRANCH   6   7
ATOM      7  C   UNL     1      29.405 -18.454  26.466  1.00  0.00    -0.000 C 
BRANCH   7   8
ATOM      8  C   UNL     1      30.426 -17.343  26.176  1.00  0.00    -0.003 C 
ATOM      9  C   UNL     1      30.777 -16.574  27.446  1.00  0.00     0.004 C 
ENDBRANCH   7   8
ENDBRANCH   6   7
ENDBRANCH   5   6
ENDBRANCH   4   5
ENDBRANCH   3   4
ENDBRANCH   2   3
ENDBRANCH   1   2
BRANCH   1  10
ATOM     10  C   UNL     1      26.933 -19.275  23.119  1.00  0.00     0.000 C 
BRANCH  10  11
ATOM     11  C   UNL     1      28.385 -18.784  22.979  1.00  0.00     0.000 C 
BRANCH  11  12
ATOM     12  C   UNL     1      29.174 -19.399  21.808  1.00  0.00     0.000 C 
BRANCH  12  13
ATOM     13  C   UNL     1      30.454 -20.121  22.261  1.00  0.00     0.000 C 
BRANCH  13  14
ATOM     14  C   UNL     1      30.324 -21.655  22.220  1.00  0.00     0.002 C 
BRANCH  14  15
ATOM     15  C   UNL     1      29.255 -22.196  21.253  1.00  0.00     0.028 C 
BRANCH  15  16
ATOM     16  C   UNL     1      29.841 -23.071  20.137  1.00  0.00     0.156 C 
BRANCH  16  17
ATOM     17  O   UNL     1      31.166 -22.695  19.876  1.00  0.00    -0.396 OA
ATOM     18  H   UNL     1      31.729 -23.492  20.057  1.00  0.00     0.210 HD
ENDBRANCH  16  17
ENDBRANCH  15  16
ENDBRANCH  14  15
ENDBRANCH  13  14
ENDBRANCH  12  13
ENDBRANCH  11  12
ENDBRANCH  10  11
ENDBRANCH   1  10
TORSDOF 15
ENDMDL
MODEL 7
REMARK VINA RESULT:    -3.131      2.871      5.779
REMARK INTER + INTRA:          -7.497
REMARK INTER:                  -5.840
REMARK INTRA:                  -1.657
REMARK UNBOUND:                -1.713
REMARK SMILES CCCCCCCCCCCCCCCCO
REMARK SMILES IDX 9 1 8 2 7 3 6 4 5 5 4 6 3 7 2 8 1 9 10 10 11 11 12 12 13 13
REMARK SMILES IDX 14 14 15 15 16 16 17 17
REMARK H PARENT 17 18
REMARK Flexibility Score: inf
ROOT
ATOM      1  C   UNL     1      28.215 -22.397  22.755  1.00  0.00     0.000 C 
ENDROOT
BRANCH   1   2
ATOM      2  C   UNL     1      28.468 -22.301  24.268  1.00  0.00    -0.000 C 
BRANCH   2   3
ATOM      3  C   UNL     1      27.318 -22.901  25.097  1.00  0.00    -0.000 C 
BRANCH   3   4
ATOM      4  C   UNL     1      26.679 -21.876  26.047  1.00  0.00    -0.000 C 
BRANCH   4   5
ATOM      5  C   UNL     1      27.061 -22.108  27.517  1.00  0.00    -0.000 C 
BRANCH   5   6
ATOM      6  C   UNL     1      27.808 -20.894  28.087  1.00  0.00    -0.000 C 
BRANCH   6   7
ATOM      7  C   UNL     1      29.335 -21.039  27.996  1.00  0.00    -0.000 C 
BRANCH   7   8
ATOM      8  C   UNL     1      29.946 -20.172  26.886  1.00  0.00    -0.003 C 
ATOM      9  C   UNL     1      29.033 -18.999  26.539  1.00  0.00     0.004 C 
ENDBRANCH   7   8
ENDBRANCH   6   7
ENDBRANCH   5   6
ENDBRANCH   4   5
ENDBRANCH   3   4
ENDBRANCH   2   3
ENDBRANCH   1   2
BRANCH   1  10
ATOM     10  C   UNL     1      29.515 -22.393  21.933  1.00  0.00     0.000 C 
BRANCH  10  11
ATOM     11  C   UNL     1      30.562 -21.400  22.471  1.00  0.00     0.000 C 
BRANCH  11  12
ATOM     12  C   UNL     1      30.431 -19.960  21.941  1.00  0.00     0.000 C 
BRANCH  12  13
ATOM     13  C   UNL     1      29.754 -19.010  22.943  1.00  0.00     0.000 C 
BRANCH  13  14
ATOM     14  C   UNL     1      28.360 -18.545  22.482  1.00  0.00     0.002 C 
BRANCH  14  15
ATOM     15  C   UNL     1      28.358 -17.366  21.492  1.00  0.00     0.028 C 
BRANCH  15  16
ATOM     16  C   UNL     1      28.679 -16.021  22.156  1.00  0.00     0.156 C 
BRANCH  16  17
ATOM     17  O   UNL     1      29.540 -15.274  21.340  1.00  0.00    -0.396 OA
ATOM     18  H   UNL     1      29.523 -15.699  20.443  1.00  0.00     0.210 HD
ENDBRANCH  16  17
ENDBRANCH  15  16
ENDBRANCH  14  15
ENDBRANCH  13  14
ENDBRANCH  12  13
ENDBRANCH  11  12
ENDBRANCH  10  11
ENDBRANCH   1  10
TORSDOF 15
ENDMDL
MODEL 8
REMARK VINA RESULT:    -3.090      2.774      5.399
REMARK INTER + INTRA:          -7.421
REMARK INTER:                  -5.228
REMARK INTRA:                  -2.194
REMARK UNBOUND:                -1.713
REMARK SMILES CCCCCCCCCCCCCCCCO
REMARK SMILES IDX 9 1 8 2 7 3 6 4 5 5 4 6 3 7 2 8 1 9 10 10 11 11 12 12 13 13
REMARK SMILES IDX 14 14 15 15 16 16 17 17
REMARK H PARENT 17 18
REMARK Flexibility Score: inf
ROOT
ATOM      1  C   UNL     1      27.078 -22.118  23.794  1.00  0.00     0.000 C 
ENDROOT
BRANCH   1   2
ATOM      2  C   UNL     1      26.481 -21.855  25.186  1.00  0.00    -0.000 C 
BRANCH   2   3
ATOM      3  C   UNL     1      27.445 -22.240  26.322  1.00  0.00    -0.000 C 
BRANCH   3   4
ATOM      4  C   UNL     1      27.942 -21.020  27.113  1.00  0.00    -0.000 C 
BRANCH   4   5
ATOM      5  C   UNL     1      29.467 -20.851  27.049  1.00  0.00    -0.000 C 
BRANCH   5   6
ATOM      6  C   UNL     1      29.843 -19.485  26.457  1.00  0.00    -0.000 C 
BRANCH   6   7
ATOM      7  C   UNL     1      28.910 -19.055  25.315  1.00  0.00    -0.000 C 
BRANCH   7   8
ATOM      8  C   UNL     1      28.878 -17.532  25.118  1.00  0.00    -0.003 C 
ATOM      9  C   UNL     1      30.084 -17.057  24.312  1.00  0.00     0.004 C 
ENDBRANCH   7   8
ENDBRANCH   6   7
ENDBRANCH   5   6
ENDBRANCH   4   5
ENDBRANCH   3   4
ENDBRANCH   2   3
ENDBRANCH   1   2
BRANCH   1  10
ATOM     10  C   UNL     1      28.572 -22.479  23.847  1.00  0.00     0.000 C 
BRANCH  10  11
ATOM     11  C   UNL     1      29.262 -22.378  22.474  1.00  0.00     0.000 C 
BRANCH  11  12
ATOM     12  C   UNL     1      30.571 -21.567  22.458  1.00  0.00     0.000 C 
BRANCH  12  13
ATOM     13  C   UNL     1      30.356 -20.088  22.092  1.00  0.00     0.000 C 
BRANCH  13  14
ATOM     14  C   UNL     1      29.144 -19.870  21.168  1.00  0.00     0.002 C 
BRANCH  14  15
ATOM     15  C   UNL     1      28.018 -19.002  21.760  1.00  0.00     0.028 C 
BRANCH  15  16
ATOM     16  C   UNL     1      27.907 -17.624  21.094  1.00  0.00     0.156 C 
BRANCH  16  17
ATOM     17  O   UNL     1      29.182 -17.065  20.928  1.00  0.00    -0.396 OA
ATOM     18  H   UNL     1      29.053 -16.193  20.471  1.00  0.00     0.210 HD
ENDBRANCH  16  17
ENDBRANCH  15  16
ENDBRANCH  14  15
ENDBRANCH  13  14
ENDBRANCH  12  13
ENDBRANCH  11  12
ENDBRANCH  10  11
ENDBRANCH   1  10
TORSDOF 15
ENDMDL
MODEL 9
REMARK VINA RESULT:    -3.084      2.374      2.806
REMARK INTER + INTRA:          -7.410
REMARK INTER:                  -5.270
REMARK INTRA:                  -2.140
REMARK UNBOUND:                -1.713
REMARK SMILES CCCCCCCCCCCCCCCCO
REMARK SMILES IDX 9 1 8 2 7 3 6 4 5 5 4 6 3 7 2 8 1 9 10 10 11 11 12 12 13 13
REMARK SMILES IDX 14 14 15 15 16 16 17 17
REMARK H PARENT 17 18
REMARK Flexibility Score: inf
ROOT
ATOM      1  C   UNL     1      26.470 -22.179  23.401  1.00  0.00     0.000 C 
ENDROOT
BRANCH   1   2
ATOM      2  C   UNL     1      26.738 -23.121  22.216  1.00  0.00    -0.000 C 
BRANCH   2   3
ATOM      3  C   UNL     1      27.161 -22.363  20.945  1.00  0.00    -0.000 C 
BRANCH   3   4
ATOM      4  C   UNL     1      28.582 -22.729  20.486  1.00  0.00    -0.000 C 
BRANCH   4   5
ATOM      5  C   UNL     1      29.608 -22.676  21.628  1.00  0.00    -0.000 C 
BRANCH   5   6
ATOM      6  C   UNL     1      30.622 -21.545  21.402  1.00  0.00    -0.000 C 
BRANCH   6   7
ATOM      7  C   UNL     1      30.320 -20.298  22.247  1.00  0.00    -0.000 C 
BRANCH   7   8
ATOM      8  C   UNL     1      29.343 -19.336  21.554  1.00  0.00    -0.003 C 
ATOM      9  C   UNL     1      28.096 -19.112  22.405  1.00  0.00     0.004 C 
ENDBRANCH   7   8
ENDBRANCH   6   7
ENDBRANCH   5   6
ENDBRANCH   4   5
ENDBRANCH   3   4
ENDBRANCH   2   3
ENDBRANCH   1   2
BRANCH   1  10
ATOM     10  C   UNL     1      27.151 -22.646  24.698  1.00  0.00     0.000 C 
BRANCH  10  11
ATOM     11  C   UNL     1      28.511 -21.966  24.940  1.00  0.00     0.000 C 
BRANCH  11  12
ATOM     12  C   UNL     1      28.631 -21.201  26.271  1.00  0.00     0.000 C 
BRANCH  12  13
ATOM     13  C   UNL     1      29.726 -20.120  26.245  1.00  0.00     0.000 C 
BRANCH  13  14
ATOM     14  C   UNL     1      29.159 -18.690  26.321  1.00  0.00     0.002 C 
BRANCH  14  15
ATOM     15  C   UNL     1      29.896 -17.647  25.461  1.00  0.00     0.028 C 
BRANCH  15  16
ATOM     16  C   UNL     1      28.971 -16.547  24.926  1.00  0.00     0.156 C 
BRANCH  16  17
ATOM     17  O   UNL     1      29.407 -16.122  23.663  1.00  0.00    -0.396 OA
ATOM     18  H   UNL     1      29.617 -15.155  23.744  1.00  0.00     0.210 HD
ENDBRANCH  16  17
ENDBRANCH  15  16
ENDBRANCH  14  15
ENDBRANCH  13  14
ENDBRANCH  12  13
ENDBRANCH  11  12
ENDBRANCH  10  11
ENDBRANCH   1  10
TORSDOF 15
ENDMDL
