MODEL 1
REMARK VINA RESULT:    -3.576      0.000      0.000
REMARK INTER + INTRA:          -6.918
REMARK INTER:                  -5.457
REMARK INTRA:                  -1.460
REMARK UNBOUND:                -1.460
REMARK SMILES OC[C@@H]1O[C@H](O[C@@]2(CO)O[C@H](CO)[C@H](O)[C@H]2O)[C@@H](O)[C@H](O)[C@H]1O
REMARK SMILES IDX 6 1 5 2 3 3 22 4 4 5 20 6 18 7 2 8 1 9 23 11 21 13 19 15
REMARK SMILES IDX 7 17 16 18 10 19 14 20 11 21 8 22 9 23 17 25 15 27 12 29
REMARK SMILES IDX 13 30
REMARK H PARENT 1 10 23 12 21 14 19 16 9 24 17 26 15 28 13 31
REMARK Flexibility Score: inf
ROOT
ATOM      1  O   UNL     1      -1.215 -31.639   0.256  1.00  0.00    -0.313 OA
ENDROOT
BRANCH   1   2
ATOM      2  C   UNL     1      -0.808 -33.000   0.157  1.00  0.00     0.285 C 
ATOM      3  C   UNL     1      -0.269 -32.897  -2.175  1.00  0.00     0.178 C 
ATOM      4  C   UNL     1       1.254 -32.943  -1.893  1.00  0.00     0.177 C 
ATOM      5  O   UNL     1      -1.056 -33.499  -1.152  1.00  0.00    -0.341 OA
ATOM      6  C   UNL     1       1.594 -32.474  -0.464  1.00  0.00     0.179 C 
ATOM      7  C   UNL     1       0.674 -33.152   0.559  1.00  0.00     0.202 C 
BRANCH   3   8
ATOM      8  C   UNL     1      -0.795 -31.504  -2.587  1.00  0.00     0.191 C 
BRANCH   8   9
ATOM      9  O   UNL     1      -2.190 -31.537  -2.743  1.00  0.00    -0.394 OA
ATOM     10  H   UNL     1      -2.409 -32.357  -3.259  1.00  0.00     0.210 HD
ENDBRANCH   8   9
ENDBRANCH   3   8
BRANCH   4  11
ATOM     11  O   UNL     1       1.708 -34.261  -2.080  1.00  0.00    -0.387 OA
ATOM     12  H   UNL     1       1.977 -34.342  -3.032  1.00  0.00     0.211 HD
ENDBRANCH   4  11
BRANCH   6  13
ATOM     13  O   UNL     1       1.477 -31.079  -0.355  1.00  0.00    -0.387 OA
ATOM     14  H   UNL     1       1.024 -30.761  -1.180  1.00  0.00     0.211 HD
ENDBRANCH   6  13
BRANCH   7  15
ATOM     15  O   UNL     1       1.008 -34.514   0.656  1.00  0.00    -0.385 OA
ATOM     16  H   UNL     1       1.660 -34.600   1.401  1.00  0.00     0.211 HD
ENDBRANCH   7  15
ENDBRANCH   1   2
BRANCH   1  17
ATOM     17  C   UNL     1      -2.461 -31.409   0.912  1.00  0.00     0.224 C 
ATOM     18  C   UNL     1      -2.785 -29.901   1.095  1.00  0.00     0.208 C 
ATOM     19  O   UNL     1      -2.338 -31.960   2.211  1.00  0.00    -0.337 OA
ATOM     20  C   UNL     1      -3.487 -29.859   2.431  1.00  0.00     0.180 C 
ATOM     21  C   UNL     1      -2.849 -31.044   3.158  1.00  0.00     0.179 C 
BRANCH  17  22
ATOM     22  C   UNL     1      -3.611 -32.204   0.225  1.00  0.00     0.225 C 
BRANCH  22  23
ATOM     23  O   UNL     1      -4.417 -31.398  -0.593  1.00  0.00    -0.391 OA
ATOM     24  H   UNL     1      -5.338 -31.765  -0.553  1.00  0.00     0.210 HD
ENDBRANCH  22  23
ENDBRANCH  17  22
BRANCH  18  25
ATOM     25  O   UNL     1      -1.621 -29.107   1.128  1.00  0.00    -0.385 OA
ATOM     26  H   UNL     1      -1.424 -28.877   2.073  1.00  0.00     0.211 HD
ENDBRANCH  18  25
BRANCH  20  27
ATOM     27  O   UNL     1      -4.871 -30.042   2.259  1.00  0.00    -0.387 OA
ATOM     28  H   UNL     1      -4.980 -30.764   1.586  1.00  0.00     0.211 HD
ENDBRANCH  20  27
BRANCH  21  29
ATOM     29  C   UNL     1      -3.800 -31.762   4.125  1.00  0.00     0.191 C 
BRANCH  29  30
ATOM     30  O   UNL     1      -4.455 -32.800   3.451  1.00  0.00    -0.394 OA
ATOM     31  H   UNL     1      -4.465 -32.545   2.492  1.00  0.00     0.210 HD
ENDBRANCH  29  30
ENDBRANCH  21  29
ENDBRANCH   1  17
TORSDOF 13
ENDMDL
MODEL 2
REMARK VINA RESULT:    -3.425      6.590      9.826
REMARK INTER + INTRA:          -6.688
REMARK INTER:                  -5.141
REMARK INTRA:                  -1.547
REMARK UNBOUND:                -1.460
REMARK SMILES OC[C@@H]1O[C@H](O[C@@]2(CO)O[C@H](CO)[C@H](O)[C@H]2O)[C@@H](O)[C@H](O)[C@H]1O
REMARK SMILES IDX 6 1 5 2 3 3 22 4 4 5 20 6 18 7 2 8 1 9 23 11 21 13 19 15
REMARK SMILES IDX 7 17 16 18 10 19 14 20 11 21 8 22 9 23 17 25 15 27 12 29
REMARK SMILES IDX 13 30
REMARK H PARENT 1 10 23 12 21 14 19 16 9 24 17 26 15 28 13 31
REMARK Flexibility Score: inf
ROOT
ATOM      1  O   UNL     1       2.415 -36.479  -5.100  1.00  0.00    -0.313 OA
ENDROOT
BRANCH   1   2
ATOM      2  C   UNL     1       3.689 -36.374  -4.472  1.00  0.00     0.285 C 
ATOM      3  C   UNL     1       4.027 -34.074  -5.051  1.00  0.00     0.178 C 
ATOM      4  C   UNL     1       3.785 -33.604  -3.594  1.00  0.00     0.177 C 
ATOM      5  O   UNL     1       4.496 -35.416  -5.144  1.00  0.00    -0.341 OA
ATOM      6  C   UNL     1       2.966 -34.627  -2.782  1.00  0.00     0.179 C 
ATOM      7  C   UNL     1       3.528 -36.041  -2.974  1.00  0.00     0.202 C 
BRANCH   3   8
ATOM      8  C   UNL     1       2.853 -33.786  -6.013  1.00  0.00     0.191 C 
BRANCH   8   9
ATOM      9  O   UNL     1       3.280 -33.893  -7.346  1.00  0.00    -0.394 OA
ATOM     10  H   UNL     1       3.360 -32.971  -7.704  1.00  0.00     0.210 HD
ENDBRANCH   8   9
ENDBRANCH   3   8
BRANCH   4  11
ATOM     11  O   UNL     1       5.030 -33.394  -2.974  1.00  0.00    -0.387 OA
ATOM     12  H   UNL     1       5.549 -32.788  -3.565  1.00  0.00     0.211 HD
ENDBRANCH   4  11
BRANCH   6  13
ATOM     13  O   UNL     1       1.614 -34.599  -3.162  1.00  0.00    -0.387 OA
ATOM     14  H   UNL     1       1.484 -35.327  -3.823  1.00  0.00     0.211 HD
ENDBRANCH   6  13
BRANCH   7  15
ATOM     15  O   UNL     1       4.770 -36.142  -2.324  1.00  0.00    -0.385 OA
ATOM     16  H   UNL     1       5.203 -35.250  -2.389  1.00  0.00     0.211 HD
ENDBRANCH   7  15
ENDBRANCH   1   2
BRANCH   1  17
ATOM     17  C   UNL     1       2.205 -37.649  -5.890  1.00  0.00     0.224 C 
ATOM     18  C   UNL     1       0.905 -38.412  -5.516  1.00  0.00     0.208 C 
ATOM     19  O   UNL     1       3.285 -38.520  -5.609  1.00  0.00    -0.337 OA
ATOM     20  C   UNL     1       1.290 -39.861  -5.704  1.00  0.00     0.180 C 
ATOM     21  C   UNL     1       2.789 -39.828  -5.402  1.00  0.00     0.179 C 
BRANCH  17  22
ATOM     22  C   UNL     1       2.310 -37.324  -7.409  1.00  0.00     0.225 C 
BRANCH  22  23
ATOM     23  O   UNL     1       3.586 -36.877  -7.785  1.00  0.00    -0.391 OA
ATOM     24  H   UNL     1       3.951 -37.535  -8.431  1.00  0.00     0.210 HD
ENDBRANCH  22  23
ENDBRANCH  17  22
BRANCH  18  25
ATOM     25  O   UNL     1       0.515 -38.178  -4.182  1.00  0.00    -0.385 OA
ATOM     26  H   UNL     1       0.045 -37.306  -4.141  1.00  0.00     0.211 HD
ENDBRANCH  18  25
BRANCH  20  27
ATOM     27  O   UNL     1       1.038 -40.262  -7.028  1.00  0.00    -0.387 OA
ATOM     28  H   UNL     1       1.805 -40.828  -7.304  1.00  0.00     0.211 HD
ENDBRANCH  20  27
BRANCH  21  29
ATOM     29  C   UNL     1       3.607 -40.837  -6.219  1.00  0.00     0.191 C 
BRANCH  29  30
ATOM     30  O   UNL     1       3.089 -42.123  -6.028  1.00  0.00    -0.394 OA
ATOM     31  H   UNL     1       3.193 -42.596  -6.894  1.00  0.00     0.210 HD
ENDBRANCH  29  30
ENDBRANCH  21  29
ENDBRANCH   1  17
TORSDOF 13
ENDMDL
MODEL 3
REMARK VINA RESULT:    -3.409      6.803      9.227
REMARK INTER + INTRA:          -6.664
REMARK INTER:                  -4.992
REMARK INTRA:                  -1.671
REMARK UNBOUND:                -1.460
REMARK SMILES OC[C@@H]1O[C@H](O[C@@]2(CO)O[C@H](CO)[C@H](O)[C@H]2O)[C@@H](O)[C@H](O)[C@H]1O
REMARK SMILES IDX 6 1 5 2 3 3 22 4 4 5 20 6 18 7 2 8 1 9 23 11 21 13 19 15
REMARK SMILES IDX 7 17 16 18 10 19 14 20 11 21 8 22 9 23 17 25 15 27 12 29
REMARK SMILES IDX 13 30
REMARK H PARENT 1 10 23 12 21 14 19 16 9 24 17 26 15 28 13 31
REMARK Flexibility Score: inf
ROOT
ATOM      1  O   UNL     1       2.581 -36.983  -5.029  1.00  0.00    -0.313 OA
ENDROOT
BRANCH   1   2
ATOM      2  C   UNL     1       3.008 -38.254  -4.549  1.00  0.00     0.285 C 
ATOM      3  C   UNL     1       0.986 -39.398  -5.133  1.00  0.00     0.178 C 
ATOM      4  C   UNL     1       1.666 -40.133  -6.317  1.00  0.00     0.177 C 
ATOM      5  O   UNL     1       1.894 -39.017  -4.104  1.00  0.00    -0.341 OA
ATOM      6  C   UNL     1       2.924 -39.392  -6.813  1.00  0.00     0.179 C 
ATOM      7  C   UNL     1       3.819 -38.997  -5.633  1.00  0.00     0.202 C 
BRANCH   3   8
ATOM      8  C   UNL     1       0.050 -38.245  -5.556  1.00  0.00     0.191 C 
BRANCH   8   9
ATOM      9  O   UNL     1      -0.316 -37.480  -4.438  1.00  0.00    -0.394 OA
ATOM     10  H   UNL     1       0.522 -37.223  -3.971  1.00  0.00     0.210 HD
ENDBRANCH   8   9
ENDBRANCH   3   8
BRANCH   4  11
ATOM     11  O   UNL     1       2.012 -41.432  -5.903  1.00  0.00    -0.387 OA
ATOM     12  H   UNL     1       2.684 -41.772  -6.551  1.00  0.00     0.211 HD
ENDBRANCH   4  11
BRANCH   6  13
ATOM     13  O   UNL     1       2.572 -38.247  -7.546  1.00  0.00    -0.387 OA
ATOM     14  H   UNL     1       2.644 -37.474  -6.927  1.00  0.00     0.211 HD
ENDBRANCH   6  13
BRANCH   7  15
ATOM     15  O   UNL     1       4.406 -40.151  -5.085  1.00  0.00    -0.385 OA
ATOM     16  H   UNL     1       3.912 -40.929  -5.454  1.00  0.00     0.211 HD
ENDBRANCH   7  15
ENDBRANCH   1   2
BRANCH   1  17
ATOM     17  C   UNL     1       3.072 -35.851  -4.313  1.00  0.00     0.224 C 
ATOM     18  C   UNL     1       1.974 -34.792  -4.017  1.00  0.00     0.208 C 
ATOM     19  O   UNL     1       4.024 -35.227  -5.155  1.00  0.00    -0.337 OA
ATOM     20  C   UNL     1       2.716 -33.483  -4.138  1.00  0.00     0.180 C 
ATOM     21  C   UNL     1       3.801 -33.831  -5.158  1.00  0.00     0.179 C 
BRANCH  17  22
ATOM     22  C   UNL     1       3.858 -36.290  -3.043  1.00  0.00     0.225 C 
BRANCH  22  23
ATOM     23  O   UNL     1       3.174 -36.001  -1.851  1.00  0.00    -0.391 OA
ATOM     24  H   UNL     1       2.327 -35.548  -2.100  1.00  0.00     0.210 HD
ENDBRANCH  22  23
ENDBRANCH  17  22
BRANCH  18  25
ATOM     25  O   UNL     1       0.919 -34.845  -4.951  1.00  0.00    -0.385 OA
ATOM     26  H   UNL     1       0.292 -34.100  -4.759  1.00  0.00     0.211 HD
ENDBRANCH  18  25
BRANCH  20  27
ATOM     27  O   UNL     1       3.270 -33.123  -2.896  1.00  0.00    -0.387 OA
ATOM     28  H   UNL     1       3.282 -33.946  -2.341  1.00  0.00     0.211 HD
ENDBRANCH  20  27
BRANCH  21  29
ATOM     29  C   UNL     1       5.125 -33.087  -4.933  1.00  0.00     0.191 C 
BRANCH  29  30
ATOM     30  O   UNL     1       4.884 -31.708  -4.887  1.00  0.00    -0.394 OA
ATOM     31  H   UNL     1       3.905 -31.594  -5.007  1.00  0.00     0.210 HD
ENDBRANCH  29  30
ENDBRANCH  21  29
ENDBRANCH   1  17
TORSDOF 13
ENDMDL
MODEL 4
REMARK VINA RESULT:    -3.407      8.737     11.486
REMARK INTER + INTRA:          -6.660
REMARK INTER:                  -5.205
REMARK INTRA:                  -1.455
REMARK UNBOUND:                -1.460
REMARK SMILES OC[C@@H]1O[C@H](O[C@@]2(CO)O[C@H](CO)[C@H](O)[C@H]2O)[C@@H](O)[C@H](O)[C@H]1O
REMARK SMILES IDX 6 1 5 2 3 3 22 4 4 5 20 6 18 7 2 8 1 9 23 11 21 13 19 15
REMARK SMILES IDX 7 17 16 18 10 19 14 20 11 21 8 22 9 23 17 25 15 27 12 29
REMARK SMILES IDX 13 30
REMARK H PARENT 1 10 23 12 21 14 19 16 9 24 17 26 15 28 13 31
REMARK Flexibility Score: inf
ROOT
ATOM      1  O   UNL     1       1.421 -38.685  -8.055  1.00  0.00    -0.313 OA
ENDROOT
BRANCH   1   2
ATOM      2  C   UNL     1       2.644 -38.589  -8.777  1.00  0.00     0.285 C 
ATOM      3  C   UNL     1       1.706 -39.238 -10.883  1.00  0.00     0.178 C 
ATOM      4  C   UNL     1       1.799 -37.796 -11.443  1.00  0.00     0.177 C 
ATOM      5  O   UNL     1       2.657 -39.512  -9.859  1.00  0.00    -0.341 OA
ATOM      6  C   UNL     1       1.854 -36.740 -10.321  1.00  0.00     0.179 C 
ATOM      7  C   UNL     1       2.879 -37.140  -9.254  1.00  0.00     0.202 C 
BRANCH   3   8
ATOM      8  C   UNL     1       0.276 -39.679 -10.501  1.00  0.00     0.191 C 
BRANCH   8   9
ATOM      9  O   UNL     1      -0.672 -38.951 -11.238  1.00  0.00    -0.394 OA
ATOM     10  H   UNL     1      -0.902 -39.493 -12.037  1.00  0.00     0.210 HD
ENDBRANCH   8   9
ENDBRANCH   3   8
BRANCH   4  11
ATOM     11  O   UNL     1       2.950 -37.696 -12.246  1.00  0.00    -0.387 OA
ATOM     12  H   UNL     1       2.733 -37.069 -12.985  1.00  0.00     0.211 HD
ENDBRANCH   4  11
BRANCH   6  13
ATOM     13  O   UNL     1       0.591 -36.576  -9.728  1.00  0.00    -0.387 OA
ATOM     14  H   UNL     1       0.042 -37.359  -9.994  1.00  0.00     0.211 HD
ENDBRANCH   6  13
BRANCH   7  15
ATOM     15  O   UNL     1       4.176 -37.013  -9.782  1.00  0.00    -0.385 OA
ATOM     16  H   UNL     1       4.250 -37.668 -10.525  1.00  0.00     0.211 HD
ENDBRANCH   7  15
ENDBRANCH   1   2
BRANCH   1  17
ATOM     17  C   UNL     1       1.543 -38.876  -6.647  1.00  0.00     0.224 C 
ATOM     18  C   UNL     1       0.811 -37.785  -5.817  1.00  0.00     0.208 C 
ATOM     19  O   UNL     1       2.921 -38.761  -6.345  1.00  0.00    -0.337 OA
ATOM     20  C   UNL     1       1.712 -37.600  -4.620  1.00  0.00     0.180 C 
ATOM     21  C   UNL     1       3.084 -37.941  -5.204  1.00  0.00     0.179 C 
BRANCH  17  22
ATOM     22  C   UNL     1       1.142 -40.325  -6.241  1.00  0.00     0.225 C 
BRANCH  22  23
ATOM     23  O   UNL     1       2.234 -41.206  -6.214  1.00  0.00    -0.391 OA
ATOM     24  H   UNL     1       2.813 -40.982  -6.988  1.00  0.00     0.210 HD
ENDBRANCH  22  23
ENDBRANCH  17  22
BRANCH  18  25
ATOM     25  O   UNL     1       0.683 -36.573  -6.526  1.00  0.00    -0.385 OA
ATOM     26  H   UNL     1       1.588 -36.274  -6.802  1.00  0.00     0.211 HD
ENDBRANCH  18  25
BRANCH  20  27
ATOM     27  O   UNL     1       1.349 -38.493  -3.596  1.00  0.00    -0.387 OA
ATOM     28  H   UNL     1       1.207 -37.947  -2.779  1.00  0.00     0.211 HD
ENDBRANCH  20  27
BRANCH  21  29
ATOM     29  C   UNL     1       4.033 -38.614  -4.204  1.00  0.00     0.191 C 
BRANCH  29  30
ATOM     30  O   UNL     1       4.007 -37.914  -2.991  1.00  0.00    -0.394 OA
ATOM     31  H   UNL     1       3.692 -36.998  -3.207  1.00  0.00     0.210 HD
ENDBRANCH  29  30
ENDBRANCH  21  29
ENDBRANCH   1  17
TORSDOF 13
ENDMDL
MODEL 5
REMARK VINA RESULT:    -3.387      6.997      8.913
REMARK INTER + INTRA:          -6.629
REMARK INTER:                  -4.909
REMARK INTRA:                  -1.721
REMARK UNBOUND:                -1.460
REMARK SMILES OC[C@@H]1O[C@H](O[C@@]2(CO)O[C@H](CO)[C@H](O)[C@H]2O)[C@@H](O)[C@H](O)[C@H]1O
REMARK SMILES IDX 6 1 5 2 3 3 22 4 4 5 20 6 18 7 2 8 1 9 23 11 21 13 19 15
REMARK SMILES IDX 7 17 16 18 10 19 14 20 11 21 8 22 9 23 17 25 15 27 12 29
REMARK SMILES IDX 13 30
REMARK H PARENT 1 10 23 12 21 14 19 16 9 24 17 26 15 28 13 31
REMARK Flexibility Score: inf
ROOT
ATOM      1  O   UNL     1      -6.298 -37.351  -1.793  1.00  0.00    -0.313 OA
ENDROOT
BRANCH   1   2
ATOM      2  C   UNL     1      -5.013 -37.339  -1.180  1.00  0.00     0.285 C 
ATOM      3  C   UNL     1      -4.773 -34.956  -1.225  1.00  0.00     0.178 C 
ATOM      4  C   UNL     1      -4.994 -34.839   0.305  1.00  0.00     0.177 C 
ATOM      5  O   UNL     1      -4.258 -36.221  -1.629  1.00  0.00    -0.341 OA
ATOM      6  C   UNL     1      -5.754 -36.053   0.876  1.00  0.00     0.179 C 
ATOM      7  C   UNL     1      -5.147 -37.362   0.358  1.00  0.00     0.202 C 
BRANCH   3   8
ATOM      8  C   UNL     1      -5.981 -34.506  -2.076  1.00  0.00     0.191 C 
BRANCH   8   9
ATOM      9  O   UNL     1      -5.796 -34.878  -3.417  1.00  0.00    -0.394 OA
ATOM     10  H   UNL     1      -6.602 -35.387  -3.694  1.00  0.00     0.210 HD
ENDBRANCH   8   9
ENDBRANCH   3   8
BRANCH   4  11
ATOM     11  O   UNL     1      -3.742 -34.724   0.935  1.00  0.00    -0.387 OA
ATOM     12  H   UNL     1      -3.384 -35.645   1.036  1.00  0.00     0.211 HD
ENDBRANCH   4  11
BRANCH   6  13
ATOM     13  O   UNL     1      -7.116 -35.994   0.536  1.00  0.00    -0.387 OA
ATOM     14  H   UNL     1      -7.565 -36.741   1.012  1.00  0.00     0.211 HD
ENDBRANCH   6  13
BRANCH   7  15
ATOM     15  O   UNL     1      -3.885 -37.556   0.946  1.00  0.00    -0.385 OA
ATOM     16  H   UNL     1      -3.327 -36.774   0.696  1.00  0.00     0.211 HD
ENDBRANCH   7  15
ENDBRANCH   1   2
BRANCH   1  17
ATOM     17  C   UNL     1      -6.700 -38.593  -2.370  1.00  0.00     0.224 C 
ATOM     18  C   UNL     1      -8.099 -39.065  -1.888  1.00  0.00     0.208 C 
ATOM     19  O   UNL     1      -5.767 -39.562  -1.926  1.00  0.00    -0.337 OA
ATOM     20  C   UNL     1      -7.950 -40.566  -1.815  1.00  0.00     0.180 C 
ATOM     21  C   UNL     1      -6.461 -40.718  -1.501  1.00  0.00     0.179 C 
BRANCH  17  22
ATOM     22  C   UNL     1      -6.565 -38.560  -3.921  1.00  0.00     0.225 C 
BRANCH  22  23
ATOM     23  O   UNL     1      -5.314 -39.010  -4.370  1.00  0.00    -0.391 OA
ATOM     24  H   UNL     1      -5.453 -39.431  -5.257  1.00  0.00     0.210 HD
ENDBRANCH  22  23
ENDBRANCH  17  22
BRANCH  18  25
ATOM     25  O   UNL     1      -8.430 -38.543  -0.621  1.00  0.00    -0.385 OA
ATOM     26  H   UNL     1      -7.601 -38.488  -0.078  1.00  0.00     0.211 HD
ENDBRANCH  18  25
BRANCH  20  27
ATOM     27  O   UNL     1      -8.280 -41.148  -3.052  1.00  0.00    -0.387 OA
ATOM     28  H   UNL     1      -7.731 -41.971  -3.134  1.00  0.00     0.211 HD
ENDBRANCH  20  27
BRANCH  21  29
ATOM     29  C   UNL     1      -5.823 -41.970  -2.117  1.00  0.00     0.191 C 
BRANCH  29  30
ATOM     30  O   UNL     1      -5.312 -41.660  -3.384  1.00  0.00    -0.394 OA
ATOM     31  H   UNL     1      -5.996 -41.958  -4.039  1.00  0.00     0.210 HD
ENDBRANCH  29  30
ENDBRANCH  21  29
ENDBRANCH   1  17
TORSDOF 13
ENDMDL
MODEL 6
REMARK VINA RESULT:    -3.368      7.171      9.310
REMARK INTER + INTRA:          -6.601
REMARK INTER:                  -4.949
REMARK INTRA:                  -1.652
REMARK UNBOUND:                -1.460
REMARK SMILES OC[C@@H]1O[C@H](O[C@@]2(CO)O[C@H](CO)[C@H](O)[C@H]2O)[C@@H](O)[C@H](O)[C@H]1O
REMARK SMILES IDX 6 1 5 2 3 3 22 4 4 5 20 6 18 7 2 8 1 9 23 11 21 13 19 15
REMARK SMILES IDX 7 17 16 18 10 19 14 20 11 21 8 22 9 23 17 25 15 27 12 29
REMARK SMILES IDX 13 30
REMARK H PARENT 1 10 23 12 21 14 19 16 9 24 17 26 15 28 13 31
REMARK Flexibility Score: inf
ROOT
ATOM      1  O   UNL     1      -5.882 -37.913  -0.140  1.00  0.00    -0.313 OA
ENDROOT
BRANCH   1   2
ATOM      2  C   UNL     1      -5.009 -38.573   0.771  1.00  0.00     0.285 C 
ATOM      3  C   UNL     1      -4.325 -36.576   1.903  1.00  0.00     0.178 C 
ATOM      4  C   UNL     1      -5.155 -36.928   3.164  1.00  0.00     0.177 C 
ATOM      5  O   UNL     1      -3.937 -37.716   1.142  1.00  0.00    -0.341 OA
ATOM      6  C   UNL     1      -6.302 -37.909   2.848  1.00  0.00     0.179 C 
ATOM      7  C   UNL     1      -5.792 -39.080   2.000  1.00  0.00     0.202 C 
BRANCH   3   8
ATOM      8  C   UNL     1      -4.939 -35.459   1.031  1.00  0.00     0.191 C 
BRANCH   8   9
ATOM      9  O   UNL     1      -4.265 -35.375  -0.198  1.00  0.00    -0.394 OA
ATOM     10  H   UNL     1      -4.751 -34.714  -0.755  1.00  0.00     0.210 HD
ENDBRANCH   8   9
ENDBRANCH   3   8
BRANCH   4  11
ATOM     11  O   UNL     1      -4.298 -37.494   4.125  1.00  0.00    -0.387 OA
ATOM     12  H   UNL     1      -4.463 -37.013   4.978  1.00  0.00     0.211 HD
ENDBRANCH   4  11
BRANCH   6  13
ATOM     13  O   UNL     1      -7.346 -37.255   2.174  1.00  0.00    -0.387 OA
ATOM     14  H   UNL     1      -8.190 -37.703   2.444  1.00  0.00     0.211 HD
ENDBRANCH   6  13
BRANCH   7  15
ATOM     15  O   UNL     1      -4.968 -39.903   2.788  1.00  0.00    -0.385 OA
ATOM     16  H   UNL     1      -5.243 -39.767   3.733  1.00  0.00     0.211 HD
ENDBRANCH   7  15
ENDBRANCH   1   2
BRANCH   1  17
ATOM     17  C   UNL     1      -6.277 -38.671  -1.283  1.00  0.00     0.224 C 
ATOM     18  C   UNL     1      -7.814 -38.881  -1.373  1.00  0.00     0.208 C 
ATOM     19  O   UNL     1      -5.698 -39.954  -1.133  1.00  0.00    -0.337 OA
ATOM     20  C   UNL     1      -7.938 -40.271  -1.950  1.00  0.00     0.180 C 
ATOM     21  C   UNL     1      -6.665 -40.941  -1.429  1.00  0.00     0.179 C 
BRANCH  17  22
ATOM     22  C   UNL     1      -5.663 -38.081  -2.586  1.00  0.00     0.225 C 
BRANCH  22  23
ATOM     23  O   UNL     1      -4.641 -37.152  -2.336  1.00  0.00    -0.391 OA
ATOM     24  H   UNL     1      -4.473 -37.155  -1.358  1.00  0.00     0.210 HD
ENDBRANCH  22  23
ENDBRANCH  17  22
BRANCH  18  25
ATOM     25  O   UNL     1      -8.435 -38.819  -0.109  1.00  0.00    -0.385 OA
ATOM     26  H   UNL     1      -8.909 -39.676   0.051  1.00  0.00     0.211 HD
ENDBRANCH  18  25
BRANCH  20  27
ATOM     27  O   UNL     1      -7.954 -40.214  -3.355  1.00  0.00    -0.387 OA
ATOM     28  H   UNL     1      -8.609 -39.510  -3.603  1.00  0.00     0.211 HD
ENDBRANCH  20  27
BRANCH  21  29
ATOM     29  C   UNL     1      -6.076 -41.983  -2.390  1.00  0.00     0.191 C 
BRANCH  29  30
ATOM     30  O   UNL     1      -5.255 -41.343  -3.326  1.00  0.00    -0.394 OA
ATOM     31  H   UNL     1      -5.521 -40.387  -3.322  1.00  0.00     0.210 HD
ENDBRANCH  29  30
ENDBRANCH  21  29
ENDBRANCH   1  17
TORSDOF 13
ENDMDL
MODEL 7
REMARK VINA RESULT:    -3.353      1.649      5.930
REMARK INTER + INTRA:          -6.578
REMARK INTER:                  -5.232
REMARK INTRA:                  -1.346
REMARK UNBOUND:                -1.460
REMARK SMILES OC[C@@H]1O[C@H](O[C@@]2(CO)O[C@H](CO)[C@H](O)[C@H]2O)[C@@H](O)[C@H](O)[C@H]1O
REMARK SMILES IDX 6 1 5 2 3 3 22 4 4 5 20 6 18 7 2 8 1 9 23 11 21 13 19 15
REMARK SMILES IDX 7 17 16 18 10 19 14 20 11 21 8 22 9 23 17 25 15 27 12 29
REMARK SMILES IDX 13 30
REMARK H PARENT 1 10 23 12 21 14 19 16 9 24 17 26 15 28 13 31
REMARK Flexibility Score: inf
ROOT
ATOM      1  O   UNL     1      -2.384 -31.559   1.257  1.00  0.00    -0.313 OA
ENDROOT
BRANCH   1   2
ATOM      2  C   UNL     1      -3.206 -30.400   1.346  1.00  0.00     0.285 C 
ATOM      3  C   UNL     1      -4.929 -31.453   2.635  1.00  0.00     0.178 C 
ATOM      4  C   UNL     1      -4.519 -30.696   3.923  1.00  0.00     0.177 C 
ATOM      5  O   UNL     1      -4.576 -30.768   1.437  1.00  0.00    -0.341 OA
ATOM      6  C   UNL     1      -3.057 -30.208   3.870  1.00  0.00     0.179 C 
ATOM      7  C   UNL     1      -2.768 -29.515   2.533  1.00  0.00     0.202 C 
BRANCH   3   8
ATOM      8  C   UNL     1      -4.512 -32.940   2.614  1.00  0.00     0.191 C 
BRANCH   8   9
ATOM      9  O   UNL     1      -4.812 -33.512   1.367  1.00  0.00    -0.394 OA
ATOM     10  H   UNL     1      -5.214 -32.799   0.806  1.00  0.00     0.210 HD
ENDBRANCH   8   9
ENDBRANCH   3   8
BRANCH   4  11
ATOM     11  O   UNL     1      -5.379 -29.596   4.094  1.00  0.00    -0.387 OA
ATOM     12  H   UNL     1      -4.869 -28.786   3.833  1.00  0.00     0.211 HD
ENDBRANCH   4  11
BRANCH   6  13
ATOM     13  O   UNL     1      -2.167 -31.279   4.051  1.00  0.00    -0.387 OA
ATOM     14  H   UNL     1      -2.300 -31.612   4.977  1.00  0.00     0.211 HD
ENDBRANCH   6  13
BRANCH   7  15
ATOM     15  O   UNL     1      -3.445 -28.284   2.489  1.00  0.00    -0.385 OA
ATOM     16  H   UNL     1      -3.709 -28.067   3.422  1.00  0.00     0.211 HD
ENDBRANCH   7  15
ENDBRANCH   1   2
BRANCH   1  17
ATOM     17  C   UNL     1      -1.491 -31.604   0.145  1.00  0.00     0.224 C 
ATOM     18  C   UNL     1      -1.975 -32.549  -0.989  1.00  0.00     0.208 C 
ATOM     19  O   UNL     1      -0.274 -32.140   0.630  1.00  0.00    -0.337 OA
ATOM     20  C   UNL     1      -0.690 -33.141  -1.517  1.00  0.00     0.180 C 
ATOM     21  C   UNL     1       0.199 -33.120  -0.273  1.00  0.00     0.179 C 
BRANCH  17  22
ATOM     22  C   UNL     1      -1.149 -30.170  -0.357  1.00  0.00     0.225 C 
BRANCH  22  23
ATOM     23  O   UNL     1       0.231 -29.914  -0.379  1.00  0.00    -0.391 OA
ATOM     24  H   UNL     1       0.687 -30.721  -0.024  1.00  0.00     0.210 HD
ENDBRANCH  22  23
ENDBRANCH  17  22
BRANCH  18  25
ATOM     25  O   UNL     1      -2.822 -33.567  -0.507  1.00  0.00    -0.385 OA
ATOM     26  H   UNL     1      -2.632 -34.399  -1.014  1.00  0.00     0.211 HD
ENDBRANCH  18  25
BRANCH  20  27
ATOM     27  O   UNL     1      -0.167 -32.330  -2.540  1.00  0.00    -0.387 OA
ATOM     28  H   UNL     1      -0.210 -31.394  -2.211  1.00  0.00     0.211 HD
ENDBRANCH  20  27
BRANCH  21  29
ATOM     29  C   UNL     1       1.684 -32.884  -0.576  1.00  0.00     0.191 C 
BRANCH  29  30
ATOM     30  O   UNL     1       2.209 -31.969   0.344  1.00  0.00    -0.394 OA
ATOM     31  H   UNL     1       2.989 -31.545  -0.100  1.00  0.00     0.210 HD
ENDBRANCH  29  30
ENDBRANCH  21  29
ENDBRANCH   1  17
TORSDOF 13
ENDMDL
MODEL 8
REMARK VINA RESULT:    -3.333     10.758     12.944
REMARK INTER + INTRA:          -6.547
REMARK INTER:                  -5.033
REMARK INTRA:                  -1.514
REMARK UNBOUND:                -1.460
REMARK SMILES OC[C@@H]1O[C@H](O[C@@]2(CO)O[C@H](CO)[C@H](O)[C@H]2O)[C@@H](O)[C@H](O)[C@H]1O
REMARK SMILES IDX 6 1 5 2 3 3 22 4 4 5 20 6 18 7 2 8 1 9 23 11 21 13 19 15
REMARK SMILES IDX 7 17 16 18 10 19 14 20 11 21 8 22 9 23 17 25 15 27 12 29
REMARK SMILES IDX 13 30
REMARK H PARENT 1 10 23 12 21 14 19 16 9 24 17 26 15 28 13 31
REMARK Flexibility Score: inf
ROOT
ATOM      1  O   UNL     1       2.328 -38.841  -9.202  1.00  0.00    -0.313 OA
ENDROOT
BRANCH   1   2
ATOM      2  C   UNL     1       0.994 -38.655  -9.665  1.00  0.00     0.285 C 
ATOM      3  C   UNL     1       1.615 -37.438 -11.633  1.00  0.00     0.178 C 
ATOM      4  C   UNL     1       1.278 -38.635 -12.559  1.00  0.00     0.177 C 
ATOM      5  O   UNL     1       0.890 -37.446 -10.407  1.00  0.00    -0.341 OA
ATOM      6  C   UNL     1       1.309 -39.979 -11.805  1.00  0.00     0.179 C 
ATOM      7  C   UNL     1       0.531 -39.876 -10.487  1.00  0.00     0.202 C 
BRANCH   3   8
ATOM      8  C   UNL     1       3.128 -37.203 -11.427  1.00  0.00     0.191 C 
BRANCH   8   9
ATOM      9  O   UNL     1       3.340 -36.271 -10.399  1.00  0.00    -0.394 OA
ATOM     10  H   UNL     1       2.470 -35.829 -10.218  1.00  0.00     0.210 HD
ENDBRANCH   8   9
ENDBRANCH   3   8
BRANCH   4  11
ATOM     11  O   UNL     1       0.001 -38.431 -13.113  1.00  0.00    -0.387 OA
ATOM     12  H   UNL     1      -0.600 -39.114 -12.714  1.00  0.00     0.211 HD
ENDBRANCH   4  11
BRANCH   6  13
ATOM     13  O   UNL     1       2.631 -40.375 -11.545  1.00  0.00    -0.387 OA
ATOM     14  H   UNL     1       2.584 -41.237 -11.055  1.00  0.00     0.211 HD
ENDBRANCH   6  13
BRANCH   7  15
ATOM     15  O   UNL     1      -0.844 -39.775 -10.763  1.00  0.00    -0.385 OA
ATOM     16  H   UNL     1      -1.294 -40.498 -10.253  1.00  0.00     0.211 HD
ENDBRANCH   7  15
ENDBRANCH   1   2
BRANCH   1  17
ATOM     17  C   UNL     1       2.476 -39.041  -7.797  1.00  0.00     0.224 C 
ATOM     18  C   UNL     1       3.308 -37.925  -7.106  1.00  0.00     0.208 C 
ATOM     19  O   UNL     1       3.200 -40.247  -7.638  1.00  0.00    -0.337 OA
ATOM     20  C   UNL     1       4.070 -38.674  -6.040  1.00  0.00     0.180 C 
ATOM     21  C   UNL     1       4.216 -40.059  -6.672  1.00  0.00     0.179 C 
BRANCH  17  22
ATOM     22  C   UNL     1       1.096 -39.285  -7.117  1.00  0.00     0.225 C 
BRANCH  22  23
ATOM     23  O   UNL     1       0.897 -40.626  -6.754  1.00  0.00    -0.391 OA
ATOM     24  H   UNL     1      -0.081 -40.767  -6.668  1.00  0.00     0.210 HD
ENDBRANCH  22  23
ENDBRANCH  17  22
BRANCH  18  25
ATOM     25  O   UNL     1       4.201 -37.298  -7.998  1.00  0.00    -0.385 OA
ATOM     26  H   UNL     1       4.536 -37.979  -8.638  1.00  0.00     0.211 HD
ENDBRANCH  18  25
BRANCH  20  27
ATOM     27  O   UNL     1       3.320 -38.724  -4.851  1.00  0.00    -0.387 OA
ATOM     28  H   UNL     1       3.589 -39.556  -4.380  1.00  0.00     0.211 HD
ENDBRANCH  20  27
BRANCH  21  29
ATOM     29  C   UNL     1       4.195 -41.209  -5.656  1.00  0.00     0.191 C 
BRANCH  29  30
ATOM     30  O   UNL     1       3.196 -42.125  -6.008  1.00  0.00    -0.394 OA
ATOM     31  H   UNL     1       2.762 -41.762  -6.824  1.00  0.00     0.210 HD
ENDBRANCH  29  30
ENDBRANCH  21  29
ENDBRANCH   1  17
TORSDOF 13
ENDMDL
MODEL 9
REMARK VINA RESULT:    -3.309      7.140     10.283
REMARK INTER + INTRA:          -6.511
REMARK INTER:                  -4.941
REMARK INTRA:                  -1.569
REMARK UNBOUND:                -1.460
REMARK SMILES OC[C@@H]1O[C@H](O[C@@]2(CO)O[C@H](CO)[C@H](O)[C@H]2O)[C@@H](O)[C@H](O)[C@H]1O
REMARK SMILES IDX 6 1 5 2 3 3 22 4 4 5 20 6 18 7 2 8 1 9 23 11 21 13 19 15
REMARK SMILES IDX 7 17 16 18 10 19 14 20 11 21 8 22 9 23 17 25 15 27 12 29
REMARK SMILES IDX 13 30
REMARK H PARENT 1 10 23 12 21 14 19 16 9 24 17 26 15 28 13 31
REMARK Flexibility Score: inf
ROOT
ATOM      1  O   UNL     1       2.628 -38.135  -6.453  1.00  0.00    -0.313 OA
ENDROOT
BRANCH   1   2
ATOM      2  C   UNL     1       2.340 -39.472  -6.848  1.00  0.00     0.285 C 
ATOM      3  C   UNL     1       4.385 -39.789  -8.054  1.00  0.00     0.178 C 
ATOM      4  C   UNL     1       4.961 -40.725  -6.961  1.00  0.00     0.177 C 
ATOM      5  O   UNL     1       2.962 -39.768  -8.092  1.00  0.00    -0.341 OA
ATOM      6  C   UNL     1       4.286 -40.505  -5.593  1.00  0.00     0.179 C 
ATOM      7  C   UNL     1       2.761 -40.465  -5.744  1.00  0.00     0.202 C 
BRANCH   3   8
ATOM      8  C   UNL     1       5.001 -38.372  -8.062  1.00  0.00     0.191 C 
BRANCH   8   9
ATOM      9  O   UNL     1       4.380 -37.577  -9.039  1.00  0.00    -0.394 OA
ATOM     10  H   UNL     1       4.634 -36.636  -8.857  1.00  0.00     0.210 HD
ENDBRANCH   8   9
ENDBRANCH   3   8
BRANCH   4  11
ATOM     11  O   UNL     1       4.780 -42.059  -7.369  1.00  0.00    -0.387 OA
ATOM     12  H   UNL     1       4.041 -42.432  -6.821  1.00  0.00     0.211 HD
ENDBRANCH   4  11
BRANCH   6  13
ATOM     13  O   UNL     1       4.735 -39.312  -5.001  1.00  0.00    -0.387 OA
ATOM     14  H   UNL     1       3.927 -38.799  -4.738  1.00  0.00     0.211 HD
ENDBRANCH   6  13
BRANCH   7  15
ATOM     15  O   UNL     1       2.288 -41.753  -6.052  1.00  0.00    -0.385 OA
ATOM     16  H   UNL     1       1.305 -41.679  -6.170  1.00  0.00     0.211 HD
ENDBRANCH   7  15
ENDBRANCH   1   2
BRANCH   1  17
ATOM     17  C   UNL     1       1.496 -37.300  -6.212  1.00  0.00     0.224 C 
ATOM     18  C   UNL     1       0.999 -36.562  -7.486  1.00  0.00     0.208 C 
ATOM     19  O   UNL     1       1.921 -36.302  -5.303  1.00  0.00    -0.337 OA
ATOM     20  C   UNL     1       0.543 -35.225  -6.954  1.00  0.00     0.180 C 
ATOM     21  C   UNL     1       1.459 -35.040  -5.743  1.00  0.00     0.179 C 
BRANCH  17  22
ATOM     22  C   UNL     1       0.368 -38.084  -5.480  1.00  0.00     0.225 C 
BRANCH  22  23
ATOM     23  O   UNL     1       0.490 -38.039  -4.083  1.00  0.00    -0.391 OA
ATOM     24  H   UNL     1      -0.379 -37.728  -3.720  1.00  0.00     0.210 HD
ENDBRANCH  22  23
ENDBRANCH  17  22
BRANCH  18  25
ATOM     25  O   UNL     1       2.028 -36.387  -8.435  1.00  0.00    -0.385 OA
ATOM     26  H   UNL     1       1.768 -36.855  -9.270  1.00  0.00     0.211 HD
ENDBRANCH  18  25
BRANCH  20  27
ATOM     27  O   UNL     1      -0.809 -35.289  -6.574  1.00  0.00    -0.387 OA
ATOM     28  H   UNL     1      -1.247 -35.933  -7.190  1.00  0.00     0.211 HD
ENDBRANCH  20  27
BRANCH  21  29
ATOM     29  C   UNL     1       0.803 -34.285  -4.580  1.00  0.00     0.191 C 
BRANCH  29  30
ATOM     30  O   UNL     1      -0.135 -35.114  -3.953  1.00  0.00    -0.394 OA
ATOM     31  H   UNL     1       0.365 -35.631  -3.269  1.00  0.00     0.210 HD
ENDBRANCH  29  30
ENDBRANCH  21  29
ENDBRANCH   1  17
TORSDOF 13
ENDMDL
