MODEL 1
REMARK VINA RESULT:    -8.676      0.000      0.000
REMARK INTER + INTRA:         -10.515
REMARK INTER:                 -10.198
REMARK INTRA:                  -0.317
REMARK UNBOUND:                -0.317
REMARK SMILES O=c1cc(-c2ccc(O)c(O)c2)oc2cc(O)cc(O)c12
REMARK SMILES IDX 4 1 3 2 2 3 1 4 21 5 19 6 18 7 16 8 15 9 14 10 13 11 5 12
REMARK SMILES IDX 6 13 7 14 8 15 12 16 10 17 9 18 11 20 20 22 17 24
REMARK H PARENT 9 19 11 21 20 23 17 25
REMARK Flexibility Score: inf
ROOT
ATOM      1  C   UNL     1     -31.491 -31.172  35.798  1.00  0.00     0.138 A 
ATOM      2  C   UNL     1     -31.970 -30.938  34.498  1.00  0.00     0.100 A 
ATOM      3  C   UNL     1     -33.332 -30.716  34.296  1.00  0.00     0.197 A 
ATOM      4  O   UNL     1     -33.751 -30.506  33.125  1.00  0.00    -0.289 OA
ATOM      5  C   UNL     1     -34.209 -30.727  35.399  1.00  0.00     0.107 A 
ATOM      6  C   UNL     1     -35.603 -30.513  35.282  1.00  0.00     0.134 A 
ATOM      7  C   UNL     1     -36.407 -30.534  36.430  1.00  0.00     0.093 A 
ATOM      8  C   UNL     1     -35.847 -30.763  37.689  1.00  0.00     0.123 A 
ATOM      9  C   UNL     1     -34.470 -30.976  37.811  1.00  0.00     0.094 A 
ATOM     10  C   UNL     1     -33.651 -30.959  36.678  1.00  0.00     0.146 A 
ATOM     11  O   UNL     1     -32.345 -31.165  36.819  1.00  0.00    -0.456 OA
ENDROOT
BRANCH   1  12
ATOM     12  C   UNL     1     -30.052 -31.412  36.072  1.00  0.00     0.021 A 
ATOM     13  C   UNL     1     -29.155 -31.534  34.997  1.00  0.00     0.016 A 
ATOM     14  C   UNL     1     -27.794 -31.753  35.227  1.00  0.00     0.051 A 
ATOM     15  C   UNL     1     -27.307 -31.844  36.537  1.00  0.00     0.157 A 
ATOM     16  C   UNL     1     -29.552 -31.491  37.387  1.00  0.00     0.062 A 
ATOM     17  C   UNL     1     -28.185 -31.710  37.617  1.00  0.00     0.158 A 
BRANCH  15  18
ATOM     18  O   UNL     1     -25.950 -32.064  36.770  1.00  0.00    -0.504 OA
ATOM     19  H   UNL     1     -25.326 -32.364  36.031  1.00  0.00     0.293 HD
ENDBRANCH  15  18
BRANCH  17  20
ATOM     20  O   UNL     1     -27.694 -31.790  38.919  1.00  0.00    -0.504 OA
ATOM     21  H   UNL     1     -27.762 -31.009  39.561  1.00  0.00     0.293 HD
ENDBRANCH  17  20
ENDBRANCH   1  12
BRANCH   6  22
ATOM     22  O   UNL     1     -36.192 -30.281  34.037  1.00  0.00    -0.507 OA
ATOM     23  H   UNL     1     -36.171 -30.976  33.301  1.00  0.00     0.293 HD
ENDBRANCH   6  22
BRANCH   8  24
ATOM     24  O   UNL     1     -36.670 -30.778  38.814  1.00  0.00    -0.508 OA
ATOM     25  H   UNL     1     -36.333 -31.108  39.712  1.00  0.00     0.293 HD
ENDBRANCH   8  24
TORSDOF 5
ENDMDL
MODEL 2
REMARK VINA RESULT:    -8.588      1.669      6.672
REMARK INTER + INTRA:         -10.411
REMARK INTER:                 -10.134
REMARK INTRA:                  -0.278
REMARK UNBOUND:                -0.317
REMARK SMILES O=c1cc(-c2ccc(O)c(O)c2)oc2cc(O)cc(O)c12
REMARK SMILES IDX 4 1 3 2 2 3 1 4 21 5 19 6 18 7 16 8 15 9 14 10 13 11 5 12
REMARK SMILES IDX 6 13 7 14 8 15 12 16 10 17 9 18 11 20 20 22 17 24
REMARK H PARENT 9 19 11 21 20 23 17 25
REMARK Flexibility Score: inf
ROOT
ATOM      1  C   UNL     1     -32.303 -30.874  35.511  1.00  0.00     0.138 A 
ATOM      2  C   UNL     1     -32.283 -31.242  34.155  1.00  0.00     0.100 A 
ATOM      3  C   UNL     1     -31.080 -31.632  33.566  1.00  0.00     0.197 A 
ATOM      4  O   UNL     1     -31.074 -31.961  32.349  1.00  0.00    -0.289 OA
ATOM      5  C   UNL     1     -29.903 -31.656  34.339  1.00  0.00     0.107 A 
ATOM      6  C   UNL     1     -28.643 -32.037  33.821  1.00  0.00     0.134 A 
ATOM      7  C   UNL     1     -27.519 -32.040  34.659  1.00  0.00     0.093 A 
ATOM      8  C   UNL     1     -27.629 -31.670  36.001  1.00  0.00     0.123 A 
ATOM      9  C   UNL     1     -28.872 -31.292  36.519  1.00  0.00     0.094 A 
ATOM     10  C   UNL     1     -30.004 -31.283  35.700  1.00  0.00     0.146 A 
ATOM     11  O   UNL     1     -31.175 -30.918  36.216  1.00  0.00    -0.456 OA
ENDROOT
BRANCH   1  12
ATOM     12  C   UNL     1     -33.553 -30.452  36.190  1.00  0.00     0.021 A 
ATOM     13  C   UNL     1     -34.256 -29.332  35.711  1.00  0.00     0.016 A 
ATOM     14  C   UNL     1     -35.439 -28.918  36.328  1.00  0.00     0.051 A 
ATOM     15  C   UNL     1     -35.945 -29.621  37.427  1.00  0.00     0.157 A 
ATOM     16  C   UNL     1     -34.076 -31.163  37.289  1.00  0.00     0.062 A 
ATOM     17  C   UNL     1     -35.265 -30.747  37.906  1.00  0.00     0.158 A 
BRANCH  15  18
ATOM     18  O   UNL     1     -37.125 -29.210  38.046  1.00  0.00    -0.504 OA
ATOM     19  H   UNL     1     -37.426 -29.604  38.929  1.00  0.00     0.293 HD
ENDBRANCH  15  18
BRANCH  17  20
ATOM     20  O   UNL     1     -35.778 -31.451  38.994  1.00  0.00    -0.504 OA
ATOM     21  H   UNL     1     -36.340 -30.996  39.704  1.00  0.00     0.293 HD
ENDBRANCH  17  20
ENDBRANCH   1  12
BRANCH   6  22
ATOM     22  O   UNL     1     -28.501 -32.412  32.483  1.00  0.00    -0.507 OA
ATOM     23  H   UNL     1     -27.590 -32.535  32.058  1.00  0.00     0.293 HD
ENDBRANCH   6  22
BRANCH   8  24
ATOM     24  O   UNL     1     -26.496 -31.682  36.812  1.00  0.00    -0.508 OA
ATOM     25  H   UNL     1     -25.562 -31.708  36.417  1.00  0.00     0.293 HD
ENDBRANCH   8  24
TORSDOF 5
ENDMDL
MODEL 3
REMARK VINA RESULT:    -8.570      2.217      7.341
REMARK INTER + INTRA:         -10.391
REMARK INTER:                 -10.075
REMARK INTRA:                  -0.316
REMARK UNBOUND:                -0.317
REMARK SMILES O=c1cc(-c2ccc(O)c(O)c2)oc2cc(O)cc(O)c12
REMARK SMILES IDX 4 1 3 2 2 3 1 4 21 5 19 6 18 7 16 8 15 9 14 10 13 11 5 12
REMARK SMILES IDX 6 13 7 14 8 15 12 16 10 17 9 18 11 20 20 22 17 24
REMARK H PARENT 9 19 11 21 20 23 17 25
REMARK Flexibility Score: inf
ROOT
ATOM      1  C   UNL     1     -31.545 -31.147  35.102  1.00  0.00     0.138 A 
ATOM      2  C   UNL     1     -31.663 -30.901  36.481  1.00  0.00     0.100 A 
ATOM      3  C   UNL     1     -30.536 -31.011  37.296  1.00  0.00     0.197 A 
ATOM      4  O   UNL     1     -30.652 -30.786  38.532  1.00  0.00    -0.289 OA
ATOM      5  C   UNL     1     -29.297 -31.363  36.727  1.00  0.00     0.107 A 
ATOM      6  C   UNL     1     -28.108 -31.497  37.481  1.00  0.00     0.134 A 
ATOM      7  C   UNL     1     -26.912 -31.846  36.838  1.00  0.00     0.093 A 
ATOM      8  C   UNL     1     -26.881 -32.062  35.458  1.00  0.00     0.123 A 
ATOM      9  C   UNL     1     -28.054 -31.931  34.707  1.00  0.00     0.094 A 
ATOM     10  C   UNL     1     -29.256 -31.585  35.330  1.00  0.00     0.146 A 
ATOM     11  O   UNL     1     -30.357 -31.467  34.594  1.00  0.00    -0.456 OA
ENDROOT
BRANCH   1  12
ATOM     12  C   UNL     1     -32.709 -31.044  34.186  1.00  0.00     0.021 A 
ATOM     13  C   UNL     1     -33.891 -30.431  34.637  1.00  0.00     0.016 A 
ATOM     14  C   UNL     1     -34.999 -30.314  33.793  1.00  0.00     0.051 A 
ATOM     15  C   UNL     1     -34.939 -30.799  32.481  1.00  0.00     0.157 A 
ATOM     16  C   UNL     1     -32.653 -31.517  32.860  1.00  0.00     0.062 A 
ATOM     17  C   UNL     1     -33.764 -31.398  32.013  1.00  0.00     0.158 A 
BRANCH  15  18
ATOM     18  O   UNL     1     -36.043 -30.686  31.636  1.00  0.00    -0.504 OA
ATOM     19  H   UNL     1     -35.983 -30.917  30.651  1.00  0.00     0.293 HD
ENDBRANCH  15  18
BRANCH  17  20
ATOM     20  O   UNL     1     -33.705 -31.869  30.703  1.00  0.00    -0.504 OA
ATOM     21  H   UNL     1     -33.025 -32.564  30.419  1.00  0.00     0.293 HD
ENDBRANCH  17  20
ENDBRANCH   1  12
BRANCH   6  22
ATOM     22  O   UNL     1     -28.106 -31.288  38.862  1.00  0.00    -0.507 OA
ATOM     23  H   UNL     1     -27.796 -32.003  39.509  1.00  0.00     0.293 HD
ENDBRANCH   6  22
BRANCH   8  24
ATOM     24  O   UNL     1     -25.680 -32.408  34.843  1.00  0.00    -0.508 OA
ATOM     25  H   UNL     1     -25.591 -33.253  34.291  1.00  0.00     0.293 HD
ENDBRANCH   8  24
TORSDOF 5
ENDMDL
MODEL 4
REMARK VINA RESULT:    -8.475      3.938      6.949
REMARK INTER + INTRA:         -10.279
REMARK INTER:                  -9.968
REMARK INTRA:                  -0.311
REMARK UNBOUND:                -0.317
REMARK SMILES O=c1cc(-c2ccc(O)c(O)c2)oc2cc(O)cc(O)c12
REMARK SMILES IDX 4 1 3 2 2 3 1 4 21 5 19 6 18 7 16 8 15 9 14 10 13 11 5 12
REMARK SMILES IDX 6 13 7 14 8 15 12 16 10 17 9 18 11 20 20 22 17 24
REMARK H PARENT 9 19 11 21 20 23 17 25
REMARK Flexibility Score: inf
ROOT
ATOM      1  C   UNL     1     -34.518 -29.169  35.426  1.00  0.00     0.138 A 
ATOM      2  C   UNL     1     -35.176 -30.280  35.978  1.00  0.00     0.100 A 
ATOM      3  C   UNL     1     -34.862 -31.561  35.522  1.00  0.00     0.197 A 
ATOM      4  O   UNL     1     -35.458 -32.552  36.026  1.00  0.00    -0.289 OA
ATOM      5  C   UNL     1     -33.888 -31.722  34.517  1.00  0.00     0.107 A 
ATOM      6  C   UNL     1     -33.513 -32.983  33.998  1.00  0.00     0.134 A 
ATOM      7  C   UNL     1     -32.529 -33.060  33.001  1.00  0.00     0.093 A 
ATOM      8  C   UNL     1     -31.916 -31.903  32.515  1.00  0.00     0.123 A 
ATOM      9  C   UNL     1     -32.283 -30.653  33.025  1.00  0.00     0.094 A 
ATOM     10  C   UNL     1     -33.262 -30.556  34.018  1.00  0.00     0.146 A 
ATOM     11  O   UNL     1     -33.595 -29.357  34.485  1.00  0.00    -0.456 OA
ENDROOT
BRANCH   1  12
ATOM     12  C   UNL     1     -34.810 -27.783  35.873  1.00  0.00     0.021 A 
ATOM     13  C   UNL     1     -35.369 -27.571  37.145  1.00  0.00     0.016 A 
ATOM     14  C   UNL     1     -35.647 -26.277  37.594  1.00  0.00     0.051 A 
ATOM     15  C   UNL     1     -35.361 -25.173  36.782  1.00  0.00     0.157 A 
ATOM     16  C   UNL     1     -34.512 -26.667  35.068  1.00  0.00     0.062 A 
ATOM     17  C   UNL     1     -34.790 -25.368  35.519  1.00  0.00     0.158 A 
BRANCH  15  18
ATOM     18  O   UNL     1     -35.638 -23.881  37.225  1.00  0.00    -0.504 OA
ATOM     19  H   UNL     1     -36.531 -23.438  37.042  1.00  0.00     0.293 HD
ENDBRANCH  15  18
BRANCH  17  20
ATOM     20  O   UNL     1     -34.496 -24.266  34.718  1.00  0.00    -0.504 OA
ATOM     21  H   UNL     1     -34.344 -23.346  35.115  1.00  0.00     0.293 HD
ENDBRANCH  17  20
ENDBRANCH   1  12
BRANCH   6  22
ATOM     22  O   UNL     1     -34.108 -34.158  34.463  1.00  0.00    -0.507 OA
ATOM     23  H   UNL     1     -33.629 -34.779  35.105  1.00  0.00     0.293 HD
ENDBRANCH   6  22
BRANCH   8  24
ATOM     24  O   UNL     1     -30.941 -32.007  31.525  1.00  0.00    -0.508 OA
ATOM     25  H   UNL     1     -29.964 -32.148  31.755  1.00  0.00     0.293 HD
ENDBRANCH   8  24
TORSDOF 5
ENDMDL
MODEL 5
REMARK VINA RESULT:    -8.469      1.492      3.115
REMARK INTER + INTRA:         -10.272
REMARK INTER:                  -9.962
REMARK INTRA:                  -0.310
REMARK UNBOUND:                -0.317
REMARK SMILES O=c1cc(-c2ccc(O)c(O)c2)oc2cc(O)cc(O)c12
REMARK SMILES IDX 4 1 3 2 2 3 1 4 21 5 19 6 18 7 16 8 15 9 14 10 13 11 5 12
REMARK SMILES IDX 6 13 7 14 8 15 12 16 10 17 9 18 11 20 20 22 17 24
REMARK H PARENT 9 19 11 21 20 23 17 25
REMARK Flexibility Score: inf
ROOT
ATOM      1  C   UNL     1     -31.259 -31.005  36.163  1.00  0.00     0.138 A 
ATOM      2  C   UNL     1     -32.091 -30.464  37.158  1.00  0.00     0.100 A 
ATOM      3  C   UNL     1     -33.406 -30.122  36.843  1.00  0.00     0.197 A 
ATOM      4  O   UNL     1     -34.145 -29.639  37.744  1.00  0.00    -0.289 OA
ATOM      5  C   UNL     1     -33.883 -30.325  35.533  1.00  0.00     0.107 A 
ATOM      6  C   UNL     1     -35.200 -30.004  35.130  1.00  0.00     0.134 A 
ATOM      7  C   UNL     1     -35.600 -30.242  33.806  1.00  0.00     0.093 A 
ATOM      8  C   UNL     1     -34.710 -30.794  32.882  1.00  0.00     0.123 A 
ATOM      9  C   UNL     1     -33.406 -31.113  33.275  1.00  0.00     0.094 A 
ATOM     10  C   UNL     1     -32.989 -30.883  34.589  1.00  0.00     0.146 A 
ATOM     11  O   UNL     1     -31.744 -31.193  34.938  1.00  0.00    -0.456 OA
ENDROOT
BRANCH   1  12
ATOM     12  C   UNL     1     -29.853 -31.389  36.441  1.00  0.00     0.021 A 
ATOM     13  C   UNL     1     -29.471 -31.709  37.756  1.00  0.00     0.016 A 
ATOM     14  C   UNL     1     -28.155 -32.081  38.044  1.00  0.00     0.051 A 
ATOM     15  C   UNL     1     -27.201 -32.148  37.021  1.00  0.00     0.157 A 
ATOM     16  C   UNL     1     -28.891 -31.472  35.415  1.00  0.00     0.062 A 
ATOM     17  C   UNL     1     -27.570 -31.847  35.705  1.00  0.00     0.158 A 
BRANCH  15  18
ATOM     18  O   UNL     1     -25.888 -32.517  37.305  1.00  0.00    -0.504 OA
ATOM     19  H   UNL     1     -25.189 -31.832  37.568  1.00  0.00     0.293 HD
ENDBRANCH  15  18
BRANCH  17  20
ATOM     20  O   UNL     1     -26.621 -31.926  34.688  1.00  0.00    -0.504 OA
ATOM     21  H   UNL     1     -26.872 -32.211  33.748  1.00  0.00     0.293 HD
ENDBRANCH  17  20
ENDBRANCH   1  12
BRANCH   6  22
ATOM     22  O   UNL     1     -36.113 -29.451  36.031  1.00  0.00    -0.507 OA
ATOM     23  H   UNL     1     -36.666 -30.030  36.651  1.00  0.00     0.293 HD
ENDBRANCH   6  22
BRANCH   8  24
ATOM     24  O   UNL     1     -35.132 -31.020  31.573  1.00  0.00    -0.508 OA
ATOM     25  H   UNL     1     -35.300 -31.958  31.226  1.00  0.00     0.293 HD
ENDBRANCH   8  24
TORSDOF 5
ENDMDL
MODEL 6
REMARK VINA RESULT:    -8.453      1.381      2.768
REMARK INTER + INTRA:         -10.253
REMARK INTER:                  -9.960
REMARK INTRA:                  -0.293
REMARK UNBOUND:                -0.317
REMARK SMILES O=c1cc(-c2ccc(O)c(O)c2)oc2cc(O)cc(O)c12
REMARK SMILES IDX 4 1 3 2 2 3 1 4 21 5 19 6 18 7 16 8 15 9 14 10 13 11 5 12
REMARK SMILES IDX 6 13 7 14 8 15 12 16 10 17 9 18 11 20 20 22 17 24
REMARK H PARENT 9 19 11 21 20 23 17 25
REMARK Flexibility Score: inf
ROOT
ATOM      1  C   UNL     1     -31.271 -30.967  36.015  1.00  0.00     0.138 A 
ATOM      2  C   UNL     1     -32.092 -30.443  37.028  1.00  0.00     0.100 A 
ATOM      3  C   UNL     1     -33.418 -30.120  36.739  1.00  0.00     0.197 A 
ATOM      4  O   UNL     1     -34.147 -29.653  37.656  1.00  0.00    -0.289 OA
ATOM      5  C   UNL     1     -33.917 -30.327  35.437  1.00  0.00     0.107 A 
ATOM      6  C   UNL     1     -35.247 -30.026  35.061  1.00  0.00     0.134 A 
ATOM      7  C   UNL     1     -35.667 -30.267  33.745  1.00  0.00     0.093 A 
ATOM      8  C   UNL     1     -34.787 -30.801  32.801  1.00  0.00     0.123 A 
ATOM      9  C   UNL     1     -33.471 -31.101  33.168  1.00  0.00     0.094 A 
ATOM     10  C   UNL     1     -33.032 -30.868  34.474  1.00  0.00     0.146 A 
ATOM     11  O   UNL     1     -31.776 -31.160  34.798  1.00  0.00    -0.456 OA
ENDROOT
BRANCH   1  12
ATOM     12  C   UNL     1     -29.853 -31.329  36.265  1.00  0.00     0.021 A 
ATOM     13  C   UNL     1     -28.977 -31.484  35.176  1.00  0.00     0.016 A 
ATOM     14  C   UNL     1     -27.636 -31.818  35.383  1.00  0.00     0.051 A 
ATOM     15  C   UNL     1     -27.146 -31.992  36.683  1.00  0.00     0.157 A 
ATOM     16  C   UNL     1     -29.349 -31.493  37.570  1.00  0.00     0.062 A 
ATOM     17  C   UNL     1     -28.002 -31.826  37.778  1.00  0.00     0.158 A 
BRANCH  15  18
ATOM     18  O   UNL     1     -25.810 -32.327  36.894  1.00  0.00    -0.504 OA
ATOM     19  H   UNL     1     -25.538 -33.247  37.218  1.00  0.00     0.293 HD
ENDBRANCH  15  18
BRANCH  17  20
ATOM     20  O   UNL     1     -27.508 -31.990  39.070  1.00  0.00    -0.504 OA
ATOM     21  H   UNL     1     -27.919 -32.654  39.716  1.00  0.00     0.293 HD
ENDBRANCH  17  20
ENDBRANCH   1  12
BRANCH   6  22
ATOM     22  O   UNL     1     -36.150 -29.491  35.981  1.00  0.00    -0.507 OA
ATOM     23  H   UNL     1     -36.942 -30.023  36.321  1.00  0.00     0.293 HD
ENDBRANCH   6  22
BRANCH   8  24
ATOM     24  O   UNL     1     -35.231 -31.031  31.501  1.00  0.00    -0.508 OA
ATOM     25  H   UNL     1     -34.962 -31.863  30.988  1.00  0.00     0.293 HD
ENDBRANCH   8  24
TORSDOF 5
ENDMDL
MODEL 7
REMARK VINA RESULT:    -8.345      2.218      3.176
REMARK INTER + INTRA:         -10.126
REMARK INTER:                  -9.858
REMARK INTRA:                  -0.267
REMARK UNBOUND:                -0.317
REMARK SMILES O=c1cc(-c2ccc(O)c(O)c2)oc2cc(O)cc(O)c12
REMARK SMILES IDX 4 1 3 2 2 3 1 4 21 5 19 6 18 7 16 8 15 9 14 10 13 11 5 12
REMARK SMILES IDX 6 13 7 14 8 15 12 16 10 17 9 18 11 20 20 22 17 24
REMARK H PARENT 9 19 11 21 20 23 17 25
REMARK Flexibility Score: inf
ROOT
ATOM      1  C   UNL     1     -32.146 -30.196  37.359  1.00  0.00     0.138 A 
ATOM      2  C   UNL     1     -33.216 -30.858  37.984  1.00  0.00     0.100 A 
ATOM      3  C   UNL     1     -34.498 -30.311  37.914  1.00  0.00     0.197 A 
ATOM      4  O   UNL     1     -35.452 -30.913  38.477  1.00  0.00    -0.289 OA
ATOM      5  C   UNL     1     -34.702 -29.105  37.214  1.00  0.00     0.107 A 
ATOM      6  C   UNL     1     -35.966 -28.483  37.096  1.00  0.00     0.134 A 
ATOM      7  C   UNL     1     -36.087 -27.285  36.376  1.00  0.00     0.093 A 
ATOM      8  C   UNL     1     -34.971 -26.699  35.775  1.00  0.00     0.123 A 
ATOM      9  C   UNL     1     -33.717 -27.310  35.889  1.00  0.00     0.094 A 
ATOM     10  C   UNL     1     -33.577 -28.504  36.601  1.00  0.00     0.146 A 
ATOM     11  O   UNL     1     -32.375 -29.064  36.697  1.00  0.00    -0.456 OA
ENDROOT
BRANCH   1  12
ATOM     12  C   UNL     1     -30.762 -30.733  37.399  1.00  0.00     0.021 A 
ATOM     13  C   UNL     1     -30.114 -31.064  36.197  1.00  0.00     0.016 A 
ATOM     14  C   UNL     1     -28.809 -31.564  36.206  1.00  0.00     0.051 A 
ATOM     15  C   UNL     1     -28.127 -31.731  37.417  1.00  0.00     0.157 A 
ATOM     16  C   UNL     1     -30.064 -30.890  38.613  1.00  0.00     0.062 A 
ATOM     17  C   UNL     1     -28.754 -31.391  38.621  1.00  0.00     0.158 A 
BRANCH  15  18
ATOM     18  O   UNL     1     -26.826 -32.230  37.431  1.00  0.00    -0.504 OA
ATOM     19  H   UNL     1     -26.021 -31.615  37.409  1.00  0.00     0.293 HD
ENDBRANCH  15  18
BRANCH  17  20
ATOM     20  O   UNL     1     -28.068 -31.548  39.824  1.00  0.00    -0.504 OA
ATOM     21  H   UNL     1     -27.335 -32.240  39.931  1.00  0.00     0.293 HD
ENDBRANCH  17  20
ENDBRANCH   1  12
BRANCH   6  22
ATOM     22  O   UNL     1     -37.101 -29.044  37.686  1.00  0.00    -0.507 OA
ATOM     23  H   UNL     1     -37.922 -28.489  37.896  1.00  0.00     0.293 HD
ENDBRANCH   6  22
BRANCH   8  24
ATOM     24  O   UNL     1     -35.118 -25.509  35.066  1.00  0.00    -0.508 OA
ATOM     25  H   UNL     1     -35.706 -24.757  35.409  1.00  0.00     0.293 HD
ENDBRANCH   8  24
TORSDOF 5
ENDMDL
MODEL 8
REMARK VINA RESULT:    -8.290      3.063      4.225
REMARK INTER + INTRA:         -10.062
REMARK INTER:                  -9.766
REMARK INTRA:                  -0.296
REMARK UNBOUND:                -0.317
REMARK SMILES O=c1cc(-c2ccc(O)c(O)c2)oc2cc(O)cc(O)c12
REMARK SMILES IDX 4 1 3 2 2 3 1 4 21 5 19 6 18 7 16 8 15 9 14 10 13 11 5 12
REMARK SMILES IDX 6 13 7 14 8 15 12 16 10 17 9 18 11 20 20 22 17 24
REMARK H PARENT 9 19 11 21 20 23 17 25
REMARK Flexibility Score: inf
ROOT
ATOM      1  C   UNL     1     -33.130 -30.860  34.690  1.00  0.00     0.138 A 
ATOM      2  C   UNL     1     -34.202 -31.393  35.427  1.00  0.00     0.100 A 
ATOM      3  C   UNL     1     -35.084 -30.531  36.078  1.00  0.00     0.197 A 
ATOM      4  O   UNL     1     -36.043 -31.019  36.736  1.00  0.00    -0.289 OA
ATOM      5  C   UNL     1     -34.892 -29.138  35.986  1.00  0.00     0.107 A 
ATOM      6  C   UNL     1     -35.738 -28.196  36.615  1.00  0.00     0.134 A 
ATOM      7  C   UNL     1     -35.481 -26.824  36.469  1.00  0.00     0.093 A 
ATOM      8  C   UNL     1     -34.399 -26.379  35.707  1.00  0.00     0.123 A 
ATOM      9  C   UNL     1     -33.558 -27.307  35.082  1.00  0.00     0.094 A 
ATOM     10  C   UNL     1     -33.797 -28.677  35.216  1.00  0.00     0.146 A 
ATOM     11  O   UNL     1     -32.983 -29.539  34.614  1.00  0.00    -0.456 OA
ENDROOT
BRANCH   1  12
ATOM     12  C   UNL     1     -32.161 -31.729  33.976  1.00  0.00     0.021 A 
ATOM     13  C   UNL     1     -32.630 -32.847  33.264  1.00  0.00     0.016 A 
ATOM     14  C   UNL     1     -31.740 -33.677  32.577  1.00  0.00     0.051 A 
ATOM     15  C   UNL     1     -30.368 -33.398  32.583  1.00  0.00     0.157 A 
ATOM     16  C   UNL     1     -30.781 -31.447  33.965  1.00  0.00     0.062 A 
ATOM     17  C   UNL     1     -29.889 -32.280  33.274  1.00  0.00     0.158 A 
BRANCH  15  18
ATOM     18  O   UNL     1     -29.477 -34.224  31.900  1.00  0.00    -0.504 OA
ATOM     19  H   UNL     1     -28.543 -33.914  31.661  1.00  0.00     0.293 HD
ENDBRANCH  15  18
BRANCH  17  20
ATOM     20  O   UNL     1     -28.524 -31.998  33.268  1.00  0.00    -0.504 OA
ATOM     21  H   UNL     1     -27.842 -32.670  33.601  1.00  0.00     0.293 HD
ENDBRANCH  17  20
ENDBRANCH   1  12
BRANCH   6  22
ATOM     22  O   UNL     1     -36.828 -28.610  37.383  1.00  0.00    -0.507 OA
ATOM     23  H   UNL     1     -37.363 -29.436  37.146  1.00  0.00     0.293 HD
ENDBRANCH   6  22
BRANCH   8  24
ATOM     24  O   UNL     1     -34.166 -25.011  35.578  1.00  0.00    -0.508 OA
ATOM     25  H   UNL     1     -34.613 -24.464  34.851  1.00  0.00     0.293 HD
ENDBRANCH   8  24
TORSDOF 5
ENDMDL
MODEL 9
REMARK VINA RESULT:    -8.196      2.071      3.198
REMARK INTER + INTRA:          -9.951
REMARK INTER:                  -9.663
REMARK INTRA:                  -0.288
REMARK UNBOUND:                -0.317
REMARK SMILES O=c1cc(-c2ccc(O)c(O)c2)oc2cc(O)cc(O)c12
REMARK SMILES IDX 4 1 3 2 2 3 1 4 21 5 19 6 18 7 16 8 15 9 14 10 13 11 5 12
REMARK SMILES IDX 6 13 7 14 8 15 12 16 10 17 9 18 11 20 20 22 17 24
REMARK H PARENT 9 19 11 21 20 23 17 25
REMARK Flexibility Score: inf
ROOT
ATOM      1  C   UNL     1     -30.882 -31.740  34.905  1.00  0.00     0.138 A 
ATOM      2  C   UNL     1     -30.496 -32.217  33.641  1.00  0.00     0.100 A 
ATOM      3  C   UNL     1     -31.405 -32.172  32.583  1.00  0.00     0.197 A 
ATOM      4  O   UNL     1     -31.047 -32.601  31.452  1.00  0.00    -0.289 OA
ATOM      5  C   UNL     1     -32.695 -31.648  32.796  1.00  0.00     0.107 A 
ATOM      6  C   UNL     1     -33.676 -31.568  31.780  1.00  0.00     0.134 A 
ATOM      7  C   UNL     1     -34.936 -31.027  32.072  1.00  0.00     0.093 A 
ATOM      8  C   UNL     1     -35.234 -30.565  33.356  1.00  0.00     0.123 A 
ATOM      9  C   UNL     1     -34.268 -30.642  34.365  1.00  0.00     0.094 A 
ATOM     10  C   UNL     1     -33.006 -31.178  34.094  1.00  0.00     0.146 A 
ATOM     11  O   UNL     1     -32.105 -31.242  35.070  1.00  0.00    -0.456 OA
ENDROOT
BRANCH   1  12
ATOM     12  C   UNL     1     -29.957 -31.761  36.066  1.00  0.00     0.021 A 
ATOM     13  C   UNL     1     -30.482 -31.874  37.366  1.00  0.00     0.016 A 
ATOM     14  C   UNL     1     -29.634 -31.904  38.476  1.00  0.00     0.051 A 
ATOM     15  C   UNL     1     -28.246 -31.831  38.304  1.00  0.00     0.157 A 
ATOM     16  C   UNL     1     -28.560 -31.702  35.901  1.00  0.00     0.062 A 
ATOM     17  C   UNL     1     -27.708 -31.733  37.016  1.00  0.00     0.158 A 
BRANCH  15  18
ATOM     18  O   UNL     1     -27.396 -31.858  39.409  1.00  0.00    -0.504 OA
ATOM     19  H   UNL     1     -26.389 -31.809  39.305  1.00  0.00     0.293 HD
ENDBRANCH  15  18
BRANCH  17  20
ATOM     20  O   UNL     1     -26.326 -31.672  36.849  1.00  0.00    -0.504 OA
ATOM     21  H   UNL     1     -25.692 -32.128  37.495  1.00  0.00     0.293 HD
ENDBRANCH  17  20
ENDBRANCH   1  12
BRANCH   6  22
ATOM     22  O   UNL     1     -33.408 -32.021  30.486  1.00  0.00    -0.507 OA
ATOM     23  H   UNL     1     -33.852 -32.850  30.110  1.00  0.00     0.293 HD
ENDBRANCH   6  22
BRANCH   8  24
ATOM     24  O   UNL     1     -36.494 -30.032  33.619  1.00  0.00    -0.508 OA
ATOM     25  H   UNL     1     -37.332 -30.423  33.203  1.00  0.00     0.293 HD
ENDBRANCH   8  24
TORSDOF 5
ENDMDL
