MODEL 1
REMARK VINA RESULT:    -4.095      0.000      0.000
REMARK INTER + INTRA:          -4.215
REMARK INTER:                  -4.215
REMARK INTRA:                   0.000
REMARK UNBOUND:                 0.000
REMARK SMILES Oc1ccc2[nH]ccc2c1
REMARK SMILES IDX 3 1 4 2 5 3 9 4 8 5 7 6 6 7 10 8 2 9 1 11
REMARK H PARENT 6 10 1 12
REMARK Flexibility Score: inf
ROOT
ATOM      1  C   UNL     1     141.831 150.006 141.310  1.00  0.00     0.048 A 
ATOM      2  C   UNL     1     142.970 149.493 140.664  1.00  0.00     0.030 A 
ATOM      3  C   UNL     1     142.787 148.455 139.752  1.00  0.00     0.046 A 
ATOM      4  C   UNL     1     141.548 147.941 139.485  1.00  0.00     0.003 A 
ATOM      5  C   UNL     1     141.709 146.939 138.553  1.00  0.00     0.028 A 
ATOM      6  C   UNL     1     143.075 146.897 138.297  1.00  0.00     0.083 A 
ATOM      7  N   UNL     1     143.730 147.825 139.032  1.00  0.00    -0.361 N 
ATOM      8  C   UNL     1     140.399 148.426 140.107  1.00  0.00     0.056 A 
ATOM      9  C   UNL     1     140.546 149.476 141.034  1.00  0.00     0.116 A 
ATOM     10  H   UNL     1     144.759 148.010 139.036  1.00  0.00     0.166 HD
ENDROOT
BRANCH   9  11
ATOM     11  O   UNL     1     139.419 149.984 141.675  1.00  0.00    -0.508 OA
ATOM     12  H   UNL     1     138.499 149.587 141.525  1.00  0.00     0.293 HD
ENDBRANCH   9  11
TORSDOF 1
ENDMDL
MODEL 2
REMARK VINA RESULT:    -4.081     14.650     15.908
REMARK INTER + INTRA:          -4.201
REMARK INTER:                  -4.201
REMARK INTRA:                   0.000
REMARK UNBOUND:                 0.000
REMARK SMILES Oc1ccc2[nH]ccc2c1
REMARK SMILES IDX 3 1 4 2 5 3 9 4 8 5 7 6 6 7 10 8 2 9 1 11
REMARK H PARENT 6 10 1 12
REMARK Flexibility Score: inf
ROOT
ATOM      1  C   UNL     1     139.841 131.601 141.269  1.00  0.00     0.048 A 
ATOM      2  C   UNL     1     138.703 132.173 140.673  1.00  0.00     0.030 A 
ATOM      3  C   UNL     1     138.892 133.259 139.821  1.00  0.00     0.046 A 
ATOM      4  C   UNL     1     140.137 133.764 139.562  1.00  0.00     0.003 A 
ATOM      5  C   UNL     1     139.982 134.822 138.693  1.00  0.00     0.028 A 
ATOM      6  C   UNL     1     138.613 134.905 138.464  1.00  0.00     0.083 A 
ATOM      7  N   UNL     1     137.951 133.949 139.155  1.00  0.00    -0.361 N 
ATOM      8  C   UNL     1     141.285 133.221 140.135  1.00  0.00     0.056 A 
ATOM      9  C   UNL     1     141.133 132.121 141.002  1.00  0.00     0.116 A 
ATOM     10  H   UNL     1     136.919 133.783 139.166  1.00  0.00     0.166 HD
ENDROOT
BRANCH   9  11
ATOM     11  O   UNL     1     142.258 131.554 141.593  1.00  0.00    -0.508 OA
ATOM     12  H   UNL     1     142.289 131.344 142.584  1.00  0.00     0.293 HD
ENDBRANCH   9  11
TORSDOF 1
ENDMDL
MODEL 3
REMARK VINA RESULT:    -4.078     10.425     11.367
REMARK INTER + INTRA:          -4.198
REMARK INTER:                  -4.198
REMARK INTRA:                   0.000
REMARK UNBOUND:                 0.000
REMARK SMILES Oc1ccc2[nH]ccc2c1
REMARK SMILES IDX 3 1 4 2 5 3 9 4 8 5 7 6 6 7 10 8 2 9 1 11
REMARK H PARENT 6 10 1 12
REMARK Flexibility Score: inf
ROOT
ATOM      1  C   UNL     1     150.086 139.763 141.271  1.00  0.00     0.048 A 
ATOM      2  C   UNL     1     149.590 138.608 140.640  1.00  0.00     0.030 A 
ATOM      3  C   UNL     1     148.519 138.756 139.760  1.00  0.00     0.046 A 
ATOM      4  C   UNL     1     147.958 139.979 139.508  1.00  0.00     0.003 A 
ATOM      5  C   UNL     1     146.935 139.785 138.606  1.00  0.00     0.028 A 
ATOM      6  C   UNL     1     146.928 138.418 138.352  1.00  0.00     0.083 A 
ATOM      7  N   UNL     1     147.898 137.793 139.059  1.00  0.00    -0.361 N 
ATOM      8  C   UNL     1     148.425 141.143 140.115  1.00  0.00     0.056 A 
ATOM      9  C   UNL     1     149.507 141.031 141.011  1.00  0.00     0.116 A 
ATOM     10  H   UNL     1     148.116 136.771 139.058  1.00  0.00     0.166 HD
ENDROOT
BRANCH   9  11
ATOM     11  O   UNL     1     149.999 142.173 141.636  1.00  0.00    -0.508 OA
ATOM     12  H   UNL     1     150.940 142.507 141.465  1.00  0.00     0.293 HD
ENDBRANCH   9  11
TORSDOF 1
ENDMDL
MODEL 4
REMARK VINA RESULT:    -4.068     10.333     11.268
REMARK INTER + INTRA:          -4.187
REMARK INTER:                  -4.187
REMARK INTRA:                   0.000
REMARK UNBOUND:                 0.000
REMARK SMILES Oc1ccc2[nH]ccc2c1
REMARK SMILES IDX 3 1 4 2 5 3 9 4 8 5 7 6 6 7 10 8 2 9 1 11
REMARK H PARENT 6 10 1 12
REMARK Flexibility Score: inf
ROOT
ATOM      1  C   UNL     1     131.584 141.852 141.255  1.00  0.00     0.048 A 
ATOM      2  C   UNL     1     132.042 143.004 140.590  1.00  0.00     0.030 A 
ATOM      3  C   UNL     1     133.098 142.859 139.693  1.00  0.00     0.046 A 
ATOM      4  C   UNL     1     133.681 141.644 139.456  1.00  0.00     0.003 A 
ATOM      5  C   UNL     1     134.682 141.840 138.530  1.00  0.00     0.028 A 
ATOM      6  C   UNL     1     134.654 143.201 138.246  1.00  0.00     0.083 A 
ATOM      7  N   UNL     1     133.684 143.820 138.959  1.00  0.00    -0.361 N 
ATOM      8  C   UNL     1     133.251 140.484 140.097  1.00  0.00     0.056 A 
ATOM      9  C   UNL     1     132.185 140.592 141.011  1.00  0.00     0.116 A 
ATOM     10  H   UNL     1     133.444 144.837 138.940  1.00  0.00     0.166 HD
ENDROOT
BRANCH   9  11
ATOM     11  O   UNL     1     131.731 139.453 141.670  1.00  0.00    -0.508 OA
ATOM     12  H   UNL     1     131.033 138.845 141.257  1.00  0.00     0.293 HD
ENDBRANCH   9  11
TORSDOF 1
ENDMDL
MODEL 5
REMARK VINA RESULT:    -3.819     15.085     16.187
REMARK INTER + INTRA:          -3.931
REMARK INTER:                  -3.931
REMARK INTRA:                   0.000
REMARK UNBOUND:                 0.000
REMARK SMILES Oc1ccc2[nH]ccc2c1
REMARK SMILES IDX 3 1 4 2 5 3 9 4 8 5 7 6 6 7 10 8 2 9 1 11
REMARK H PARENT 6 10 1 12
REMARK Flexibility Score: inf
ROOT
ATOM      1  C   UNL     1     139.154 133.826 138.235  1.00  0.00     0.048 A 
ATOM      2  C   UNL     1     140.365 133.963 138.938  1.00  0.00     0.030 A 
ATOM      3  C   UNL     1     140.608 133.083 139.991  1.00  0.00     0.046 A 
ATOM      4  C   UNL     1     139.709 132.113 140.341  1.00  0.00     0.003 A 
ATOM      5  C   UNL     1     140.242 131.422 141.407  1.00  0.00     0.028 A 
ATOM      6  C   UNL     1     141.470 132.026 141.654  1.00  0.00     0.083 A 
ATOM      7  N   UNL     1     141.690 133.041 140.787  1.00  0.00    -0.361 N 
ATOM      8  C   UNL     1     138.501 131.950 139.666  1.00  0.00     0.056 A 
ATOM      9  C   UNL     1     138.222 132.822 138.596  1.00  0.00     0.116 A 
ATOM     10  H   UNL     1     142.529 133.661 140.747  1.00  0.00     0.166 HD
ENDROOT
BRANCH   9  11
ATOM     11  O   UNL     1     137.024 132.688 137.899  1.00  0.00    -0.508 OA
ATOM     12  H   UNL     1     136.511 131.814 137.889  1.00  0.00     0.293 HD
ENDBRANCH   9  11
TORSDOF 1
ENDMDL
MODEL 6
REMARK VINA RESULT:    -3.788     10.637     11.506
REMARK INTER + INTRA:          -3.899
REMARK INTER:                  -3.899
REMARK INTRA:                   0.000
REMARK UNBOUND:                 0.000
REMARK SMILES Oc1ccc2[nH]ccc2c1
REMARK SMILES IDX 3 1 4 2 5 3 9 4 8 5 7 6 6 7 10 8 2 9 1 11
REMARK H PARENT 6 10 1 12
REMARK Flexibility Score: inf
ROOT
ATOM      1  C   UNL     1     149.820 140.871 141.407  1.00  0.00     0.048 A 
ATOM      2  C   UNL     1     148.851 141.393 140.531  1.00  0.00     0.030 A 
ATOM      3  C   UNL     1     148.168 140.497 139.710  1.00  0.00     0.046 A 
ATOM      4  C   UNL     1     148.419 139.152 139.745  1.00  0.00     0.003 A 
ATOM      5  C   UNL     1     147.588 138.553 138.824  1.00  0.00     0.028 A 
ATOM      6  C   UNL     1     146.856 139.595 138.264  1.00  0.00     0.083 A 
ATOM      7  N   UNL     1     147.214 140.781 138.808  1.00  0.00    -0.361 N 
ATOM      8  C   UNL     1     149.371 138.603 140.601  1.00  0.00     0.056 A 
ATOM      9  C   UNL     1     150.081 139.478 141.445  1.00  0.00     0.116 A 
ATOM     10  H   UNL     1     146.825 141.722 138.572  1.00  0.00     0.166 HD
ENDROOT
BRANCH   9  11
ATOM     11  O   UNL     1     151.040 138.963 142.314  1.00  0.00    -0.508 OA
ATOM     12  H   UNL     1     151.730 139.560 142.755  1.00  0.00     0.293 HD
ENDBRANCH   9  11
TORSDOF 1
ENDMDL
MODEL 7
REMARK VINA RESULT:    -3.786     10.467     11.504
REMARK INTER + INTRA:          -3.897
REMARK INTER:                  -3.897
REMARK INTRA:                   0.000
REMARK UNBOUND:                 0.000
REMARK SMILES Oc1ccc2[nH]ccc2c1
REMARK SMILES IDX 3 1 4 2 5 3 9 4 8 5 7 6 6 7 10 8 2 9 1 11
REMARK H PARENT 6 10 1 12
REMARK Flexibility Score: inf
ROOT
ATOM      1  C   UNL     1     133.964 142.628 138.218  1.00  0.00     0.048 A 
ATOM      2  C   UNL     1     134.127 141.425 138.928  1.00  0.00     0.030 A 
ATOM      3  C   UNL     1     133.201 141.129 139.927  1.00  0.00     0.046 A 
ATOM      4  C   UNL     1     132.162 141.971 140.218  1.00  0.00     0.003 A 
ATOM      5  C   UNL     1     131.439 141.396 141.241  1.00  0.00     0.028 A 
ATOM      6  C   UNL     1     132.096 140.203 141.524  1.00  0.00     0.083 A 
ATOM      7  N   UNL     1     133.172 140.044 140.719  1.00  0.00    -0.361 N 
ATOM      8  C   UNL     1     131.971 143.169 139.534  1.00  0.00     0.056 A 
ATOM      9  C   UNL     1     132.888 143.501 138.518  1.00  0.00     0.116 A 
ATOM     10  H   UNL     1     133.840 139.241 140.716  1.00  0.00     0.166 HD
ENDROOT
BRANCH   9  11
ATOM     11  O   UNL     1     132.728 144.692 137.814  1.00  0.00    -0.508 OA
ATOM     12  H   UNL     1     133.483 145.090 137.268  1.00  0.00     0.293 HD
ENDBRANCH   9  11
TORSDOF 1
ENDMDL
MODEL 8
REMARK VINA RESULT:    -3.773      2.624      4.027
REMARK INTER + INTRA:          -3.884
REMARK INTER:                  -3.884
REMARK INTRA:                   0.000
REMARK UNBOUND:                 0.000
REMARK SMILES Oc1ccc2[nH]ccc2c1
REMARK SMILES IDX 3 1 4 2 5 3 9 4 8 5 7 6 6 7 10 8 2 9 1 11
REMARK H PARENT 6 10 1 12
REMARK Flexibility Score: inf
ROOT
ATOM      1  C   UNL     1     142.318 147.752 138.060  1.00  0.00     0.048 A 
ATOM      2  C   UNL     1     141.083 147.712 138.730  1.00  0.00     0.030 A 
ATOM      3  C   UNL     1     140.916 148.543 139.837  1.00  0.00     0.046 A 
ATOM      4  C   UNL     1     141.912 149.376 140.268  1.00  0.00     0.003 A 
ATOM      5  C   UNL     1     141.435 150.053 141.369  1.00  0.00     0.028 A 
ATOM      6  C   UNL     1     140.140 149.582 141.553  1.00  0.00     0.083 A 
ATOM      7  N   UNL     1     139.827 148.659 140.614  1.00  0.00    -0.361 N 
ATOM      8  C   UNL     1     143.147 149.441 139.627  1.00  0.00     0.056 A 
ATOM      9  C   UNL     1     143.351 148.615 138.504  1.00  0.00     0.116 A 
ATOM     10  H   UNL     1     138.922 148.145 140.517  1.00  0.00     0.166 HD
ENDROOT
BRANCH   9  11
ATOM     11  O   UNL     1     144.574 148.654 137.839  1.00  0.00    -0.508 OA
ATOM     12  H   UNL     1     144.633 148.870 136.851  1.00  0.00     0.293 HD
ENDBRANCH   9  11
TORSDOF 1
ENDMDL
MODEL 9
REMARK VINA RESULT:    -3.685     11.488     12.125
REMARK INTER + INTRA:          -3.793
REMARK INTER:                  -3.793
REMARK INTRA:                   0.000
REMARK UNBOUND:                 0.000
REMARK SMILES Oc1ccc2[nH]ccc2c1
REMARK SMILES IDX 3 1 4 2 5 3 9 4 8 5 7 6 6 7 10 8 2 9 1 11
REMARK H PARENT 6 10 1 12
REMARK Flexibility Score: inf
ROOT
ATOM      1  C   UNL     1     133.165 140.286 140.165  1.00  0.00     0.048 A 
ATOM      2  C   UNL     1     133.436 141.175 139.109  1.00  0.00     0.030 A 
ATOM      3  C   UNL     1     132.581 142.263 138.940  1.00  0.00     0.046 A 
ATOM      4  C   UNL     1     131.510 142.473 139.766  1.00  0.00     0.003 A 
ATOM      5  C   UNL     1     130.876 143.618 139.336  1.00  0.00     0.028 A 
ATOM      6  C   UNL     1     131.615 144.054 138.242  1.00  0.00     0.083 A 
ATOM      7  N   UNL     1     132.656 143.223 138.003  1.00  0.00    -0.361 N 
ATOM      8  C   UNL     1     131.214 141.612 140.821  1.00  0.00     0.056 A 
ATOM      9  C   UNL     1     132.057 140.502 141.022  1.00  0.00     0.116 A 
ATOM     10  H   UNL     1     133.370 143.313 137.246  1.00  0.00     0.166 HD
ENDROOT
BRANCH   9  11
ATOM     11  O   UNL     1     131.790 139.621 142.067  1.00  0.00    -0.508 OA
ATOM     12  H   UNL     1     131.078 139.820 142.759  1.00  0.00     0.293 HD
ENDBRANCH   9  11
TORSDOF 1
ENDMDL
