MODEL 1
REMARK VINA RESULT:    -7.681      0.000      0.000
REMARK INTER + INTRA:         -10.133
REMARK INTER:                  -9.701
REMARK INTRA:                  -0.432
REMARK UNBOUND:                -0.432
REMARK SMILES Oc1cc(O)cc(CCc2ccccc2O)c1
REMARK SMILES IDX 9 1 10 2 12 3 13 4 11 5 14 6 15 7 16 8 8 10 7 11 6 12 17 13
REMARK SMILES IDX 4 14 2 15 3 16 5 17 1 19
REMARK H PARENT 16 9 5 18 1 20
REMARK Flexibility Score: inf
ROOT
ATOM      1  C   UNL     1     -31.497  16.624  57.667  1.00  0.00     0.044 C 
ENDROOT
BRANCH   1   2
ATOM      2  C   UNL     1     -32.757  15.842  57.388  1.00  0.00    -0.006 A 
ATOM      3  C   UNL     1     -34.549  15.281  55.836  1.00  0.00     0.001 A 
ATOM      4  C   UNL     1     -35.091  14.398  56.770  1.00  0.00     0.004 A 
ATOM      5  C   UNL     1     -33.389  15.996  56.139  1.00  0.00     0.007 A 
ATOM      6  C   UNL     1     -34.468  14.221  58.007  1.00  0.00     0.046 A 
ATOM      7  C   UNL     1     -33.301  14.928  58.325  1.00  0.00     0.118 A 
BRANCH   7   8
ATOM      8  O   UNL     1     -32.712  14.691  59.569  1.00  0.00    -0.508 OA
ATOM      9  H   UNL     1     -31.914  14.085  59.703  1.00  0.00     0.293 HD
ENDBRANCH   7   8
ENDBRANCH   1   2
BRANCH   1  10
ATOM     10  C   UNL     1     -30.967  17.276  56.385  1.00  0.00     0.040 C 
BRANCH  10  11
ATOM     11  C   UNL     1     -29.873  18.259  56.705  1.00  0.00    -0.040 A 
ATOM     12  C   UNL     1     -29.124  18.847  55.673  1.00  0.00     0.050 A 
ATOM     13  C   UNL     1     -29.633  18.641  58.035  1.00  0.00     0.050 A 
ATOM     14  C   UNL     1     -28.130  19.787  55.967  1.00  0.00     0.119 A 
ATOM     15  C   UNL     1     -28.639  19.582  58.332  1.00  0.00     0.119 A 
ATOM     16  C   UNL     1     -27.887  20.151  57.299  1.00  0.00     0.092 A 
BRANCH  14  17
ATOM     17  O   UNL     1     -27.393  20.354  54.931  1.00  0.00    -0.508 OA
ATOM     18  H   UNL     1     -27.752  20.389  53.983  1.00  0.00     0.293 HD
ENDBRANCH  14  17
BRANCH  15  19
ATOM     19  O   UNL     1     -28.390  19.961  59.650  1.00  0.00    -0.508 OA
ATOM     20  H   UNL     1     -27.540  19.685  60.128  1.00  0.00     0.293 HD
ENDBRANCH  15  19
ENDBRANCH  10  11
ENDBRANCH   1  10
TORSDOF 6
ENDMDL
MODEL 2
REMARK VINA RESULT:    -7.670      1.890      2.576
REMARK INTER + INTRA:         -10.119
REMARK INTER:                  -9.692
REMARK INTRA:                  -0.427
REMARK UNBOUND:                -0.432
REMARK SMILES Oc1cc(O)cc(CCc2ccccc2O)c1
REMARK SMILES IDX 9 1 10 2 12 3 13 4 11 5 14 6 15 7 16 8 8 10 7 11 6 12 17 13
REMARK SMILES IDX 4 14 2 15 3 16 5 17 1 19
REMARK H PARENT 16 9 5 18 1 20
REMARK Flexibility Score: inf
ROOT
ATOM      1  C   UNL     1     -31.362  16.455  56.459  1.00  0.00     0.044 C 
ENDROOT
BRANCH   1   2
ATOM      2  C   UNL     1     -32.164  15.349  57.102  1.00  0.00    -0.006 A 
ATOM      3  C   UNL     1     -33.596  14.622  58.933  1.00  0.00     0.001 A 
ATOM      4  C   UNL     1     -33.709  13.359  58.352  1.00  0.00     0.004 A 
ATOM      5  C   UNL     1     -32.833  15.612  58.312  1.00  0.00     0.007 A 
ATOM      6  C   UNL     1     -33.066  13.086  57.144  1.00  0.00     0.046 A 
ATOM      7  C   UNL     1     -32.300  14.070  56.506  1.00  0.00     0.118 A 
BRANCH   7   8
ATOM      8  O   UNL     1     -31.699  13.744  55.288  1.00  0.00    -0.508 OA
ATOM      9  H   UNL     1     -31.663  14.371  54.496  1.00  0.00     0.293 HD
ENDBRANCH   7   8
ENDBRANCH   1   2
BRANCH   1  10
ATOM     10  C   UNL     1     -30.986  17.524  57.490  1.00  0.00     0.040 C 
BRANCH  10  11
ATOM     11  C   UNL     1     -29.757  18.273  57.050  1.00  0.00    -0.040 A 
ATOM     12  C   UNL     1     -29.544  19.596  57.471  1.00  0.00     0.050 A 
ATOM     13  C   UNL     1     -28.785  17.636  56.263  1.00  0.00     0.050 A 
ATOM     14  C   UNL     1     -28.386  20.282  57.091  1.00  0.00     0.119 A 
ATOM     15  C   UNL     1     -27.623  18.320  55.881  1.00  0.00     0.119 A 
ATOM     16  C   UNL     1     -27.427  19.642  56.293  1.00  0.00     0.092 A 
BRANCH  14  17
ATOM     17  O   UNL     1     -28.196  21.595  57.514  1.00  0.00    -0.508 OA
ATOM     18  H   UNL     1     -27.702  22.269  56.941  1.00  0.00     0.293 HD
ENDBRANCH  14  17
BRANCH  15  19
ATOM     19  O   UNL     1     -26.657  17.696  55.094  1.00  0.00    -0.508 OA
ATOM     20  H   UNL     1     -26.842  16.816  54.628  1.00  0.00     0.293 HD
ENDBRANCH  15  19
ENDBRANCH  10  11
ENDBRANCH   1  10
TORSDOF 6
ENDMDL
MODEL 3
REMARK VINA RESULT:    -7.652      0.062      2.036
REMARK INTER + INTRA:         -10.097
REMARK INTER:                  -9.663
REMARK INTRA:                  -0.434
REMARK UNBOUND:                -0.432
REMARK SMILES Oc1cc(O)cc(CCc2ccccc2O)c1
REMARK SMILES IDX 9 1 10 2 12 3 13 4 11 5 14 6 15 7 16 8 8 10 7 11 6 12 17 13
REMARK SMILES IDX 4 14 2 15 3 16 5 17 1 19
REMARK H PARENT 16 9 5 18 1 20
REMARK Flexibility Score: inf
ROOT
ATOM      1  C   UNL     1     -31.456  16.580  57.686  1.00  0.00     0.044 C 
ENDROOT
BRANCH   1   2
ATOM      2  C   UNL     1     -32.730  15.813  57.428  1.00  0.00    -0.006 A 
ATOM      3  C   UNL     1     -34.549  15.265  55.904  1.00  0.00     0.001 A 
ATOM      4  C   UNL     1     -35.091  14.397  56.850  1.00  0.00     0.004 A 
ATOM      5  C   UNL     1     -33.376  15.966  56.186  1.00  0.00     0.007 A 
ATOM      6  C   UNL     1     -34.455  14.220  58.081  1.00  0.00     0.046 A 
ATOM      7  C   UNL     1     -33.274  14.913  58.379  1.00  0.00     0.118 A 
BRANCH   7   8
ATOM      8  O   UNL     1     -32.673  14.677  59.617  1.00  0.00    -0.508 OA
ATOM      9  H   UNL     1     -32.196  15.389  60.152  1.00  0.00     0.293 HD
ENDBRANCH   7   8
ENDBRANCH   1   2
BRANCH   1  10
ATOM     10  C   UNL     1     -30.982  17.290  56.413  1.00  0.00     0.040 C 
BRANCH  10  11
ATOM     11  C   UNL     1     -29.919  18.304  56.738  1.00  0.00    -0.040 A 
ATOM     12  C   UNL     1     -29.659  18.656  58.072  1.00  0.00     0.050 A 
ATOM     13  C   UNL     1     -29.139  18.862  55.713  1.00  0.00     0.050 A 
ATOM     14  C   UNL     1     -28.648  19.574  58.377  1.00  0.00     0.119 A 
ATOM     15  C   UNL     1     -28.125  19.781  56.016  1.00  0.00     0.119 A 
ATOM     16  C   UNL     1     -27.884  20.137  57.347  1.00  0.00     0.092 A 
BRANCH  14  17
ATOM     17  O   UNL     1     -28.410  19.915  59.706  1.00  0.00    -0.508 OA
ATOM     18  H   UNL     1     -27.953  20.785  59.955  1.00  0.00     0.293 HD
ENDBRANCH  14  17
BRANCH  15  19
ATOM     19  O   UNL     1     -27.351  20.345  55.003  1.00  0.00    -0.508 OA
ATOM     20  H   UNL     1     -27.742  21.011  54.347  1.00  0.00     0.293 HD
ENDBRANCH  15  19
ENDBRANCH  10  11
ENDBRANCH   1  10
TORSDOF 6
ENDMDL
MODEL 4
REMARK VINA RESULT:    -7.648      2.193      2.491
REMARK INTER + INTRA:         -10.091
REMARK INTER:                  -9.701
REMARK INTRA:                  -0.391
REMARK UNBOUND:                -0.432
REMARK SMILES Oc1cc(O)cc(CCc2ccccc2O)c1
REMARK SMILES IDX 9 1 10 2 12 3 13 4 11 5 14 6 15 7 16 8 8 10 7 11 6 12 17 13
REMARK SMILES IDX 4 14 2 15 3 16 5 17 1 19
REMARK H PARENT 16 9 5 18 1 20
REMARK Flexibility Score: inf
ROOT
ATOM      1  C   UNL     1     -31.464  16.190  56.334  1.00  0.00     0.044 C 
ENDROOT
BRANCH   1   2
ATOM      2  C   UNL     1     -32.270  15.094  56.989  1.00  0.00    -0.006 A 
ATOM      3  C   UNL     1     -33.835  14.431  58.733  1.00  0.00     0.001 A 
ATOM      4  C   UNL     1     -33.829  13.122  58.250  1.00  0.00     0.004 A 
ATOM      5  C   UNL     1     -33.065  15.412  58.107  1.00  0.00     0.007 A 
ATOM      6  C   UNL     1     -33.059  12.793  57.133  1.00  0.00     0.046 A 
ATOM      7  C   UNL     1     -32.283  13.767  56.490  1.00  0.00     0.118 A 
BRANCH   7   8
ATOM      8  O   UNL     1     -31.552  13.382  55.365  1.00  0.00    -0.508 OA
ATOM      9  H   UNL     1     -30.895  13.987  54.891  1.00  0.00     0.293 HD
ENDBRANCH   7   8
ENDBRANCH   1   2
BRANCH   1  10
ATOM     10  C   UNL     1     -30.881  17.140  57.387  1.00  0.00     0.040 C 
BRANCH  10  11
ATOM     11  C   UNL     1     -29.849  18.044  56.769  1.00  0.00    -0.040 A 
ATOM     12  C   UNL     1     -28.524  17.605  56.615  1.00  0.00     0.050 A 
ATOM     13  C   UNL     1     -30.216  19.311  56.289  1.00  0.00     0.050 A 
ATOM     14  C   UNL     1     -27.571  18.432  56.010  1.00  0.00     0.119 A 
ATOM     15  C   UNL     1     -29.264  20.141  55.683  1.00  0.00     0.119 A 
ATOM     16  C   UNL     1     -27.943  19.702  55.547  1.00  0.00     0.092 A 
BRANCH  14  17
ATOM     17  O   UNL     1     -26.260  17.982  55.871  1.00  0.00    -0.508 OA
ATOM     18  H   UNL     1     -26.006  17.022  56.073  1.00  0.00     0.293 HD
ENDBRANCH  14  17
BRANCH  15  19
ATOM     19  O   UNL     1     -29.619  21.403  55.210  1.00  0.00    -0.508 OA
ATOM     20  H   UNL     1     -30.547  21.590  54.848  1.00  0.00     0.293 HD
ENDBRANCH  15  19
ENDBRANCH  10  11
ENDBRANCH   1  10
TORSDOF 6
ENDMDL
MODEL 5
REMARK VINA RESULT:    -7.639      1.561      2.693
REMARK INTER + INTRA:         -10.080
REMARK INTER:                  -9.613
REMARK INTRA:                  -0.467
REMARK UNBOUND:                -0.432
REMARK SMILES Oc1cc(O)cc(CCc2ccccc2O)c1
REMARK SMILES IDX 9 1 10 2 12 3 13 4 11 5 14 6 15 7 16 8 8 10 7 11 6 12 17 13
REMARK SMILES IDX 4 14 2 15 3 16 5 17 1 19
REMARK H PARENT 16 9 5 18 1 20
REMARK Flexibility Score: inf
ROOT
ATOM      1  C   UNL     1     -31.846  16.816  56.250  1.00  0.00     0.044 C 
ENDROOT
BRANCH   1   2
ATOM      2  C   UNL     1     -32.779  15.810  56.880  1.00  0.00    -0.006 A 
ATOM      3  C   UNL     1     -33.145  14.098  58.573  1.00  0.00     0.001 A 
ATOM      4  C   UNL     1     -34.459  13.936  58.136  1.00  0.00     0.004 A 
ATOM      5  C   UNL     1     -32.310  15.030  57.954  1.00  0.00     0.007 A 
ATOM      6  C   UNL     1     -34.945  14.713  57.082  1.00  0.00     0.046 A 
ATOM      7  C   UNL     1     -34.122  15.656  56.453  1.00  0.00     0.118 A 
BRANCH   7   8
ATOM      8  O   UNL     1     -34.672  16.418  55.420  1.00  0.00    -0.508 OA
ATOM      9  H   UNL     1     -34.712  17.429  55.431  1.00  0.00     0.293 HD
ENDBRANCH   7   8
ENDBRANCH   1   2
BRANCH   1  10
ATOM     10  C   UNL     1     -30.476  16.791  56.936  1.00  0.00     0.040 C 
BRANCH  10  11
ATOM     11  C   UNL     1     -29.951  18.189  57.122  1.00  0.00    -0.040 A 
ATOM     12  C   UNL     1     -29.276  18.541  58.302  1.00  0.00     0.050 A 
ATOM     13  C   UNL     1     -30.082  19.135  56.094  1.00  0.00     0.050 A 
ATOM     14  C   UNL     1     -28.759  19.831  58.462  1.00  0.00     0.119 A 
ATOM     15  C   UNL     1     -29.564  20.428  56.251  1.00  0.00     0.119 A 
ATOM     16  C   UNL     1     -28.907  20.774  57.436  1.00  0.00     0.092 A 
BRANCH  14  17
ATOM     17  O   UNL     1     -28.098  20.164  59.643  1.00  0.00    -0.508 OA
ATOM     18  H   UNL     1     -28.567  20.665  60.388  1.00  0.00     0.293 HD
ENDBRANCH  14  17
BRANCH  15  19
ATOM     19  O   UNL     1     -29.696  21.375  55.238  1.00  0.00    -0.508 OA
ATOM     20  H   UNL     1     -30.576  21.515  54.756  1.00  0.00     0.293 HD
ENDBRANCH  15  19
ENDBRANCH  10  11
ENDBRANCH   1  10
TORSDOF 6
ENDMDL
MODEL 6
REMARK VINA RESULT:    -7.638      1.555      1.945
REMARK INTER + INTRA:         -10.078
REMARK INTER:                  -9.600
REMARK INTRA:                  -0.479
REMARK UNBOUND:                -0.432
REMARK SMILES Oc1cc(O)cc(CCc2ccccc2O)c1
REMARK SMILES IDX 9 1 10 2 12 3 13 4 11 5 14 6 15 7 16 8 8 10 7 11 6 12 17 13
REMARK SMILES IDX 4 14 2 15 3 16 5 17 1 19
REMARK H PARENT 16 9 5 18 1 20
REMARK Flexibility Score: inf
ROOT
ATOM      1  C   UNL     1     -31.800  16.833  56.252  1.00  0.00     0.044 C 
ENDROOT
BRANCH   1   2
ATOM      2  C   UNL     1     -32.731  15.852  56.921  1.00  0.00    -0.006 A 
ATOM      3  C   UNL     1     -33.104  14.226  58.696  1.00  0.00     0.001 A 
ATOM      4  C   UNL     1     -34.411  14.029  58.250  1.00  0.00     0.004 A 
ATOM      5  C   UNL     1     -32.270  15.133  58.040  1.00  0.00     0.007 A 
ATOM      6  C   UNL     1     -34.890  14.745  57.152  1.00  0.00     0.046 A 
ATOM      7  C   UNL     1     -34.067  15.662  56.485  1.00  0.00     0.118 A 
BRANCH   7   8
ATOM      8  O   UNL     1     -34.610  16.365  55.408  1.00  0.00    -0.508 OA
ATOM      9  H   UNL     1     -34.118  16.528  54.540  1.00  0.00     0.293 HD
ENDBRANCH   7   8
ENDBRANCH   1   2
BRANCH   1  10
ATOM     10  C   UNL     1     -30.411  16.792  56.900  1.00  0.00     0.040 C 
BRANCH  10  11
ATOM     11  C   UNL     1     -29.871  18.185  57.080  1.00  0.00    -0.040 A 
ATOM     12  C   UNL     1     -30.010  19.138  56.057  1.00  0.00     0.050 A 
ATOM     13  C   UNL     1     -29.275  18.560  58.295  1.00  0.00     0.050 A 
ATOM     14  C   UNL     1     -29.538  20.442  56.237  1.00  0.00     0.119 A 
ATOM     15  C   UNL     1     -28.802  19.867  58.477  1.00  0.00     0.119 A 
ATOM     16  C   UNL     1     -28.932  20.804  57.447  1.00  0.00     0.092 A 
BRANCH  14  17
ATOM     17  O   UNL     1     -29.680  21.371  55.208  1.00  0.00    -0.508 OA
ATOM     18  H   UNL     1     -29.240  21.233  54.306  1.00  0.00     0.293 HD
ENDBRANCH  14  17
BRANCH  15  19
ATOM     19  O   UNL     1     -28.204  20.245  59.678  1.00  0.00    -0.508 OA
ATOM     20  H   UNL     1     -28.353  21.164  60.076  1.00  0.00     0.293 HD
ENDBRANCH  15  19
ENDBRANCH  10  11
ENDBRANCH   1  10
TORSDOF 6
ENDMDL
MODEL 7
REMARK VINA RESULT:    -7.555      2.015      6.769
REMARK INTER + INTRA:          -9.975
REMARK INTER:                  -9.489
REMARK INTRA:                  -0.486
REMARK UNBOUND:                -0.432
REMARK SMILES Oc1cc(O)cc(CCc2ccccc2O)c1
REMARK SMILES IDX 9 1 10 2 12 3 13 4 11 5 14 6 15 7 16 8 8 10 7 11 6 12 17 13
REMARK SMILES IDX 4 14 2 15 3 16 5 17 1 19
REMARK H PARENT 16 9 5 18 1 20
REMARK Flexibility Score: inf
ROOT
ATOM      1  C   UNL     1     -31.174  17.537  56.991  1.00  0.00     0.044 C 
ENDROOT
BRANCH   1   2
ATOM      2  C   UNL     1     -29.720  17.667  56.607  1.00  0.00    -0.006 A 
ATOM      3  C   UNL     1     -27.395  17.106  57.067  1.00  0.00     0.001 A 
ATOM      4  C   UNL     1     -26.991  17.827  55.944  1.00  0.00     0.004 A 
ATOM      5  C   UNL     1     -28.749  17.022  57.396  1.00  0.00     0.007 A 
ATOM      6  C   UNL     1     -27.942  18.460  55.141  1.00  0.00     0.046 A 
ATOM      7  C   UNL     1     -29.305  18.382  55.455  1.00  0.00     0.118 A 
BRANCH   7   8
ATOM      8  O   UNL     1     -30.209  19.016  54.600  1.00  0.00    -0.508 OA
ATOM      9  H   UNL     1     -31.014  18.557  54.197  1.00  0.00     0.293 HD
ENDBRANCH   7   8
ENDBRANCH   1   2
BRANCH   1  10
ATOM     10  C   UNL     1     -31.831  16.371  56.245  1.00  0.00     0.040 C 
BRANCH  10  11
ATOM     11  C   UNL     1     -32.830  15.674  57.128  1.00  0.00    -0.040 A 
ATOM     12  C   UNL     1     -33.903  14.965  56.564  1.00  0.00     0.050 A 
ATOM     13  C   UNL     1     -32.664  15.677  58.522  1.00  0.00     0.050 A 
ATOM     14  C   UNL     1     -34.812  14.288  57.383  1.00  0.00     0.119 A 
ATOM     15  C   UNL     1     -33.573  15.000  59.345  1.00  0.00     0.119 A 
ATOM     16  C   UNL     1     -34.647  14.309  58.775  1.00  0.00     0.092 A 
BRANCH  14  17
ATOM     17  O   UNL     1     -35.873  13.595  56.805  1.00  0.00    -0.508 OA
ATOM     18  H   UNL     1     -36.743  14.060  56.570  1.00  0.00     0.293 HD
ENDBRANCH  14  17
BRANCH  15  19
ATOM     19  O   UNL     1     -33.418  15.004  60.730  1.00  0.00    -0.508 OA
ATOM     20  H   UNL     1     -32.569  14.668  61.168  1.00  0.00     0.293 HD
ENDBRANCH  15  19
ENDBRANCH  10  11
ENDBRANCH   1  10
TORSDOF 6
ENDMDL
MODEL 8
REMARK VINA RESULT:    -7.495      2.024      2.586
REMARK INTER + INTRA:          -9.899
REMARK INTER:                  -9.387
REMARK INTRA:                  -0.512
REMARK UNBOUND:                -0.432
REMARK SMILES Oc1cc(O)cc(CCc2ccccc2O)c1
REMARK SMILES IDX 9 1 10 2 12 3 13 4 11 5 14 6 15 7 16 8 8 10 7 11 6 12 17 13
REMARK SMILES IDX 4 14 2 15 3 16 5 17 1 19
REMARK H PARENT 16 9 5 18 1 20
REMARK Flexibility Score: inf
ROOT
ATOM      1  C   UNL     1     -30.781  16.105  57.003  1.00  0.00     0.044 C 
ENDROOT
BRANCH   1   2
ATOM      2  C   UNL     1     -32.088  15.514  56.533  1.00  0.00    -0.006 A 
ATOM      3  C   UNL     1     -34.473  15.810  56.136  1.00  0.00     0.001 A 
ATOM      4  C   UNL     1     -34.560  14.508  55.644  1.00  0.00     0.004 A 
ATOM      5  C   UNL     1     -33.247  16.313  56.574  1.00  0.00     0.007 A 
ATOM      6  C   UNL     1     -33.418  13.708  55.581  1.00  0.00     0.046 A 
ATOM      7  C   UNL     1     -32.179  14.199  56.013  1.00  0.00     0.118 A 
BRANCH   7   8
ATOM      8  O   UNL     1     -31.069  13.358  55.904  1.00  0.00    -0.508 OA
ATOM      9  H   UNL     1     -30.772  12.725  56.635  1.00  0.00     0.293 HD
ENDBRANCH   7   8
ENDBRANCH   1   2
BRANCH   1  10
ATOM     10  C   UNL     1     -30.419  17.347  56.183  1.00  0.00     0.040 C 
BRANCH  10  11
ATOM     11  C   UNL     1     -30.104  18.506  57.089  1.00  0.00    -0.040 A 
ATOM     12  C   UNL     1     -29.308  18.318  58.231  1.00  0.00     0.050 A 
ATOM     13  C   UNL     1     -30.554  19.797  56.767  1.00  0.00     0.050 A 
ATOM     14  C   UNL     1     -28.987  19.401  59.055  1.00  0.00     0.119 A 
ATOM     15  C   UNL     1     -30.233  20.884  57.591  1.00  0.00     0.119 A 
ATOM     16  C   UNL     1     -29.453  20.684  58.735  1.00  0.00     0.092 A 
BRANCH  14  17
ATOM     17  O   UNL     1     -28.202  19.193  60.187  1.00  0.00    -0.508 OA
ATOM     18  H   UNL     1     -27.986  19.949  60.827  1.00  0.00     0.293 HD
ENDBRANCH  14  17
BRANCH  15  19
ATOM     19  O   UNL     1     -30.682  22.167  57.283  1.00  0.00    -0.508 OA
ATOM     20  H   UNL     1     -31.345  22.651  57.876  1.00  0.00     0.293 HD
ENDBRANCH  15  19
ENDBRANCH  10  11
ENDBRANCH   1  10
TORSDOF 6
ENDMDL
MODEL 9
REMARK VINA RESULT:    -7.290      1.895      6.741
REMARK INTER + INTRA:          -9.640
REMARK INTER:                  -9.122
REMARK INTRA:                  -0.518
REMARK UNBOUND:                -0.432
REMARK SMILES Oc1cc(O)cc(CCc2ccccc2O)c1
REMARK SMILES IDX 9 1 10 2 12 3 13 4 11 5 14 6 15 7 16 8 8 10 7 11 6 12 17 13
REMARK SMILES IDX 4 14 2 15 3 16 5 17 1 19
REMARK H PARENT 16 9 5 18 1 20
REMARK Flexibility Score: inf
ROOT
ATOM      1  C   UNL     1     -30.795  17.117  57.654  1.00  0.00     0.044 C 
ENDROOT
BRANCH   1   2
ATOM      2  C   UNL     1     -30.489  18.420  56.955  1.00  0.00    -0.006 A 
ATOM      3  C   UNL     1     -29.951  19.588  54.887  1.00  0.00     0.001 A 
ATOM      4  C   UNL     1     -29.946  20.805  55.567  1.00  0.00     0.004 A 
ATOM      5  C   UNL     1     -30.224  18.403  55.573  1.00  0.00     0.007 A 
ATOM      6  C   UNL     1     -30.223  20.842  56.935  1.00  0.00     0.046 A 
ATOM      7  C   UNL     1     -30.503  19.663  57.637  1.00  0.00     0.118 A 
BRANCH   7   8
ATOM      8  O   UNL     1     -30.795  19.767  58.999  1.00  0.00    -0.508 OA
ATOM      9  H   UNL     1     -31.613  19.357  59.429  1.00  0.00     0.293 HD
ENDBRANCH   7   8
ENDBRANCH   1   2
BRANCH   1  10
ATOM     10  C   UNL     1     -31.130  16.021  56.637  1.00  0.00     0.040 C 
BRANCH  10  11
ATOM     11  C   UNL     1     -32.485  15.432  56.921  1.00  0.00    -0.040 A 
ATOM     12  C   UNL     1     -32.764  14.868  58.177  1.00  0.00     0.050 A 
ATOM     13  C   UNL     1     -33.500  15.495  55.954  1.00  0.00     0.050 A 
ATOM     14  C   UNL     1     -34.034  14.351  58.454  1.00  0.00     0.119 A 
ATOM     15  C   UNL     1     -34.774  14.979  56.229  1.00  0.00     0.119 A 
ATOM     16  C   UNL     1     -35.037  14.405  57.477  1.00  0.00     0.092 A 
BRANCH  14  17
ATOM     17  O   UNL     1     -34.289  13.789  59.703  1.00  0.00    -0.508 OA
ATOM     18  H   UNL     1     -35.219  13.489  59.968  1.00  0.00     0.293 HD
ENDBRANCH  14  17
BRANCH  15  19
ATOM     19  O   UNL     1     -35.784  15.031  55.271  1.00  0.00    -0.508 OA
ATOM     20  H   UNL     1     -36.062  14.208  54.750  1.00  0.00     0.293 HD
ENDBRANCH  15  19
ENDBRANCH  10  11
ENDBRANCH   1  10
TORSDOF 6
ENDMDL
