MODEL 1
REMARK VINA RESULT:    -5.314      0.000      0.000
REMARK INTER + INTRA:          -6.681
REMARK INTER:                  -6.401
REMARK INTRA:                  -0.280
REMARK UNBOUND:                -0.280
REMARK SMILES O=c1c(O)c(-c2ccc(O)c(O)c2)oc2cc(O)cc(O)c12
REMARK SMILES IDX 5 1 3 2 2 3 1 4 22 5 20 6 19 7 17 8 16 9 15 10 14 11 6 12
REMARK SMILES IDX 7 13 8 14 9 15 13 16 11 17 10 18 12 20 4 22 21 24 18 26
REMARK H PARENT 10 19 12 21 4 23 21 25 18 27
REMARK Flexibility Score: inf
ROOT
ATOM      1  C   UNL     1      23.736  41.346  14.836  1.00  0.00     0.180 A 
ATOM      2  C   UNL     1      22.946  42.419  14.388  1.00  0.00     0.208 A 
ATOM      3  C   UNL     1      22.627  43.451  15.287  1.00  0.00     0.238 A 
ATOM      4  O   UNL     1      21.874  44.380  14.896  1.00  0.00    -0.285 OA
ATOM      5  C   UNL     1      23.114  43.404  16.615  1.00  0.00     0.111 A 
ATOM      6  C   UNL     1      22.886  44.413  17.598  1.00  0.00     0.134 A 
ATOM      7  C   UNL     1      23.305  44.200  18.917  1.00  0.00     0.093 A 
ATOM      8  C   UNL     1      24.002  43.042  19.273  1.00  0.00     0.123 A 
ATOM      9  C   UNL     1      24.281  42.078  18.308  1.00  0.00     0.094 A 
ATOM     10  C   UNL     1      23.844  42.246  16.991  1.00  0.00     0.146 A 
ATOM     11  O   UNL     1      24.122  41.297  16.105  1.00  0.00    -0.452 OA
ENDROOT
BRANCH   1  12
ATOM     12  C   UNL     1      24.134  40.235  13.941  1.00  0.00     0.025 A 
ATOM     13  C   UNL     1      25.154  40.439  12.998  1.00  0.00     0.016 A 
ATOM     14  C   UNL     1      25.532  39.412  12.131  1.00  0.00     0.051 A 
ATOM     15  C   UNL     1      24.887  38.172  12.179  1.00  0.00     0.157 A 
ATOM     16  C   UNL     1      23.473  38.995  13.974  1.00  0.00     0.062 A 
ATOM     17  C   UNL     1      23.849  37.963  13.103  1.00  0.00     0.158 A 
BRANCH  15  18
ATOM     18  O   UNL     1      25.287  37.165  11.302  1.00  0.00    -0.504 OA
ATOM     19  H   UNL     1      26.173  36.685  11.402  1.00  0.00     0.293 HD
ENDBRANCH  15  18
BRANCH  17  20
ATOM     20  O   UNL     1      23.192  36.733  13.146  1.00  0.00    -0.504 OA
ATOM     21  H   UNL     1      22.903  36.317  14.024  1.00  0.00     0.293 HD
ENDBRANCH  17  20
ENDBRANCH   1  12
BRANCH   2  22
ATOM     22  O   UNL     1      22.457  42.434  13.079  1.00  0.00    -0.502 OA
ATOM     23  H   UNL     1      22.387  41.596  12.516  1.00  0.00     0.293 HD
ENDBRANCH   2  22
BRANCH   6  24
ATOM     24  O   UNL     1      22.282  45.644  17.326  1.00  0.00    -0.507 OA
ATOM     25  H   UNL     1      22.224  46.067  16.413  1.00  0.00     0.293 HD
ENDBRANCH   6  24
BRANCH   8  26
ATOM     26  O   UNL     1      24.430  42.846  20.585  1.00  0.00    -0.508 OA
ATOM     27  H   UNL     1      25.263  43.297  20.943  1.00  0.00     0.293 HD
ENDBRANCH   8  26
TORSDOF 6
ENDMDL
MODEL 2
REMARK VINA RESULT:    -5.244     12.398     14.694
REMARK INTER + INTRA:          -6.597
REMARK INTER:                  -6.301
REMARK INTRA:                  -0.296
REMARK UNBOUND:                -0.280
REMARK SMILES O=c1c(O)c(-c2ccc(O)c(O)c2)oc2cc(O)cc(O)c12
REMARK SMILES IDX 5 1 3 2 2 3 1 4 22 5 20 6 19 7 17 8 16 9 15 10 14 11 6 12
REMARK SMILES IDX 7 13 8 14 9 15 13 16 11 17 10 18 12 20 4 22 21 24 18 26
REMARK H PARENT 10 19 12 21 4 23 21 25 18 27
REMARK Flexibility Score: inf
ROOT
ATOM      1  C   UNL     1      13.748  42.913  25.185  1.00  0.00     0.180 A 
ATOM      2  C   UNL     1      14.456  44.100  25.438  1.00  0.00     0.208 A 
ATOM      3  C   UNL     1      14.467  44.621  26.742  1.00  0.00     0.238 A 
ATOM      4  O   UNL     1      15.057  45.714  26.951  1.00  0.00    -0.285 OA
ATOM      5  C   UNL     1      13.784  43.940  27.779  1.00  0.00     0.111 A 
ATOM      6  C   UNL     1      13.762  44.357  29.144  1.00  0.00     0.134 A 
ATOM      7  C   UNL     1      12.946  43.679  30.059  1.00  0.00     0.093 A 
ATOM      8  C   UNL     1      12.203  42.562  29.671  1.00  0.00     0.123 A 
ATOM      9  C   UNL     1      12.264  42.113  28.355  1.00  0.00     0.094 A 
ATOM     10  C   UNL     1      13.041  42.789  27.410  1.00  0.00     0.146 A 
ATOM     11  O   UNL     1      13.062  42.333  26.163  1.00  0.00    -0.452 OA
ENDROOT
BRANCH   1  12
ATOM     12  C   UNL     1      13.710  42.289  23.842  1.00  0.00     0.025 A 
ATOM     13  C   UNL     1      12.808  42.772  22.881  1.00  0.00     0.016 A 
ATOM     14  C   UNL     1      12.741  42.185  21.615  1.00  0.00     0.051 A 
ATOM     15  C   UNL     1      13.562  41.099  21.294  1.00  0.00     0.157 A 
ATOM     16  C   UNL     1      14.519  41.184  23.525  1.00  0.00     0.062 A 
ATOM     17  C   UNL     1      14.453  40.592  22.255  1.00  0.00     0.158 A 
BRANCH  15  18
ATOM     18  O   UNL     1      13.474  40.535  20.023  1.00  0.00    -0.504 OA
ATOM     19  H   UNL     1      12.589  40.419  19.545  1.00  0.00     0.293 HD
ENDBRANCH  15  18
BRANCH  17  20
ATOM     20  O   UNL     1      15.263  39.500  21.947  1.00  0.00    -0.504 OA
ATOM     21  H   UNL     1      16.243  39.616  21.713  1.00  0.00     0.293 HD
ENDBRANCH  17  20
ENDBRANCH   1  12
BRANCH   2  22
ATOM     22  O   UNL     1      15.105  44.768  24.395  1.00  0.00    -0.502 OA
ATOM     23  H   UNL     1      14.745  45.624  23.992  1.00  0.00     0.293 HD
ENDBRANCH   2  22
BRANCH   6  24
ATOM     24  O   UNL     1      14.537  45.403  29.653  1.00  0.00    -0.507 OA
ATOM     25  H   UNL     1      15.399  45.284  30.163  1.00  0.00     0.293 HD
ENDBRANCH   6  24
BRANCH   8  26
ATOM     26  O   UNL     1      11.407  41.884  30.592  1.00  0.00    -0.508 OA
ATOM     27  H   UNL     1      11.467  40.879  30.705  1.00  0.00     0.293 HD
ENDBRANCH   8  26
TORSDOF 6
ENDMDL
MODEL 3
REMARK VINA RESULT:    -5.244     12.677     15.692
REMARK INTER + INTRA:          -6.597
REMARK INTER:                  -6.262
REMARK INTRA:                  -0.335
REMARK UNBOUND:                -0.280
REMARK SMILES O=c1c(O)c(-c2ccc(O)c(O)c2)oc2cc(O)cc(O)c12
REMARK SMILES IDX 5 1 3 2 2 3 1 4 22 5 20 6 19 7 17 8 16 9 15 10 14 11 6 12
REMARK SMILES IDX 7 13 8 14 9 15 13 16 11 17 10 18 12 20 4 22 21 24 18 26
REMARK H PARENT 10 19 12 21 4 23 21 25 18 27
REMARK Flexibility Score: inf
ROOT
ATOM      1  C   UNL     1      14.939  44.467  27.315  1.00  0.00     0.180 A 
ATOM      2  C   UNL     1      14.680  44.718  25.957  1.00  0.00     0.208 A 
ATOM      3  C   UNL     1      15.639  45.409  25.197  1.00  0.00     0.238 A 
ATOM      4  O   UNL     1      15.377  45.679  23.997  1.00  0.00    -0.285 OA
ATOM      5  C   UNL     1      16.850  45.824  25.802  1.00  0.00     0.111 A 
ATOM      6  C   UNL     1      17.907  46.496  25.118  1.00  0.00     0.134 A 
ATOM      7  C   UNL     1      19.004  46.976  25.845  1.00  0.00     0.093 A 
ATOM      8  C   UNL     1      19.111  46.752  27.219  1.00  0.00     0.123 A 
ATOM      9  C   UNL     1      18.112  46.046  27.885  1.00  0.00     0.094 A 
ATOM     10  C   UNL     1      16.988  45.586  27.194  1.00  0.00     0.146 A 
ATOM     11  O   UNL     1      16.054  44.927  27.869  1.00  0.00    -0.452 OA
ENDROOT
BRANCH   1  12
ATOM     12  C   UNL     1      13.988  43.723  28.173  1.00  0.00     0.025 A 
ATOM     13  C   UNL     1      13.042  44.432  28.931  1.00  0.00     0.016 A 
ATOM     14  C   UNL     1      12.149  43.752  29.763  1.00  0.00     0.051 A 
ATOM     15  C   UNL     1      12.198  42.358  29.864  1.00  0.00     0.157 A 
ATOM     16  C   UNL     1      14.049  42.323  28.293  1.00  0.00     0.062 A 
ATOM     17  C   UNL     1      13.156  41.639  29.129  1.00  0.00     0.158 A 
BRANCH  15  18
ATOM     18  O   UNL     1      11.293  41.707  30.701  1.00  0.00    -0.504 OA
ATOM     19  H   UNL     1      11.595  41.138  31.482  1.00  0.00     0.293 HD
ENDBRANCH  15  18
BRANCH  17  20
ATOM     20  O   UNL     1      13.219  40.251  29.237  1.00  0.00    -0.504 OA
ATOM     21  H   UNL     1      12.548  39.731  29.791  1.00  0.00     0.293 HD
ENDBRANCH  17  20
ENDBRANCH   1  12
BRANCH   2  22
ATOM     22  O   UNL     1      13.468  44.318  25.386  1.00  0.00    -0.502 OA
ATOM     23  H   UNL     1      13.006  44.855  24.663  1.00  0.00     0.293 HD
ENDBRANCH   2  22
BRANCH   6  24
ATOM     24  O   UNL     1      17.942  46.690  23.734  1.00  0.00    -0.507 OA
ATOM     25  H   UNL     1      18.775  46.895  23.203  1.00  0.00     0.293 HD
ENDBRANCH   6  24
BRANCH   8  26
ATOM     26  O   UNL     1      20.214  47.219  27.932  1.00  0.00    -0.508 OA
ATOM     27  H   UNL     1      20.930  46.589  28.272  1.00  0.00     0.293 HD
ENDBRANCH   8  26
TORSDOF 6
ENDMDL
MODEL 4
REMARK VINA RESULT:    -5.183      1.783      7.065
REMARK INTER + INTRA:          -6.524
REMARK INTER:                  -6.205
REMARK INTRA:                  -0.319
REMARK UNBOUND:                -0.280
REMARK SMILES O=c1c(O)c(-c2ccc(O)c(O)c2)oc2cc(O)cc(O)c12
REMARK SMILES IDX 5 1 3 2 2 3 1 4 22 5 20 6 19 7 17 8 16 9 15 10 14 11 6 12
REMARK SMILES IDX 7 13 8 14 9 15 13 16 11 17 10 18 12 20 4 22 21 24 18 26
REMARK H PARENT 10 19 12 21 4 23 21 25 18 27
REMARK Flexibility Score: inf
ROOT
ATOM      1  C   UNL     1      23.530  40.313  15.117  1.00  0.00     0.180 A 
ATOM      2  C   UNL     1      24.580  40.119  14.202  1.00  0.00     0.208 A 
ATOM      3  C   UNL     1      24.520  39.030  13.318  1.00  0.00     0.238 A 
ATOM      4  O   UNL     1      25.488  38.830  12.540  1.00  0.00    -0.285 OA
ATOM      5  C   UNL     1      23.405  38.158  13.349  1.00  0.00     0.111 A 
ATOM      6  C   UNL     1      23.222  37.046  12.473  1.00  0.00     0.134 A 
ATOM      7  C   UNL     1      22.145  36.174  12.679  1.00  0.00     0.093 A 
ATOM      8  C   UNL     1      21.210  36.411  13.690  1.00  0.00     0.123 A 
ATOM      9  C   UNL     1      21.348  37.527  14.512  1.00  0.00     0.094 A 
ATOM     10  C   UNL     1      22.431  38.395  14.354  1.00  0.00     0.146 A 
ATOM     11  O   UNL     1      22.530  39.440  15.167  1.00  0.00    -0.452 OA
ENDROOT
BRANCH   1  12
ATOM     12  C   UNL     1      23.510  41.452  16.063  1.00  0.00     0.025 A 
ATOM     13  C   UNL     1      23.010  42.694  15.638  1.00  0.00     0.016 A 
ATOM     14  C   UNL     1      23.000  43.787  16.507  1.00  0.00     0.051 A 
ATOM     15  C   UNL     1      23.504  43.664  17.806  1.00  0.00     0.157 A 
ATOM     16  C   UNL     1      24.035  41.336  17.362  1.00  0.00     0.062 A 
ATOM     17  C   UNL     1      24.029  42.433  18.235  1.00  0.00     0.158 A 
BRANCH  15  18
ATOM     18  O   UNL     1      23.480  44.772  18.651  1.00  0.00    -0.504 OA
ATOM     19  H   UNL     1      23.001  45.629  18.401  1.00  0.00     0.293 HD
ENDBRANCH  15  18
BRANCH  17  20
ATOM     20  O   UNL     1      24.546  42.307  19.524  1.00  0.00    -0.504 OA
ATOM     21  H   UNL     1      25.241  41.604  19.750  1.00  0.00     0.293 HD
ENDBRANCH  17  20
ENDBRANCH   1  12
BRANCH   2  22
ATOM     22  O   UNL     1      25.681  40.980  14.204  1.00  0.00    -0.502 OA
ATOM     23  H   UNL     1      26.194  41.206  13.361  1.00  0.00     0.293 HD
ENDBRANCH   2  22
BRANCH   6  24
ATOM     24  O   UNL     1      24.046  36.772  11.377  1.00  0.00    -0.507 OA
ATOM     25  H   UNL     1      23.733  36.358  10.513  1.00  0.00     0.293 HD
ENDBRANCH   6  24
BRANCH   8  26
ATOM     26  O   UNL     1      20.132  35.548  13.878  1.00  0.00    -0.508 OA
ATOM     27  H   UNL     1      20.262  34.545  13.939  1.00  0.00     0.293 HD
ENDBRANCH   8  26
TORSDOF 6
ENDMDL
MODEL 5
REMARK VINA RESULT:    -5.081      2.732      6.895
REMARK INTER + INTRA:          -6.401
REMARK INTER:                  -6.079
REMARK INTRA:                  -0.323
REMARK UNBOUND:                -0.280
REMARK SMILES O=c1c(O)c(-c2ccc(O)c(O)c2)oc2cc(O)cc(O)c12
REMARK SMILES IDX 5 1 3 2 2 3 1 4 22 5 20 6 19 7 17 8 16 9 15 10 14 11 6 12
REMARK SMILES IDX 7 13 8 14 9 15 13 16 11 17 10 18 12 20 4 22 21 24 18 26
REMARK H PARENT 10 19 12 21 4 23 21 25 18 27
REMARK Flexibility Score: inf
ROOT
ATOM      1  C   UNL     1      23.072  39.967  16.034  1.00  0.00     0.180 A 
ATOM      2  C   UNL     1      24.108  40.884  15.783  1.00  0.00     0.208 A 
ATOM      3  C   UNL     1      24.853  40.761  14.599  1.00  0.00     0.238 A 
ATOM      4  O   UNL     1      25.814  41.551  14.407  1.00  0.00    -0.285 OA
ATOM      5  C   UNL     1      24.543  39.735  13.675  1.00  0.00     0.111 A 
ATOM      6  C   UNL     1      25.207  39.542  12.426  1.00  0.00     0.134 A 
ATOM      7  C   UNL     1      24.906  38.415  11.651  1.00  0.00     0.093 A 
ATOM      8  C   UNL     1      23.919  37.510  12.049  1.00  0.00     0.123 A 
ATOM      9  C   UNL     1      23.224  37.722  13.237  1.00  0.00     0.094 A 
ATOM     10  C   UNL     1      23.528  38.817  14.050  1.00  0.00     0.146 A 
ATOM     11  O   UNL     1      22.849  38.976  15.180  1.00  0.00    -0.452 OA
ENDROOT
BRANCH   1  12
ATOM     12  C   UNL     1      22.226  40.048  17.247  1.00  0.00     0.025 A 
ATOM     13  C   UNL     1      21.081  40.860  17.239  1.00  0.00     0.016 A 
ATOM     14  C   UNL     1      20.281  40.966  18.379  1.00  0.00     0.051 A 
ATOM     15  C   UNL     1      20.619  40.278  19.548  1.00  0.00     0.157 A 
ATOM     16  C   UNL     1      22.577  39.373  18.431  1.00  0.00     0.062 A 
ATOM     17  C   UNL     1      21.776  39.481  19.576  1.00  0.00     0.158 A 
BRANCH  15  18
ATOM     18  O   UNL     1      19.801  40.403  20.669  1.00  0.00    -0.504 OA
ATOM     19  H   UNL     1      20.151  40.742  21.557  1.00  0.00     0.293 HD
ENDBRANCH  15  18
BRANCH  17  20
ATOM     20  O   UNL     1      22.127  38.803  20.744  1.00  0.00    -0.504 OA
ATOM     21  H   UNL     1      22.998  38.994  21.226  1.00  0.00     0.293 HD
ENDBRANCH  17  20
ENDBRANCH   1  12
BRANCH   2  22
ATOM     22  O   UNL     1      24.411  41.876  16.720  1.00  0.00    -0.502 OA
ATOM     23  H   UNL     1      25.084  42.610  16.535  1.00  0.00     0.293 HD
ENDBRANCH   2  22
BRANCH   6  24
ATOM     24  O   UNL     1      26.142  40.435  11.893  1.00  0.00    -0.507 OA
ATOM     25  H   UNL     1      26.715  40.252  11.084  1.00  0.00     0.293 HD
ENDBRANCH   6  24
BRANCH   8  26
ATOM     26  O   UNL     1      23.614  36.401  11.263  1.00  0.00    -0.508 OA
ATOM     27  H   UNL     1      22.699  35.966  11.294  1.00  0.00     0.293 HD
ENDBRANCH   8  26
TORSDOF 6
ENDMDL
MODEL 6
REMARK VINA RESULT:    -5.069     11.981     15.538
REMARK INTER + INTRA:          -6.386
REMARK INTER:                  -6.570
REMARK INTRA:                   0.184
REMARK UNBOUND:                -0.280
REMARK SMILES O=c1c(O)c(-c2ccc(O)c(O)c2)oc2cc(O)cc(O)c12
REMARK SMILES IDX 5 1 3 2 2 3 1 4 22 5 20 6 19 7 17 8 16 9 15 10 14 11 6 12
REMARK SMILES IDX 7 13 8 14 9 15 13 16 11 17 10 18 12 20 4 22 21 24 18 26
REMARK H PARENT 10 19 12 21 4 23 21 25 18 27
REMARK Flexibility Score: inf
ROOT
ATOM      1  C   UNL     1      13.749  43.740  25.643  1.00  0.00     0.180 A 
ATOM      2  C   UNL     1      14.536  44.832  25.240  1.00  0.00     0.208 A 
ATOM      3  C   UNL     1      14.851  44.979  23.878  1.00  0.00     0.238 A 
ATOM      4  O   UNL     1      15.602  45.927  23.532  1.00  0.00    -0.285 OA
ATOM      5  C   UNL     1      14.362  44.041  22.938  1.00  0.00     0.111 A 
ATOM      6  C   UNL     1      14.586  44.114  21.530  1.00  0.00     0.134 A 
ATOM      7  C   UNL     1      14.165  43.061  20.708  1.00  0.00     0.093 A 
ATOM      8  C   UNL     1      13.472  41.969  21.236  1.00  0.00     0.123 A 
ATOM      9  C   UNL     1      13.196  41.917  22.600  1.00  0.00     0.094 A 
ATOM     10  C   UNL     1      13.635  42.935  23.450  1.00  0.00     0.146 A 
ATOM     11  O   UNL     1      13.361  42.841  24.746  1.00  0.00    -0.452 OA
ENDROOT
BRANCH   1  12
ATOM     12  C   UNL     1      13.355  43.532  27.055  1.00  0.00     0.025 A 
ATOM     13  C   UNL     1      13.014  44.641  27.848  1.00  0.00     0.016 A 
ATOM     14  C   UNL     1      12.660  44.470  29.188  1.00  0.00     0.051 A 
ATOM     15  C   UNL     1      12.655  43.195  29.762  1.00  0.00     0.157 A 
ATOM     16  C   UNL     1      13.370  42.254  27.640  1.00  0.00     0.062 A 
ATOM     17  C   UNL     1      13.016  42.081  28.986  1.00  0.00     0.158 A 
BRANCH  15  18
ATOM     18  O   UNL     1      12.295  43.056  31.101  1.00  0.00    -0.504 OA
ATOM     19  H   UNL     1      12.198  43.853  31.718  1.00  0.00     0.293 HD
ENDBRANCH  15  18
BRANCH  17  20
ATOM     20  O   UNL     1      13.028  40.808  29.556  1.00  0.00    -0.504 OA
ATOM     21  H   UNL     1      13.749  40.132  29.330  1.00  0.00     0.293 HD
ENDBRANCH  17  20
ENDBRANCH   1  12
BRANCH   2  22
ATOM     22  O   UNL     1      15.027  45.734  26.188  1.00  0.00    -0.502 OA
ATOM     23  H   UNL     1      15.140  45.487  27.164  1.00  0.00     0.293 HD
ENDBRANCH   2  22
BRANCH   6  24
ATOM     24  O   UNL     1      15.187  45.203  20.891  1.00  0.00    -0.507 OA
ATOM     25  H   UNL     1      14.690  46.001  20.527  1.00  0.00     0.293 HD
ENDBRANCH   6  24
BRANCH   8  26
ATOM     26  O   UNL     1      13.042  40.933  20.408  1.00  0.00    -0.508 OA
ATOM     27  H   UNL     1      12.581  40.112  20.784  1.00  0.00     0.293 HD
ENDBRANCH   8  26
TORSDOF 6
ENDMDL
MODEL 7
REMARK VINA RESULT:    -5.065     11.758     12.878
REMARK INTER + INTRA:          -6.381
REMARK INTER:                  -6.171
REMARK INTRA:                  -0.211
REMARK UNBOUND:                -0.280
REMARK SMILES O=c1c(O)c(-c2ccc(O)c(O)c2)oc2cc(O)cc(O)c12
REMARK SMILES IDX 5 1 3 2 2 3 1 4 22 5 20 6 19 7 17 8 16 9 15 10 14 11 6 12
REMARK SMILES IDX 7 13 8 14 9 15 13 16 11 17 10 18 12 20 4 22 21 24 18 26
REMARK H PARENT 10 19 12 21 4 23 21 25 18 27
REMARK Flexibility Score: inf
ROOT
ATOM      1  C   UNL     1      13.354  35.729  16.451  1.00  0.00     0.180 A 
ATOM      2  C   UNL     1      12.877  35.997  17.746  1.00  0.00     0.208 A 
ATOM      3  C   UNL     1      13.419  35.290  18.832  1.00  0.00     0.238 A 
ATOM      4  O   UNL     1      12.949  35.495  19.981  1.00  0.00    -0.285 OA
ATOM      5  C   UNL     1      14.442  34.336  18.611  1.00  0.00     0.111 A 
ATOM      6  C   UNL     1      15.090  33.591  19.641  1.00  0.00     0.134 A 
ATOM      7  C   UNL     1      15.996  32.580  19.295  1.00  0.00     0.093 A 
ATOM      8  C   UNL     1      16.325  32.332  17.960  1.00  0.00     0.123 A 
ATOM      9  C   UNL     1      15.741  33.095  16.952  1.00  0.00     0.094 A 
ATOM     10  C   UNL     1      14.806  34.086  17.262  1.00  0.00     0.146 A 
ATOM     11  O   UNL     1      14.266  34.782  16.269  1.00  0.00    -0.452 OA
ENDROOT
BRANCH   1  12
ATOM     12  C   UNL     1      12.849  36.451  15.261  1.00  0.00     0.025 A 
ATOM     13  C   UNL     1      13.146  37.814  15.102  1.00  0.00     0.016 A 
ATOM     14  C   UNL     1      12.663  38.520  13.998  1.00  0.00     0.051 A 
ATOM     15  C   UNL     1      11.864  37.881  13.045  1.00  0.00     0.157 A 
ATOM     16  C   UNL     1      12.028  35.816  14.312  1.00  0.00     0.062 A 
ATOM     17  C   UNL     1      11.540  36.523  13.204  1.00  0.00     0.158 A 
BRANCH  15  18
ATOM     18  O   UNL     1      11.398  38.611  11.952  1.00  0.00    -0.504 OA
ATOM     19  H   UNL     1      10.530  39.132  11.984  1.00  0.00     0.293 HD
ENDBRANCH  15  18
BRANCH  17  20
ATOM     20  O   UNL     1      10.732  35.884  12.265  1.00  0.00    -0.504 OA
ATOM     21  H   UNL     1       9.741  35.743  12.427  1.00  0.00     0.293 HD
ENDBRANCH  17  20
ENDBRANCH   1  12
BRANCH   2  22
ATOM     22  O   UNL     1      11.851  36.927  17.939  1.00  0.00    -0.502 OA
ATOM     23  H   UNL     1      11.548  37.560  17.209  1.00  0.00     0.293 HD
ENDBRANCH   2  22
BRANCH   6  24
ATOM     24  O   UNL     1      14.902  33.821  21.007  1.00  0.00    -0.507 OA
ATOM     25  H   UNL     1      14.541  34.676  21.401  1.00  0.00     0.293 HD
ENDBRANCH   6  24
BRANCH   8  26
ATOM     26  O   UNL     1      17.240  31.336  17.627  1.00  0.00    -0.508 OA
ATOM     27  H   UNL     1      17.452  30.577  18.264  1.00  0.00     0.293 HD
ENDBRANCH   8  26
TORSDOF 6
ENDMDL
MODEL 8
REMARK VINA RESULT:    -5.041      1.660      3.445
REMARK INTER + INTRA:          -6.352
REMARK INTER:                  -6.244
REMARK INTRA:                  -0.108
REMARK UNBOUND:                -0.280
REMARK SMILES O=c1c(O)c(-c2ccc(O)c(O)c2)oc2cc(O)cc(O)c12
REMARK SMILES IDX 5 1 3 2 2 3 1 4 22 5 20 6 19 7 17 8 16 9 15 10 14 11 6 12
REMARK SMILES IDX 7 13 8 14 9 15 13 16 11 17 10 18 12 20 4 22 21 24 18 26
REMARK H PARENT 10 19 12 21 4 23 21 25 18 27
REMARK Flexibility Score: inf
ROOT
ATOM      1  C   UNL     1      23.685  41.724  16.075  1.00  0.00     0.180 A 
ATOM      2  C   UNL     1      24.025  41.657  17.437  1.00  0.00     0.208 A 
ATOM      3  C   UNL     1      23.556  42.655  18.306  1.00  0.00     0.238 A 
ATOM      4  O   UNL     1      23.909  42.620  19.513  1.00  0.00    -0.285 OA
ATOM      5  C   UNL     1      22.740  43.698  17.805  1.00  0.00     0.111 A 
ATOM      6  C   UNL     1      22.177  44.740  18.603  1.00  0.00     0.134 A 
ATOM      7  C   UNL     1      21.493  45.792  17.981  1.00  0.00     0.093 A 
ATOM      8  C   UNL     1      21.297  45.807  16.598  1.00  0.00     0.123 A 
ATOM      9  C   UNL     1      21.792  44.764  15.818  1.00  0.00     0.094 A 
ATOM     10  C   UNL     1      22.510  43.719  16.405  1.00  0.00     0.146 A 
ATOM     11  O   UNL     1      22.973  42.751  15.624  1.00  0.00    -0.452 OA
ENDROOT
BRANCH   1  12
ATOM     12  C   UNL     1      24.121  40.696  15.102  1.00  0.00     0.025 A 
ATOM     13  C   UNL     1      23.746  39.357  15.298  1.00  0.00     0.016 A 
ATOM     14  C   UNL     1      24.163  38.368  14.405  1.00  0.00     0.051 A 
ATOM     15  C   UNL     1      24.974  38.696  13.313  1.00  0.00     0.157 A 
ATOM     16  C   UNL     1      24.953  41.020  14.016  1.00  0.00     0.062 A 
ATOM     17  C   UNL     1      25.375  40.028  13.120  1.00  0.00     0.158 A 
BRANCH  15  18
ATOM     18  O   UNL     1      25.373  37.687  12.438  1.00  0.00    -0.504 OA
ATOM     19  H   UNL     1      26.324  37.614  12.099  1.00  0.00     0.293 HD
ENDBRANCH  15  18
BRANCH  17  20
ATOM     20  O   UNL     1      26.195  40.360  12.042  1.00  0.00    -0.504 OA
ATOM     21  H   UNL     1      26.072  39.931  11.131  1.00  0.00     0.293 HD
ENDBRANCH  17  20
ENDBRANCH   1  12
BRANCH   2  22
ATOM     22  O   UNL     1      24.850  40.630  17.906  1.00  0.00    -0.502 OA
ATOM     23  H   UNL     1      24.955  39.751  17.414  1.00  0.00     0.293 HD
ENDBRANCH   2  22
BRANCH   6  24
ATOM     24  O   UNL     1      22.236  44.772  19.999  1.00  0.00    -0.507 OA
ATOM     25  H   UNL     1      21.583  45.263  20.590  1.00  0.00     0.293 HD
ENDBRANCH   6  24
BRANCH   8  26
ATOM     26  O   UNL     1      20.602  46.850  15.989  1.00  0.00    -0.508 OA
ATOM     27  H   UNL     1      19.696  47.151  16.329  1.00  0.00     0.293 HD
ENDBRANCH   8  26
TORSDOF 6
ENDMDL
MODEL 9
REMARK VINA RESULT:    -4.982     12.996     14.700
REMARK INTER + INTRA:          -6.281
REMARK INTER:                  -5.999
REMARK INTRA:                  -0.282
REMARK UNBOUND:                -0.280
REMARK SMILES O=c1c(O)c(-c2ccc(O)c(O)c2)oc2cc(O)cc(O)c12
REMARK SMILES IDX 5 1 3 2 2 3 1 4 22 5 20 6 19 7 17 8 16 9 15 10 14 11 6 12
REMARK SMILES IDX 7 13 8 14 9 15 13 16 11 17 10 18 12 20 4 22 21 24 18 26
REMARK H PARENT 10 19 12 21 4 23 21 25 18 27
REMARK Flexibility Score: inf
ROOT
ATOM      1  C   UNL     1      21.936  39.376  29.486  1.00  0.00     0.180 A 
ATOM      2  C   UNL     1      22.717  40.230  30.285  1.00  0.00     0.208 A 
ATOM      3  C   UNL     1      22.517  41.617  30.197  1.00  0.00     0.238 A 
ATOM      4  O   UNL     1      23.257  42.378  30.873  1.00  0.00    -0.285 OA
ATOM      5  C   UNL     1      21.529  42.132  29.323  1.00  0.00     0.111 A 
ATOM      6  C   UNL     1      21.215  43.517  29.183  1.00  0.00     0.134 A 
ATOM      7  C   UNL     1      20.310  43.923  28.194  1.00  0.00     0.093 A 
ATOM      8  C   UNL     1      19.661  42.988  27.384  1.00  0.00     0.123 A 
ATOM      9  C   UNL     1      19.917  41.630  27.554  1.00  0.00     0.094 A 
ATOM     10  C   UNL     1      20.842  41.196  28.507  1.00  0.00     0.146 A 
ATOM     11  O   UNL     1      21.064  39.893  28.629  1.00  0.00    -0.452 OA
ENDROOT
BRANCH   1  12
ATOM     12  C   UNL     1      22.072  37.903  29.542  1.00  0.00     0.025 A 
ATOM     13  C   UNL     1      21.510  37.198  30.619  1.00  0.00     0.016 A 
ATOM     14  C   UNL     1      21.644  35.810  30.703  1.00  0.00     0.051 A 
ATOM     15  C   UNL     1      22.353  35.107  29.724  1.00  0.00     0.157 A 
ATOM     16  C   UNL     1      22.802  37.196  28.570  1.00  0.00     0.062 A 
ATOM     17  C   UNL     1      22.939  35.804  28.654  1.00  0.00     0.158 A 
BRANCH  15  18
ATOM     18  O   UNL     1      22.468  33.722  29.833  1.00  0.00    -0.504 OA
ATOM     19  H   UNL     1      23.041  33.178  29.200  1.00  0.00     0.293 HD
ENDBRANCH  15  18
BRANCH  17  20
ATOM     20  O   UNL     1      23.660  35.110  27.682  1.00  0.00    -0.504 OA
ATOM     21  H   UNL     1      23.751  35.464  26.736  1.00  0.00     0.293 HD
ENDBRANCH  17  20
ENDBRANCH   1  12
BRANCH   2  22
ATOM     22  O   UNL     1      23.702  39.701  31.124  1.00  0.00    -0.502 OA
ATOM     23  H   UNL     1      24.479  39.155  30.773  1.00  0.00     0.293 HD
ENDBRANCH   2  22
BRANCH   6  24
ATOM     24  O   UNL     1      21.737  44.523  30.002  1.00  0.00    -0.507 OA
ATOM     25  H   UNL     1      21.941  44.416  30.983  1.00  0.00     0.293 HD
ENDBRANCH   6  24
BRANCH   8  26
ATOM     26  O   UNL     1      18.750  43.399  26.413  1.00  0.00    -0.508 OA
ATOM     27  H   UNL     1      17.758  43.462  26.611  1.00  0.00     0.293 HD
ENDBRANCH   8  26
TORSDOF 6
ENDMDL
