MODEL 1
REMARK VINA RESULT:    -3.734      0.000      0.000
REMARK INTER + INTRA:         -11.738
REMARK INTER:                  -9.846
REMARK INTRA:                  -1.892
REMARK UNBOUND:                -1.892
REMARK SMILES CCCCCCCCCCCCCCCCCCCCCCCCCCCCCC(=O)[O-]
REMARK SMILES IDX 16 1 17 2 18 3 19 4 20 5 21 6 22 7 23 8 24 9 25 10 26 11
REMARK SMILES IDX 27 12 28 13 29 14 30 15 31 16 32 17 15 18 14 19 13 20 12 21
REMARK SMILES IDX 11 22 10 23 9 24 8 25 7 26 6 27 5 28 4 29 3 30 2 31 1 32
REMARK H PARENT
REMARK Flexibility Score: inf
ROOT
ATOM      1  C   UNL     1      -5.735  17.012  -6.481  1.00  0.00     0.000 C 
ENDROOT
BRANCH   1   2
ATOM      2  C   UNL     1      -5.581  16.825  -8.002  1.00  0.00     0.000 C 
BRANCH   2   3
ATOM      3  C   UNL     1      -6.931  16.641  -8.717  1.00  0.00     0.000 C 
BRANCH   3   4
ATOM      4  C   UNL     1      -6.942  17.204 -10.149  1.00  0.00     0.000 C 
BRANCH   4   5
ATOM      5  C   UNL     1      -5.938  18.340 -10.422  1.00  0.00     0.000 C 
BRANCH   5   6
ATOM      6  C   UNL     1      -5.076  18.098 -11.672  1.00  0.00     0.000 C 
BRANCH   6   7
ATOM      7  C   UNL     1      -5.394  19.076 -12.819  1.00  0.00     0.000 C 
BRANCH   7   8
ATOM      8  C   UNL     1      -6.656  19.944 -12.620  1.00  0.00     0.000 C 
BRANCH   8   9
ATOM      9  C   UNL     1      -7.019  20.860 -13.804  1.00  0.00     0.000 C 
BRANCH   9  10
ATOM     10  C   UNL     1      -8.122  20.267 -14.698  1.00  0.00     0.000 C 
BRANCH  10  11
ATOM     11  C   UNL     1      -8.813  19.045 -14.072  1.00  0.00     0.000 C 
BRANCH  11  12
ATOM     12  C   UNL     1     -10.353  19.135 -14.072  1.00  0.00     0.000 C 
BRANCH  12  13
ATOM     13  C   UNL     1     -10.903  19.558 -12.702  1.00  0.00     0.006 C 
BRANCH  13  14
ATOM     14  C   UNL     1     -10.237  18.772 -11.570  1.00  0.00     0.053 C 
BRANCH  14  15
ATOM     15  C   UNL     1     -10.946  17.472 -11.352  1.00  0.00     0.041 C 
ATOM     16  O   UNL     1     -12.128  17.318 -11.761  1.00  0.00    -0.550 OA
ATOM     17  O   UNL     1     -10.290  16.418 -10.727  1.00  0.00    -0.550 OA
ENDBRANCH  14  15
ENDBRANCH  13  14
ENDBRANCH  12  13
ENDBRANCH  11  12
ENDBRANCH  10  11
ENDBRANCH   9  10
ENDBRANCH   8   9
ENDBRANCH   7   8
ENDBRANCH   6   7
ENDBRANCH   5   6
ENDBRANCH   4   5
ENDBRANCH   3   4
ENDBRANCH   2   3
ENDBRANCH   1   2
BRANCH   1  18
ATOM     18  C   UNL     1      -4.508  16.603  -5.647  1.00  0.00     0.000 C 
BRANCH  18  19
ATOM     19  C   UNL     1      -4.116  17.663  -4.602  1.00  0.00     0.000 C 
BRANCH  19  20
ATOM     20  C   UNL     1      -3.875  19.054  -5.226  1.00  0.00     0.000 C 
BRANCH  20  21
ATOM     21  C   UNL     1      -4.626  20.201  -4.522  1.00  0.00     0.000 C 
BRANCH  21  22
ATOM     22  C   UNL     1      -4.006  20.684  -3.196  1.00  0.00     0.000 C 
BRANCH  22  23
ATOM     23  C   UNL     1      -4.120  19.689  -2.025  1.00  0.00     0.000 C 
BRANCH  23  24
ATOM     24  C   UNL     1      -4.215  20.393  -0.661  1.00  0.00    -0.000 C 
BRANCH  24  25
ATOM     25  C   UNL     1      -4.538  19.428   0.493  1.00  0.00    -0.000 C 
BRANCH  25  26
ATOM     26  C   UNL     1      -5.692  19.866   1.419  1.00  0.00    -0.000 C 
BRANCH  26  27
ATOM     27  C   UNL     1      -5.409  19.737   2.926  1.00  0.00    -0.000 C 
BRANCH  27  28
ATOM     28  C   UNL     1      -6.326  18.720   3.626  1.00  0.00    -0.000 C 
BRANCH  28  29
ATOM     29  C   UNL     1      -5.685  18.145   4.899  1.00  0.00    -0.000 C 
BRANCH  29  30
ATOM     30  C   UNL     1      -4.250  17.647   4.656  1.00  0.00    -0.000 C 
BRANCH  30  31
ATOM     31  C   UNL     1      -4.214  16.358   3.820  1.00  0.00    -0.003 C 
ATOM     32  C   UNL     1      -4.750  15.146   4.584  1.00  0.00     0.004 C 
ENDBRANCH  30  31
ENDBRANCH  29  30
ENDBRANCH  28  29
ENDBRANCH  27  28
ENDBRANCH  26  27
ENDBRANCH  25  26
ENDBRANCH  24  25
ENDBRANCH  23  24
ENDBRANCH  22  23
ENDBRANCH  21  22
ENDBRANCH  20  21
ENDBRANCH  19  20
ENDBRANCH  18  19
ENDBRANCH   1  18
TORSDOF 28
ENDMDL
MODEL 2
REMARK VINA RESULT:    -3.479      1.345      2.269
REMARK INTER + INTRA:         -11.066
REMARK INTER:                  -8.894
REMARK INTRA:                  -2.172
REMARK UNBOUND:                -1.892
REMARK SMILES CCCCCCCCCCCCCCCCCCCCCCCCCCCCCC(=O)[O-]
REMARK SMILES IDX 16 1 17 2 18 3 19 4 20 5 21 6 22 7 23 8 24 9 25 10 26 11
REMARK SMILES IDX 27 12 28 13 29 14 30 15 31 16 32 17 15 18 14 19 13 20 12 21
REMARK SMILES IDX 11 22 10 23 9 24 8 25 7 26 6 27 5 28 4 29 3 30 2 31 1 32
REMARK H PARENT
REMARK Flexibility Score: inf
ROOT
ATOM      1  C   UNL     1      -5.325  16.783  -7.541  1.00  0.00     0.000 C 
ENDROOT
BRANCH   1   2
ATOM      2  C   UNL     1      -4.280  16.332  -8.579  1.00  0.00     0.000 C 
BRANCH   2   3
ATOM      3  C   UNL     1      -4.910  15.962  -9.933  1.00  0.00     0.000 C 
BRANCH   3   4
ATOM      4  C   UNL     1      -4.361  16.793 -11.106  1.00  0.00     0.000 C 
BRANCH   4   5
ATOM      5  C   UNL     1      -4.964  18.201 -11.261  1.00  0.00     0.000 C 
BRANCH   5   6
ATOM      6  C   UNL     1      -4.361  18.992 -12.434  1.00  0.00     0.000 C 
BRANCH   6   7
ATOM      7  C   UNL     1      -4.226  18.152 -13.718  1.00  0.00     0.000 C 
BRANCH   7   8
ATOM      8  C   UNL     1      -5.268  18.450 -14.819  1.00  0.00     0.000 C 
BRANCH   8   9
ATOM      9  C   UNL     1      -6.319  19.516 -14.459  1.00  0.00     0.000 C 
BRANCH   9  10
ATOM     10  C   UNL     1      -7.751  19.084 -14.818  1.00  0.00     0.000 C 
BRANCH  10  11
ATOM     11  C   UNL     1      -8.747  19.277 -13.662  1.00  0.00     0.000 C 
BRANCH  11  12
ATOM     12  C   UNL     1      -8.073  19.413 -12.281  1.00  0.00     0.000 C 
BRANCH  12  13
ATOM     13  C   UNL     1      -8.637  18.406 -11.268  1.00  0.00     0.006 C 
BRANCH  13  14
ATOM     14  C   UNL     1     -10.064  18.774 -10.855  1.00  0.00     0.053 C 
BRANCH  14  15
ATOM     15  C   UNL     1     -11.056  18.104 -11.753  1.00  0.00     0.041 C 
ATOM     16  O   UNL     1     -11.887  18.792 -12.406  1.00  0.00    -0.550 OA
ATOM     17  O   UNL     1     -11.043  16.721 -11.896  1.00  0.00    -0.550 OA
ENDBRANCH  14  15
ENDBRANCH  13  14
ENDBRANCH  12  13
ENDBRANCH  11  12
ENDBRANCH  10  11
ENDBRANCH   9  10
ENDBRANCH   8   9
ENDBRANCH   7   8
ENDBRANCH   6   7
ENDBRANCH   5   6
ENDBRANCH   4   5
ENDBRANCH   3   4
ENDBRANCH   2   3
ENDBRANCH   1   2
BRANCH   1  18
ATOM     18  C   UNL     1      -6.413  17.728  -8.082  1.00  0.00     0.000 C 
BRANCH  18  19
ATOM     19  C   UNL     1      -6.119  19.209  -7.782  1.00  0.00     0.000 C 
BRANCH  19  20
ATOM     20  C   UNL     1      -4.711  19.429  -7.188  1.00  0.00     0.000 C 
BRANCH  20  21
ATOM     21  C   UNL     1      -4.689  19.586  -5.656  1.00  0.00     0.000 C 
BRANCH  21  22
ATOM     22  C   UNL     1      -4.323  20.990  -5.137  1.00  0.00     0.000 C 
BRANCH  22  23
ATOM     23  C   UNL     1      -4.141  21.093  -3.610  1.00  0.00     0.000 C 
BRANCH  23  24
ATOM     24  C   UNL     1      -4.486  19.782  -2.886  1.00  0.00    -0.000 C 
BRANCH  24  25
ATOM     25  C   UNL     1      -4.025  19.766  -1.418  1.00  0.00    -0.000 C 
BRANCH  25  26
ATOM     26  C   UNL     1      -5.147  19.593  -0.374  1.00  0.00    -0.000 C 
BRANCH  26  27
ATOM     27  C   UNL     1      -5.243  20.712   0.679  1.00  0.00    -0.000 C 
BRANCH  27  28
ATOM     28  C   UNL     1      -4.119  20.650   1.727  1.00  0.00    -0.000 C 
BRANCH  28  29
ATOM     29  C   UNL     1      -4.632  20.179   3.097  1.00  0.00    -0.000 C 
BRANCH  29  30
ATOM     30  C   UNL     1      -5.986  19.457   2.996  1.00  0.00    -0.000 C 
BRANCH  30  31
ATOM     31  C   UNL     1      -6.135  18.346   4.047  1.00  0.00    -0.003 C 
ATOM     32  C   UNL     1      -4.851  17.534   4.230  1.00  0.00     0.004 C 
ENDBRANCH  30  31
ENDBRANCH  29  30
ENDBRANCH  28  29
ENDBRANCH  27  28
ENDBRANCH  26  27
ENDBRANCH  25  26
ENDBRANCH  24  25
ENDBRANCH  23  24
ENDBRANCH  22  23
ENDBRANCH  21  22
ENDBRANCH  20  21
ENDBRANCH  19  20
ENDBRANCH  18  19
ENDBRANCH   1  18
TORSDOF 28
ENDMDL
MODEL 3
REMARK VINA RESULT:    -3.448      4.405     13.592
REMARK INTER + INTRA:         -10.984
REMARK INTER:                  -8.666
REMARK INTRA:                  -2.318
REMARK UNBOUND:                -1.892
REMARK SMILES CCCCCCCCCCCCCCCCCCCCCCCCCCCCCC(=O)[O-]
REMARK SMILES IDX 16 1 17 2 18 3 19 4 20 5 21 6 22 7 23 8 24 9 25 10 26 11
REMARK SMILES IDX 27 12 28 13 29 14 30 15 31 16 32 17 15 18 14 19 13 20 12 21
REMARK SMILES IDX 11 22 10 23 9 24 8 25 7 26 6 27 5 28 4 29 3 30 2 31 1 32
REMARK H PARENT
REMARK Flexibility Score: inf
ROOT
ATOM      1  C   UNL     1      -7.097  17.015  -9.939  1.00  0.00     0.000 C 
ENDROOT
BRANCH   1   2
ATOM      2  C   UNL     1      -6.310  16.785  -8.635  1.00  0.00     0.000 C 
BRANCH   2   3
ATOM      3  C   UNL     1      -6.484  17.936  -7.627  1.00  0.00     0.000 C 
BRANCH   3   4
ATOM      4  C   UNL     1      -5.185  18.719  -7.370  1.00  0.00     0.000 C 
BRANCH   4   5
ATOM      5  C   UNL     1      -5.349  20.038  -6.592  1.00  0.00     0.000 C 
BRANCH   5   6
ATOM      6  C   UNL     1      -4.155  20.351  -5.674  1.00  0.00     0.000 C 
BRANCH   6   7
ATOM      7  C   UNL     1      -4.234  19.626  -4.318  1.00  0.00     0.000 C 
BRANCH   7   8
ATOM      8  C   UNL     1      -4.603  20.515  -3.110  1.00  0.00     0.000 C 
BRANCH   8   9
ATOM      9  C   UNL     1      -4.137  19.990  -1.739  1.00  0.00     0.000 C 
BRANCH   9  10
ATOM     10  C   UNL     1      -5.308  19.586  -0.827  1.00  0.00     0.000 C 
BRANCH  10  11
ATOM     11  C   UNL     1      -5.161  20.109   0.611  1.00  0.00     0.000 C 
BRANCH  11  12
ATOM     12  C   UNL     1      -4.285  19.211   1.509  1.00  0.00     0.000 C 
BRANCH  12  13
ATOM     13  C   UNL     1      -4.850  19.099   2.932  1.00  0.00     0.006 C 
BRANCH  13  14
ATOM     14  C   UNL     1      -6.340  19.451   2.967  1.00  0.00     0.053 C 
BRANCH  14  15
ATOM     15  C   UNL     1      -6.645  20.307   4.156  1.00  0.00     0.041 C 
ATOM     16  O   UNL     1      -7.825  20.696   4.371  1.00  0.00    -0.550 OA
ATOM     17  O   UNL     1      -5.633  20.649   5.045  1.00  0.00    -0.550 OA
ENDBRANCH  14  15
ENDBRANCH  13  14
ENDBRANCH  12  13
ENDBRANCH  11  12
ENDBRANCH  10  11
ENDBRANCH   9  10
ENDBRANCH   8   9
ENDBRANCH   7   8
ENDBRANCH   6   7
ENDBRANCH   5   6
ENDBRANCH   4   5
ENDBRANCH   3   4
ENDBRANCH   2   3
ENDBRANCH   1   2
BRANCH   1  18
ATOM     18  C   UNL     1      -8.586  16.632  -9.877  1.00  0.00     0.000 C 
BRANCH  18  19
ATOM     19  C   UNL     1      -9.386  17.146 -11.087  1.00  0.00     0.000 C 
BRANCH  19  20
ATOM     20  C   UNL     1      -9.628  18.670 -11.037  1.00  0.00     0.000 C 
BRANCH  20  21
ATOM     21  C   UNL     1     -11.086  19.087 -11.310  1.00  0.00     0.000 C 
BRANCH  21  22
ATOM     22  C   UNL     1     -11.375  20.598 -11.208  1.00  0.00     0.000 C 
BRANCH  22  23
ATOM     23  C   UNL     1     -12.441  21.125 -12.188  1.00  0.00     0.000 C 
BRANCH  23  24
ATOM     24  C   UNL     1     -13.034  20.012 -13.067  1.00  0.00    -0.000 C 
BRANCH  24  25
ATOM     25  C   UNL     1     -12.342  19.893 -14.436  1.00  0.00    -0.000 C 
BRANCH  25  26
ATOM     26  C   UNL     1     -11.519  21.122 -14.870  1.00  0.00    -0.000 C 
BRANCH  26  27
ATOM     27  C   UNL     1     -10.007  20.877 -15.030  1.00  0.00    -0.000 C 
BRANCH  27  28
ATOM     28  C   UNL     1      -9.599  19.423 -14.737  1.00  0.00    -0.000 C 
BRANCH  28  29
ATOM     29  C   UNL     1      -8.088  19.202 -14.905  1.00  0.00    -0.000 C 
BRANCH  29  30
ATOM     30  C   UNL     1      -7.304  19.531 -13.622  1.00  0.00    -0.000 C 
BRANCH  30  31
ATOM     31  C   UNL     1      -5.804  19.231 -13.762  1.00  0.00    -0.003 C 
ATOM     32  C   UNL     1      -5.202  18.636 -12.487  1.00  0.00     0.004 C 
ENDBRANCH  30  31
ENDBRANCH  29  30
ENDBRANCH  28  29
ENDBRANCH  27  28
ENDBRANCH  26  27
ENDBRANCH  25  26
ENDBRANCH  24  25
ENDBRANCH  23  24
ENDBRANCH  22  23
ENDBRANCH  21  22
ENDBRANCH  20  21
ENDBRANCH  19  20
ENDBRANCH  18  19
ENDBRANCH   1  18
TORSDOF 28
ENDMDL
MODEL 4
REMARK VINA RESULT:    -3.109      4.601      9.922
REMARK INTER + INTRA:         -10.091
REMARK INTER:                  -6.246
REMARK INTRA:                  -3.845
REMARK UNBOUND:                -1.892
REMARK SMILES CCCCCCCCCCCCCCCCCCCCCCCCCCCCCC(=O)[O-]
REMARK SMILES IDX 16 1 17 2 18 3 19 4 20 5 21 6 22 7 23 8 24 9 25 10 26 11
REMARK SMILES IDX 27 12 28 13 29 14 30 15 31 16 32 17 15 18 14 19 13 20 12 21
REMARK SMILES IDX 11 22 10 23 9 24 8 25 7 26 6 27 5 28 4 29 3 30 2 31 1 32
REMARK H PARENT
REMARK Flexibility Score: inf
ROOT
ATOM      1  C   UNL     1     -10.599  16.678 -12.573  1.00  0.00     0.000 C 
ENDROOT
BRANCH   1   2
ATOM      2  C   UNL     1     -10.361  16.395 -11.077  1.00  0.00     0.000 C 
BRANCH   2   3
ATOM      3  C   UNL     1      -8.923  16.714 -10.634  1.00  0.00     0.000 C 
BRANCH   3   4
ATOM      4  C   UNL     1      -8.823  17.977  -9.761  1.00  0.00     0.000 C 
BRANCH   4   5
ATOM      5  C   UNL     1      -8.882  19.315 -10.520  1.00  0.00     0.000 C 
BRANCH   5   6
ATOM      6  C   UNL     1      -9.083  20.527  -9.596  1.00  0.00     0.000 C 
BRANCH   6   7
ATOM      7  C   UNL     1      -7.778  20.990  -8.920  1.00  0.00     0.000 C 
BRANCH   7   8
ATOM      8  C   UNL     1      -6.567  20.049  -9.101  1.00  0.00     0.000 C 
BRANCH   8   9
ATOM      9  C   UNL     1      -5.319  20.694  -9.731  1.00  0.00     0.000 C 
BRANCH   9  10
ATOM     10  C   UNL     1      -4.022  20.332  -8.987  1.00  0.00     0.000 C 
BRANCH  10  11
ATOM     11  C   UNL     1      -3.877  21.058  -7.641  1.00  0.00     0.000 C 
BRANCH  11  12
ATOM     12  C   UNL     1      -4.794  20.500  -6.533  1.00  0.00     0.000 C 
BRANCH  12  13
ATOM     13  C   UNL     1      -4.330  20.931  -5.134  1.00  0.00     0.006 C 
BRANCH  13  14
ATOM     14  C   UNL     1      -5.511  21.031  -4.165  1.00  0.00     0.053 C 
BRANCH  14  15
ATOM     15  C   UNL     1      -5.141  20.460  -2.832  1.00  0.00     0.041 C 
ATOM     16  O   UNL     1      -5.513  21.030  -1.772  1.00  0.00    -0.550 OA
ATOM     17  O   UNL     1      -4.410  19.279  -2.760  1.00  0.00    -0.550 OA
ENDBRANCH  14  15
ENDBRANCH  13  14
ENDBRANCH  12  13
ENDBRANCH  11  12
ENDBRANCH  10  11
ENDBRANCH   9  10
ENDBRANCH   8   9
ENDBRANCH   7   8
ENDBRANCH   6   7
ENDBRANCH   5   6
ENDBRANCH   4   5
ENDBRANCH   3   4
ENDBRANCH   2   3
ENDBRANCH   1   2
BRANCH   1  18
ATOM     18  C   UNL     1     -11.044  18.114 -12.900  1.00  0.00     0.000 C 
BRANCH  18  19
ATOM     19  C   UNL     1     -10.206  18.758 -14.020  1.00  0.00     0.000 C 
BRANCH  19  20
ATOM     20  C   UNL     1      -9.958  20.264 -13.787  1.00  0.00     0.000 C 
BRANCH  20  21
ATOM     21  C   UNL     1      -8.497  20.618 -13.447  1.00  0.00     0.000 C 
BRANCH  21  22
ATOM     22  C   UNL     1      -7.427  19.729 -14.109  1.00  0.00     0.000 C 
BRANCH  22  23
ATOM     23  C   UNL     1      -6.573  18.899 -13.131  1.00  0.00     0.000 C 
BRANCH  23  24
ATOM     24  C   UNL     1      -5.101  19.341 -13.113  1.00  0.00    -0.000 C 
BRANCH  24  25
ATOM     25  C   UNL     1      -4.230  18.496 -12.167  1.00  0.00    -0.000 C 
BRANCH  25  26
ATOM     26  C   UNL     1      -4.366  16.969 -12.331  1.00  0.00    -0.000 C 
BRANCH  26  27
ATOM     27  C   UNL     1      -4.230  16.155 -11.031  1.00  0.00    -0.000 C 
BRANCH  27  28
ATOM     28  C   UNL     1      -4.678  16.935  -9.783  1.00  0.00    -0.000 C 
BRANCH  28  29
ATOM     29  C   UNL     1      -5.869  16.264  -9.080  1.00  0.00    -0.000 C 
BRANCH  29  30
ATOM     30  C   UNL     1      -5.894  16.556  -7.569  1.00  0.00    -0.000 C 
BRANCH  30  31
ATOM     31  C   UNL     1      -4.504  16.918  -7.022  1.00  0.00    -0.003 C 
ATOM     32  C   UNL     1      -4.496  17.083  -5.501  1.00  0.00     0.004 C 
ENDBRANCH  30  31
ENDBRANCH  29  30
ENDBRANCH  28  29
ENDBRANCH  27  28
ENDBRANCH  26  27
ENDBRANCH  25  26
ENDBRANCH  24  25
ENDBRANCH  23  24
ENDBRANCH  22  23
ENDBRANCH  21  22
ENDBRANCH  20  21
ENDBRANCH  19  20
ENDBRANCH  18  19
ENDBRANCH   1  18
TORSDOF 28
ENDMDL
MODEL 5
REMARK VINA RESULT:    -3.095      4.944     10.819
REMARK INTER + INTRA:         -10.053
REMARK INTER:                  -7.703
REMARK INTRA:                  -2.350
REMARK UNBOUND:                -1.892
REMARK SMILES CCCCCCCCCCCCCCCCCCCCCCCCCCCCCC(=O)[O-]
REMARK SMILES IDX 16 1 17 2 18 3 19 4 20 5 21 6 22 7 23 8 24 9 25 10 26 11
REMARK SMILES IDX 27 12 28 13 29 14 30 15 31 16 32 17 15 18 14 19 13 20 12 21
REMARK SMILES IDX 11 22 10 23 9 24 8 25 7 26 6 27 5 28 4 29 3 30 2 31 1 32
REMARK H PARENT
REMARK Flexibility Score: inf
ROOT
ATOM      1  C   UNL     1      -6.851  16.667  -7.945  1.00  0.00     0.000 C 
ENDROOT
BRANCH   1   2
ATOM      2  C   UNL     1      -6.519  16.891  -6.457  1.00  0.00     0.000 C 
BRANCH   2   3
ATOM      3  C   UNL     1      -5.049  16.579  -6.124  1.00  0.00     0.000 C 
BRANCH   3   4
ATOM      4  C   UNL     1      -4.056  17.196  -7.124  1.00  0.00     0.000 C 
BRANCH   4   5
ATOM      5  C   UNL     1      -3.939  18.731  -7.080  1.00  0.00     0.000 C 
BRANCH   5   6
ATOM      6  C   UNL     1      -4.430  19.338  -5.754  1.00  0.00     0.000 C 
BRANCH   6   7
ATOM      7  C   UNL     1      -5.329  20.573  -5.956  1.00  0.00     0.000 C 
BRANCH   7   8
ATOM      8  C   UNL     1      -5.631  20.941  -7.425  1.00  0.00     0.000 C 
BRANCH   8   9
ATOM      9  C   UNL     1      -7.120  20.919  -7.816  1.00  0.00     0.000 C 
BRANCH   9  10
ATOM     10  C   UNL     1      -7.339  20.602  -9.306  1.00  0.00     0.000 C 
BRANCH  10  11
ATOM     11  C   UNL     1      -8.792  20.816  -9.760  1.00  0.00     0.000 C 
BRANCH  11  12
ATOM     12  C   UNL     1      -8.990  20.687 -11.285  1.00  0.00     0.000 C 
BRANCH  12  13
ATOM     13  C   UNL     1      -9.394  19.262 -11.692  1.00  0.00     0.006 C 
BRANCH  13  14
ATOM     14  C   UNL     1     -10.623  18.790 -10.911  1.00  0.00     0.053 C 
BRANCH  14  15
ATOM     15  C   UNL     1     -10.980  17.389 -11.300  1.00  0.00     0.041 C 
ATOM     16  O   UNL     1     -11.869  17.179 -12.169  1.00  0.00    -0.550 OA
ATOM     17  O   UNL     1     -10.308  16.315 -10.727  1.00  0.00    -0.550 OA
ENDBRANCH  14  15
ENDBRANCH  13  14
ENDBRANCH  12  13
ENDBRANCH  11  12
ENDBRANCH  10  11
ENDBRANCH   9  10
ENDBRANCH   8   9
ENDBRANCH   7   8
ENDBRANCH   6   7
ENDBRANCH   5   6
ENDBRANCH   4   5
ENDBRANCH   3   4
ENDBRANCH   2   3
ENDBRANCH   1   2
BRANCH   1  18
ATOM     18  C   UNL     1      -6.081  17.569  -8.926  1.00  0.00     0.000 C 
BRANCH  18  19
ATOM     19  C   UNL     1      -6.045  17.000 -10.356  1.00  0.00     0.000 C 
BRANCH  19  20
ATOM     20  C   UNL     1      -4.622  16.598 -10.802  1.00  0.00     0.000 C 
BRANCH  20  21
ATOM     21  C   UNL     1      -3.881  17.685 -11.604  1.00  0.00     0.000 C 
BRANCH  21  22
ATOM     22  C   UNL     1      -4.743  18.880 -12.057  1.00  0.00     0.000 C 
BRANCH  22  23
ATOM     23  C   UNL     1      -5.757  18.565 -13.174  1.00  0.00     0.000 C 
BRANCH  23  24
ATOM     24  C   UNL     1      -5.550  19.440 -14.421  1.00  0.00    -0.000 C 
BRANCH  24  25
ATOM     25  C   UNL     1      -6.152  20.849 -14.275  1.00  0.00    -0.000 C 
BRANCH  25  26
ATOM     26  C   UNL     1      -7.409  21.122 -15.125  1.00  0.00    -0.000 C 
BRANCH  26  27
ATOM     27  C   UNL     1      -8.643  20.277 -14.762  1.00  0.00    -0.000 C 
BRANCH  27  28
ATOM     28  C   UNL     1      -9.971  21.007 -15.027  1.00  0.00    -0.000 C 
BRANCH  28  29
ATOM     29  C   UNL     1     -11.185  20.080 -14.850  1.00  0.00    -0.000 C 
BRANCH  29  30
ATOM     30  C   UNL     1     -12.259  20.694 -13.936  1.00  0.00    -0.000 C 
BRANCH  30  31
ATOM     31  C   UNL     1     -13.426  19.728 -13.678  1.00  0.00    -0.003 C 
ATOM     32  C   UNL     1     -14.386  19.634 -14.866  1.00  0.00     0.004 C 
ENDBRANCH  30  31
ENDBRANCH  29  30
ENDBRANCH  28  29
ENDBRANCH  27  28
ENDBRANCH  26  27
ENDBRANCH  25  26
ENDBRANCH  24  25
ENDBRANCH  23  24
ENDBRANCH  22  23
ENDBRANCH  21  22
ENDBRANCH  20  21
ENDBRANCH  19  20
ENDBRANCH  18  19
ENDBRANCH   1  18
TORSDOF 28
ENDMDL
MODEL 6
REMARK VINA RESULT:    -2.985      1.458      2.086
REMARK INTER + INTRA:          -9.762
REMARK INTER:                  -8.227
REMARK INTRA:                  -1.535
REMARK UNBOUND:                -1.892
REMARK SMILES CCCCCCCCCCCCCCCCCCCCCCCCCCCCCC(=O)[O-]
REMARK SMILES IDX 16 1 17 2 18 3 19 4 20 5 21 6 22 7 23 8 24 9 25 10 26 11
REMARK SMILES IDX 27 12 28 13 29 14 30 15 31 16 32 17 15 18 14 19 13 20 12 21
REMARK SMILES IDX 11 22 10 23 9 24 8 25 7 26 6 27 5 28 4 29 3 30 2 31 1 32
REMARK H PARENT
REMARK Flexibility Score: inf
ROOT
ATOM      1  C   UNL     1      -6.369  16.901  -8.006  1.00  0.00     0.000 C 
ENDROOT
BRANCH   1   2
ATOM      2  C   UNL     1      -5.552  16.382  -9.204  1.00  0.00     0.000 C 
BRANCH   2   3
ATOM      3  C   UNL     1      -4.293  17.226  -9.474  1.00  0.00     0.000 C 
BRANCH   3   4
ATOM      4  C   UNL     1      -4.437  18.160 -10.688  1.00  0.00     0.000 C 
BRANCH   4   5
ATOM      5  C   UNL     1      -4.247  17.494 -12.063  1.00  0.00     0.000 C 
BRANCH   5   6
ATOM      6  C   UNL     1      -4.660  18.398 -13.236  1.00  0.00     0.000 C 
BRANCH   6   7
ATOM      7  C   UNL     1      -4.013  19.795 -13.175  1.00  0.00     0.000 C 
BRANCH   7   8
ATOM      8  C   UNL     1      -4.990  20.985 -13.297  1.00  0.00     0.000 C 
BRANCH   8   9
ATOM      9  C   UNL     1      -6.446  20.685 -12.896  1.00  0.00     0.000 C 
BRANCH   9  10
ATOM     10  C   UNL     1      -7.276  20.110 -14.057  1.00  0.00     0.000 C 
BRANCH  10  11
ATOM     11  C   UNL     1      -8.444  19.230 -13.584  1.00  0.00     0.000 C 
BRANCH  11  12
ATOM     12  C   UNL     1      -8.332  18.791 -12.110  1.00  0.00     0.000 C 
BRANCH  12  13
ATOM     13  C   UNL     1      -9.600  18.071 -11.628  1.00  0.00     0.006 C 
BRANCH  13  14
ATOM     14  C   UNL     1     -10.847  18.612 -12.332  1.00  0.00     0.053 C 
BRANCH  14  15
ATOM     15  C   UNL     1     -11.442  19.738 -11.546  1.00  0.00     0.041 C 
ATOM     16  O   UNL     1     -10.906  20.112 -10.468  1.00  0.00    -0.550 OA
ATOM     17  O   UNL     1     -12.572  20.396 -12.018  1.00  0.00    -0.550 OA
ENDBRANCH  14  15
ENDBRANCH  13  14
ENDBRANCH  12  13
ENDBRANCH  11  12
ENDBRANCH  10  11
ENDBRANCH   9  10
ENDBRANCH   8   9
ENDBRANCH   7   8
ENDBRANCH   6   7
ENDBRANCH   5   6
ENDBRANCH   4   5
ENDBRANCH   3   4
ENDBRANCH   2   3
ENDBRANCH   1   2
BRANCH   1  18
ATOM     18  C   UNL     1      -5.568  17.090  -6.705  1.00  0.00     0.000 C 
BRANCH  18  19
ATOM     19  C   UNL     1      -4.867  18.459  -6.630  1.00  0.00     0.000 C 
BRANCH  19  20
ATOM     20  C   UNL     1      -3.933  18.583  -5.407  1.00  0.00     0.000 C 
BRANCH  20  21
ATOM     21  C   UNL     1      -4.365  17.737  -4.194  1.00  0.00     0.000 C 
BRANCH  21  22
ATOM     22  C   UNL     1      -3.875  18.242  -2.823  1.00  0.00     0.000 C 
BRANCH  22  23
ATOM     23  C   UNL     1      -4.805  19.260  -2.135  1.00  0.00     0.000 C 
BRANCH  23  24
ATOM     24  C   UNL     1      -4.030  20.415  -1.479  1.00  0.00    -0.000 C 
BRANCH  24  25
ATOM     25  C   UNL     1      -4.829  21.122  -0.370  1.00  0.00    -0.000 C 
BRANCH  25  26
ATOM     26  C   UNL     1      -4.180  21.102   1.029  1.00  0.00    -0.000 C 
BRANCH  26  27
ATOM     27  C   UNL     1      -3.886  19.701   1.596  1.00  0.00    -0.000 C 
BRANCH  27  28
ATOM     28  C   UNL     1      -4.146  19.597   3.109  1.00  0.00    -0.000 C 
BRANCH  28  29
ATOM     29  C   UNL     1      -4.099  18.143   3.604  1.00  0.00    -0.000 C 
BRANCH  29  30
ATOM     30  C   UNL     1      -5.382  17.741   4.352  1.00  0.00    -0.000 C 
BRANCH  30  31
ATOM     31  C   UNL     1      -5.252  16.370   5.036  1.00  0.00    -0.003 C 
ATOM     32  C   UNL     1      -4.494  15.355   4.179  1.00  0.00     0.004 C 
ENDBRANCH  30  31
ENDBRANCH  29  30
ENDBRANCH  28  29
ENDBRANCH  27  28
ENDBRANCH  26  27
ENDBRANCH  25  26
ENDBRANCH  24  25
ENDBRANCH  23  24
ENDBRANCH  22  23
ENDBRANCH  21  22
ENDBRANCH  20  21
ENDBRANCH  19  20
ENDBRANCH  18  19
ENDBRANCH   1  18
TORSDOF 28
ENDMDL
MODEL 7
REMARK VINA RESULT:    -2.904      5.176     10.912
REMARK INTER + INTRA:          -9.548
REMARK INTER:                  -6.993
REMARK INTRA:                  -2.556
REMARK UNBOUND:                -1.892
REMARK SMILES CCCCCCCCCCCCCCCCCCCCCCCCCCCCCC(=O)[O-]
REMARK SMILES IDX 16 1 17 2 18 3 19 4 20 5 21 6 22 7 23 8 24 9 25 10 26 11
REMARK SMILES IDX 27 12 28 13 29 14 30 15 31 16 32 17 15 18 14 19 13 20 12 21
REMARK SMILES IDX 11 22 10 23 9 24 8 25 7 26 6 27 5 28 4 29 3 30 2 31 1 32
REMARK H PARENT
REMARK Flexibility Score: inf
ROOT
ATOM      1  C   UNL     1      -7.964  16.641  -9.034  1.00  0.00     0.000 C 
ENDROOT
BRANCH   1   2
ATOM      2  C   UNL     1      -6.553  16.041  -9.183  1.00  0.00     0.000 C 
BRANCH   2   3
ATOM      3  C   UNL     1      -5.495  16.801  -8.363  1.00  0.00     0.000 C 
BRANCH   3   4
ATOM      4  C   UNL     1      -5.713  16.694  -6.843  1.00  0.00     0.000 C 
BRANCH   4   5
ATOM      5  C   UNL     1      -4.506  17.087  -5.972  1.00  0.00     0.000 C 
BRANCH   5   6
ATOM      6  C   UNL     1      -4.574  18.536  -5.461  1.00  0.00     0.000 C 
BRANCH   6   7
ATOM      7  C   UNL     1      -4.635  19.571  -6.600  1.00  0.00     0.000 C 
BRANCH   7   8
ATOM      8  C   UNL     1      -6.049  19.883  -7.138  1.00  0.00     0.000 C 
BRANCH   8   9
ATOM      9  C   UNL     1      -6.092  20.710  -8.436  1.00  0.00     0.000 C 
BRANCH   9  10
ATOM     10  C   UNL     1      -4.693  21.125  -8.924  1.00  0.00     0.000 C 
BRANCH  10  11
ATOM     11  C   UNL     1      -4.501  20.935 -10.437  1.00  0.00     0.000 C 
BRANCH  11  12
ATOM     12  C   UNL     1      -4.204  19.477 -10.845  1.00  0.00     0.000 C 
BRANCH  12  13
ATOM     13  C   UNL     1      -4.028  19.331 -12.364  1.00  0.00     0.006 C 
BRANCH  13  14
ATOM     14  C   UNL     1      -4.921  18.220 -12.922  1.00  0.00     0.053 C 
BRANCH  14  15
ATOM     15  C   UNL     1      -4.819  18.171 -14.414  1.00  0.00     0.041 C 
ATOM     16  O   UNL     1      -5.118  19.183 -15.104  1.00  0.00    -0.550 OA
ATOM     17  O   UNL     1      -4.364  17.018 -15.043  1.00  0.00    -0.550 OA
ENDBRANCH  14  15
ENDBRANCH  13  14
ENDBRANCH  12  13
ENDBRANCH  11  12
ENDBRANCH  10  11
ENDBRANCH   9  10
ENDBRANCH   8   9
ENDBRANCH   7   8
ENDBRANCH   6   7
ENDBRANCH   5   6
ENDBRANCH   4   5
ENDBRANCH   3   4
ENDBRANCH   2   3
ENDBRANCH   1   2
BRANCH   1  18
ATOM     18  C   UNL     1      -8.477  17.408 -10.266  1.00  0.00     0.000 C 
BRANCH  18  19
ATOM     19  C   UNL     1      -9.841  16.896 -10.762  1.00  0.00     0.000 C 
BRANCH  19  20
ATOM     20  C   UNL     1     -10.439  17.779 -11.879  1.00  0.00     0.000 C 
BRANCH  20  21
ATOM     21  C   UNL     1     -11.840  17.341 -12.348  1.00  0.00     0.000 C 
BRANCH  21  22
ATOM     22  C   UNL     1     -12.274  17.874 -13.728  1.00  0.00     0.000 C 
BRANCH  22  23
ATOM     23  C   UNL     1     -13.416  18.909 -13.696  1.00  0.00     0.000 C 
BRANCH  23  24
ATOM     24  C   UNL     1     -12.964  20.267 -13.135  1.00  0.00    -0.000 C 
BRANCH  24  25
ATOM     25  C   UNL     1     -12.221  20.147 -11.793  1.00  0.00    -0.000 C 
BRANCH  25  26
ATOM     26  C   UNL     1     -11.044  21.125 -11.599  1.00  0.00    -0.000 C 
BRANCH  26  27
ATOM     27  C   UNL     1      -9.970  20.668 -10.595  1.00  0.00    -0.000 C 
BRANCH  27  28
ATOM     28  C   UNL     1      -8.547  21.083 -11.006  1.00  0.00    -0.000 C 
BRANCH  28  29
ATOM     29  C   UNL     1      -8.006  20.224 -12.160  1.00  0.00    -0.000 C 
BRANCH  29  30
ATOM     30  C   UNL     1      -7.885  21.019 -13.471  1.00  0.00    -0.000 C 
BRANCH  30  31
ATOM     31  C   UNL     1      -8.945  20.605 -14.505  1.00  0.00    -0.003 C 
ATOM     32  C   UNL     1      -8.777  19.157 -14.970  1.00  0.00     0.004 C 
ENDBRANCH  30  31
ENDBRANCH  29  30
ENDBRANCH  28  29
ENDBRANCH  27  28
ENDBRANCH  26  27
ENDBRANCH  25  26
ENDBRANCH  24  25
ENDBRANCH  23  24
ENDBRANCH  22  23
ENDBRANCH  21  22
ENDBRANCH  20  21
ENDBRANCH  19  20
ENDBRANCH  18  19
ENDBRANCH   1  18
TORSDOF 28
ENDMDL
MODEL 8
REMARK VINA RESULT:    -2.685      3.352      6.876
REMARK INTER + INTRA:          -8.973
REMARK INTER:                  -6.631
REMARK INTRA:                  -2.341
REMARK UNBOUND:                -1.892
REMARK SMILES CCCCCCCCCCCCCCCCCCCCCCCCCCCCCC(=O)[O-]
REMARK SMILES IDX 16 1 17 2 18 3 19 4 20 5 21 6 22 7 23 8 24 9 25 10 26 11
REMARK SMILES IDX 27 12 28 13 29 14 30 15 31 16 32 17 15 18 14 19 13 20 12 21
REMARK SMILES IDX 11 22 10 23 9 24 8 25 7 26 6 27 5 28 4 29 3 30 2 31 1 32
REMARK H PARENT
REMARK Flexibility Score: inf
ROOT
ATOM      1  C   UNL     1     -11.233  19.011 -11.676  1.00  0.00     0.000 C 
ENDROOT
BRANCH   1   2
ATOM      2  C   UNL     1     -11.571  18.296 -12.998  1.00  0.00     0.000 C 
BRANCH   2   3
ATOM      3  C   UNL     1     -11.105  19.085 -14.235  1.00  0.00     0.000 C 
BRANCH   3   4
ATOM      4  C   UNL     1     -10.623  20.507 -13.901  1.00  0.00     0.000 C 
BRANCH   4   5
ATOM      5  C   UNL     1      -9.098  20.675 -13.763  1.00  0.00     0.000 C 
BRANCH   5   6
ATOM      6  C   UNL     1      -8.382  19.378 -13.349  1.00  0.00     0.000 C 
BRANCH   6   7
ATOM      7  C   UNL     1      -6.857  19.441 -13.558  1.00  0.00     0.000 C 
BRANCH   7   8
ATOM      8  C   UNL     1      -6.382  20.366 -14.699  1.00  0.00     0.000 C 
BRANCH   8   9
ATOM      9  C   UNL     1      -4.893  20.237 -15.073  1.00  0.00     0.000 C 
BRANCH   9  10
ATOM     10  C   UNL     1      -3.986  20.040 -13.846  1.00  0.00     0.000 C 
BRANCH  10  11
ATOM     11  C   UNL     1      -4.368  20.943 -12.663  1.00  0.00     0.000 C 
BRANCH  11  12
ATOM     12  C   UNL     1      -4.235  20.254 -11.289  1.00  0.00     0.000 C 
BRANCH  12  13
ATOM     13  C   UNL     1      -4.800  21.122 -10.155  1.00  0.00     0.006 C 
BRANCH  13  14
ATOM     14  C   UNL     1      -6.321  20.986 -10.057  1.00  0.00     0.053 C 
BRANCH  14  15
ATOM     15  C   UNL     1      -6.744  20.894  -8.625  1.00  0.00     0.041 C 
ATOM     16  O   UNL     1      -5.916  21.122  -7.703  1.00  0.00    -0.550 OA
ATOM     17  O   UNL     1      -8.063  20.588  -8.307  1.00  0.00    -0.550 OA
ENDBRANCH  14  15
ENDBRANCH  13  14
ENDBRANCH  12  13
ENDBRANCH  11  12
ENDBRANCH  10  11
ENDBRANCH   9  10
ENDBRANCH   8   9
ENDBRANCH   7   8
ENDBRANCH   6   7
ENDBRANCH   5   6
ENDBRANCH   4   5
ENDBRANCH   3   4
ENDBRANCH   2   3
ENDBRANCH   1   2
BRANCH   1  18
ATOM     18  C   UNL     1     -10.529  18.135 -10.625  1.00  0.00     0.000 C 
BRANCH  18  19
ATOM     19  C   UNL     1      -9.066  17.824 -10.989  1.00  0.00     0.000 C 
BRANCH  19  20
ATOM     20  C   UNL     1      -8.233  17.366  -9.773  1.00  0.00     0.000 C 
BRANCH  20  21
ATOM     21  C   UNL     1      -6.712  17.352 -10.018  1.00  0.00     0.000 C 
BRANCH  21  22
ATOM     22  C   UNL     1      -5.974  16.088  -9.536  1.00  0.00     0.000 C 
BRANCH  22  23
ATOM     23  C   UNL     1      -4.608  16.346  -8.871  1.00  0.00     0.000 C 
BRANCH  23  24
ATOM     24  C   UNL     1      -4.243  17.839  -8.834  1.00  0.00    -0.000 C 
BRANCH  24  25
ATOM     25  C   UNL     1      -3.875  18.334  -7.424  1.00  0.00    -0.000 C 
BRANCH  25  26
ATOM     26  C   UNL     1      -4.820  17.876  -6.295  1.00  0.00    -0.000 C 
BRANCH  26  27
ATOM     27  C   UNL     1      -4.172  16.988  -5.217  1.00  0.00    -0.000 C 
BRANCH  27  28
ATOM     28  C   UNL     1      -4.009  17.703  -3.865  1.00  0.00    -0.000 C 
BRANCH  28  29
ATOM     29  C   UNL     1      -3.972  19.232  -4.022  1.00  0.00    -0.000 C 
BRANCH  29  30
ATOM     30  C   UNL     1      -3.875  19.955  -2.668  1.00  0.00    -0.000 C 
BRANCH  30  31
ATOM     31  C   UNL     1      -5.022  20.956  -2.457  1.00  0.00    -0.003 C 
ATOM     32  C   UNL     1      -5.450  21.060  -0.992  1.00  0.00     0.004 C 
ENDBRANCH  30  31
ENDBRANCH  29  30
ENDBRANCH  28  29
ENDBRANCH  27  28
ENDBRANCH  26  27
ENDBRANCH  25  26
ENDBRANCH  24  25
ENDBRANCH  23  24
ENDBRANCH  22  23
ENDBRANCH  21  22
ENDBRANCH  20  21
ENDBRANCH  19  20
ENDBRANCH  18  19
ENDBRANCH   1  18
TORSDOF 28
ENDMDL
