MODEL 1
REMARK VINA RESULT:    -3.501      0.000      0.000
REMARK INTER + INTRA:          -3.792
REMARK INTER:                  -3.706
REMARK INTRA:                  -0.087
REMARK UNBOUND:                -0.087
REMARK SMILES C=C(C)[C@H]1CC=C(C)C(=O)C1
REMARK SMILES IDX 8 1 7 2 6 3 5 4 4 5 11 6 9 7 10 8 2 9 1 10 3 11
REMARK H PARENT
REMARK Flexibility Score: inf
ROOT
ATOM      1  C   UNL     1      12.997  12.875  -0.704  1.00  0.00     0.048 C 
ATOM      2  C   UNL     1      11.848  13.615  -0.076  1.00  0.00    -0.012 C 
ATOM      3  C   UNL     1      10.771  13.942  -0.812  1.00  0.00    -0.019 C 
ATOM      4  C   UNL     1       9.634  14.752  -0.248  1.00  0.00     0.036 C 
ATOM      5  C   UNL     1       9.466  14.500   1.262  1.00  0.00     0.025 C 
ATOM      6  C   UNL     1      10.792  14.765   2.000  1.00  0.00     0.089 C 
ATOM      7  C   UNL     1      11.919  14.005   1.354  1.00  0.00     0.158 C 
ATOM      8  O   UNL     1      12.949  13.742   2.031  1.00  0.00    -0.295 OA
ENDROOT
BRANCH   5   9
ATOM      9  C   UNL     1       8.331  15.333   1.843  1.00  0.00    -0.077 C 
ATOM     10  C   UNL     1       7.151  14.758   2.124  1.00  0.00     0.008 C 
ATOM     11  C   UNL     1       8.498  16.806   2.120  1.00  0.00     0.039 C 
ENDBRANCH   5   9
TORSDOF 1
ENDMDL
MODEL 2
REMARK VINA RESULT:    -2.830      1.999      4.591
REMARK INTER + INTRA:          -3.083
REMARK INTER:                  -2.986
REMARK INTRA:                  -0.096
REMARK UNBOUND:                -0.087
REMARK SMILES C=C(C)[C@H]1CC=C(C)C(=O)C1
REMARK SMILES IDX 8 1 7 2 6 3 5 4 4 5 11 6 9 7 10 8 2 9 1 10 3 11
REMARK H PARENT
REMARK Flexibility Score: inf
ROOT
ATOM      1  C   UNL     1       7.873  17.750   2.124  1.00  0.00     0.048 C 
ATOM      2  C   UNL     1       8.884  16.697   1.762  1.00  0.00    -0.012 C 
ATOM      3  C   UNL     1      10.122  17.052   1.377  1.00  0.00    -0.019 C 
ATOM      4  C   UNL     1      11.141  16.039   0.927  1.00  0.00     0.036 C 
ATOM      5  C   UNL     1      10.931  14.687   1.635  1.00  0.00     0.025 C 
ATOM      6  C   UNL     1       9.487  14.193   1.428  1.00  0.00     0.089 C 
ATOM      7  C   UNL     1       8.501  15.264   1.806  1.00  0.00     0.158 C 
ATOM      8  O   UNL     1       7.326  14.933   2.120  1.00  0.00    -0.295 OA
ENDROOT
BRANCH   5   9
ATOM      9  C   UNL     1      11.945  13.651   1.169  1.00  0.00    -0.077 C 
ATOM     10  C   UNL     1      11.971  13.266  -0.117  1.00  0.00     0.008 C 
ATOM     11  C   UNL     1      12.939  13.040   2.125  1.00  0.00     0.039 C 
ENDBRANCH   5   9
TORSDOF 1
ENDMDL
MODEL 3
REMARK VINA RESULT:    -2.615      1.432      2.066
REMARK INTER + INTRA:          -2.855
REMARK INTER:                  -2.759
REMARK INTRA:                  -0.096
REMARK UNBOUND:                -0.087
REMARK SMILES C=C(C)[C@H]1CC=C(C)C(=O)C1
REMARK SMILES IDX 8 1 7 2 6 3 5 4 4 5 11 6 9 7 10 8 2 9 1 10 3 11
REMARK H PARENT
REMARK Flexibility Score: inf
ROOT
ATOM      1  C   UNL     1      13.374  12.902  -0.547  1.00  0.00     0.048 C 
ATOM      2  C   UNL     1      12.119  13.464   0.062  1.00  0.00    -0.012 C 
ATOM      3  C   UNL     1      11.995  13.549   1.398  1.00  0.00    -0.019 C 
ATOM      4  C   UNL     1      10.728  14.028   2.054  1.00  0.00     0.036 C 
ATOM      5  C   UNL     1       9.990  15.045   1.163  1.00  0.00     0.025 C 
ATOM      6  C   UNL     1       9.733  14.447  -0.233  1.00  0.00     0.089 C 
ATOM      7  C   UNL     1      11.007  13.902  -0.818  1.00  0.00     0.158 C 
ATOM      8  O   UNL     1      11.104  13.777  -2.069  1.00  0.00    -0.295 OA
ENDROOT
BRANCH   5   9
ATOM      9  C   UNL     1       8.696  15.518   1.812  1.00  0.00    -0.077 C 
ATOM     10  C   UNL     1       7.737  14.632   2.125  1.00  0.00     0.008 C 
ATOM     11  C   UNL     1       8.459  16.976   2.121  1.00  0.00     0.039 C 
ENDBRANCH   5   9
TORSDOF 1
ENDMDL
MODEL 4
REMARK VINA RESULT:    -2.450      1.846      4.448
REMARK INTER + INTRA:          -2.680
REMARK INTER:                  -2.583
REMARK INTRA:                  -0.096
REMARK UNBOUND:                -0.087
REMARK SMILES C=C(C)[C@H]1CC=C(C)C(=O)C1
REMARK SMILES IDX 8 1 7 2 6 3 5 4 4 5 11 6 9 7 10 8 2 9 1 10 3 11
REMARK H PARENT
REMARK Flexibility Score: inf
ROOT
ATOM      1  C   UNL     1       8.042  17.427   2.125  1.00  0.00     0.048 C 
ATOM      2  C   UNL     1       9.106  16.379   1.950  1.00  0.00    -0.012 C 
ATOM      3  C   UNL     1       8.768  15.083   1.843  1.00  0.00    -0.019 C 
ATOM      4  C   UNL     1       9.801  13.992   1.748  1.00  0.00     0.036 C 
ATOM      5  C   UNL     1      11.080  14.496   1.053  1.00  0.00     0.025 C 
ATOM      6  C   UNL     1      11.619  15.750   1.767  1.00  0.00     0.089 C 
ATOM      7  C   UNL     1      10.535  16.781   1.920  1.00  0.00     0.158 C 
ATOM      8  O   UNL     1      10.855  17.991   2.068  1.00  0.00    -0.295 OA
ENDROOT
BRANCH   5   9
ATOM      9  C   UNL     1      12.138  13.404   0.972  1.00  0.00    -0.077 C 
ATOM     10  C   UNL     1      12.659  12.887   2.096  1.00  0.00     0.008 C 
ATOM     11  C   UNL     1      12.622  12.875  -0.355  1.00  0.00     0.039 C 
ENDBRANCH   5   9
TORSDOF 1
ENDMDL
MODEL 5
REMARK VINA RESULT:    -0.801      1.978      4.663
REMARK INTER + INTRA:          -0.935
REMARK INTER:                  -0.844
REMARK INTRA:                  -0.091
REMARK UNBOUND:                -0.087
REMARK SMILES C=C(C)[C@H]1CC=C(C)C(=O)C1
REMARK SMILES IDX 8 1 7 2 6 3 5 4 4 5 11 6 9 7 10 8 2 9 1 10 3 11
REMARK H PARENT
REMARK Flexibility Score: inf
ROOT
ATOM      1  C   UNL     1       8.178  17.021   1.739  1.00  0.00     0.048 C 
ATOM      2  C   UNL     1       9.377  16.148   1.489  1.00  0.00    -0.012 C 
ATOM      3  C   UNL     1      10.544  16.410   2.103  1.00  0.00    -0.019 C 
ATOM      4  C   UNL     1      11.791  15.615   1.822  1.00  0.00     0.036 C 
ATOM      5  C   UNL     1      11.450  14.162   1.442  1.00  0.00     0.025 C 
ATOM      6  C   UNL     1      10.464  14.135   0.260  1.00  0.00     0.089 C 
ATOM      7  C   UNL     1       9.273  15.009   0.543  1.00  0.00     0.158 C 
ATOM      8  O   UNL     1       8.193  14.793  -0.070  1.00  0.00    -0.295 OA
ENDROOT
BRANCH   5   9
ATOM      9  C   UNL     1      12.706  13.356   1.137  1.00  0.00    -0.077 C 
ATOM     10  C   UNL     1      13.565  13.051   2.122  1.00  0.00     0.008 C 
ATOM     11  C   UNL     1      13.015  12.881  -0.261  1.00  0.00     0.039 C 
ENDBRANCH   5   9
TORSDOF 1
ENDMDL
