MODEL 1
REMARK VINA RESULT:    -4.044      0.000      0.000
REMARK INTER + INTRA:          -6.236
REMARK INTER:                  -6.172
REMARK INTRA:                  -0.064
REMARK UNBOUND:                -0.064
REMARK SMILES CC1=CCC[C@H](C)C(=O)C[C@H](C(C)C)C(=O)C1
REMARK SMILES IDX 8 1 9 2 6 3 7 4 5 5 4 6 3 7 2 8 1 9 10 11 11 12 15 13 16 14
REMARK SMILES IDX 17 15 12 17 13 18 14 19
REMARK H PARENT
REMARK Flexibility Score: 70.00
ROOT
ATOM      1  C   UNL     1      17.201  15.869  23.962  1.00  0.00     0.136 C 
ATOM      2  O   UNL     1      16.840  14.863  23.369  1.00  0.00    -0.299 OA
ENDROOT
BRANCH   1   3
ATOM      3  C   UNL     1      16.330  16.438  25.068  1.00  0.00     0.053 C 
ATOM      4  C   UNL     1      15.035  17.024  24.487  1.00  0.00     0.016 C 
BRANCH   3   5
ATOM      5  C   UNL     1      16.022  15.350  26.119  1.00  0.00     0.015 C 
BRANCH   5   6
ATOM      6  C   UNL     1      17.300  14.821  26.800  1.00  0.00     0.028 C 
BRANCH   6   7
ATOM      7  C   UNL     1      17.660  13.454  26.276  1.00  0.00    -0.028 C 
ATOM      8  C   UNL     1      18.886  13.102  25.821  1.00  0.00    -0.070 CG0
ATOM      9  C   UNL     1      19.059  11.717  25.252  1.00  0.00     0.039 C 
ATOM     10  G   UNL     1      20.088  14.033  25.881  1.00  0.00     0.000 G0
ENDBRANCH   6   7
ENDBRANCH   5   6
ENDBRANCH   3   5
ENDBRANCH   1   3
BRANCH   1  11
ATOM     11  C   UNL     1      18.508  16.529  23.580  1.00  0.00     0.087 C 
BRANCH  11  12
ATOM     12  C   UNL     1      19.684  16.307  24.584  1.00  0.00     0.066 C 
BRANCH  12  13
ATOM     13  C   UNL     1      20.211  14.876  24.611  1.00  0.00     0.140 C 
ATOM     14  O   UNL     1      20.807  14.424  23.644  1.00  0.00    -0.299 OA
BRANCH  13  15
ATOM     15  C   UNL     1      20.087  14.031  25.857  1.00  0.00     0.106 CG0
ATOM     16  G   UNL     1      18.883  13.103  25.811  1.00  0.00     0.000 G0
ENDBRANCH  13  15
ENDBRANCH  12  13
BRANCH  12  17
ATOM     17  C   UNL     1      20.845  17.351  24.482  1.00  0.00    -0.006 C 
ATOM     18  C   UNL     1      21.197  17.944  25.858  1.00  0.00     0.008 C 
ATOM     19  C   UNL     1      20.592  18.487  23.477  1.00  0.00     0.008 C 
ENDBRANCH  12  17
ENDBRANCH  11  12
ENDBRANCH   1  11
TORSDOF 1
ENDMDL
MODEL 2
REMARK VINA RESULT:    -3.996      5.428      7.450
REMARK INTER + INTRA:          -6.163
REMARK INTER:                  -6.108
REMARK INTRA:                  -0.054
REMARK UNBOUND:                -0.064
REMARK SMILES CC1=CCC[C@H](C)C(=O)C[C@H](C(C)C)C(=O)C1
REMARK SMILES IDX 8 1 9 2 6 3 7 4 5 5 4 6 3 7 2 8 1 9 10 11 11 12 15 13 16 14
REMARK SMILES IDX 17 15 12 17 13 18 14 19
REMARK H PARENT
REMARK Flexibility Score: 70.00
ROOT
ATOM      1  C   UNL     1      14.426  16.810  24.613  1.00  0.00     0.136 C 
ATOM      2  O   UNL     1      15.554  16.947  24.161  1.00  0.00    -0.299 OA
ENDROOT
BRANCH   1   3
ATOM      3  C   UNL     1      14.178  15.794  25.714  1.00  0.00     0.053 C 
ATOM      4  C   UNL     1      14.812  16.262  27.032  1.00  0.00     0.016 C 
BRANCH   3   5
ATOM      5  C   UNL     1      12.663  15.550  25.885  1.00  0.00     0.015 C 
BRANCH   5   6
ATOM      6  C   UNL     1      12.190  14.285  25.140  1.00  0.00     0.028 C 
BRANCH   6   7
ATOM      7  C   UNL     1      10.757  14.430  24.697  1.00  0.00    -0.028 C 
ATOM      8  C   UNL     1      10.366  14.935  23.503  1.00  0.00    -0.070 CG0
ATOM      9  C   UNL     1       8.889  15.088  23.247  1.00  0.00     0.039 C 
ATOM     10  G   UNL     1      11.351  15.329  22.412  1.00  0.00     0.000 G0
ENDBRANCH   6   7
ENDBRANCH   5   6
ENDBRANCH   3   5
ENDBRANCH   1   3
BRANCH   1  11
ATOM     11  C   UNL     1      13.298  17.658  24.064  1.00  0.00     0.087 C 
BRANCH  11  12
ATOM     12  C   UNL     1      12.964  17.427  22.556  1.00  0.00     0.066 C 
BRANCH  12  13
ATOM     13  C   UNL     1      11.582  16.830  22.315  1.00  0.00     0.140 C 
ATOM     14  O   UNL     1      10.653  17.550  21.980  1.00  0.00    -0.299 OA
BRANCH  13  15
ATOM     15  C   UNL     1      11.361  15.337  22.396  1.00  0.00     0.106 CG0
ATOM     16  G   UNL     1      10.371  14.956  23.486  1.00  0.00     0.000 G0
ENDBRANCH  13  15
ENDBRANCH  12  13
BRANCH  12  17
ATOM     17  C   UNL     1      13.237  18.654  21.625  1.00  0.00    -0.006 C 
ATOM     18  C   UNL     1      14.485  18.438  20.751  1.00  0.00     0.008 C 
ATOM     19  C   UNL     1      13.346  20.000  22.360  1.00  0.00     0.008 C 
ENDBRANCH  12  17
ENDBRANCH  11  12
ENDBRANCH   1  11
TORSDOF 1
ENDMDL
MODEL 3
REMARK VINA RESULT:    -3.961      3.623      5.927
REMARK INTER + INTRA:          -6.109
REMARK INTER:                  -6.314
REMARK INTRA:                   0.205
REMARK UNBOUND:                -0.064
REMARK SMILES CC1=CCC[C@H](C)C(=O)C[C@H](C(C)C)C(=O)C1
REMARK SMILES IDX 8 1 9 2 6 3 7 4 5 5 4 6 3 7 2 8 1 9 10 11 11 12 15 13 16 14
REMARK SMILES IDX 17 15 12 17 13 18 14 19
REMARK H PARENT
REMARK Flexibility Score: 70.00
ROOT
ATOM      1  C   UNL     1      16.536  16.914  23.731  1.00  0.00     0.136 C 
ATOM      2  O   UNL     1      17.647  17.255  23.352  1.00  0.00    -0.299 OA
ENDROOT
BRANCH   1   3
ATOM      3  C   UNL     1      16.352  15.554  24.382  1.00  0.00     0.053 C 
ATOM      4  C   UNL     1      17.258  14.510  23.715  1.00  0.00     0.016 C 
BRANCH   3   5
ATOM      5  C   UNL     1      16.636  15.645  25.897  1.00  0.00     0.015 C 
BRANCH   5   6
ATOM      6  C   UNL     1      15.381  16.041  26.702  1.00  0.00     0.028 C 
BRANCH   6   7
ATOM      7  C   UNL     1      14.221  15.140  26.362  1.00  0.00    -0.028 C 
ATOM      8  C   UNL     1      13.140  15.515  25.638  1.00  0.00    -0.070 CG0
ATOM      9  C   UNL     1      12.027  14.516  25.457  1.00  0.00     0.039 C 
ATOM     10  G   UNL     1      13.017  16.886  24.989  1.00  0.00     0.000 G0
ENDBRANCH   6   7
ENDBRANCH   5   6
ENDBRANCH   3   5
ENDBRANCH   1   3
BRANCH   1  11
ATOM     11  C   UNL     1      15.365  17.854  23.542  1.00  0.00     0.087 C 
BRANCH  11  12
ATOM     12  C   UNL     1      14.203  17.301  22.658  1.00  0.00     0.066 C 
BRANCH  12  13
ATOM     13  C   UNL     1      13.005  16.799  23.458  1.00  0.00     0.140 C 
ATOM     14  O   UNL     1      12.067  16.264  22.886  1.00  0.00    -0.299 OA
BRANCH  13  15
ATOM     15  C   UNL     1      13.000  16.873  24.967  1.00  0.00     0.106 CG0
ATOM     16  G   UNL     1      13.141  15.503  25.614  1.00  0.00     0.000 G0
ENDBRANCH  13  15
ENDBRANCH  12  13
BRANCH  12  17
ATOM     17  C   UNL     1      13.765  18.236  21.482  1.00  0.00    -0.006 C 
ATOM     18  C   UNL     1      14.979  18.819  20.738  1.00  0.00     0.008 C 
ATOM     19  C   UNL     1      12.814  19.372  21.893  1.00  0.00     0.008 C 
ENDBRANCH  12  17
ENDBRANCH  11  12
ENDBRANCH   1  11
TORSDOF 1
ENDMDL
MODEL 4
REMARK VINA RESULT:    -3.890      3.426      5.598
REMARK INTER + INTRA:          -6.001
REMARK INTER:                  -6.117
REMARK INTRA:                   0.116
REMARK UNBOUND:                -0.064
REMARK SMILES CC1=CCC[C@H](C)C(=O)C[C@H](C(C)C)C(=O)C1
REMARK SMILES IDX 8 1 9 2 6 3 7 4 5 5 4 6 3 7 2 8 1 9 10 11 11 12 15 13 16 14
REMARK SMILES IDX 17 15 12 17 13 18 14 19
REMARK H PARENT
REMARK Flexibility Score: 70.00
ROOT
ATOM      1  C   UNL     1      15.484  17.674  22.648  1.00  0.00     0.136 C 
ATOM      2  O   UNL     1      16.524  18.307  22.546  1.00  0.00    -0.299 OA
ENDROOT
BRANCH   1   3
ATOM      3  C   UNL     1      14.220  18.200  21.990  1.00  0.00     0.053 C 
ATOM      4  C   UNL     1      14.540  18.805  20.616  1.00  0.00     0.016 C 
BRANCH   3   5
ATOM      5  C   UNL     1      13.172  17.073  21.867  1.00  0.00     0.015 C 
BRANCH   5   6
ATOM      6  C   UNL     1      12.048  17.208  22.915  1.00  0.00     0.028 C 
BRANCH   6   7
ATOM      7  C   UNL     1      11.914  15.941  23.722  1.00  0.00    -0.028 C 
ATOM      8  C   UNL     1      12.536  15.711  24.903  1.00  0.00    -0.070 CG0
ATOM      9  C   UNL     1      12.362  14.358  25.543  1.00  0.00     0.039 C 
ATOM     10  G   UNL     1      13.377  16.763  25.612  1.00  0.00     0.000 G0
ENDBRANCH   6   7
ENDBRANCH   5   6
ENDBRANCH   3   5
ENDBRANCH   1   3
BRANCH   1  11
ATOM     11  C   UNL     1      15.476  16.378  23.428  1.00  0.00     0.087 C 
BRANCH  11  12
ATOM     12  C   UNL     1      15.915  16.497  24.922  1.00  0.00     0.066 C 
BRANCH  12  13
ATOM     13  C   UNL     1      14.778  16.289  25.918  1.00  0.00     0.140 C 
ATOM     14  O   UNL     1      15.003  15.786  27.009  1.00  0.00    -0.299 OA
BRANCH  13  15
ATOM     15  C   UNL     1      13.384  16.782  25.610  1.00  0.00     0.106 CG0
ATOM     16  G   UNL     1      12.540  15.730  24.904  1.00  0.00     0.000 G0
ENDBRANCH  13  15
ENDBRANCH  12  13
BRANCH  12  17
ATOM     17  C   UNL     1      17.182  15.663  25.306  1.00  0.00    -0.006 C 
ATOM     18  C   UNL     1      18.479  16.367  24.868  1.00  0.00     0.008 C 
ATOM     19  C   UNL     1      17.175  14.217  24.785  1.00  0.00     0.008 C 
ENDBRANCH  12  17
ENDBRANCH  11  12
ENDBRANCH   1  11
TORSDOF 1
ENDMDL
MODEL 5
REMARK VINA RESULT:    -3.870      4.435      6.986
REMARK INTER + INTRA:          -5.970
REMARK INTER:                  -5.831
REMARK INTRA:                  -0.139
REMARK UNBOUND:                -0.064
REMARK SMILES CC1=CCC[C@H](C)C(=O)C[C@H](C(C)C)C(=O)C1
REMARK SMILES IDX 8 1 9 2 6 3 7 4 5 5 4 6 3 7 2 8 1 9 10 11 11 12 15 13 16 14
REMARK SMILES IDX 17 15 12 17 13 18 14 19
REMARK H PARENT
REMARK Flexibility Score: 70.00
ROOT
ATOM      1  C   UNL     1      12.158  15.076  25.250  1.00  0.00     0.136 C 
ATOM      2  O   UNL     1      12.283  14.422  26.275  1.00  0.00    -0.299 OA
ENDROOT
BRANCH   1   3
ATOM      3  C   UNL     1      11.173  14.620  24.187  1.00  0.00     0.053 C 
ATOM      4  C   UNL     1      10.000  13.865  24.828  1.00  0.00     0.016 C 
BRANCH   3   5
ATOM      5  C   UNL     1      10.670  15.830  23.370  1.00  0.00     0.015 C 
BRANCH   5   6
ATOM      6  C   UNL     1      11.330  15.907  21.978  1.00  0.00     0.028 C 
BRANCH   6   7
ATOM      7  C   UNL     1      11.671  17.332  21.625  1.00  0.00    -0.028 C 
ATOM      8  C   UNL     1      12.924  17.844  21.610  1.00  0.00    -0.070 CG0
ATOM      9  C   UNL     1      13.086  19.313  21.315  1.00  0.00     0.039 C 
ATOM     10  G   UNL     1      14.164  16.998  21.855  1.00  0.00     0.000 G0
ENDBRANCH   6   7
ENDBRANCH   5   6
ENDBRANCH   3   5
ENDBRANCH   1   3
BRANCH   1  11
ATOM     11  C   UNL     1      12.988  16.326  25.060  1.00  0.00     0.087 C 
BRANCH  11  12
ATOM     12  C   UNL     1      14.362  16.112  24.348  1.00  0.00     0.066 C 
BRANCH  12  13
ATOM     13  C   UNL     1      14.678  17.164  23.289  1.00  0.00     0.140 C 
ATOM     14  O   UNL     1      15.414  18.102  23.558  1.00  0.00    -0.299 OA
BRANCH  13  15
ATOM     15  C   UNL     1      14.166  17.014  21.876  1.00  0.00     0.106 CG0
ATOM     16  G   UNL     1      12.938  17.871  21.610  1.00  0.00     0.000 G0
ENDBRANCH  13  15
ENDBRANCH  12  13
BRANCH  12  17
ATOM     17  C   UNL     1      15.573  15.873  25.309  1.00  0.00    -0.006 C 
ATOM     18  C   UNL     1      16.168  14.466  25.134  1.00  0.00     0.008 C 
ATOM     19  C   UNL     1      15.266  16.126  26.794  1.00  0.00     0.008 C 
ENDBRANCH  12  17
ENDBRANCH  11  12
ENDBRANCH   1  11
TORSDOF 1
ENDMDL
MODEL 6
REMARK VINA RESULT:    -3.818      1.945      3.988
REMARK INTER + INTRA:          -5.891
REMARK INTER:                  -6.106
REMARK INTRA:                   0.216
REMARK UNBOUND:                -0.064
REMARK SMILES CC1=CCC[C@H](C)C(=O)C[C@H](C(C)C)C(=O)C1
REMARK SMILES IDX 8 1 9 2 6 3 7 4 5 5 4 6 3 7 2 8 1 9 10 11 11 12 15 13 16 14
REMARK SMILES IDX 17 15 12 17 13 18 14 19
REMARK H PARENT
REMARK Flexibility Score: 70.00
ROOT
ATOM      1  C   UNL     1      16.906  15.312  26.301  1.00  0.00     0.136 C 
ATOM      2  O   UNL     1      16.618  16.203  27.086  1.00  0.00    -0.299 OA
ENDROOT
BRANCH   1   3
ATOM      3  C   UNL     1      15.957  14.981  25.162  1.00  0.00     0.053 C 
ATOM      4  C   UNL     1      14.552  15.526  25.456  1.00  0.00     0.016 C 
BRANCH   3   5
ATOM      5  C   UNL     1      16.502  15.547  23.832  1.00  0.00     0.015 C 
BRANCH   5   6
ATOM      6  C   UNL     1      16.908  17.029  23.954  1.00  0.00     0.028 C 
BRANCH   6   7
ATOM      7  C   UNL     1      18.133  17.318  23.123  1.00  0.00    -0.028 C 
ATOM      8  C   UNL     1      19.385  17.454  23.619  1.00  0.00    -0.070 CG0
ATOM      9  C   UNL     1      20.489  17.825  22.662  1.00  0.00     0.039 C 
ATOM     10  G   UNL     1      19.722  17.228  25.085  1.00  0.00     0.000 G0
ENDBRANCH   6   7
ENDBRANCH   5   6
ENDBRANCH   3   5
ENDBRANCH   1   3
BRANCH   1  11
ATOM     11  C   UNL     1      18.204  14.554  26.481  1.00  0.00     0.087 C 
BRANCH  11  12
ATOM     12  C   UNL     1      19.196  14.637  25.277  1.00  0.00     0.066 C 
BRANCH  12  13
ATOM     13  C   UNL     1      20.186  15.794  25.373  1.00  0.00     0.140 C 
ATOM     14  O   UNL     1      21.368  15.573  25.594  1.00  0.00    -0.299 OA
BRANCH  13  15
ATOM     15  C   UNL     1      19.742  17.213  25.107  1.00  0.00     0.106 CG0
ATOM     16  G   UNL     1      19.403  17.449  23.642  1.00  0.00     0.000 G0
ENDBRANCH  13  15
ENDBRANCH  12  13
BRANCH  12  17
ATOM     17  C   UNL     1      19.909  13.292  24.915  1.00  0.00    -0.006 C 
ATOM     18  C   UNL     1      20.378  13.275  23.450  1.00  0.00     0.008 C 
ATOM     19  C   UNL     1      19.078  12.033  25.208  1.00  0.00     0.008 C 
ENDBRANCH  12  17
ENDBRANCH  11  12
ENDBRANCH   1  11
TORSDOF 1
ENDMDL
MODEL 7
REMARK VINA RESULT:    -3.782     10.263     11.833
REMARK INTER + INTRA:          -5.836
REMARK INTER:                  -5.804
REMARK INTRA:                  -0.032
REMARK UNBOUND:                -0.064
REMARK SMILES CC1=CCC[C@H](C)C(=O)C[C@H](C(C)C)C(=O)C1
REMARK SMILES IDX 8 1 9 2 6 3 7 4 5 5 4 6 3 7 2 8 1 9 10 11 11 12 15 13 16 14
REMARK SMILES IDX 17 15 12 17 13 18 14 19
REMARK H PARENT
REMARK Flexibility Score: 70.00
ROOT
ATOM      1  C   UNL     1      19.114  17.144  16.018  1.00  0.00     0.136 C 
ATOM      2  O   UNL     1      18.255  17.916  16.418  1.00  0.00    -0.299 OA
ENDROOT
BRANCH   1   3
ATOM      3  C   UNL     1      20.526  17.246  16.568  1.00  0.00     0.053 C 
ATOM      4  C   UNL     1      20.505  17.274  18.103  1.00  0.00     0.016 C 
BRANCH   3   5
ATOM      5  C   UNL     1      21.388  16.075  16.049  1.00  0.00     0.015 C 
BRANCH   5   6
ATOM      6  C   UNL     1      22.287  16.494  14.868  1.00  0.00     0.028 C 
BRANCH   6   7
ATOM      7  C   UNL     1      22.446  15.360  13.887  1.00  0.00    -0.028 C 
ATOM      8  C   UNL     1      21.750  15.237  12.732  1.00  0.00    -0.070 CG0
ATOM      9  C   UNL     1      21.968  13.998  11.902  1.00  0.00     0.039 C 
ATOM     10  G   UNL     1      20.781  16.300  12.235  1.00  0.00     0.000 G0
ENDBRANCH   6   7
ENDBRANCH   5   6
ENDBRANCH   3   5
ENDBRANCH   1   3
BRANCH   1  11
ATOM     11  C   UNL     1      18.754  16.103  14.981  1.00  0.00     0.087 C 
BRANCH  11  12
ATOM     12  C   UNL     1      18.513  16.653  13.539  1.00  0.00     0.066 C 
BRANCH  12  13
ATOM     13  C   UNL     1      19.325  15.939  12.463  1.00  0.00     0.140 C 
ATOM     14  O   UNL     1      18.790  15.111  11.741  1.00  0.00    -0.299 OA
BRANCH  13  15
ATOM     15  C   UNL     1      20.769  16.308  12.214  1.00  0.00     0.106 CG0
ATOM     16  G   UNL     1      21.734  15.252  12.732  1.00  0.00     0.000 G0
ENDBRANCH  13  15
ENDBRANCH  12  13
BRANCH  12  17
ATOM     17  C   UNL     1      17.010  16.800  13.131  1.00  0.00    -0.006 C 
ATOM     18  C   UNL     1      16.749  18.125  12.393  1.00  0.00     0.008 C 
ATOM     19  C   UNL     1      16.017  16.650  14.294  1.00  0.00     0.008 C 
ENDBRANCH  12  17
ENDBRANCH  11  12
ENDBRANCH   1  11
TORSDOF 1
ENDMDL
MODEL 8
REMARK VINA RESULT:    -3.686      1.891      3.838
REMARK INTER + INTRA:          -5.690
REMARK INTER:                  -5.590
REMARK INTRA:                  -0.100
REMARK UNBOUND:                -0.064
REMARK SMILES CC1=CCC[C@H](C)C(=O)C[C@H](C(C)C)C(=O)C1
REMARK SMILES IDX 8 1 9 2 6 3 7 4 5 5 4 6 3 7 2 8 1 9 10 11 11 12 15 13 16 14
REMARK SMILES IDX 17 15 12 17 13 18 14 19
REMARK H PARENT
REMARK Flexibility Score: 70.00
ROOT
ATOM      1  C   UNL     1      20.562  14.038  23.805  1.00  0.00     0.136 C 
ATOM      2  O   UNL     1      20.952  13.630  22.721  1.00  0.00    -0.299 OA
ENDROOT
BRANCH   1   3
ATOM      3  C   UNL     1      20.094  13.045  24.854  1.00  0.00     0.053 C 
ATOM      4  C   UNL     1      20.410  13.562  26.265  1.00  0.00     0.016 C 
BRANCH   3   5
ATOM      5  C   UNL     1      18.584  12.768  24.693  1.00  0.00     0.015 C 
BRANCH   5   6
ATOM      6  C   UNL     1      17.729  13.637  25.638  1.00  0.00     0.028 C 
BRANCH   6   7
ATOM      7  C   UNL     1      16.645  14.352  24.872  1.00  0.00    -0.028 C 
ATOM      8  C   UNL     1      16.673  15.665  24.543  1.00  0.00    -0.070 CG0
ATOM      9  C   UNL     1      15.469  16.247  23.847  1.00  0.00     0.039 C 
ATOM     10  G   UNL     1      17.869  16.562  24.825  1.00  0.00     0.000 G0
ENDBRANCH   6   7
ENDBRANCH   5   6
ENDBRANCH   3   5
ENDBRANCH   1   3
BRANCH   1  11
ATOM     11  C   UNL     1      20.552  15.526  24.079  1.00  0.00     0.087 C 
BRANCH  11  12
ATOM     12  C   UNL     1      19.782  16.392  23.032  1.00  0.00     0.066 C 
BRANCH  12  13
ATOM     13  C   UNL     1      18.546  17.087  23.595  1.00  0.00     0.140 C 
ATOM     14  O   UNL     1      18.052  18.034  23.001  1.00  0.00    -0.299 OA
BRANCH  13  15
ATOM     15  C   UNL     1      17.865  16.562  24.837  1.00  0.00     0.106 CG0
ATOM     16  G   UNL     1      16.686  15.656  24.512  1.00  0.00     0.000 G0
ENDBRANCH  13  15
ENDBRANCH  12  13
BRANCH  12  17
ATOM     17  C   UNL     1      20.674  17.375  22.204  1.00  0.00    -0.006 C 
ATOM     18  C   UNL     1      21.484  16.635  21.126  1.00  0.00     0.008 C 
ATOM     19  C   UNL     1      21.613  18.248  23.051  1.00  0.00     0.008 C 
ENDBRANCH  12  17
ENDBRANCH  11  12
ENDBRANCH   1  11
TORSDOF 1
ENDMDL
MODEL 9
REMARK VINA RESULT:    -3.617     10.459     11.773
REMARK INTER + INTRA:          -5.584
REMARK INTER:                  -5.479
REMARK INTRA:                  -0.105
REMARK UNBOUND:                -0.064
REMARK SMILES CC1=CCC[C@H](C)C(=O)C[C@H](C(C)C)C(=O)C1
REMARK SMILES IDX 8 1 9 2 6 3 7 4 5 5 4 6 3 7 2 8 1 9 10 11 11 12 15 13 16 14
REMARK SMILES IDX 17 15 12 17 13 18 14 19
REMARK H PARENT
REMARK Flexibility Score: 70.00
ROOT
ATOM      1  C   UNL     1      17.993  16.326  14.828  1.00  0.00     0.136 C 
ATOM      2  O   UNL     1      16.792  16.360  15.054  1.00  0.00    -0.299 OA
ENDROOT
BRANCH   1   3
ATOM      3  C   UNL     1      18.944  17.115  15.711  1.00  0.00     0.053 C 
ATOM      4  C   UNL     1      18.184  17.758  16.880  1.00  0.00     0.016 C 
BRANCH   3   5
ATOM      5  C   UNL     1      20.078  16.202  16.224  1.00  0.00     0.015 C 
BRANCH   5   6
ATOM      6  C   UNL     1      21.466  16.679  15.753  1.00  0.00     0.028 C 
BRANCH   6   7
ATOM      7  C   UNL     1      22.328  15.507  15.356  1.00  0.00    -0.028 C 
ATOM      8  C   UNL     1      22.578  15.133  14.079  1.00  0.00    -0.070 CG0
ATOM      9  C   UNL     1      23.395  13.886  13.853  1.00  0.00     0.039 C 
ATOM     10  G   UNL     1      22.090  15.926  12.876  1.00  0.00     0.000 G0
ENDBRANCH   6   7
ENDBRANCH   5   6
ENDBRANCH   3   5
ENDBRANCH   1   3
BRANCH   1  11
ATOM     11  C   UNL     1      18.507  15.498  13.670  1.00  0.00     0.087 C 
BRANCH  11  12
ATOM     12  C   UNL     1      19.480  16.242  12.700  1.00  0.00     0.066 C 
BRANCH  12  13
ATOM     13  C   UNL     1      20.743  15.453  12.370  1.00  0.00     0.140 C 
ATOM     14  O   UNL     1      20.682  14.474  11.641  1.00  0.00    -0.299 OA
BRANCH  13  15
ATOM     15  C   UNL     1      22.094  15.921  12.859  1.00  0.00     0.106 CG0
ATOM     16  G   UNL     1      22.567  15.148  14.082  1.00  0.00     0.000 G0
ENDBRANCH  13  15
ENDBRANCH  12  13
BRANCH  12  17
ATOM     17  C   UNL     1      18.809  16.828  11.414  1.00  0.00    -0.006 C 
ATOM     18  C   UNL     1      19.768  17.752  10.644  1.00  0.00     0.008 C 
ATOM     19  C   UNL     1      17.477  17.554  11.665  1.00  0.00     0.008 C 
ENDBRANCH  12  17
ENDBRANCH  11  12
ENDBRANCH   1  11
TORSDOF 1
ENDMDL
