MODEL 1
REMARK VINA RESULT:    -5.653      0.000      0.000
REMARK INTER + INTRA:          -8.465
REMARK INTER:                  -6.974
REMARK INTRA:                  -1.490
REMARK UNBOUND:                -1.490
REMARK SMILES CC(C)=CCC[C@H](C)c1ccc(C)cc1
REMARK SMILES IDX 6 1 7 2 8 3 9 4 13 5 12 6 11 7 14 8 10 9 15 10 5 11 4 12
REMARK SMILES IDX 2 13 1 14 3 15
REMARK H PARENT
REMARK Flexibility Score: inf
ROOT
ATOM      1  C   UNL     1     122.117 116.628 144.911  1.00  0.00     0.012 C 
ENDROOT
BRANCH   1   2
ATOM      2  C   UNL     1     121.134 116.760 146.099  1.00  0.00     0.016 C 
ATOM      3  C   UNL     1     120.155 115.579 146.125  1.00  0.00     0.013 C 
BRANCH   2   4
ATOM      4  C   UNL     1     120.379 118.077 146.074  1.00  0.00    -0.045 A 
ATOM      5  C   UNL     1     118.269 121.845 145.987  1.00  0.00     0.044 C 
ATOM      6  C   UNL     1     119.000 120.536 145.987  1.00  0.00    -0.051 A 
ATOM      7  C   UNL     1     120.402 120.509 145.971  1.00  0.00     0.004 A 
ATOM      8  C   UNL     1     118.290 119.330 146.071  1.00  0.00     0.004 A 
ATOM      9  C   UNL     1     121.085 119.290 146.008  1.00  0.00     0.004 A 
ATOM     10  C   UNL     1     118.972 118.110 146.107  1.00  0.00     0.004 A 
ENDBRANCH   2   4
ENDBRANCH   1   2
BRANCH   1  11
ATOM     11  C   UNL     1     121.422 116.565 143.539  1.00  0.00     0.028 C 
BRANCH  11  12
ATOM     12  C   UNL     1     121.361 117.915 142.866  1.00  0.00    -0.028 C 
ATOM     13  C   UNL     1     120.231 118.494 142.406  1.00  0.00    -0.080 C 
ATOM     14  C   UNL     1     118.874 117.854 142.580  1.00  0.00     0.039 C 
ATOM     15  C   UNL     1     120.338 119.831 141.721  1.00  0.00     0.039 C 
ENDBRANCH  11  12
ENDBRANCH   1  11
TORSDOF 4
ENDMDL
MODEL 2
REMARK VINA RESULT:    -5.635      1.578      3.866
REMARK INTER + INTRA:          -8.443
REMARK INTER:                  -7.111
REMARK INTRA:                  -1.332
REMARK UNBOUND:                -1.490
REMARK SMILES CC(C)=CCC[C@H](C)c1ccc(C)cc1
REMARK SMILES IDX 6 1 7 2 8 3 9 4 13 5 12 6 11 7 14 8 10 9 15 10 5 11 4 12
REMARK SMILES IDX 2 13 1 14 3 15
REMARK H PARENT
REMARK Flexibility Score: inf
ROOT
ATOM      1  C   UNL     1     120.793 120.522 145.503  1.00  0.00     0.012 C 
ENDROOT
BRANCH   1   2
ATOM      2  C   UNL     1     119.285 120.416 145.170  1.00  0.00     0.016 C 
ATOM      3  C   UNL     1     118.462 121.318 146.098  1.00  0.00     0.013 C 
BRANCH   2   4
ATOM      4  C   UNL     1     118.783 118.985 145.234  1.00  0.00    -0.045 A 
ATOM      5  C   UNL     1     117.332 114.919 145.376  1.00  0.00     0.044 C 
ATOM      6  C   UNL     1     117.855 116.323 145.305  1.00  0.00    -0.051 A 
ATOM      7  C   UNL     1     117.240 117.265 144.468  1.00  0.00     0.004 A 
ATOM      8  C   UNL     1     118.921 116.722 146.125  1.00  0.00     0.004 A 
ATOM      9  C   UNL     1     117.704 118.583 144.428  1.00  0.00     0.004 A 
ATOM     10  C   UNL     1     119.386 118.040 146.086  1.00  0.00     0.004 A 
ENDBRANCH   2   4
ENDBRANCH   1   2
BRANCH   1  11
ATOM     11  C   UNL     1     121.707 120.402 144.270  1.00  0.00     0.028 C 
BRANCH  11  12
ATOM     12  C   UNL     1     122.030 118.965 143.935  1.00  0.00    -0.028 C 
ATOM     13  C   UNL     1     121.451 118.259 142.939  1.00  0.00    -0.080 C 
ATOM     14  C   UNL     1     120.440 118.877 142.002  1.00  0.00     0.039 C 
ATOM     15  C   UNL     1     121.852 116.819 142.753  1.00  0.00     0.039 C 
ENDBRANCH  11  12
ENDBRANCH   1  11
TORSDOF 4
ENDMDL
MODEL 3
REMARK VINA RESULT:    -5.628      1.510      3.662
REMARK INTER + INTRA:          -8.435
REMARK INTER:                  -6.909
REMARK INTRA:                  -1.526
REMARK UNBOUND:                -1.490
REMARK SMILES CC(C)=CCC[C@H](C)c1ccc(C)cc1
REMARK SMILES IDX 6 1 7 2 8 3 9 4 13 5 12 6 11 7 14 8 10 9 15 10 5 11 4 12
REMARK SMILES IDX 2 13 1 14 3 15
REMARK H PARENT
REMARK Flexibility Score: inf
ROOT
ATOM      1  C   UNL     1     119.818 121.056 145.027  1.00  0.00     0.012 C 
ENDROOT
BRANCH   1   2
ATOM      2  C   UNL     1     120.144 119.993 146.104  1.00  0.00     0.016 C 
ATOM      3  C   UNL     1     121.647 119.687 146.125  1.00  0.00     0.013 C 
BRANCH   2   4
ATOM      4  C   UNL     1     119.343 118.717 145.911  1.00  0.00    -0.045 A 
ATOM      5  C   UNL     1     117.031 115.113 145.344  1.00  0.00     0.044 C 
ATOM      6  C   UNL     1     117.838 116.366 145.511  1.00  0.00    -0.051 A 
ATOM      7  C   UNL     1     117.205 117.618 145.532  1.00  0.00     0.004 A 
ATOM      8  C   UNL     1     119.224 116.292 145.714  1.00  0.00     0.004 A 
ATOM      9  C   UNL     1     117.952 118.783 145.724  1.00  0.00     0.004 A 
ATOM     10  C   UNL     1     119.972 117.458 145.906  1.00  0.00     0.004 A 
ENDBRANCH   2   4
ENDBRANCH   1   2
BRANCH   1  11
ATOM     11  C   UNL     1     120.371 120.711 143.633  1.00  0.00     0.028 C 
BRANCH  11  12
ATOM     12  C   UNL     1     119.347 120.017 142.767  1.00  0.00    -0.028 C 
ATOM     13  C   UNL     1     119.514 118.801 142.203  1.00  0.00    -0.080 C 
ATOM     14  C   UNL     1     120.754 117.971 142.441  1.00  0.00     0.039 C 
ATOM     15  C   UNL     1     118.413 118.256 141.331  1.00  0.00     0.039 C 
ENDBRANCH  11  12
ENDBRANCH   1  11
TORSDOF 4
ENDMDL
MODEL 4
REMARK VINA RESULT:    -5.397      1.371      2.023
REMARK INTER + INTRA:          -8.150
REMARK INTER:                  -6.827
REMARK INTRA:                  -1.322
REMARK UNBOUND:                -1.490
REMARK SMILES CC(C)=CCC[C@H](C)c1ccc(C)cc1
REMARK SMILES IDX 6 1 7 2 8 3 9 4 13 5 12 6 11 7 14 8 10 9 15 10 5 11 4 12
REMARK SMILES IDX 2 13 1 14 3 15
REMARK H PARENT
REMARK Flexibility Score: inf
ROOT
ATOM      1  C   UNL     1     121.906 117.014 142.707  1.00  0.00     0.012 C 
ENDROOT
BRANCH   1   2
ATOM      2  C   UNL     1     122.195 117.367 144.186  1.00  0.00     0.016 C 
ATOM      3  C   UNL     1     121.763 116.221 145.110  1.00  0.00     0.013 C 
BRANCH   2   4
ATOM      4  C   UNL     1     121.533 118.667 144.605  1.00  0.00    -0.045 A 
ATOM      5  C   UNL     1     119.654 122.382 145.754  1.00  0.00     0.044 C 
ATOM      6  C   UNL     1     120.282 121.086 145.339  1.00  0.00    -0.051 A 
ATOM      7  C   UNL     1     121.097 121.027 144.200  1.00  0.00     0.004 A 
ATOM      8  C   UNL     1     120.113 119.935 146.124  1.00  0.00     0.004 A 
ATOM      9  C   UNL     1     121.712 119.827 143.833  1.00  0.00     0.004 A 
ATOM     10  C   UNL     1     120.727 118.735 145.757  1.00  0.00     0.004 A 
ENDBRANCH   2   4
ENDBRANCH   1   2
BRANCH   1  11
ATOM     11  C   UNL     1     120.443 116.615 142.442  1.00  0.00     0.028 C 
BRANCH  11  12
ATOM     12  C   UNL     1     119.541 117.817 142.292  1.00  0.00    -0.028 C 
ATOM     13  C   UNL     1     118.451 118.059 143.052  1.00  0.00    -0.080 C 
ATOM     14  C   UNL     1     118.054 117.155 144.196  1.00  0.00     0.039 C 
ATOM     15  C   UNL     1     117.627 119.284 142.755  1.00  0.00     0.039 C 
ENDBRANCH  11  12
ENDBRANCH   1  11
TORSDOF 4
ENDMDL
MODEL 5
REMARK VINA RESULT:    -5.346      1.508      4.636
REMARK INTER + INTRA:          -8.086
REMARK INTER:                  -6.967
REMARK INTRA:                  -1.119
REMARK UNBOUND:                -1.490
REMARK SMILES CC(C)=CCC[C@H](C)c1ccc(C)cc1
REMARK SMILES IDX 6 1 7 2 8 3 9 4 13 5 12 6 11 7 14 8 10 9 15 10 5 11 4 12
REMARK SMILES IDX 2 13 1 14 3 15
REMARK H PARENT
REMARK Flexibility Score: inf
ROOT
ATOM      1  C   UNL     1     118.058 120.561 146.125  1.00  0.00     0.012 C 
ENDROOT
BRANCH   1   2
ATOM      2  C   UNL     1     119.532 120.967 145.883  1.00  0.00     0.016 C 
ATOM      3  C   UNL     1     119.617 122.408 145.363  1.00  0.00     0.013 C 
BRANCH   2   4
ATOM      4  C   UNL     1     120.240 120.016 144.936  1.00  0.00    -0.045 A 
ATOM      5  C   UNL     1     122.258 117.343 142.208  1.00  0.00     0.044 C 
ATOM      6  C   UNL     1     121.583 118.286 143.158  1.00  0.00    -0.051 A 
ATOM      7  C   UNL     1     120.900 119.411 142.672  1.00  0.00     0.004 A 
ATOM      8  C   UNL     1     121.572 118.016 144.534  1.00  0.00     0.004 A 
ATOM      9  C   UNL     1     120.240 120.272 143.554  1.00  0.00     0.004 A 
ATOM     10  C   UNL     1     120.912 118.876 145.417  1.00  0.00     0.004 A 
ENDBRANCH   2   4
ENDBRANCH   1   2
BRANCH   1  11
ATOM     11  C   UNL     1     117.486 119.636 145.035  1.00  0.00     0.028 C 
BRANCH  11  12
ATOM     12  C   UNL     1     117.312 118.217 145.523  1.00  0.00    -0.028 C 
ATOM     13  C   UNL     1     117.578 117.114 144.790  1.00  0.00    -0.080 C 
ATOM     14  C   UNL     1     118.148 117.198 143.394  1.00  0.00     0.039 C 
ATOM     15  C   UNL     1     117.316 115.764 145.404  1.00  0.00     0.039 C 
ENDBRANCH  11  12
ENDBRANCH   1  11
TORSDOF 4
ENDMDL
MODEL 6
REMARK VINA RESULT:    -5.293      1.529      4.426
REMARK INTER + INTRA:          -8.022
REMARK INTER:                  -7.096
REMARK INTRA:                  -0.925
REMARK UNBOUND:                -1.490
REMARK SMILES CC(C)=CCC[C@H](C)c1ccc(C)cc1
REMARK SMILES IDX 6 1 7 2 8 3 9 4 13 5 12 6 11 7 14 8 10 9 15 10 5 11 4 12
REMARK SMILES IDX 2 13 1 14 3 15
REMARK H PARENT
REMARK Flexibility Score: inf
ROOT
ATOM      1  C   UNL     1     121.646 120.301 144.211  1.00  0.00     0.012 C 
ENDROOT
BRANCH   1   2
ATOM      2  C   UNL     1     121.108 119.278 143.182  1.00  0.00     0.016 C 
ATOM      3  C   UNL     1     120.435 119.996 142.006  1.00  0.00     0.013 C 
BRANCH   2   4
ATOM      4  C   UNL     1     120.155 118.278 143.811  1.00  0.00    -0.045 A 
ATOM      5  C   UNL     1     117.415 115.437 145.565  1.00  0.00     0.044 C 
ATOM      6  C   UNL     1     118.375 116.402 144.937  1.00  0.00    -0.051 A 
ATOM      7  C   UNL     1     117.968 117.212 143.867  1.00  0.00     0.004 A 
ATOM      8  C   UNL     1     119.669 116.551 145.458  1.00  0.00     0.004 A 
ATOM      9  C   UNL     1     118.851 118.137 143.306  1.00  0.00     0.004 A 
ATOM     10  C   UNL     1     120.554 117.476 144.897  1.00  0.00     0.004 A 
ENDBRANCH   2   4
ENDBRANCH   1   2
BRANCH   1  11
ATOM     11  C   UNL     1     120.734 120.479 145.438  1.00  0.00     0.028 C 
BRANCH  11  12
ATOM     12  C   UNL     1     119.924 121.751 145.369  1.00  0.00    -0.028 C 
ATOM     13  C   UNL     1     118.576 121.809 145.432  1.00  0.00    -0.080 C 
ATOM     14  C   UNL     1     117.730 120.575 145.643  1.00  0.00     0.039 C 
ATOM     15  C   UNL     1     117.909 123.154 145.310  1.00  0.00     0.039 C 
ENDBRANCH  11  12
ENDBRANCH   1  11
TORSDOF 4
ENDMDL
MODEL 7
REMARK VINA RESULT:    -5.161      1.605      4.440
REMARK INTER + INTRA:          -7.858
REMARK INTER:                  -6.467
REMARK INTRA:                  -1.391
REMARK UNBOUND:                -1.490
REMARK SMILES CC(C)=CCC[C@H](C)c1ccc(C)cc1
REMARK SMILES IDX 6 1 7 2 8 3 9 4 13 5 12 6 11 7 14 8 10 9 15 10 5 11 4 12
REMARK SMILES IDX 2 13 1 14 3 15
REMARK H PARENT
REMARK Flexibility Score: inf
ROOT
ATOM      1  C   UNL     1     117.130 117.900 146.095  1.00  0.00     0.012 C 
ENDROOT
BRANCH   1   2
ATOM      2  C   UNL     1     117.192 116.915 144.903  1.00  0.00     0.016 C 
ATOM      3  C   UNL     1     116.929 115.479 145.373  1.00  0.00     0.013 C 
BRANCH   2   4
ATOM      4  C   UNL     1     118.513 116.998 144.159  1.00  0.00    -0.045 A 
ATOM      5  C   UNL     1     122.251 117.265 142.011  1.00  0.00     0.044 C 
ATOM      6  C   UNL     1     120.957 117.200 142.767  1.00  0.00    -0.051 A 
ATOM      7  C   UNL     1     119.755 117.570 142.145  1.00  0.00     0.004 A 
ATOM      8  C   UNL     1     120.929 116.706 144.079  1.00  0.00     0.004 A 
ATOM      9  C   UNL     1     118.545 117.476 142.837  1.00  0.00     0.004 A 
ATOM     10  C   UNL     1     119.719 116.612 144.772  1.00  0.00     0.004 A 
ENDBRANCH   2   4
ENDBRANCH   1   2
BRANCH   1  11
ATOM     11  C   UNL     1     117.536 119.339 145.728  1.00  0.00     0.028 C 
BRANCH  11  12
ATOM     12  C   UNL     1     118.959 119.651 146.125  1.00  0.00    -0.028 C 
ATOM     13  C   UNL     1     119.865 120.255 145.326  1.00  0.00    -0.080 C 
ATOM     14  C   UNL     1     119.512 120.743 143.940  1.00  0.00     0.039 C 
ATOM     15  C   UNL     1     121.260 120.464 145.852  1.00  0.00     0.039 C 
ENDBRANCH  11  12
ENDBRANCH   1  11
TORSDOF 4
ENDMDL
MODEL 8
REMARK VINA RESULT:    -4.895      1.292      4.140
REMARK INTER + INTRA:          -7.531
REMARK INTER:                  -6.189
REMARK INTRA:                  -1.342
REMARK UNBOUND:                -1.490
REMARK SMILES CC(C)=CCC[C@H](C)c1ccc(C)cc1
REMARK SMILES IDX 6 1 7 2 8 3 9 4 13 5 12 6 11 7 14 8 10 9 15 10 5 11 4 12
REMARK SMILES IDX 2 13 1 14 3 15
REMARK H PARENT
REMARK Flexibility Score: inf
ROOT
ATOM      1  C   UNL     1     118.154 120.414 145.821  1.00  0.00     0.012 C 
ENDROOT
BRANCH   1   2
ATOM      2  C   UNL     1     119.671 120.452 146.125  1.00  0.00     0.016 C 
ATOM      3  C   UNL     1     120.293 121.756 145.610  1.00  0.00     0.013 C 
BRANCH   2   4
ATOM      4  C   UNL     1     120.400 119.251 145.550  1.00  0.00    -0.045 A 
ATOM      5  C   UNL     1     122.515 115.860 143.911  1.00  0.00     0.044 C 
ATOM      6  C   UNL     1     121.796 117.034 144.506  1.00  0.00    -0.051 A 
ATOM      7  C   UNL     1     122.284 118.335 144.310  1.00  0.00     0.004 A 
ATOM      8  C   UNL     1     120.595 116.848 145.205  1.00  0.00     0.004 A 
ATOM      9  C   UNL     1     121.595 119.433 144.833  1.00  0.00     0.004 A 
ATOM     10  C   UNL     1     119.906 117.945 145.729  1.00  0.00     0.004 A 
ENDBRANCH   2   4
ENDBRANCH   1   2
BRANCH   1  11
ATOM     11  C   UNL     1     117.806 120.783 144.368  1.00  0.00     0.028 C 
BRANCH  11  12
ATOM     12  C   UNL     1     117.778 119.575 143.462  1.00  0.00    -0.028 C 
ATOM     13  C   UNL     1     118.658 119.341 142.465  1.00  0.00    -0.080 C 
ATOM     14  C   UNL     1     119.824 120.263 142.193  1.00  0.00     0.039 C 
ATOM     15  C   UNL     1     118.476 118.107 141.621  1.00  0.00     0.039 C 
ENDBRANCH  11  12
ENDBRANCH   1  11
TORSDOF 4
ENDMDL
MODEL 9
REMARK VINA RESULT:    -4.884      1.415      2.723
REMARK INTER + INTRA:          -7.517
REMARK INTER:                  -6.603
REMARK INTRA:                  -0.914
REMARK UNBOUND:                -1.490
REMARK SMILES CC(C)=CCC[C@H](C)c1ccc(C)cc1
REMARK SMILES IDX 6 1 7 2 8 3 9 4 13 5 12 6 11 7 14 8 10 9 15 10 5 11 4 12
REMARK SMILES IDX 2 13 1 14 3 15
REMARK H PARENT
REMARK Flexibility Score: inf
ROOT
ATOM      1  C   UNL     1     118.484 117.287 143.303  1.00  0.00     0.012 C 
ENDROOT
BRANCH   1   2
ATOM      2  C   UNL     1     118.585 117.632 144.808  1.00  0.00     0.016 C 
ATOM      3  C   UNL     1     117.404 117.031 145.581  1.00  0.00     0.013 C 
BRANCH   2   4
ATOM      4  C   UNL     1     118.673 119.128 145.049  1.00  0.00    -0.045 A 
ATOM      5  C   UNL     1     118.880 123.390 145.719  1.00  0.00     0.044 C 
ATOM      6  C   UNL     1     118.789 121.908 145.510  1.00  0.00    -0.051 A 
ATOM      7  C   UNL     1     117.823 121.373 144.646  1.00  0.00     0.004 A 
ATOM      8  C   UNL     1     119.713 121.050 146.125  1.00  0.00     0.004 A 
ATOM      9  C   UNL     1     117.762 119.995 144.422  1.00  0.00     0.004 A 
ATOM     10  C   UNL     1     119.652 119.671 145.902  1.00  0.00     0.004 A 
ENDBRANCH   2   4
ENDBRANCH   1   2
BRANCH   1  11
ATOM     11  C   UNL     1     119.842 116.972 142.650  1.00  0.00     0.028 C 
BRANCH  11  12
ATOM     12  C   UNL     1     120.847 118.079 142.856  1.00  0.00    -0.028 C 
ATOM     13  C   UNL     1     121.854 118.045 143.755  1.00  0.00    -0.080 C 
ATOM     14  C   UNL     1     122.114 116.836 144.623  1.00  0.00     0.039 C 
ATOM     15  C   UNL     1     122.755 119.247 143.870  1.00  0.00     0.039 C 
ENDBRANCH  11  12
ENDBRANCH   1  11
TORSDOF 4
ENDMDL
