MODEL 1
REMARK VINA RESULT:    -6.707      0.000      0.000
REMARK INTER + INTRA:          -6.707
REMARK INTER:                  -6.707
REMARK INTRA:                   0.000
REMARK UNBOUND:                 0.000
REMARK SMILES Cc1cc2cc3c(C)cc(=O)oc3c(C)c2o1
REMARK SMILES IDX 8 1 7 2 9 3 10 4 11 5 12 6 13 7 6 8 5 9 4 10 3 11 2 12 17 13
REMARK SMILES IDX 16 14 14 15 15 16 1 17
REMARK H PARENT
REMARK Flexibility Score: inf
ROOT
ATOM      1  C   UNL     1      16.882 -16.923  28.638  1.00  0.00     0.045 C 
ATOM      2  C   UNL     1      15.930 -15.925  28.030  1.00  0.00    -0.033 A 
ATOM      3  C   UNL     1      16.296 -15.262  26.851  1.00  0.00     0.098 A 
ATOM      4  C   UNL     1      15.420 -14.337  26.280  1.00  0.00     0.336 A 
ATOM      5  O   UNL     1      15.742 -13.740  25.220  1.00  0.00    -0.246 OA
ATOM      6  O   UNL     1      14.247 -14.080  26.846  1.00  0.00    -0.422 OA
ATOM      7  C   UNL     1      13.838 -14.670  27.965  1.00  0.00     0.145 A 
ATOM      8  C   UNL     1      14.676 -15.635  28.612  1.00  0.00     0.022 A 
ATOM      9  C   UNL     1      14.230 -16.267  29.798  1.00  0.00     0.024 A 
ATOM     10  C   UNL     1      12.976 -15.923  30.289  1.00  0.00     0.022 A 
ATOM     11  C   UNL     1      12.295 -16.377  31.396  1.00  0.00     0.054 A 
ATOM     12  C   UNL     1      11.093 -15.678  31.367  1.00  0.00     0.102 A 
ATOM     13  O   UNL     1      11.048 -14.862  30.330  1.00  0.00    -0.461 OA
ATOM     14  C   UNL     1      12.175 -15.000  29.672  1.00  0.00     0.140 A 
ATOM     15  C   UNL     1      12.574 -14.340  28.507  1.00  0.00     0.036 A 
ATOM     16  C   UNL     1      11.670 -13.351  27.827  1.00  0.00     0.052 C 
ATOM     17  C   UNL     1      10.000 -15.806  32.373  1.00  0.00     0.087 C 
ENDROOT
TORSDOF 0
ENDMDL
MODEL 2
REMARK VINA RESULT:    -6.323      1.701      3.504
REMARK INTER + INTRA:          -6.323
REMARK INTER:                  -6.323
REMARK INTRA:                   0.000
REMARK UNBOUND:                 0.000
REMARK SMILES Cc1cc2cc3c(C)cc(=O)oc3c(C)c2o1
REMARK SMILES IDX 8 1 7 2 9 3 10 4 11 5 12 6 13 7 6 8 5 9 4 10 3 11 2 12 17 13
REMARK SMILES IDX 16 14 14 15 15 16 1 17
REMARK H PARENT
REMARK Flexibility Score: inf
ROOT
ATOM      1  C   UNL     1      11.394 -11.904  25.244  1.00  0.00     0.045 C 
ATOM      2  C   UNL     1      12.637 -12.743  25.393  1.00  0.00    -0.033 A 
ATOM      3  C   UNL     1      13.617 -12.699  24.393  1.00  0.00     0.098 A 
ATOM      4  C   UNL     1      14.772 -13.472  24.524  1.00  0.00     0.336 A 
ATOM      5  O   UNL     1      15.657 -13.435  23.630  1.00  0.00    -0.246 OA
ATOM      6  O   UNL     1      14.947 -14.248  25.587  1.00  0.00    -0.422 OA
ATOM      7  C   UNL     1      14.058 -14.340  26.571  1.00  0.00     0.145 A 
ATOM      8  C   UNL     1      12.848 -13.576  26.515  1.00  0.00     0.022 A 
ATOM      9  C   UNL     1      11.910 -13.672  27.571  1.00  0.00     0.024 A 
ATOM     10  C   UNL     1      12.210 -14.511  28.638  1.00  0.00     0.022 A 
ATOM     11  C   UNL     1      11.502 -14.786  29.785  1.00  0.00     0.054 A 
ATOM     12  C   UNL     1      12.306 -15.688  30.474  1.00  0.00     0.102 A 
ATOM     13  O   UNL     1      13.411 -15.944  29.799  1.00  0.00    -0.461 OA
ATOM     14  C   UNL     1      13.367 -15.242  28.692  1.00  0.00     0.140 A 
ATOM     15  C   UNL     1      14.318 -15.193  27.669  1.00  0.00     0.036 A 
ATOM     16  C   UNL     1      15.595 -15.980  27.759  1.00  0.00     0.052 C 
ATOM     17  C   UNL     1      11.972 -16.306  31.789  1.00  0.00     0.087 C 
ENDROOT
TORSDOF 0
ENDMDL
MODEL 3
REMARK VINA RESULT:    -6.124     10.342     12.159
REMARK INTER + INTRA:          -6.124
REMARK INTER:                  -6.124
REMARK INTRA:                   0.000
REMARK UNBOUND:                 0.000
REMARK SMILES Cc1cc2cc3c(C)cc(=O)oc3c(C)c2o1
REMARK SMILES IDX 8 1 7 2 9 3 10 4 11 5 12 6 13 7 6 8 5 9 4 10 3 11 2 12 17 13
REMARK SMILES IDX 16 14 14 15 15 16 1 17
REMARK H PARENT
REMARK Flexibility Score: inf
ROOT
ATOM      1  C   UNL     1       2.585 -17.795  19.629  1.00  0.00     0.045 C 
ATOM      2  C   UNL     1       3.479 -17.219  20.698  1.00  0.00    -0.033 A 
ATOM      3  C   UNL     1       3.051 -16.094  21.415  1.00  0.00     0.098 A 
ATOM      4  C   UNL     1       3.872 -15.555  22.407  1.00  0.00     0.336 A 
ATOM      5  O   UNL     1       3.492 -14.545  23.055  1.00  0.00    -0.246 OA
ATOM      6  O   UNL     1       5.053 -16.098  22.674  1.00  0.00    -0.422 OA
ATOM      7  C   UNL     1       5.522 -17.164  22.031  1.00  0.00     0.145 A 
ATOM      8  C   UNL     1       4.739 -17.779  21.002  1.00  0.00     0.022 A 
ATOM      9  C   UNL     1       5.241 -18.920  20.329  1.00  0.00     0.024 A 
ATOM     10  C   UNL     1       6.488 -19.405  20.705  1.00  0.00     0.022 A 
ATOM     11  C   UNL     1       7.205 -20.483  20.239  1.00  0.00     0.054 A 
ATOM     12  C   UNL     1       8.369 -20.472  20.998  1.00  0.00     0.102 A 
ATOM     13  O   UNL     1       8.364 -19.467  21.853  1.00  0.00    -0.461 OA
ATOM     14  C   UNL     1       7.237 -18.816  21.688  1.00  0.00     0.140 A 
ATOM     15  C   UNL     1       6.793 -17.682  22.374  1.00  0.00     0.036 A 
ATOM     16  C   UNL     1       7.616 -17.066  23.470  1.00  0.00     0.052 C 
ATOM     17  C   UNL     1       9.492 -21.445  20.865  1.00  0.00     0.087 C 
ENDROOT
TORSDOF 0
ENDMDL
MODEL 4
REMARK VINA RESULT:    -6.062      1.028      5.179
REMARK INTER + INTRA:          -6.062
REMARK INTER:                  -6.062
REMARK INTRA:                   0.000
REMARK UNBOUND:                 0.000
REMARK SMILES Cc1cc2cc3c(C)cc(=O)oc3c(C)c2o1
REMARK SMILES IDX 8 1 7 2 9 3 10 4 11 5 12 6 13 7 6 8 5 9 4 10 3 11 2 12 17 13
REMARK SMILES IDX 16 14 14 15 15 16 1 17
REMARK H PARENT
REMARK Flexibility Score: inf
ROOT
ATOM      1  C   UNL     1      13.631 -17.507  31.613  1.00  0.00     0.045 C 
ATOM      2  C   UNL     1      12.734 -16.475  30.977  1.00  0.00    -0.033 A 
ATOM      3  C   UNL     1      11.467 -16.238  31.525  1.00  0.00     0.098 A 
ATOM      4  C   UNL     1      10.631 -15.284  30.943  1.00  0.00     0.336 A 
ATOM      5  O   UNL     1       9.492 -15.065  31.432  1.00  0.00    -0.246 OA
ATOM      6  O   UNL     1      11.027 -14.602  29.875  1.00  0.00    -0.422 OA
ATOM      7  C   UNL     1      12.214 -14.778  29.302  1.00  0.00     0.145 A 
ATOM      8  C   UNL     1      13.132 -15.736  29.841  1.00  0.00     0.022 A 
ATOM      9  C   UNL     1      14.399 -15.911  29.232  1.00  0.00     0.024 A 
ATOM     10  C   UNL     1      14.704 -15.129  28.123  1.00  0.00     0.022 A 
ATOM     11  C   UNL     1      15.843 -15.080  27.352  1.00  0.00     0.054 A 
ATOM     12  C   UNL     1      15.566 -14.107  26.398  1.00  0.00     0.102 A 
ATOM     13  O   UNL     1      14.356 -13.608  26.572  1.00  0.00    -0.461 OA
ATOM     14  C   UNL     1      13.827 -14.214  27.608  1.00  0.00     0.140 A 
ATOM     15  C   UNL     1      12.560 -14.013  28.164  1.00  0.00     0.036 A 
ATOM     16  C   UNL     1      11.621 -12.984  27.602  1.00  0.00     0.052 C 
ATOM     17  C   UNL     1      16.491 -13.685  25.308  1.00  0.00     0.087 C 
ENDROOT
TORSDOF 0
ENDMDL
MODEL 5
REMARK VINA RESULT:    -6.048     11.175     12.582
REMARK INTER + INTRA:          -6.048
REMARK INTER:                  -6.048
REMARK INTRA:                   0.000
REMARK UNBOUND:                 0.000
REMARK SMILES Cc1cc2cc3c(C)cc(=O)oc3c(C)c2o1
REMARK SMILES IDX 8 1 7 2 9 3 10 4 11 5 12 6 13 7 6 8 5 9 4 10 3 11 2 12 17 13
REMARK SMILES IDX 16 14 14 15 15 16 1 17
REMARK H PARENT
REMARK Flexibility Score: inf
ROOT
ATOM      1  C   UNL     1       7.477 -20.512  20.752  1.00  0.00     0.045 C 
ATOM      2  C   UNL     1       6.938 -19.319  21.501  1.00  0.00    -0.033 A 
ATOM      3  C   UNL     1       7.622 -18.856  22.632  1.00  0.00     0.098 A 
ATOM      4  C   UNL     1       7.131 -17.751  23.330  1.00  0.00     0.336 A 
ATOM      5  O   UNL     1       7.742 -17.329  24.347  1.00  0.00    -0.246 OA
ATOM      6  O   UNL     1       6.022 -17.139  22.932  1.00  0.00    -0.422 OA
ATOM      7  C   UNL     1       5.323 -17.527  21.869  1.00  0.00     0.145 A 
ATOM      8  C   UNL     1       5.762 -18.650  21.096  1.00  0.00     0.022 A 
ATOM      9  C   UNL     1       5.017 -19.051  19.960  1.00  0.00     0.024 A 
ATOM     10  C   UNL     1       3.878 -18.324  19.635  1.00  0.00     0.022 A 
ATOM     11  C   UNL     1       2.986 -18.478  18.599  1.00  0.00     0.054 A 
ATOM     12  C   UNL     1       2.063 -17.454  18.789  1.00  0.00     0.102 A 
ATOM     13  O   UNL     1       2.367 -16.739  19.856  1.00  0.00    -0.461 OA
ATOM     14  C   UNL     1       3.459 -17.251  20.375  1.00  0.00     0.140 A 
ATOM     15  C   UNL     1       4.150 -16.823  21.511  1.00  0.00     0.036 A 
ATOM     16  C   UNL     1       3.690 -15.626  22.294  1.00  0.00     0.052 C 
ATOM     17  C   UNL     1       0.875 -17.197  17.926  1.00  0.00     0.087 C 
ENDROOT
TORSDOF 0
ENDMDL
MODEL 6
REMARK VINA RESULT:    -5.865      2.449      3.415
REMARK INTER + INTRA:          -5.865
REMARK INTER:                  -5.865
REMARK INTRA:                   0.000
REMARK UNBOUND:                 0.000
REMARK SMILES Cc1cc2cc3c(C)cc(=O)oc3c(C)c2o1
REMARK SMILES IDX 8 1 7 2 9 3 10 4 11 5 12 6 13 7 6 8 5 9 4 10 3 11 2 12 17 13
REMARK SMILES IDX 16 14 14 15 15 16 1 17
REMARK H PARENT
REMARK Flexibility Score: inf
ROOT
ATOM      1  C   UNL     1      15.880 -10.701  27.238  1.00  0.00     0.045 C 
ATOM      2  C   UNL     1      14.794 -11.466  26.526  1.00  0.00    -0.033 A 
ATOM      3  C   UNL     1      14.408 -11.069  25.239  1.00  0.00     0.098 A 
ATOM      4  C   UNL     1      13.404 -11.773  24.572  1.00  0.00     0.336 A 
ATOM      5  O   UNL     1      13.053 -11.422  23.415  1.00  0.00    -0.246 OA
ATOM      6  O   UNL     1      12.812 -12.812  25.148  1.00  0.00    -0.422 OA
ATOM      7  C   UNL     1      13.127 -13.242  26.366  1.00  0.00     0.145 A 
ATOM      8  C   UNL     1      14.150 -12.576  27.116  1.00  0.00     0.022 A 
ATOM      9  C   UNL     1      14.487 -13.045  28.409  1.00  0.00     0.024 A 
ATOM     10  C   UNL     1      13.804 -14.152  28.901  1.00  0.00     0.022 A 
ATOM     11  C   UNL     1      13.929 -14.818  30.099  1.00  0.00     0.054 A 
ATOM     12  C   UNL     1      12.992 -15.842  30.019  1.00  0.00     0.102 A 
ATOM     13  O   UNL     1      12.347 -15.800  28.868  1.00  0.00    -0.461 OA
ATOM     14  C   UNL     1      12.826 -14.787  28.185  1.00  0.00     0.140 A 
ATOM     15  C   UNL     1      12.448 -14.357  26.910  1.00  0.00     0.036 A 
ATOM     16  C   UNL     1      11.392 -15.084  26.127  1.00  0.00     0.052 C 
ATOM     17  C   UNL     1      12.725 -16.849  31.086  1.00  0.00     0.087 C 
ENDROOT
TORSDOF 0
ENDMDL
MODEL 7
REMARK VINA RESULT:    -5.803      1.456      2.902
REMARK INTER + INTRA:          -5.803
REMARK INTER:                  -5.803
REMARK INTRA:                   0.000
REMARK UNBOUND:                 0.000
REMARK SMILES Cc1cc2cc3c(C)cc(=O)oc3c(C)c2o1
REMARK SMILES IDX 8 1 7 2 9 3 10 4 11 5 12 6 13 7 6 8 5 9 4 10 3 11 2 12 17 13
REMARK SMILES IDX 16 14 14 15 15 16 1 17
REMARK H PARENT
REMARK Flexibility Score: inf
ROOT
ATOM      1  C   UNL     1      12.288 -12.626  26.662  1.00  0.00     0.045 C 
ATOM      2  C   UNL     1      13.272 -13.588  27.278  1.00  0.00    -0.033 A 
ATOM      3  C   UNL     1      14.542 -13.729  26.704  1.00  0.00     0.098 A 
ATOM      4  C   UNL     1      15.460 -14.616  27.269  1.00  0.00     0.336 A 
ATOM      5  O   UNL     1      16.603 -14.747  26.758  1.00  0.00    -0.246 OA
ATOM      6  O   UNL     1      15.138 -15.327  28.343  1.00  0.00    -0.422 OA
ATOM      7  C   UNL     1      13.951 -15.243  28.938  1.00  0.00     0.145 A 
ATOM      8  C   UNL     1      12.955 -14.354  28.422  1.00  0.00     0.022 A 
ATOM      9  C   UNL     1      11.697 -14.263  29.067  1.00  0.00     0.024 A 
ATOM     10  C   UNL     1      11.481 -15.050  30.192  1.00  0.00     0.022 A 
ATOM     11  C   UNL     1      10.379 -15.156  31.009  1.00  0.00     0.054 A 
ATOM     12  C   UNL     1      10.755 -16.089  31.969  1.00  0.00     0.102 A 
ATOM     13  O   UNL     1      11.984 -16.519  31.751  1.00  0.00    -0.461 OA
ATOM     14  C   UNL     1      12.433 -15.901  30.685  1.00  0.00     0.140 A 
ATOM     15  C   UNL     1      13.685 -16.036  30.079  1.00  0.00     0.036 A 
ATOM     16  C   UNL     1      14.728 -16.954  30.650  1.00  0.00     0.052 C 
ATOM     17  C   UNL     1       9.893 -16.566  33.089  1.00  0.00     0.087 C 
ENDROOT
TORSDOF 0
ENDMDL
MODEL 8
REMARK VINA RESULT:    -5.678      6.182      9.757
REMARK INTER + INTRA:          -5.678
REMARK INTER:                  -5.678
REMARK INTRA:                   0.000
REMARK UNBOUND:                 0.000
REMARK SMILES Cc1cc2cc3c(C)cc(=O)oc3c(C)c2o1
REMARK SMILES IDX 8 1 7 2 9 3 10 4 11 5 12 6 13 7 6 8 5 9 4 10 3 11 2 12 17 13
REMARK SMILES IDX 16 14 14 15 15 16 1 17
REMARK H PARENT
REMARK Flexibility Score: inf
ROOT
ATOM      1  C   UNL     1       7.236 -21.373  36.040  1.00  0.00     0.045 C 
ATOM      2  C   UNL     1       7.547 -21.901  34.663  1.00  0.00    -0.033 A 
ATOM      3  C   UNL     1       7.037 -23.147  34.277  1.00  0.00     0.098 A 
ATOM      4  C   UNL     1       7.319 -23.644  33.003  1.00  0.00     0.336 A 
ATOM      5  O   UNL     1       6.862 -24.762  32.650  1.00  0.00    -0.246 OA
ATOM      6  O   UNL     1       8.067 -22.946  32.158  1.00  0.00    -0.422 OA
ATOM      7  C   UNL     1       8.585 -21.758  32.459  1.00  0.00     0.145 A 
ATOM      8  C   UNL     1       8.339 -21.177  33.745  1.00  0.00     0.022 A 
ATOM      9  C   UNL     1       8.886 -19.908  34.055  1.00  0.00     0.024 A 
ATOM     10  C   UNL     1       9.644 -19.267  33.082  1.00  0.00     0.022 A 
ATOM     11  C   UNL     1      10.276 -18.045  33.103  1.00  0.00     0.054 A 
ATOM     12  C   UNL     1      10.864 -17.944  31.847  1.00  0.00     0.102 A 
ATOM     13  O   UNL     1      10.614 -19.018  31.122  1.00  0.00    -0.461 OA
ATOM     14  C   UNL     1       9.880 -19.823  31.853  1.00  0.00     0.140 A 
ATOM     15  C   UNL     1       9.374 -21.078  31.502  1.00  0.00     0.036 A 
ATOM     16  C   UNL     1       9.619 -21.660  30.139  1.00  0.00     0.052 C 
ATOM     17  C   UNL     1      11.686 -16.793  31.373  1.00  0.00     0.087 C 
ENDROOT
TORSDOF 0
ENDMDL
MODEL 9
REMARK VINA RESULT:    -5.549      9.338     10.840
REMARK INTER + INTRA:          -5.549
REMARK INTER:                  -5.549
REMARK INTRA:                   0.000
REMARK UNBOUND:                 0.000
REMARK SMILES Cc1cc2cc3c(C)cc(=O)oc3c(C)c2o1
REMARK SMILES IDX 8 1 7 2 9 3 10 4 11 5 12 6 13 7 6 8 5 9 4 10 3 11 2 12 17 13
REMARK SMILES IDX 16 14 14 15 15 16 1 17
REMARK H PARENT
REMARK Flexibility Score: inf
ROOT
ATOM      1  C   UNL     1       6.513 -16.527  21.170  1.00  0.00     0.045 C 
ATOM      2  C   UNL     1       5.217 -16.694  21.923  1.00  0.00    -0.033 A 
ATOM      3  C   UNL     1       4.028 -16.228  21.350  1.00  0.00     0.098 A 
ATOM      4  C   UNL     1       2.824 -16.379  22.040  1.00  0.00     0.336 A 
ATOM      5  O   UNL     1       1.751 -15.964  21.530  1.00  0.00    -0.246 OA
ATOM      6  O   UNL     1       2.799 -16.960  23.234  1.00  0.00    -0.422 OA
ATOM      7  C   UNL     1       3.890 -17.423  23.837  1.00  0.00     0.145 A 
ATOM      8  C   UNL     1       5.164 -17.309  23.194  1.00  0.00     0.022 A 
ATOM      9  C   UNL     1       6.321 -17.814  23.838  1.00  0.00     0.024 A 
ATOM     10  C   UNL     1       6.166 -18.412  25.084  1.00  0.00     0.022 A 
ATOM     11  C   UNL     1       7.096 -18.988  25.919  1.00  0.00     0.054 A 
ATOM     12  C   UNL     1       6.352 -19.419  27.011  1.00  0.00     0.102 A 
ATOM     13  O   UNL     1       5.074 -19.125  26.856  1.00  0.00    -0.461 OA
ATOM     14  C   UNL     1       4.948 -18.519  25.699  1.00  0.00     0.140 A 
ATOM     15  C   UNL     1       3.780 -18.027  25.112  1.00  0.00     0.036 A 
ATOM     16  C   UNL     1       2.447 -18.180  25.789  1.00  0.00     0.052 C 
ATOM     17  C   UNL     1       6.907 -20.104  28.213  1.00  0.00     0.087 C 
ENDROOT
TORSDOF 0
ENDMDL
