MODEL 1
REMARK VINA RESULT:    -4.249      0.000      0.000
REMARK INTER + INTRA:          -4.637
REMARK INTER:                  -4.621
REMARK INTRA:                  -0.016
REMARK UNBOUND:                -0.016
REMARK SMILES OCc1ccco1
REMARK SMILES IDX 2 1 3 2 5 3 6 4 4 5 7 6 1 7
REMARK H PARENT 1 8
REMARK Flexibility Score: inf
ROOT
ATOM      1  C   UNL     1      -2.565 -23.153  50.518  1.00  0.00     0.231 C 
ENDROOT
BRANCH   1   2
ATOM      2  C   UNL     1      -3.810 -23.358  49.715  1.00  0.00     0.129 A 
ATOM      3  C   UNL     1      -5.572 -24.264  48.767  1.00  0.00     0.042 A 
ATOM      4  C   UNL     1      -5.510 -22.908  48.509  1.00  0.00     0.195 A 
ATOM      5  C   UNL     1      -4.476 -24.555  49.549  1.00  0.00     0.048 A 
ATOM      6  O   UNL     1      -4.449 -22.396  49.091  1.00  0.00    -0.467 OA
ENDBRANCH   1   2
BRANCH   1   7
ATOM      7  O   UNL     1      -2.197 -24.349  51.149  1.00  0.00    -0.388 OA
ATOM      8  H   UNL     1      -1.365 -24.660  50.702  1.00  0.00     0.211 HD
ENDBRANCH   1   7
TORSDOF 2
ENDMDL
MODEL 2
REMARK VINA RESULT:    -4.020      9.007      9.112
REMARK INTER + INTRA:          -4.389
REMARK INTER:                  -4.367
REMARK INTRA:                  -0.021
REMARK UNBOUND:                -0.016
REMARK SMILES OCc1ccco1
REMARK SMILES IDX 2 1 3 2 5 3 6 4 4 5 7 6 1 7
REMARK H PARENT 1 8
REMARK Flexibility Score: inf
ROOT
ATOM      1  C   UNL     1      -6.580 -23.401  57.870  1.00  0.00     0.231 C 
ENDROOT
BRANCH   1   2
ATOM      2  C   UNL     1      -7.613 -22.321  57.797  1.00  0.00     0.129 A 
ATOM      3  C   UNL     1      -9.451 -21.152  58.072  1.00  0.00     0.042 A 
ATOM      4  C   UNL     1      -8.516 -20.444  57.343  1.00  0.00     0.195 A 
ATOM      5  C   UNL     1      -8.868 -22.365  58.369  1.00  0.00     0.048 A 
ATOM      6  O   UNL     1      -7.428 -21.168  57.200  1.00  0.00    -0.467 OA
ENDBRANCH   1   2
BRANCH   1   7
ATOM      7  O   UNL     1      -5.471 -23.061  57.085  1.00  0.00    -0.388 OA
ATOM      8  H   UNL     1      -5.793 -23.015  56.146  1.00  0.00     0.211 HD
ENDBRANCH   1   7
TORSDOF 2
ENDMDL
MODEL 3
REMARK VINA RESULT:    -3.802      1.441      2.344
REMARK INTER + INTRA:          -4.151
REMARK INTER:                  -4.137
REMARK INTRA:                  -0.014
REMARK UNBOUND:                -0.016
REMARK SMILES OCc1ccco1
REMARK SMILES IDX 2 1 3 2 5 3 6 4 4 5 7 6 1 7
REMARK H PARENT 1 8
REMARK Flexibility Score: inf
ROOT
ATOM      1  C   UNL     1      -4.040 -21.052  49.904  1.00  0.00     0.231 C 
ENDROOT
BRANCH   1   2
ATOM      2  C   UNL     1      -4.528 -22.432  49.594  1.00  0.00     0.129 A 
ATOM      3  C   UNL     1      -5.575 -24.133  48.682  1.00  0.00     0.042 A 
ATOM      4  C   UNL     1      -4.703 -24.555  49.665  1.00  0.00     0.195 A 
ATOM      5  C   UNL     1      -5.461 -22.760  48.632  1.00  0.00     0.048 A 
ATOM      6  O   UNL     1      -4.091 -23.517  50.188  1.00  0.00    -0.467 OA
ENDBRANCH   1   2
BRANCH   1   7
ATOM      7  O   UNL     1      -2.934 -20.741  49.102  1.00  0.00    -0.388 OA
ATOM      8  H   UNL     1      -2.949 -21.379  48.340  1.00  0.00     0.211 HD
ENDBRANCH   1   7
TORSDOF 2
ENDMDL
MODEL 4
REMARK VINA RESULT:    -3.778      1.937      3.696
REMARK INTER + INTRA:          -4.125
REMARK INTER:                  -4.109
REMARK INTRA:                  -0.016
REMARK UNBOUND:                -0.016
REMARK SMILES OCc1ccco1
REMARK SMILES IDX 2 1 3 2 5 3 6 4 4 5 7 6 1 7
REMARK H PARENT 1 8
REMARK Flexibility Score: inf
ROOT
ATOM      1  C   UNL     1      -3.728 -23.504  50.127  1.00  0.00     0.231 C 
ENDROOT
BRANCH   1   2
ATOM      2  C   UNL     1      -2.290 -23.258  50.457  1.00  0.00     0.129 A 
ATOM      3  C   UNL     1      -0.144 -23.537  50.830  1.00  0.00     0.042 A 
ATOM      4  C   UNL     1      -0.495 -22.205  50.916  1.00  0.00     0.195 A 
ATOM      5  C   UNL     1      -1.303 -24.220  50.530  1.00  0.00     0.048 A 
ATOM      6  O   UNL     1      -1.781 -22.071  50.685  1.00  0.00    -0.467 OA
ENDBRANCH   1   2
BRANCH   1   7
ATOM      7  O   UNL     1      -3.998 -24.879  50.147  1.00  0.00    -0.388 OA
ATOM      8  H   UNL     1      -3.167 -25.326  50.458  1.00  0.00     0.211 HD
ENDBRANCH   1   7
TORSDOF 2
ENDMDL
MODEL 5
REMARK VINA RESULT:    -3.757     12.030     13.007
REMARK INTER + INTRA:          -4.102
REMARK INTER:                  -4.089
REMARK INTRA:                  -0.013
REMARK UNBOUND:                -0.016
REMARK SMILES OCc1ccco1
REMARK SMILES IDX 2 1 3 2 5 3 6 4 4 5 7 6 1 7
REMARK H PARENT 1 8
REMARK Flexibility Score: inf
ROOT
ATOM      1  C   UNL     1      -8.615 -12.228  49.296  1.00  0.00     0.231 C 
ENDROOT
BRANCH   1   2
ATOM      2  C   UNL     1      -8.399 -11.669  50.667  1.00  0.00     0.129 A 
ATOM      3  C   UNL     1      -7.458 -10.912  52.501  1.00  0.00     0.042 A 
ATOM      4  C   UNL     1      -8.834 -10.812  52.569  1.00  0.00     0.195 A 
ATOM      5  C   UNL     1      -7.175 -11.464  51.270  1.00  0.00     0.048 A 
ATOM      6  O   UNL     1      -9.366 -11.269  51.458  1.00  0.00    -0.467 OA
ENDBRANCH   1   2
BRANCH   1   7
ATOM      7  O   UNL     1      -8.883 -13.601  49.372  1.00  0.00    -0.388 OA
ATOM      8  H   UNL     1      -9.328 -13.754  50.247  1.00  0.00     0.211 HD
ENDBRANCH   1   7
TORSDOF 2
ENDMDL
MODEL 6
REMARK VINA RESULT:    -3.741      1.397      3.222
REMARK INTER + INTRA:          -4.085
REMARK INTER:                  -4.072
REMARK INTRA:                  -0.013
REMARK UNBOUND:                -0.016
REMARK SMILES OCc1ccco1
REMARK SMILES IDX 2 1 3 2 5 3 6 4 4 5 7 6 1 7
REMARK H PARENT 1 8
REMARK Flexibility Score: inf
ROOT
ATOM      1  C   UNL     1      -5.955 -21.322  48.268  1.00  0.00     0.231 C 
ENDROOT
BRANCH   1   2
ATOM      2  C   UNL     1      -5.286 -22.484  48.930  1.00  0.00     0.129 A 
ATOM      3  C   UNL     1      -4.720 -24.521  49.525  1.00  0.00     0.042 A 
ATOM      4  C   UNL     1      -3.909 -23.582  50.132  1.00  0.00     0.195 A 
ATOM      5  C   UNL     1      -5.609 -23.813  48.746  1.00  0.00     0.048 A 
ATOM      6  O   UNL     1      -4.271 -22.376  49.754  1.00  0.00    -0.467 OA
ENDBRANCH   1   2
BRANCH   1   7
ATOM      7  O   UNL     1      -6.922 -20.773  49.121  1.00  0.00    -0.388 OA
ATOM      8  H   UNL     1      -7.365 -21.538  49.576  1.00  0.00     0.211 HD
ENDBRANCH   1   7
TORSDOF 2
ENDMDL
MODEL 7
REMARK VINA RESULT:    -3.738      2.397      3.330
REMARK INTER + INTRA:          -4.082
REMARK INTER:                  -4.061
REMARK INTRA:                  -0.021
REMARK UNBOUND:                -0.016
REMARK SMILES OCc1ccco1
REMARK SMILES IDX 2 1 3 2 5 3 6 4 4 5 7 6 1 7
REMARK H PARENT 1 8
REMARK Flexibility Score: inf
ROOT
ATOM      1  C   UNL     1       0.442 -22.259  50.952  1.00  0.00     0.231 C 
ENDROOT
BRANCH   1   2
ATOM      2  C   UNL     1      -0.916 -22.801  50.639  1.00  0.00     0.129 A 
ATOM      3  C   UNL     1      -2.568 -24.144  50.099  1.00  0.00     0.042 A 
ATOM      4  C   UNL     1      -3.035 -22.884  50.417  1.00  0.00     0.195 A 
ATOM      5  C   UNL     1      -1.198 -24.093  50.244  1.00  0.00     0.048 A 
ATOM      6  O   UNL     1      -2.025 -22.107  50.738  1.00  0.00    -0.467 OA
ENDBRANCH   1   2
BRANCH   1   7
ATOM      7  O   UNL     1       0.329 -21.083  51.706  1.00  0.00    -0.388 OA
ATOM      8  H   UNL     1       1.181 -20.986  52.208  1.00  0.00     0.211 HD
ENDBRANCH   1   7
TORSDOF 2
ENDMDL
MODEL 8
REMARK VINA RESULT:    -3.732      1.945      2.244
REMARK INTER + INTRA:          -4.075
REMARK INTER:                  -4.055
REMARK INTRA:                  -0.020
REMARK UNBOUND:                -0.016
REMARK SMILES OCc1ccco1
REMARK SMILES IDX 2 1 3 2 5 3 6 4 4 5 7 6 1 7
REMARK H PARENT 1 8
REMARK Flexibility Score: inf
ROOT
ATOM      1  C   UNL     1      -2.046 -25.150  48.053  1.00  0.00     0.231 C 
ENDROOT
BRANCH   1   2
ATOM      2  C   UNL     1      -3.432 -24.772  48.471  1.00  0.00     0.129 A 
ATOM      3  C   UNL     1      -5.566 -24.256  48.444  1.00  0.00     0.042 A 
ATOM      4  C   UNL     1      -5.090 -24.336  49.738  1.00  0.00     0.195 A 
ATOM      5  C   UNL     1      -4.495 -24.541  47.624  1.00  0.00     0.048 A 
ATOM      6  O   UNL     1      -3.814 -24.649  49.721  1.00  0.00    -0.467 OA
ENDBRANCH   1   2
BRANCH   1   7
ATOM      7  O   UNL     1      -1.469 -25.997  49.008  1.00  0.00    -0.388 OA
ATOM      8  H   UNL     1      -1.803 -25.695  49.894  1.00  0.00     0.211 HD
ENDBRANCH   1   7
TORSDOF 2
ENDMDL
MODEL 9
REMARK VINA RESULT:    -3.643      2.643      3.921
REMARK INTER + INTRA:          -3.979
REMARK INTER:                  -3.961
REMARK INTRA:                  -0.018
REMARK UNBOUND:                -0.016
REMARK SMILES OCc1ccco1
REMARK SMILES IDX 2 1 3 2 5 3 6 4 4 5 7 6 1 7
REMARK H PARENT 1 8
REMARK Flexibility Score: inf
ROOT
ATOM      1  C   UNL     1      -3.329 -21.545  50.507  1.00  0.00     0.231 C 
ENDROOT
BRANCH   1   2
ATOM      2  C   UNL     1      -2.149 -22.457  50.623  1.00  0.00     0.129 A 
ATOM      3  C   UNL     1      -0.873 -24.244  50.675  1.00  0.00     0.042 A 
ATOM      4  C   UNL     1      -0.124 -23.093  50.820  1.00  0.00     0.195 A 
ATOM      5  C   UNL     1      -2.183 -23.834  50.545  1.00  0.00     0.048 A 
ATOM      6  O   UNL     1      -0.914 -22.044  50.781  1.00  0.00    -0.467 OA
ENDBRANCH   1   2
BRANCH   1   7
ATOM      7  O   UNL     1      -3.086 -20.565  49.537  1.00  0.00    -0.388 OA
ATOM      8  H   UNL     1      -2.099 -20.464  49.478  1.00  0.00     0.211 HD
ENDBRANCH   1   7
TORSDOF 2
ENDMDL
