MODEL 1
REMARK VINA RESULT:    -3.565      0.000      0.000
REMARK INTER + INTRA:          -7.085
REMARK INTER:                  -5.650
REMARK INTRA:                  -1.435
REMARK UNBOUND:                -1.435
REMARK SMILES CCCCCCCCCCCC(=O)[O-]
REMARK SMILES IDX 7 1 8 2 9 3 10 4 11 5 12 6 13 7 14 8 6 9 5 10 4 11 3 12 2 13
REMARK SMILES IDX 1 14
REMARK H PARENT
REMARK Flexibility Score: inf
ROOT
ATOM      1  C   UNL     1     182.935 181.872 201.466  1.00  0.00     0.000 C 
ENDROOT
BRANCH   1   2
ATOM      2  C   UNL     1     183.351 183.263 201.968  1.00  0.00     0.000 C 
BRANCH   2   3
ATOM      3  C   UNL     1     184.209 184.028 200.948  1.00  0.00     0.000 C 
BRANCH   3   4
ATOM      4  C   UNL     1     183.917 183.608 199.496  1.00  0.00     0.006 C 
BRANCH   4   5
ATOM      5  C   UNL     1     183.502 184.799 198.622  1.00  0.00     0.053 C 
BRANCH   5   6
ATOM      6  C   UNL     1     182.014 184.888 198.475  1.00  0.00     0.041 C 
ATOM      7  O   UNL     1     181.501 185.790 197.762  1.00  0.00    -0.550 OA
ATOM      8  O   UNL     1     181.192 183.997 199.155  1.00  0.00    -0.550 OA
ENDBRANCH   5   6
ENDBRANCH   4   5
ENDBRANCH   3   4
ENDBRANCH   2   3
ENDBRANCH   1   2
BRANCH   1   9
ATOM      9  C   UNL     1     183.830 180.780 202.071  1.00  0.00     0.000 C 
BRANCH   9  10
ATOM     10  C   UNL     1     184.243 179.706 201.047  1.00  0.00    -0.000 C 
BRANCH  10  11
ATOM     11  C   UNL     1     185.507 180.037 200.234  1.00  0.00    -0.000 C 
BRANCH  11  12
ATOM     12  C   UNL     1     186.484 180.950 200.987  1.00  0.00    -0.000 C 
BRANCH  12  13
ATOM     13  C   UNL     1     187.216 181.888 200.021  1.00  0.00    -0.003 C 
ATOM     14  C   UNL     1     186.899 181.542 198.570  1.00  0.00     0.004 C 
ENDBRANCH  12  13
ENDBRANCH  11  12
ENDBRANCH  10  11
ENDBRANCH   9  10
ENDBRANCH   1   9
TORSDOF 10
ENDMDL
MODEL 2
REMARK VINA RESULT:    -3.535      2.365      2.782
REMARK INTER + INTRA:          -7.036
REMARK INTER:                  -5.535
REMARK INTRA:                  -1.501
REMARK UNBOUND:                -1.435
REMARK SMILES CCCCCCCCCCCC(=O)[O-]
REMARK SMILES IDX 7 1 8 2 9 3 10 4 11 5 12 6 13 7 14 8 6 9 5 10 4 11 3 12 2 13
REMARK SMILES IDX 1 14
REMARK H PARENT
REMARK Flexibility Score: inf
ROOT
ATOM      1  C   UNL     1     183.352 182.371 202.123  1.00  0.00     0.000 C 
ENDROOT
BRANCH   1   2
ATOM      2  C   UNL     1     184.046 183.486 201.325  1.00  0.00     0.000 C 
BRANCH   2   3
ATOM      3  C   UNL     1     183.794 183.378 199.814  1.00  0.00     0.000 C 
BRANCH   3   4
ATOM      4  C   UNL     1     184.767 184.239 198.989  1.00  0.00     0.006 C 
BRANCH   4   5
ATOM      5  C   UNL     1     185.455 185.313 199.841  1.00  0.00     0.053 C 
BRANCH   5   6
ATOM      6  C   UNL     1     186.191 186.306 198.997  1.00  0.00     0.041 C 
ATOM      7  O   UNL     1     186.446 186.047 197.790  1.00  0.00    -0.550 OA
ATOM      8  O   UNL     1     186.629 187.503 199.550  1.00  0.00    -0.550 OA
ENDBRANCH   5   6
ENDBRANCH   4   5
ENDBRANCH   3   4
ENDBRANCH   2   3
ENDBRANCH   1   2
BRANCH   1   9
ATOM      9  C   UNL     1     183.418 181.034 201.371  1.00  0.00     0.000 C 
BRANCH   9  10
ATOM     10  C   UNL     1     184.431 180.049 201.982  1.00  0.00    -0.000 C 
BRANCH  10  11
ATOM     11  C   UNL     1     185.879 180.215 201.484  1.00  0.00    -0.000 C 
BRANCH  11  12
ATOM     12  C   UNL     1     185.974 180.393 199.963  1.00  0.00    -0.000 C 
BRANCH  12  13
ATOM     13  C   UNL     1     187.023 181.448 199.598  1.00  0.00    -0.003 C 
ATOM     14  C   UNL     1     187.521 182.184 200.838  1.00  0.00     0.004 C 
ENDBRANCH  12  13
ENDBRANCH  11  12
ENDBRANCH  10  11
ENDBRANCH   9  10
ENDBRANCH   1   9
TORSDOF 10
ENDMDL
MODEL 3
REMARK VINA RESULT:    -3.523      3.832      5.569
REMARK INTER + INTRA:          -7.018
REMARK INTER:                  -5.657
REMARK INTRA:                  -1.361
REMARK UNBOUND:                -1.435
REMARK SMILES CCCCCCCCCCCC(=O)[O-]
REMARK SMILES IDX 7 1 8 2 9 3 10 4 11 5 12 6 13 7 14 8 6 9 5 10 4 11 3 12 2 13
REMARK SMILES IDX 1 14
REMARK H PARENT
REMARK Flexibility Score: inf
ROOT
ATOM      1  C   UNL     1     185.747 180.231 201.103  1.00  0.00     0.000 C 
ENDROOT
BRANCH   1   2
ATOM      2  C   UNL     1     186.252 180.794 199.766  1.00  0.00     0.000 C 
BRANCH   2   3
ATOM      3  C   UNL     1     187.390 181.811 199.943  1.00  0.00     0.000 C 
BRANCH   3   4
ATOM      4  C   UNL     1     187.380 182.474 201.332  1.00  0.00     0.006 C 
BRANCH   4   5
ATOM      5  C   UNL     1     188.659 182.176 202.125  1.00  0.00     0.053 C 
BRANCH   5   6
ATOM      6  C   UNL     1     189.782 183.083 201.728  1.00  0.00     0.041 C 
ATOM      7  O   UNL     1     190.971 182.665 201.744  1.00  0.00    -0.550 OA
ATOM      8  O   UNL     1     189.522 184.402 201.375  1.00  0.00    -0.550 OA
ENDBRANCH   5   6
ENDBRANCH   4   5
ENDBRANCH   3   4
ENDBRANCH   2   3
ENDBRANCH   1   2
BRANCH   1   9
ATOM      9  C   UNL     1     184.214 180.293 201.181  1.00  0.00     0.000 C 
BRANCH   9  10
ATOM     10  C   UNL     1     183.700 181.528 201.943  1.00  0.00    -0.000 C 
BRANCH  10  11
ATOM     11  C   UNL     1     182.916 182.540 201.088  1.00  0.00    -0.000 C 
BRANCH  11  12
ATOM     12  C   UNL     1     183.743 183.780 200.719  1.00  0.00    -0.000 C 
BRANCH  12  13
ATOM     13  C   UNL     1     184.142 183.753 199.240  1.00  0.00    -0.003 C 
ATOM     14  C   UNL     1     185.243 184.768 198.947  1.00  0.00     0.004 C 
ENDBRANCH  12  13
ENDBRANCH  11  12
ENDBRANCH  10  11
ENDBRANCH   9  10
ENDBRANCH   1   9
TORSDOF 10
ENDMDL
MODEL 4
REMARK VINA RESULT:    -3.510      1.839      3.325
REMARK INTER + INTRA:          -6.997
REMARK INTER:                  -5.562
REMARK INTRA:                  -1.435
REMARK UNBOUND:                -1.435
REMARK SMILES CCCCCCCCCCCC(=O)[O-]
REMARK SMILES IDX 7 1 8 2 9 3 10 4 11 5 12 6 13 7 14 8 6 9 5 10 4 11 3 12 2 13
REMARK SMILES IDX 1 14
REMARK H PARENT
REMARK Flexibility Score: inf
ROOT
ATOM      1  C   UNL     1     186.046 182.923 198.636  1.00  0.00     0.000 C 
ENDROOT
BRANCH   1   2
ATOM      2  C   UNL     1     186.053 184.097 199.627  1.00  0.00     0.000 C 
BRANCH   2   3
ATOM      3  C   UNL     1     184.654 184.423 200.169  1.00  0.00     0.000 C 
BRANCH   3   4
ATOM      4  C   UNL     1     183.561 183.521 199.568  1.00  0.00     0.006 C 
BRANCH   4   5
ATOM      5  C   UNL     1     182.150 183.992 199.945  1.00  0.00     0.053 C 
BRANCH   5   6
ATOM      6  C   UNL     1     181.953 184.025 201.429  1.00  0.00     0.041 C 
ATOM      7  O   UNL     1     181.946 182.953 202.091  1.00  0.00    -0.550 OA
ATOM      8  O   UNL     1     181.740 185.235 202.078  1.00  0.00    -0.550 OA
ENDBRANCH   5   6
ENDBRANCH   4   5
ENDBRANCH   3   4
ENDBRANCH   2   3
ENDBRANCH   1   2
BRANCH   1   9
ATOM      9  C   UNL     1     186.894 181.755 199.163  1.00  0.00     0.000 C 
BRANCH   9  10
ATOM     10  C   UNL     1     187.330 181.941 200.628  1.00  0.00    -0.000 C 
BRANCH  10  11
ATOM     11  C   UNL     1     186.737 180.921 201.616  1.00  0.00    -0.000 C 
BRANCH  11  12
ATOM     12  C   UNL     1     185.341 181.313 202.119  1.00  0.00    -0.000 C 
BRANCH  12  13
ATOM     13  C   UNL     1     184.266 180.395 201.528  1.00  0.00    -0.003 C 
ATOM     14  C   UNL     1     184.861 179.059 201.092  1.00  0.00     0.004 C 
ENDBRANCH  12  13
ENDBRANCH  11  12
ENDBRANCH  10  11
ENDBRANCH   9  10
ENDBRANCH   1   9
TORSDOF 10
ENDMDL
MODEL 5
REMARK VINA RESULT:    -3.433     15.248     16.811
REMARK INTER + INTRA:          -6.875
REMARK INTER:                  -5.442
REMARK INTRA:                  -1.433
REMARK UNBOUND:                -1.435
REMARK SMILES CCCCCCCCCCCC(=O)[O-]
REMARK SMILES IDX 7 1 8 2 9 3 10 4 11 5 12 6 13 7 14 8 6 9 5 10 4 11 3 12 2 13
REMARK SMILES IDX 1 14
REMARK H PARENT
REMARK Flexibility Score: inf
ROOT
ATOM      1  C   UNL     1     196.020 195.436 202.050  1.00  0.00     0.000 C 
ENDROOT
BRANCH   1   2
ATOM      2  C   UNL     1     195.982 194.867 200.623  1.00  0.00     0.000 C 
BRANCH   2   3
ATOM      3  C   UNL     1     194.596 194.333 200.234  1.00  0.00     0.000 C 
BRANCH   3   4
ATOM      4  C   UNL     1     194.253 194.598 198.757  1.00  0.00     0.006 C 
BRANCH   4   5
ATOM      5  C   UNL     1     192.757 194.416 198.469  1.00  0.00     0.053 C 
BRANCH   5   6
ATOM      6  C   UNL     1     192.380 192.969 198.379  1.00  0.00     0.041 C 
ATOM      7  O   UNL     1     192.779 192.270 197.410  1.00  0.00    -0.550 OA
ATOM      8  O   UNL     1     191.558 192.401 199.345  1.00  0.00    -0.550 OA
ENDBRANCH   5   6
ENDBRANCH   4   5
ENDBRANCH   3   4
ENDBRANCH   2   3
ENDBRANCH   1   2
BRANCH   1   9
ATOM      9  C   UNL     1     196.432 196.915 202.041  1.00  0.00     0.000 C 
BRANCH   9  10
ATOM     10  C   UNL     1     195.231 197.875 202.125  1.00  0.00    -0.000 C 
BRANCH  10  11
ATOM     11  C   UNL     1     194.807 198.505 200.786  1.00  0.00    -0.000 C 
BRANCH  11  12
ATOM     12  C   UNL     1     193.482 197.944 200.251  1.00  0.00    -0.000 C 
BRANCH  12  13
ATOM     13  C   UNL     1     192.687 197.257 201.366  1.00  0.00    -0.003 C 
ATOM     14  C   UNL     1     191.306 196.831 200.877  1.00  0.00     0.004 C 
ENDBRANCH  12  13
ENDBRANCH  11  12
ENDBRANCH  10  11
ENDBRANCH   9  10
ENDBRANCH   1   9
TORSDOF 10
ENDMDL
MODEL 6
REMARK VINA RESULT:    -3.431      2.348      4.081
REMARK INTER + INTRA:          -6.871
REMARK INTER:                  -5.704
REMARK INTRA:                  -1.167
REMARK UNBOUND:                -1.435
REMARK SMILES CCCCCCCCCCCC(=O)[O-]
REMARK SMILES IDX 7 1 8 2 9 3 10 4 11 5 12 6 13 7 14 8 6 9 5 10 4 11 3 12 2 13
REMARK SMILES IDX 1 14
REMARK H PARENT
REMARK Flexibility Score: inf
ROOT
ATOM      1  C   UNL     1     185.987 180.406 199.982  1.00  0.00     0.000 C 
ENDROOT
BRANCH   1   2
ATOM      2  C   UNL     1     186.925 181.545 199.554  1.00  0.00     0.000 C 
BRANCH   2   3
ATOM      3  C   UNL     1     186.353 182.380 198.399  1.00  0.00     0.000 C 
BRANCH   3   4
ATOM      4  C   UNL     1     185.191 183.287 198.842  1.00  0.00     0.006 C 
BRANCH   4   5
ATOM      5  C   UNL     1     185.544 184.114 200.085  1.00  0.00     0.053 C 
BRANCH   5   6
ATOM      6  C   UNL     1     185.954 185.508 199.727  1.00  0.00     0.041 C 
ATOM      7  O   UNL     1     185.104 186.326 199.285  1.00  0.00    -0.550 OA
ATOM      8  O   UNL     1     187.284 185.896 199.844  1.00  0.00    -0.550 OA
ENDBRANCH   5   6
ENDBRANCH   4   5
ENDBRANCH   3   4
ENDBRANCH   2   3
ENDBRANCH   1   2
BRANCH   1   9
ATOM      9  C   UNL     1     185.964 180.259 201.511  1.00  0.00     0.000 C 
BRANCH   9  10
ATOM     10  C   UNL     1     184.538 180.162 202.084  1.00  0.00    -0.000 C 
BRANCH  10  11
ATOM     11  C   UNL     1     183.478 180.990 201.334  1.00  0.00    -0.000 C 
BRANCH  11  12
ATOM     12  C   UNL     1     183.011 182.222 202.122  1.00  0.00    -0.000 C 
BRANCH  12  13
ATOM     13  C   UNL     1     182.147 183.137 201.249  1.00  0.00    -0.003 C 
ATOM     14  C   UNL     1     180.769 182.529 201.005  1.00  0.00     0.004 C 
ENDBRANCH  12  13
ENDBRANCH  11  12
ENDBRANCH  10  11
ENDBRANCH   9  10
ENDBRANCH   1   9
TORSDOF 10
ENDMDL
MODEL 7
REMARK VINA RESULT:    -3.417      1.588      3.706
REMARK INTER + INTRA:          -6.849
REMARK INTER:                  -5.742
REMARK INTRA:                  -1.107
REMARK UNBOUND:                -1.435
REMARK SMILES CCCCCCCCCCCC(=O)[O-]
REMARK SMILES IDX 7 1 8 2 9 3 10 4 11 5 12 6 13 7 14 8 6 9 5 10 4 11 3 12 2 13
REMARK SMILES IDX 1 14
REMARK H PARENT
REMARK Flexibility Score: inf
ROOT
ATOM      1  C   UNL     1     186.331 180.686 201.154  1.00  0.00     0.000 C 
ENDROOT
BRANCH   1   2
ATOM      2  C   UNL     1     185.046 180.419 201.954  1.00  0.00     0.000 C 
BRANCH   2   3
ATOM      3  C   UNL     1     183.776 180.795 201.177  1.00  0.00     0.000 C 
BRANCH   3   4
ATOM      4  C   UNL     1     182.795 181.634 202.015  1.00  0.00     0.006 C 
BRANCH   4   5
ATOM      5  C   UNL     1     181.497 181.938 201.255  1.00  0.00     0.053 C 
BRANCH   5   6
ATOM      6  C   UNL     1     181.076 183.365 201.424  1.00  0.00     0.041 C 
ATOM      7  O   UNL     1     181.769 184.153 202.120  1.00  0.00    -0.550 OA
ATOM      8  O   UNL     1     179.897 183.816 200.842  1.00  0.00    -0.550 OA
ENDBRANCH   5   6
ENDBRANCH   4   5
ENDBRANCH   3   4
ENDBRANCH   2   3
ENDBRANCH   1   2
BRANCH   1   9
ATOM      9  C   UNL     1     186.053 180.664 199.644  1.00  0.00     0.000 C 
BRANCH   9  10
ATOM     10  C   UNL     1     186.686 181.852 198.898  1.00  0.00    -0.000 C 
BRANCH  10  11
ATOM     11  C   UNL     1     185.685 182.894 198.367  1.00  0.00    -0.000 C 
BRANCH  11  12
ATOM     12  C   UNL     1     185.856 184.276 199.014  1.00  0.00    -0.000 C 
BRANCH  12  13
ATOM     13  C   UNL     1     184.573 184.709 199.732  1.00  0.00    -0.003 C 
ATOM     14  C   UNL     1     183.336 184.349 198.915  1.00  0.00     0.004 C 
ENDBRANCH  12  13
ENDBRANCH  11  12
ENDBRANCH  10  11
ENDBRANCH   9  10
ENDBRANCH   1   9
TORSDOF 10
ENDMDL
MODEL 8
REMARK VINA RESULT:    -3.358      2.379      3.696
REMARK INTER + INTRA:          -6.756
REMARK INTER:                  -5.398
REMARK INTRA:                  -1.358
REMARK UNBOUND:                -1.435
REMARK SMILES CCCCCCCCCCCC(=O)[O-]
REMARK SMILES IDX 7 1 8 2 9 3 10 4 11 5 12 6 13 7 14 8 6 9 5 10 4 11 3 12 2 13
REMARK SMILES IDX 1 14
REMARK H PARENT
REMARK Flexibility Score: inf
ROOT
ATOM      1  C   UNL     1     186.508 182.911 200.163  1.00  0.00     0.000 C 
ENDROOT
BRANCH   1   2
ATOM      2  C   UNL     1     185.515 182.793 198.997  1.00  0.00     0.000 C 
BRANCH   2   3
ATOM      3  C   UNL     1     184.390 183.836 199.069  1.00  0.00     0.000 C 
BRANCH   3   4
ATOM      4  C   UNL     1     184.497 184.737 200.312  1.00  0.00     0.006 C 
BRANCH   4   5
ATOM      5  C   UNL     1     184.086 186.185 200.014  1.00  0.00     0.053 C 
BRANCH   5   6
ATOM      6  C   UNL     1     185.275 187.089 199.903  1.00  0.00     0.041 C 
ATOM      7  O   UNL     1     185.130 188.338 199.974  1.00  0.00    -0.550 OA
ATOM      8  O   UNL     1     186.539 186.554 199.684  1.00  0.00    -0.550 OA
ENDBRANCH   5   6
ENDBRANCH   4   5
ENDBRANCH   3   4
ENDBRANCH   2   3
ENDBRANCH   1   2
BRANCH   1   9
ATOM      9  C   UNL     1     186.843 181.527 200.740  1.00  0.00     0.000 C 
BRANCH   9  10
ATOM     10  C   UNL     1     185.971 180.403 200.153  1.00  0.00    -0.000 C 
BRANCH  10  11
ATOM     11  C   UNL     1     185.190 179.577 201.191  1.00  0.00    -0.000 C 
BRANCH  11  12
ATOM     12  C   UNL     1     184.313 180.441 202.108  1.00  0.00    -0.000 C 
BRANCH  12  13
ATOM     13  C   UNL     1     183.159 181.077 201.325  1.00  0.00    -0.003 C 
ATOM     14  C   UNL     1     182.500 182.197 202.125  1.00  0.00     0.004 C 
ENDBRANCH  12  13
ENDBRANCH  11  12
ENDBRANCH  10  11
ENDBRANCH   9  10
ENDBRANCH   1   9
TORSDOF 10
ENDMDL
MODEL 9
REMARK VINA RESULT:    -1.807     16.126     17.441
REMARK INTER + INTRA:          -4.299
REMARK INTER:                  -2.878
REMARK INTRA:                  -1.421
REMARK UNBOUND:                -1.435
REMARK SMILES CCCCCCCCCCCC(=O)[O-]
REMARK SMILES IDX 7 1 8 2 9 3 10 4 11 5 12 6 13 7 14 8 6 9 5 10 4 11 3 12 2 13
REMARK SMILES IDX 1 14
REMARK H PARENT
REMARK Flexibility Score: inf
ROOT
ATOM      1  C   UNL     1     194.951 198.364 201.722  1.00  0.00     0.000 C 
ENDROOT
BRANCH   1   2
ATOM      2  C   UNL     1     193.630 197.713 201.282  1.00  0.00     0.000 C 
BRANCH   2   3
ATOM      3  C   UNL     1     193.583 196.208 201.583  1.00  0.00     0.000 C 
BRANCH   3   4
ATOM      4  C   UNL     1     193.563 195.349 200.305  1.00  0.00     0.006 C 
BRANCH   4   5
ATOM      5  C   UNL     1     193.816 196.184 199.043  1.00  0.00     0.053 C 
BRANCH   5   6
ATOM      6  C   UNL     1     192.605 196.247 198.166  1.00  0.00     0.041 C 
ATOM      7  O   UNL     1     192.385 195.339 197.321  1.00  0.00    -0.550 OA
ATOM      8  O   UNL     1     191.735 197.328 198.255  1.00  0.00    -0.550 OA
ENDBRANCH   5   6
ENDBRANCH   4   5
ENDBRANCH   3   4
ENDBRANCH   2   3
ENDBRANCH   1   2
BRANCH   1   9
ATOM      9  C   UNL     1     195.981 197.299 202.125  1.00  0.00     0.000 C 
BRANCH   9  10
ATOM     10  C   UNL     1     197.209 197.268 201.196  1.00  0.00    -0.000 C 
BRANCH  10  11
ATOM     11  C   UNL     1     197.753 195.861 200.886  1.00  0.00    -0.000 C 
BRANCH  11  12
ATOM     12  C   UNL     1     197.100 194.764 201.739  1.00  0.00    -0.000 C 
BRANCH  12  13
ATOM     13  C   UNL     1     196.827 193.509 200.903  1.00  0.00    -0.003 C 
ATOM     14  C   UNL     1     196.948 193.802 199.411  1.00  0.00     0.004 C 
ENDBRANCH  12  13
ENDBRANCH  11  12
ENDBRANCH  10  11
ENDBRANCH   9  10
ENDBRANCH   1   9
TORSDOF 10
ENDMDL
