MODEL 1
REMARK VINA RESULT:    -5.939      0.000      0.000
REMARK INTER + INTRA:         -11.787
REMARK INTER:                 -10.453
REMARK INTRA:                  -1.334
REMARK UNBOUND:                -1.334
REMARK SMILES CCCCCCC=CCCCCCCCC(=O)[O-]
REMARK SMILES IDX 10 1 11 2 12 3 13 4 14 5 15 6 16 7 17 8 18 9 9 10 8 11 7 12
REMARK SMILES IDX 6 13 5 14 4 15 3 16 2 17 1 18
REMARK H PARENT
REMARK Flexibility Score: inf
ROOT
ATOM      1  C   UNL     1      43.791  46.193  44.990  1.00  0.00     0.004 C 
ENDROOT
BRANCH   1   2
ATOM      2  C   UNL     1      44.804  45.895  43.870  1.00  0.00     0.000 C 
BRANCH   2   3
ATOM      3  C   UNL     1      44.248  45.083  42.683  1.00  0.00     0.000 C 
BRANCH   3   4
ATOM      4  C   UNL     1      42.761  45.324  42.366  1.00  0.00     0.000 C 
BRANCH   4   5
ATOM      5  C   UNL     1      42.503  45.581  40.874  1.00  0.00     0.006 C 
BRANCH   5   6
ATOM      6  C   UNL     1      43.707  45.153  40.028  1.00  0.00     0.053 C 
BRANCH   6   7
ATOM      7  C   UNL     1      43.261  44.697  38.676  1.00  0.00     0.041 C 
ATOM      8  O   UNL     1      42.137  45.043  38.228  1.00  0.00    -0.550 OA
ATOM      9  O   UNL     1      44.107  43.925  37.888  1.00  0.00    -0.550 OA
ENDBRANCH   6   7
ENDBRANCH   5   6
ENDBRANCH   4   5
ENDBRANCH   3   4
ENDBRANCH   2   3
ENDBRANCH   1   2
BRANCH   1  10
ATOM     10  C   UNL     1      44.209  47.378  45.873  1.00  0.00     0.027 C 
BRANCH  10  11
ATOM     11  C   UNL     1      44.533  46.926  47.269  1.00  0.00    -0.031 C 
ATOM     12  C   UNL     1      45.660  47.307  47.889  1.00  0.00    -0.031 C 
BRANCH  12  13
ATOM     13  C   UNL     1      45.982  46.853  49.287  1.00  0.00     0.027 C 
BRANCH  13  14
ATOM     14  C   UNL     1      45.277  45.529  49.614  1.00  0.00     0.004 C 
BRANCH  14  15
ATOM     15  C   UNL     1      46.262  44.394  49.955  1.00  0.00     0.000 C 
BRANCH  15  16
ATOM     16  C   UNL     1      47.312  44.098  48.869  1.00  0.00    -0.000 C 
BRANCH  16  17
ATOM     17  C   UNL     1      46.787  43.162  47.770  1.00  0.00    -0.003 C 
ATOM     18  C   UNL     1      46.580  43.916  46.459  1.00  0.00     0.004 C 
ENDBRANCH  16  17
ENDBRANCH  15  16
ENDBRANCH  14  15
ENDBRANCH  13  14
ENDBRANCH  12  13
ENDBRANCH  10  11
ENDBRANCH   1  10
TORSDOF 13
ENDMDL
MODEL 2
REMARK VINA RESULT:    -5.832      0.942      1.273
REMARK INTER + INTRA:         -11.599
REMARK INTER:                 -10.396
REMARK INTRA:                  -1.203
REMARK UNBOUND:                -1.334
REMARK SMILES CCCCCCC=CCCCCCCCC(=O)[O-]
REMARK SMILES IDX 10 1 11 2 12 3 13 4 14 5 15 6 16 7 17 8 18 9 9 10 8 11 7 12
REMARK SMILES IDX 6 13 5 14 4 15 3 16 2 17 1 18
REMARK H PARENT
REMARK Flexibility Score: inf
ROOT
ATOM      1  C   UNL     1      43.559  46.219  45.496  1.00  0.00     0.004 C 
ENDROOT
BRANCH   1   2
ATOM      2  C   UNL     1      44.377  45.689  44.304  1.00  0.00     0.000 C 
BRANCH   2   3
ATOM      3  C   UNL     1      43.574  45.465  43.006  1.00  0.00     0.000 C 
BRANCH   3   4
ATOM      4  C   UNL     1      44.420  45.142  41.762  1.00  0.00     0.000 C 
BRANCH   4   5
ATOM      5  C   UNL     1      43.615  45.219  40.456  1.00  0.00     0.006 C 
BRANCH   5   6
ATOM      6  C   UNL     1      42.135  45.500  40.741  1.00  0.00     0.053 C 
BRANCH   6   7
ATOM      7  C   UNL     1      41.315  45.281  39.510  1.00  0.00     0.041 C 
ATOM      8  O   UNL     1      40.126  44.881  39.603  1.00  0.00    -0.550 OA
ATOM      9  O   UNL     1      41.849  45.564  38.259  1.00  0.00    -0.550 OA
ENDBRANCH   6   7
ENDBRANCH   5   6
ENDBRANCH   4   5
ENDBRANCH   3   4
ENDBRANCH   2   3
ENDBRANCH   1   2
BRANCH   1  10
ATOM     10  C   UNL     1      44.219  47.422  46.185  1.00  0.00     0.027 C 
BRANCH  10  11
ATOM     11  C   UNL     1      44.552  47.111  47.617  1.00  0.00    -0.031 C 
ATOM     12  C   UNL     1      45.785  47.300  48.110  1.00  0.00    -0.031 C 
BRANCH  12  13
ATOM     13  C   UNL     1      46.116  46.987  49.544  1.00  0.00     0.027 C 
BRANCH  13  14
ATOM     14  C   UNL     1      45.443  45.682  49.995  1.00  0.00     0.004 C 
BRANCH  14  15
ATOM     15  C   UNL     1      46.434  44.511  50.124  1.00  0.00     0.000 C 
BRANCH  15  16
ATOM     16  C   UNL     1      47.122  44.095  48.811  1.00  0.00    -0.000 C 
BRANCH  16  17
ATOM     17  C   UNL     1      46.149  43.475  47.797  1.00  0.00    -0.003 C 
ATOM     18  C   UNL     1      46.567  43.800  46.365  1.00  0.00     0.004 C 
ENDBRANCH  16  17
ENDBRANCH  15  16
ENDBRANCH  14  15
ENDBRANCH  13  14
ENDBRANCH  12  13
ENDBRANCH  10  11
ENDBRANCH   1  10
TORSDOF 13
ENDMDL
MODEL 3
REMARK VINA RESULT:    -5.465      1.012      2.540
REMARK INTER + INTRA:         -10.953
REMARK INTER:                  -9.861
REMARK INTRA:                  -1.091
REMARK UNBOUND:                -1.334
REMARK SMILES CCCCCCC=CCCCCCCCC(=O)[O-]
REMARK SMILES IDX 10 1 11 2 12 3 13 4 14 5 15 6 16 7 17 8 18 9 9 10 8 11 7 12
REMARK SMILES IDX 6 13 5 14 4 15 3 16 2 17 1 18
REMARK H PARENT
REMARK Flexibility Score: inf
ROOT
ATOM      1  C   UNL     1      44.320  46.427  44.908  1.00  0.00     0.004 C 
ENDROOT
BRANCH   1   2
ATOM      2  C   UNL     1      43.306  45.792  43.938  1.00  0.00     0.000 C 
BRANCH   2   3
ATOM      3  C   UNL     1      43.914  45.203  42.648  1.00  0.00     0.000 C 
BRANCH   3   4
ATOM      4  C   UNL     1      43.150  45.537  41.355  1.00  0.00     0.000 C 
BRANCH   4   5
ATOM      5  C   UNL     1      41.652  45.211  41.445  1.00  0.00     0.006 C 
BRANCH   5   6
ATOM      6  C   UNL     1      41.181  44.449  40.202  1.00  0.00     0.053 C 
BRANCH   6   7
ATOM      7  C   UNL     1      42.046  44.778  39.028  1.00  0.00     0.041 C 
ATOM      8  O   UNL     1      42.880  43.937  38.600  1.00  0.00    -0.550 OA
ATOM      9  O   UNL     1      41.901  45.995  38.375  1.00  0.00    -0.550 OA
ENDBRANCH   6   7
ENDBRANCH   5   6
ENDBRANCH   4   5
ENDBRANCH   3   4
ENDBRANCH   2   3
ENDBRANCH   1   2
BRANCH   1  10
ATOM     10  C   UNL     1      45.709  45.776  44.829  1.00  0.00     0.027 C 
BRANCH  10  11
ATOM     11  C   UNL     1      45.861  44.698  45.864  1.00  0.00    -0.031 C 
ATOM     12  C   UNL     1      47.052  44.410  46.411  1.00  0.00    -0.031 C 
BRANCH  12  13
ATOM     13  C   UNL     1      47.202  43.330  47.447  1.00  0.00     0.027 C 
BRANCH  13  14
ATOM     14  C   UNL     1      47.280  43.926  48.860  1.00  0.00     0.004 C 
BRANCH  14  15
ATOM     15  C   UNL     1      45.893  44.175  49.482  1.00  0.00     0.000 C 
BRANCH  15  16
ATOM     16  C   UNL     1      45.612  45.636  49.878  1.00  0.00    -0.000 C 
BRANCH  16  17
ATOM     17  C   UNL     1      44.966  46.448  48.746  1.00  0.00    -0.003 C 
ATOM     18  C   UNL     1      45.845  47.631  48.348  1.00  0.00     0.004 C 
ENDBRANCH  16  17
ENDBRANCH  15  16
ENDBRANCH  14  15
ENDBRANCH  13  14
ENDBRANCH  12  13
ENDBRANCH  10  11
ENDBRANCH   1  10
TORSDOF 13
ENDMDL
MODEL 4
REMARK VINA RESULT:    -5.451      2.555      4.379
REMARK INTER + INTRA:         -10.928
REMARK INTER:                  -9.244
REMARK INTRA:                  -1.684
REMARK UNBOUND:                -1.334
REMARK SMILES CCCCCCC=CCCCCCCCC(=O)[O-]
REMARK SMILES IDX 10 1 11 2 12 3 13 4 14 5 15 6 16 7 17 8 18 9 9 10 8 11 7 12
REMARK SMILES IDX 6 13 5 14 4 15 3 16 2 17 1 18
REMARK H PARENT
REMARK Flexibility Score: inf
ROOT
ATOM      1  C   UNL     1      43.650  45.770  48.229  1.00  0.00     0.004 C 
ENDROOT
BRANCH   1   2
ATOM      2  C   UNL     1      44.692  46.875  47.976  1.00  0.00     0.000 C 
BRANCH   2   3
ATOM      3  C   UNL     1      44.763  47.388  46.523  1.00  0.00     0.000 C 
BRANCH   3   4
ATOM      4  C   UNL     1      45.745  46.633  45.610  1.00  0.00     0.000 C 
BRANCH   4   5
ATOM      5  C   UNL     1      45.091  45.453  44.876  1.00  0.00     0.006 C 
BRANCH   5   6
ATOM      6  C   UNL     1      43.724  45.851  44.309  1.00  0.00     0.053 C 
BRANCH   6   7
ATOM      7  C   UNL     1      43.632  45.486  42.861  1.00  0.00     0.041 C 
ATOM      8  O   UNL     1      42.521  45.183  42.353  1.00  0.00    -0.550 OA
ATOM      9  O   UNL     1      44.767  45.527  42.061  1.00  0.00    -0.550 OA
ENDBRANCH   6   7
ENDBRANCH   5   6
ENDBRANCH   4   5
ENDBRANCH   3   4
ENDBRANCH   2   3
ENDBRANCH   1   2
BRANCH   1  10
ATOM     10  C   UNL     1      44.256  44.513  48.870  1.00  0.00     0.027 C 
BRANCH  10  11
ATOM     11  C   UNL     1      45.754  44.510  48.743  1.00  0.00    -0.031 C 
ATOM     12  C   UNL     1      46.389  43.659  47.923  1.00  0.00    -0.031 C 
BRANCH  12  13
ATOM     13  C   UNL     1      47.888  43.656  47.799  1.00  0.00     0.027 C 
BRANCH  13  14
ATOM     14  C   UNL     1      48.344  42.774  46.628  1.00  0.00     0.004 C 
BRANCH  14  15
ATOM     15  C   UNL     1      47.169  42.122  45.876  1.00  0.00     0.000 C 
BRANCH  15  16
ATOM     16  C   UNL     1      47.441  40.699  45.355  1.00  0.00    -0.000 C 
BRANCH  16  17
ATOM     17  C   UNL     1      48.076  39.786  46.415  1.00  0.00    -0.003 C 
ATOM     18  C   UNL     1      48.676  38.537  45.775  1.00  0.00     0.004 C 
ENDBRANCH  16  17
ENDBRANCH  15  16
ENDBRANCH  14  15
ENDBRANCH  13  14
ENDBRANCH  12  13
ENDBRANCH  10  11
ENDBRANCH   1  10
TORSDOF 13
ENDMDL
MODEL 5
REMARK VINA RESULT:    -5.380      3.458      6.702
REMARK INTER + INTRA:         -10.803
REMARK INTER:                  -9.323
REMARK INTRA:                  -1.480
REMARK UNBOUND:                -1.334
REMARK SMILES CCCCCCC=CCCCCCCCC(=O)[O-]
REMARK SMILES IDX 10 1 11 2 12 3 13 4 14 5 15 6 16 7 17 8 18 9 9 10 8 11 7 12
REMARK SMILES IDX 6 13 5 14 4 15 3 16 2 17 1 18
REMARK H PARENT
REMARK Flexibility Score: inf
ROOT
ATOM      1  C   UNL     1      46.387  45.014  49.513  1.00  0.00     0.004 C 
ENDROOT
BRANCH   1   2
ATOM      2  C   UNL     1      46.746  43.665  48.862  1.00  0.00     0.000 C 
BRANCH   2   3
ATOM      3  C   UNL     1      47.990  43.688  47.950  1.00  0.00     0.000 C 
BRANCH   3   4
ATOM      4  C   UNL     1      47.769  43.136  46.531  1.00  0.00     0.000 C 
BRANCH   4   5
ATOM      5  C   UNL     1      46.397  42.468  46.357  1.00  0.00     0.006 C 
BRANCH   5   6
ATOM      6  C   UNL     1      46.424  41.451  45.212  1.00  0.00     0.053 C 
BRANCH   6   7
ATOM      7  C   UNL     1      47.628  40.571  45.321  1.00  0.00     0.041 C 
ATOM      8  O   UNL     1      48.472  40.534  44.388  1.00  0.00    -0.550 OA
ATOM      9  O   UNL     1      47.844  39.827  46.475  1.00  0.00    -0.550 OA
ENDBRANCH   6   7
ENDBRANCH   5   6
ENDBRANCH   4   5
ENDBRANCH   3   4
ENDBRANCH   2   3
ENDBRANCH   1   2
BRANCH   1  10
ATOM     10  C   UNL     1      44.878  45.297  49.506  1.00  0.00     0.027 C 
BRANCH  10  11
ATOM     11  C   UNL     1      44.334  45.301  48.105  1.00  0.00    -0.031 C 
ATOM     12  C   UNL     1      44.892  46.043  47.136  1.00  0.00    -0.031 C 
BRANCH  12  13
ATOM     13  C   UNL     1      44.345  46.046  45.734  1.00  0.00     0.027 C 
BRANCH  13  14
ATOM     14  C   UNL     1      45.407  45.585  44.725  1.00  0.00     0.004 C 
BRANCH  14  15
ATOM     15  C   UNL     1      44.797  44.953  43.460  1.00  0.00     0.000 C 
BRANCH  15  16
ATOM     16  C   UNL     1      43.409  45.492  43.071  1.00  0.00    -0.000 C 
BRANCH  16  17
ATOM     17  C   UNL     1      43.140  45.415  41.560  1.00  0.00    -0.003 C 
ATOM     18  C   UNL     1      41.651  45.231  41.277  1.00  0.00     0.004 C 
ENDBRANCH  16  17
ENDBRANCH  15  16
ENDBRANCH  14  15
ENDBRANCH  13  14
ENDBRANCH  12  13
ENDBRANCH  10  11
ENDBRANCH   1  10
TORSDOF 13
ENDMDL
MODEL 6
REMARK VINA RESULT:    -5.165      1.863      2.473
REMARK INTER + INTRA:         -10.425
REMARK INTER:                  -9.669
REMARK INTRA:                  -0.756
REMARK UNBOUND:                -1.334
REMARK SMILES CCCCCCC=CCCCCCCCC(=O)[O-]
REMARK SMILES IDX 10 1 11 2 12 3 13 4 14 5 15 6 16 7 17 8 18 9 9 10 8 11 7 12
REMARK SMILES IDX 6 13 5 14 4 15 3 16 2 17 1 18
REMARK H PARENT
REMARK Flexibility Score: inf
ROOT
ATOM      1  C   UNL     1      43.767  46.549  45.076  1.00  0.00     0.004 C 
ENDROOT
BRANCH   1   2
ATOM      2  C   UNL     1      44.762  45.682  44.283  1.00  0.00     0.000 C 
BRANCH   2   3
ATOM      3  C   UNL     1      44.223  45.115  42.954  1.00  0.00     0.000 C 
BRANCH   3   4
ATOM      4  C   UNL     1      42.752  45.450  42.650  1.00  0.00     0.000 C 
BRANCH   4   5
ATOM      5  C   UNL     1      42.447  45.487  41.145  1.00  0.00     0.006 C 
BRANCH   5   6
ATOM      6  C   UNL     1      43.696  45.151  40.324  1.00  0.00     0.053 C 
BRANCH   6   7
ATOM      7  C   UNL     1      43.325  44.837  38.910  1.00  0.00     0.041 C 
ATOM      8  O   UNL     1      42.307  45.364  38.390  1.00  0.00    -0.550 OA
ATOM      9  O   UNL     1      44.130  43.998  38.149  1.00  0.00    -0.550 OA
ENDBRANCH   6   7
ENDBRANCH   5   6
ENDBRANCH   4   5
ENDBRANCH   3   4
ENDBRANCH   2   3
ENDBRANCH   1   2
BRANCH   1  10
ATOM     10  C   UNL     1      44.097  46.616  46.574  1.00  0.00     0.027 C 
BRANCH  10  11
ATOM     11  C   UNL     1      44.892  45.418  47.008  1.00  0.00    -0.031 C 
ATOM     12  C   UNL     1      46.039  45.544  47.693  1.00  0.00    -0.031 C 
BRANCH  12  13
ATOM     13  C   UNL     1      46.835  44.343  48.126  1.00  0.00     0.027 C 
BRANCH  13  14
ATOM     14  C   UNL     1      46.578  43.147  47.199  1.00  0.00     0.004 C 
BRANCH  14  15
ATOM     15  C   UNL     1      47.773  42.177  47.128  1.00  0.00     0.000 C 
BRANCH  15  16
ATOM     16  C   UNL     1      47.514  40.887  46.329  1.00  0.00    -0.000 C 
BRANCH  16  17
ATOM     17  C   UNL     1      48.805  40.129  45.984  1.00  0.00    -0.003 C 
ATOM     18  C   UNL     1      48.564  38.622  45.944  1.00  0.00     0.004 C 
ENDBRANCH  16  17
ENDBRANCH  15  16
ENDBRANCH  14  15
ENDBRANCH  13  14
ENDBRANCH  12  13
ENDBRANCH  10  11
ENDBRANCH   1  10
TORSDOF 13
ENDMDL
MODEL 7
REMARK VINA RESULT:    -5.119      3.536      6.147
REMARK INTER + INTRA:         -10.343
REMARK INTER:                  -8.743
REMARK INTRA:                  -1.600
REMARK UNBOUND:                -1.334
REMARK SMILES CCCCCCC=CCCCCCCCC(=O)[O-]
REMARK SMILES IDX 10 1 11 2 12 3 13 4 14 5 15 6 16 7 17 8 18 9 9 10 8 11 7 12
REMARK SMILES IDX 6 13 5 14 4 15 3 16 2 17 1 18
REMARK H PARENT
REMARK Flexibility Score: inf
ROOT
ATOM      1  C   UNL     1      45.957  44.032  49.585  1.00  0.00     0.004 C 
ENDROOT
BRANCH   1   2
ATOM      2  C   UNL     1      45.214  45.378  49.657  1.00  0.00     0.000 C 
BRANCH   2   3
ATOM      3  C   UNL     1      46.076  46.619  49.343  1.00  0.00     0.000 C 
BRANCH   3   4
ATOM      4  C   UNL     1      45.495  47.565  48.277  1.00  0.00     0.000 C 
BRANCH   4   5
ATOM      5  C   UNL     1      44.334  46.936  47.491  1.00  0.00     0.006 C 
BRANCH   5   6
ATOM      6  C   UNL     1      44.402  47.325  46.010  1.00  0.00     0.053 C 
BRANCH   6   7
ATOM      7  C   UNL     1      45.154  46.293  45.232  1.00  0.00     0.041 C 
ATOM      8  O   UNL     1      46.407  46.215  45.329  1.00  0.00    -0.550 OA
ATOM      9  O   UNL     1      44.468  45.386  44.435  1.00  0.00    -0.550 OA
ENDBRANCH   6   7
ENDBRANCH   5   6
ENDBRANCH   4   5
ENDBRANCH   3   4
ENDBRANCH   2   3
ENDBRANCH   1   2
BRANCH   1  10
ATOM     10  C   UNL     1      47.142  44.056  48.610  1.00  0.00     0.027 C 
BRANCH  10  11
ATOM     11  C   UNL     1      47.088  42.890  47.663  1.00  0.00    -0.031 C 
ATOM     12  C   UNL     1      46.451  42.969  46.485  1.00  0.00    -0.031 C 
BRANCH  12  13
ATOM     13  C   UNL     1      46.398  41.801  45.538  1.00  0.00     0.027 C 
BRANCH  13  14
ATOM     14  C   UNL     1      47.396  40.709  45.951  1.00  0.00     0.004 C 
BRANCH  14  15
ATOM     15  C   UNL     1      48.518  40.502  44.917  1.00  0.00     0.000 C 
BRANCH  15  16
ATOM     16  C   UNL     1      49.912  40.971  45.370  1.00  0.00    -0.000 C 
BRANCH  16  17
ATOM     17  C   UNL     1      50.084  40.950  46.896  1.00  0.00    -0.003 C 
ATOM     18  C   UNL     1      50.708  42.250  47.397  1.00  0.00     0.004 C 
ENDBRANCH  16  17
ENDBRANCH  15  16
ENDBRANCH  14  15
ENDBRANCH  13  14
ENDBRANCH  12  13
ENDBRANCH  10  11
ENDBRANCH   1  10
TORSDOF 13
ENDMDL
MODEL 8
REMARK VINA RESULT:    -5.078      5.107      7.488
REMARK INTER + INTRA:         -10.272
REMARK INTER:                  -9.488
REMARK INTRA:                  -0.784
REMARK UNBOUND:                -1.334
REMARK SMILES CCCCCCC=CCCCCCCCC(=O)[O-]
REMARK SMILES IDX 10 1 11 2 12 3 13 4 14 5 15 6 16 7 17 8 18 9 9 10 8 11 7 12
REMARK SMILES IDX 6 13 5 14 4 15 3 16 2 17 1 18
REMARK H PARENT
REMARK Flexibility Score: inf
ROOT
ATOM      1  C   UNL     1      47.836  42.692  47.337  1.00  0.00     0.004 C 
ENDROOT
BRANCH   1   2
ATOM      2  C   UNL     1      47.237  43.702  48.332  1.00  0.00     0.000 C 
BRANCH   2   3
ATOM      3  C   UNL     1      45.729  43.977  48.160  1.00  0.00     0.000 C 
BRANCH   3   4
ATOM      4  C   UNL     1      45.375  45.393  47.673  1.00  0.00     0.000 C 
BRANCH   4   5
ATOM      5  C   UNL     1      46.268  45.867  46.516  1.00  0.00     0.006 C 
BRANCH   5   6
ATOM      6  C   UNL     1      45.477  46.740  45.536  1.00  0.00     0.053 C 
BRANCH   6   7
ATOM      7  C   UNL     1      44.415  45.935  44.857  1.00  0.00     0.041 C 
ATOM      8  O   UNL     1      44.731  45.008  44.066  1.00  0.00    -0.550 OA
ATOM      9  O   UNL     1      43.075  46.176  45.134  1.00  0.00    -0.550 OA
ENDBRANCH   6   7
ENDBRANCH   5   6
ENDBRANCH   4   5
ENDBRANCH   3   4
ENDBRANCH   2   3
ENDBRANCH   1   2
BRANCH   1  10
ATOM     10  C   UNL     1      46.791  42.118  46.369  1.00  0.00     0.027 C 
BRANCH  10  11
ATOM     11  C   UNL     1      47.293  40.863  45.712  1.00  0.00    -0.031 C 
ATOM     12  C   UNL     1      48.053  39.978  46.374  1.00  0.00    -0.031 C 
BRANCH  12  13
ATOM     13  C   UNL     1      48.555  38.722  45.714  1.00  0.00     0.027 C 
BRANCH  13  14
ATOM     14  C   UNL     1      48.949  37.668  46.759  1.00  0.00     0.004 C 
BRANCH  14  15
ATOM     15  C   UNL     1      48.493  36.247  46.378  1.00  0.00     0.000 C 
BRANCH  15  16
ATOM     16  C   UNL     1      48.303  35.286  47.565  1.00  0.00    -0.000 C 
BRANCH  16  17
ATOM     17  C   UNL     1      47.197  34.248  47.323  1.00  0.00    -0.003 C 
ATOM     18  C   UNL     1      46.167  34.270  48.450  1.00  0.00     0.004 C 
ENDBRANCH  16  17
ENDBRANCH  15  16
ENDBRANCH  14  15
ENDBRANCH  13  14
ENDBRANCH  12  13
ENDBRANCH  10  11
ENDBRANCH   1  10
TORSDOF 13
ENDMDL
MODEL 9
REMARK VINA RESULT:    -5.015      4.707      7.352
REMARK INTER + INTRA:         -10.160
REMARK INTER:                  -8.303
REMARK INTRA:                  -1.857
REMARK UNBOUND:                -1.334
REMARK SMILES CCCCCCC=CCCCCCCCC(=O)[O-]
REMARK SMILES IDX 10 1 11 2 12 3 13 4 14 5 15 6 16 7 17 8 18 9 9 10 8 11 7 12
REMARK SMILES IDX 6 13 5 14 4 15 3 16 2 17 1 18
REMARK H PARENT
REMARK Flexibility Score: inf
ROOT
ATOM      1  C   UNL     1      47.085  43.710  46.878  1.00  0.00     0.004 C 
ENDROOT
BRANCH   1   2
ATOM      2  C   UNL     1      47.219  43.671  48.411  1.00  0.00     0.000 C 
BRANCH   2   3
ATOM      3  C   UNL     1      45.970  44.136  49.189  1.00  0.00     0.000 C 
BRANCH   3   4
ATOM      4  C   UNL     1      46.165  45.404  50.039  1.00  0.00     0.000 C 
BRANCH   4   5
ATOM      5  C   UNL     1      46.047  46.696  49.218  1.00  0.00     0.006 C 
BRANCH   5   6
ATOM      6  C   UNL     1      44.825  46.650  48.295  1.00  0.00     0.053 C 
BRANCH   6   7
ATOM      7  C   UNL     1      45.182  47.139  46.928  1.00  0.00     0.041 C 
ATOM      8  O   UNL     1      46.390  47.268  46.597  1.00  0.00    -0.550 OA
ATOM      9  O   UNL     1      44.182  47.410  46.003  1.00  0.00    -0.550 OA
ENDBRANCH   6   7
ENDBRANCH   5   6
ENDBRANCH   4   5
ENDBRANCH   3   4
ENDBRANCH   2   3
ENDBRANCH   1   2
BRANCH   1  10
ATOM     10  C   UNL     1      46.350  42.487  46.312  1.00  0.00     0.027 C 
BRANCH  10  11
ATOM     11  C   UNL     1      47.311  41.529  45.666  1.00  0.00    -0.031 C 
ATOM     12  C   UNL     1      47.756  40.438  46.308  1.00  0.00    -0.031 C 
BRANCH  12  13
ATOM     13  C   UNL     1      48.718  39.481  45.660  1.00  0.00     0.027 C 
BRANCH  13  14
ATOM     14  C   UNL     1      49.566  40.187  44.592  1.00  0.00     0.004 C 
BRANCH  14  15
ATOM     15  C   UNL     1      50.906  40.710  45.140  1.00  0.00     0.000 C 
BRANCH  15  16
ATOM     16  C   UNL     1      51.171  42.205  44.889  1.00  0.00    -0.000 C 
BRANCH  16  17
ATOM     17  C   UNL     1      50.617  43.106  46.003  1.00  0.00    -0.003 C 
ATOM     18  C   UNL     1      50.747  42.435  47.368  1.00  0.00     0.004 C 
ENDBRANCH  16  17
ENDBRANCH  15  16
ENDBRANCH  14  15
ENDBRANCH  13  14
ENDBRANCH  12  13
ENDBRANCH  10  11
ENDBRANCH   1  10
TORSDOF 13
ENDMDL
