MODEL 1
REMARK VINA RESULT:    13.892      0.000      0.000
REMARK INTER + INTRA:          14.530
REMARK INTER:                  14.705
REMARK INTRA:                  -0.175
REMARK UNBOUND:                -0.175
REMARK SMILES C=C(C)[C@@H]1CC[C@@]2(C)CCCC(=C)[C@@H]2C1
REMARK SMILES IDX 4 1 5 2 6 3 7 4 9 5 10 6 11 7 12 8 13 9 14 10 15 11 8 12
REMARK SMILES IDX 2 13 3 14 1 15
REMARK H PARENT
REMARK Flexibility Score: inf
ROOT
ATOM      1  C   UNL     1      -0.505   5.787 -11.648  1.00  0.00     0.015 C 
ATOM      2  C   UNL     1       0.619   4.807 -11.256  1.00  0.00     0.008 C 
ATOM      3  C   UNL     1       1.439   5.330 -10.062  1.00  0.00     0.008 C 
ATOM      4  C   UNL     1       0.561   5.701  -8.832  1.00  0.00    -0.026 C 
ATOM      5  C   UNL     1       1.464   6.409  -7.775  1.00  0.00     0.008 C 
ATOM      6  C   UNL     1       0.672   6.958  -6.569  1.00  0.00     0.005 C 
ATOM      7  C   UNL     1      -0.487   7.868  -6.997  1.00  0.00     0.031 C 
ATOM      8  C   UNL     1      -1.317   7.201  -8.068  1.00  0.00    -0.074 C 
ATOM      9  C   UNL     1      -2.646   7.058  -7.907  1.00  0.00     0.008 C 
ATOM     10  C   UNL     1      -0.548   6.700  -9.282  1.00  0.00     0.021 C 
ATOM     11  C   UNL     1      -1.402   6.138 -10.443  1.00  0.00     0.016 C 
ATOM     12  C   UNL     1      -0.033   4.406  -8.207  1.00  0.00     0.012 C 
ENDROOT
BRANCH   1  13
ATOM     13  C   UNL     1      -1.325   5.254 -12.812  1.00  0.00    -0.077 C 
ATOM     14  C   UNL     1      -0.671   5.143 -14.165  1.00  0.00     0.039 C 
ATOM     15  C   UNL     1      -2.609   4.888 -12.655  1.00  0.00     0.008 C 
ENDBRANCH   1  13
TORSDOF 1
ENDMDL
MODEL 2
REMARK VINA RESULT:    16.181      1.052      5.049
REMARK INTER + INTRA:          16.952
REMARK INTER:                  17.122
REMARK INTRA:                  -0.170
REMARK UNBOUND:                -0.175
REMARK SMILES C=C(C)[C@@H]1CC[C@@]2(C)CCCC(=C)[C@@H]2C1
REMARK SMILES IDX 4 1 5 2 6 3 7 4 9 5 10 6 11 7 12 8 13 9 14 10 15 11 8 12
REMARK SMILES IDX 2 13 3 14 1 15
REMARK H PARENT
REMARK Flexibility Score: inf
ROOT
ATOM      1  C   UNL     1      -0.677   6.005  -8.963  1.00  0.00     0.015 C 
ATOM      2  C   UNL     1       0.727   5.882  -9.587  1.00  0.00     0.008 C 
ATOM      3  C   UNL     1       0.719   4.976 -10.833  1.00  0.00     0.008 C 
ATOM      4  C   UNL     1      -0.334   5.405 -11.895  1.00  0.00    -0.026 C 
ATOM      5  C   UNL     1      -0.398   4.306 -13.000  1.00  0.00     0.008 C 
ATOM      6  C   UNL     1      -1.517   4.549 -14.035  1.00  0.00     0.005 C 
ATOM      7  C   UNL     1      -2.889   4.743 -13.377  1.00  0.00     0.031 C 
ATOM      8  C   UNL     1      -2.803   5.762 -12.264  1.00  0.00    -0.074 C 
ATOM      9  C   UNL     1      -3.625   6.828 -12.254  1.00  0.00     0.008 C 
ATOM     10  C   UNL     1      -1.732   5.501 -11.214  1.00  0.00     0.021 C 
ATOM     11  C   UNL     1      -1.725   6.460 -10.000  1.00  0.00     0.016 C 
ATOM     12  C   UNL     1       0.099   6.752 -12.542  1.00  0.00     0.012 C 
ENDROOT
BRANCH   1  13
ATOM     13  C   UNL     1      -0.666   6.919  -7.748  1.00  0.00    -0.077 C 
ATOM     14  C   UNL     1      -1.927   7.665  -7.394  1.00  0.00     0.039 C 
ATOM     15  C   UNL     1       0.439   7.073  -6.997  1.00  0.00     0.008 C 
ENDBRANCH   1  13
TORSDOF 1
ENDMDL
