MODEL 1
REMARK VINA RESULT:    -4.016      0.000      0.000
REMARK INTER + INTRA:          -4.786
REMARK INTER:                  -4.485
REMARK INTRA:                  -0.301
REMARK UNBOUND:                -0.301
REMARK SMILES CC(=O)c1ccc(O)cc1O
REMARK SMILES IDX 4 1 10 2 9 3 7 4 6 5 5 6 2 7 1 8 3 9 11 10 8 12
REMARK H PARENT 11 11 8 13
REMARK Flexibility Score: inf
ROOT
ATOM      1  C   UNL     1      27.284  40.505  19.754  1.00  0.00     0.059 A 
ATOM      2  C   UNL     1      26.112  40.702  20.523  1.00  0.00     0.130 A 
ATOM      3  C   UNL     1      25.987  41.839  21.336  1.00  0.00     0.093 A 
ATOM      4  C   UNL     1      27.010  42.787  21.392  1.00  0.00     0.119 A 
ATOM      5  C   UNL     1      28.169  42.603  20.634  1.00  0.00     0.047 A 
ATOM      6  C   UNL     1      28.307  41.475  19.823  1.00  0.00     0.019 A 
ENDROOT
BRANCH   1   7
ATOM      7  C   UNL     1      27.449  39.301  18.889  1.00  0.00     0.163 C 
ATOM      8  C   UNL     1      28.726  38.515  18.866  1.00  0.00     0.093 C 
ATOM      9  O   UNL     1      26.493  38.901  18.171  1.00  0.00    -0.294 OA
ENDBRANCH   1   7
BRANCH   2  10
ATOM     10  O   UNL     1      25.067  39.780  20.477  1.00  0.00    -0.507 OA
ATOM     11  H   UNL     1      24.301  39.873  19.820  1.00  0.00     0.293 HD
ENDBRANCH   2  10
BRANCH   4  12
ATOM     12  O   UNL     1      26.864  43.909  22.206  1.00  0.00    -0.508 OA
ATOM     13  H   UNL     1      27.443  44.731  22.083  1.00  0.00     0.293 HD
ENDBRANCH   4  12
TORSDOF 3
ENDMDL
MODEL 2
REMARK VINA RESULT:    -3.861      1.533      3.971
REMARK INTER + INTRA:          -4.613
REMARK INTER:                  -4.312
REMARK INTRA:                  -0.302
REMARK UNBOUND:                -0.301
REMARK SMILES CC(=O)c1ccc(O)cc1O
REMARK SMILES IDX 4 1 10 2 9 3 7 4 6 5 5 6 2 7 1 8 3 9 11 10 8 12
REMARK H PARENT 11 11 8 13
REMARK Flexibility Score: inf
ROOT
ATOM      1  C   UNL     1      27.654  41.242  21.340  1.00  0.00     0.059 A 
ATOM      2  C   UNL     1      26.421  40.957  20.707  1.00  0.00     0.130 A 
ATOM      3  C   UNL     1      26.401  40.273  19.481  1.00  0.00     0.093 A 
ATOM      4  C   UNL     1      27.591  39.864  18.877  1.00  0.00     0.119 A 
ATOM      5  C   UNL     1      28.813  40.139  19.497  1.00  0.00     0.047 A 
ATOM      6  C   UNL     1      28.847  40.821  20.715  1.00  0.00     0.019 A 
ENDROOT
BRANCH   1   7
ATOM      7  C   UNL     1      27.705  41.976  22.637  1.00  0.00     0.163 C 
ATOM      8  C   UNL     1      28.630  41.561  23.743  1.00  0.00     0.093 C 
ATOM      9  O   UNL     1      26.980  42.992  22.820  1.00  0.00    -0.294 OA
ENDBRANCH   1   7
BRANCH   2  10
ATOM     10  O   UNL     1      25.214  41.339  21.292  1.00  0.00    -0.507 OA
ATOM     11  H   UNL     1      25.143  41.552  22.280  1.00  0.00     0.293 HD
ENDBRANCH   2  10
BRANCH   4  12
ATOM     12  O   UNL     1      27.548  39.186  17.661  1.00  0.00    -0.508 OA
ATOM     13  H   UNL     1      26.716  38.692  17.360  1.00  0.00     0.293 HD
ENDBRANCH   4  12
TORSDOF 3
ENDMDL
MODEL 3
REMARK VINA RESULT:    -3.805     13.786     14.999
REMARK INTER + INTRA:          -4.551
REMARK INTER:                  -4.293
REMARK INTRA:                  -0.258
REMARK UNBOUND:                -0.301
REMARK SMILES CC(=O)c1ccc(O)cc1O
REMARK SMILES IDX 4 1 10 2 9 3 7 4 6 5 5 6 2 7 1 8 3 9 11 10 8 12
REMARK H PARENT 11 11 8 13
REMARK Flexibility Score: inf
ROOT
ATOM      1  C   UNL     1      27.835  27.648  27.763  1.00  0.00     0.059 A 
ATOM      2  C   UNL     1      27.725  27.624  26.353  1.00  0.00     0.130 A 
ATOM      3  C   UNL     1      28.156  28.723  25.594  1.00  0.00     0.093 A 
ATOM      4  C   UNL     1      28.702  29.846  26.218  1.00  0.00     0.119 A 
ATOM      5  C   UNL     1      28.818  29.878  27.610  1.00  0.00     0.047 A 
ATOM      6  C   UNL     1      28.390  28.791  28.377  1.00  0.00     0.019 A 
ENDROOT
BRANCH   1   7
ATOM      7  C   UNL     1      27.375  26.499  28.595  1.00  0.00     0.163 C 
ATOM      8  C   UNL     1      26.128  26.575  29.426  1.00  0.00     0.093 C 
ATOM      9  O   UNL     1      28.022  25.417  28.594  1.00  0.00    -0.294 OA
ENDBRANCH   1   7
BRANCH   2  10
ATOM     10  O   UNL     1      27.198  26.510  25.698  1.00  0.00    -0.507 OA
ATOM     11  H   UNL     1      27.755  25.683  25.518  1.00  0.00     0.293 HD
ENDBRANCH   2  10
BRANCH   4  12
ATOM     12  O   UNL     1      29.125  30.925  25.445  1.00  0.00    -0.508 OA
ATOM     13  H   UNL     1      29.219  31.854  25.840  1.00  0.00     0.293 HD
ENDBRANCH   4  12
TORSDOF 3
ENDMDL
MODEL 4
REMARK VINA RESULT:    -3.590     15.390     16.717
REMARK INTER + INTRA:          -4.311
REMARK INTER:                  -4.020
REMARK INTRA:                  -0.290
REMARK UNBOUND:                -0.301
REMARK SMILES CC(=O)c1ccc(O)cc1O
REMARK SMILES IDX 4 1 10 2 9 3 7 4 6 5 5 6 2 7 1 8 3 9 11 10 8 12
REMARK H PARENT 11 11 8 13
REMARK Flexibility Score: inf
ROOT
ATOM      1  C   UNL     1      27.697  27.241  28.085  1.00  0.00     0.059 A 
ATOM      2  C   UNL     1      26.378  26.911  28.479  1.00  0.00     0.130 A 
ATOM      3  C   UNL     1      26.147  25.796  29.300  1.00  0.00     0.093 A 
ATOM      4  C   UNL     1      27.211  25.007  29.740  1.00  0.00     0.119 A 
ATOM      5  C   UNL     1      28.517  25.327  29.359  1.00  0.00     0.047 A 
ATOM      6  C   UNL     1      28.759  26.432  28.540  1.00  0.00     0.019 A 
ENDROOT
BRANCH   1   7
ATOM      7  C   UNL     1      27.970  28.413  27.204  1.00  0.00     0.163 C 
ATOM      8  C   UNL     1      28.827  29.558  27.658  1.00  0.00     0.093 C 
ATOM      9  O   UNL     1      27.500  28.451  26.035  1.00  0.00    -0.294 OA
ENDBRANCH   1   7
BRANCH   2  10
ATOM     10  O   UNL     1      25.296  27.688  28.067  1.00  0.00    -0.507 OA
ATOM     11  H   UNL     1      24.953  27.665  27.114  1.00  0.00     0.293 HD
ENDBRANCH   2  10
BRANCH   4  12
ATOM     12  O   UNL     1      26.959  23.905  30.556  1.00  0.00    -0.508 OA
ATOM     13  H   UNL     1      27.361  22.997  30.357  1.00  0.00     0.293 HD
ENDBRANCH   4  12
TORSDOF 3
ENDMDL
MODEL 5
REMARK VINA RESULT:    -3.467      2.028      2.651
REMARK INTER + INTRA:          -4.173
REMARK INTER:                  -3.870
REMARK INTRA:                  -0.304
REMARK UNBOUND:                -0.301
REMARK SMILES CC(=O)c1ccc(O)cc1O
REMARK SMILES IDX 4 1 10 2 9 3 7 4 6 5 5 6 2 7 1 8 3 9 11 10 8 12
REMARK H PARENT 11 11 8 13
REMARK Flexibility Score: inf
ROOT
ATOM      1  C   UNL     1      27.373  41.450  21.146  1.00  0.00     0.059 A 
ATOM      2  C   UNL     1      26.931  42.751  21.489  1.00  0.00     0.130 A 
ATOM      3  C   UNL     1      27.382  43.359  22.671  1.00  0.00     0.093 A 
ATOM      4  C   UNL     1      28.272  42.693  23.516  1.00  0.00     0.119 A 
ATOM      5  C   UNL     1      28.716  41.411  23.184  1.00  0.00     0.047 A 
ATOM      6  C   UNL     1      28.273  40.794  22.013  1.00  0.00     0.019 A 
ENDROOT
BRANCH   1   7
ATOM      7  C   UNL     1      26.902  40.776  19.902  1.00  0.00     0.163 C 
ATOM      8  C   UNL     1      26.166  39.469  19.943  1.00  0.00     0.093 C 
ATOM      9  O   UNL     1      27.093  41.315  18.778  1.00  0.00    -0.294 OA
ENDBRANCH   1   7
BRANCH   2  10
ATOM     10  O   UNL     1      26.054  43.447  20.657  1.00  0.00    -0.507 OA
ATOM     11  H   UNL     1      26.101  43.371  19.648  1.00  0.00     0.293 HD
ENDBRANCH   2  10
BRANCH   4  12
ATOM     12  O   UNL     1      28.707  43.316  24.684  1.00  0.00    -0.508 OA
ATOM     13  H   UNL     1      29.370  44.082  24.659  1.00  0.00     0.293 HD
ENDBRANCH   4  12
TORSDOF 3
ENDMDL
MODEL 6
REMARK VINA RESULT:    -3.405     13.127     14.406
REMARK INTER + INTRA:          -4.104
REMARK INTER:                  -3.795
REMARK INTRA:                  -0.308
REMARK UNBOUND:                -0.301
REMARK SMILES CC(=O)c1ccc(O)cc1O
REMARK SMILES IDX 4 1 10 2 9 3 7 4 6 5 5 6 2 7 1 8 3 9 11 10 8 12
REMARK H PARENT 11 11 8 13
REMARK Flexibility Score: inf
ROOT
ATOM      1  C   UNL     1      27.909  27.828  26.774  1.00  0.00     0.059 A 
ATOM      2  C   UNL     1      28.615  28.731  27.604  1.00  0.00     0.130 A 
ATOM      3  C   UNL     1      29.016  29.980  27.105  1.00  0.00     0.093 A 
ATOM      4  C   UNL     1      28.719  30.347  25.791  1.00  0.00     0.119 A 
ATOM      5  C   UNL     1      28.019  29.464  24.965  1.00  0.00     0.047 A 
ATOM      6  C   UNL     1      27.618  28.217  25.449  1.00  0.00     0.019 A 
ENDROOT
BRANCH   1   7
ATOM      7  C   UNL     1      27.481  26.490  27.274  1.00  0.00     0.163 C 
ATOM      8  C   UNL     1      27.804  25.228  26.530  1.00  0.00     0.093 C 
ATOM      9  O   UNL     1      26.853  26.392  28.363  1.00  0.00    -0.294 OA
ENDBRANCH   1   7
BRANCH   2  10
ATOM     10  O   UNL     1      28.914  28.399  28.926  1.00  0.00    -0.507 OA
ATOM     11  H   UNL     1      29.827  28.576  29.327  1.00  0.00     0.293 HD
ENDBRANCH   2  10
BRANCH   4  12
ATOM     12  O   UNL     1      29.125  31.593  25.316  1.00  0.00    -0.508 OA
ATOM     13  H   UNL     1      29.807  32.152  25.815  1.00  0.00     0.293 HD
ENDBRANCH   4  12
TORSDOF 3
ENDMDL
MODEL 7
REMARK VINA RESULT:    -3.277     15.899     17.178
REMARK INTER + INTRA:          -3.962
REMARK INTER:                  -3.657
REMARK INTRA:                  -0.305
REMARK UNBOUND:                -0.301
REMARK SMILES CC(=O)c1ccc(O)cc1O
REMARK SMILES IDX 4 1 10 2 9 3 7 4 6 5 5 6 2 7 1 8 3 9 11 10 8 12
REMARK H PARENT 11 11 8 13
REMARK Flexibility Score: inf
ROOT
ATOM      1  C   UNL     1      27.664  25.644  28.863  1.00  0.00     0.059 A 
ATOM      2  C   UNL     1      26.676  26.654  28.945  1.00  0.00     0.130 A 
ATOM      3  C   UNL     1      26.567  27.617  27.930  1.00  0.00     0.093 A 
ATOM      4  C   UNL     1      27.426  27.587  26.829  1.00  0.00     0.119 A 
ATOM      5  C   UNL     1      28.402  26.592  26.738  1.00  0.00     0.047 A 
ATOM      6  C   UNL     1      28.522  25.630  27.743  1.00  0.00     0.019 A 
ENDROOT
BRANCH   1   7
ATOM      7  C   UNL     1      27.809  24.615  29.933  1.00  0.00     0.163 C 
ATOM      8  C   UNL     1      29.089  24.447  30.697  1.00  0.00     0.093 C 
ATOM      9  O   UNL     1      26.835  23.875  30.236  1.00  0.00    -0.294 OA
ENDBRANCH   1   7
BRANCH   2  10
ATOM     10  O   UNL     1      25.793  26.701  30.025  1.00  0.00    -0.507 OA
ATOM     11  H   UNL     1      25.615  25.890  30.605  1.00  0.00     0.293 HD
ENDBRANCH   2  10
BRANCH   4  12
ATOM     12  O   UNL     1      27.299  28.552  25.832  1.00  0.00    -0.508 OA
ATOM     13  H   UNL     1      26.581  29.266  25.874  1.00  0.00     0.293 HD
ENDBRANCH   4  12
TORSDOF 3
ENDMDL
MODEL 8
REMARK VINA RESULT:    -3.254     13.910     15.459
REMARK INTER + INTRA:          -3.935
REMARK INTER:                  -3.645
REMARK INTRA:                  -0.290
REMARK UNBOUND:                -0.301
REMARK SMILES CC(=O)c1ccc(O)cc1O
REMARK SMILES IDX 4 1 10 2 9 3 7 4 6 5 5 6 2 7 1 8 3 9 11 10 8 12
REMARK H PARENT 11 11 8 13
REMARK Flexibility Score: inf
ROOT
ATOM      1  C   UNL     1      28.045  28.036  26.449  1.00  0.00     0.059 A 
ATOM      2  C   UNL     1      27.977  27.962  27.860  1.00  0.00     0.130 A 
ATOM      3  C   UNL     1      27.837  26.717  28.494  1.00  0.00     0.093 A 
ATOM      4  C   UNL     1      27.770  25.543  27.743  1.00  0.00     0.119 A 
ATOM      5  C   UNL     1      27.839  25.606  26.348  1.00  0.00     0.047 A 
ATOM      6  C   UNL     1      27.975  26.839  25.706  1.00  0.00     0.019 A 
ENDROOT
BRANCH   1   7
ATOM      7  C   UNL     1      28.181  29.346  25.749  1.00  0.00     0.163 C 
ATOM      8  C   UNL     1      27.446  29.641  24.475  1.00  0.00     0.093 C 
ATOM      9  O   UNL     1      28.908  30.253  26.238  1.00  0.00    -0.294 OA
ENDBRANCH   1   7
BRANCH   2  10
ATOM     10  O   UNL     1      28.056  29.117  28.639  1.00  0.00    -0.507 OA
ATOM     11  H   UNL     1      27.990  30.042  28.231  1.00  0.00     0.293 HD
ENDBRANCH   2  10
BRANCH   4  12
ATOM     12  O   UNL     1      27.633  24.317  28.392  1.00  0.00    -0.508 OA
ATOM     13  H   UNL     1      27.804  23.442  27.912  1.00  0.00     0.293 HD
ENDBRANCH   4  12
TORSDOF 3
ENDMDL
MODEL 9
REMARK VINA RESULT:    -3.238      1.564      3.991
REMARK INTER + INTRA:          -3.917
REMARK INTER:                  -3.782
REMARK INTRA:                  -0.136
REMARK UNBOUND:                -0.301
REMARK SMILES CC(=O)c1ccc(O)cc1O
REMARK SMILES IDX 4 1 10 2 9 3 7 4 6 5 5 6 2 7 1 8 3 9 11 10 8 12
REMARK H PARENT 11 11 8 13
REMARK Flexibility Score: inf
ROOT
ATOM      1  C   UNL     1      27.655  41.106  20.112  1.00  0.00     0.059 A 
ATOM      2  C   UNL     1      26.620  40.196  20.436  1.00  0.00     0.130 A 
ATOM      3  C   UNL     1      26.849  38.814  20.360  1.00  0.00     0.093 A 
ATOM      4  C   UNL     1      28.096  38.321  19.972  1.00  0.00     0.119 A 
ATOM      5  C   UNL     1      29.125  39.212  19.654  1.00  0.00     0.047 A 
ATOM      6  C   UNL     1      28.909  40.590  19.722  1.00  0.00     0.019 A 
ENDROOT
BRANCH   1   7
ATOM      7  C   UNL     1      27.436  42.580  20.173  1.00  0.00     0.163 C 
ATOM      8  C   UNL     1      26.845  43.338  19.021  1.00  0.00     0.093 C 
ATOM      9  O   UNL     1      27.724  43.220  21.220  1.00  0.00    -0.294 OA
ENDBRANCH   1   7
BRANCH   2  10
ATOM     10  O   UNL     1      25.367  40.658  20.842  1.00  0.00    -0.507 OA
ATOM     11  H   UNL     1      25.067  41.610  20.670  1.00  0.00     0.293 HD
ENDBRANCH   2  10
BRANCH   4  12
ATOM     12  O   UNL     1      28.302  36.945  19.905  1.00  0.00    -0.508 OA
ATOM     13  H   UNL     1      27.619  36.328  19.482  1.00  0.00     0.293 HD
ENDBRANCH   4  12
TORSDOF 3
ENDMDL
