MODEL 1
REMARK VINA RESULT:    -3.895      0.000      0.000
REMARK INTER + INTRA:          -4.996
REMARK INTER:                  -4.919
REMARK INTRA:                  -0.076
REMARK UNBOUND:                -0.076
REMARK SMILES O=C(C=Cc1ccc(O)cc1)c1ccc(O)cc1O
REMARK SMILES IDX 4 1 3 2 5 3 6 4 7 5 8 6 11 7 10 8 9 9 2 11 1 12 12 13 18 14
REMARK SMILES IDX 13 15 17 16 14 17 15 18 19 19 16 21
REMARK H PARENT 9 10 19 20 16 22
REMARK Flexibility Score: inf
ROOT
ATOM      1  C   UNL     1      21.990  45.572  29.435  1.00  0.00     0.012 C 
ATOM      2  C   UNL     1      22.928  46.194  28.707  1.00  0.00     0.053 C 
ENDROOT
BRANCH   1   3
ATOM      3  C   UNL     1      21.992  45.531  30.918  1.00  0.00    -0.025 A 
ATOM      4  C   UNL     1      23.124  45.878  31.685  1.00  0.00     0.012 A 
ATOM      5  C   UNL     1      23.073  45.835  33.081  1.00  0.00     0.047 A 
ATOM      6  C   UNL     1      21.892  45.456  33.732  1.00  0.00     0.115 A 
ATOM      7  C   UNL     1      20.809  45.169  31.583  1.00  0.00     0.012 A 
ATOM      8  C   UNL     1      20.762  45.126  32.979  1.00  0.00     0.047 A 
BRANCH   6   9
ATOM      9  O   UNL     1      21.831  45.409  35.123  1.00  0.00    -0.508 OA
ATOM     10  H   UNL     1      22.655  45.556  35.694  1.00  0.00     0.293 HD
ENDBRANCH   6   9
ENDBRANCH   1   3
BRANCH   2  11
ATOM     11  C   UNL     1      22.903  46.198  27.227  1.00  0.00     0.189 C 
ATOM     12  O   UNL     1      23.123  47.271  26.600  1.00  0.00    -0.289 OA
BRANCH  11  13
ATOM     13  C   UNL     1      22.613  44.957  26.463  1.00  0.00     0.064 A 
ATOM     14  C   UNL     1      22.325  45.005  25.081  1.00  0.00     0.130 A 
ATOM     15  C   UNL     1      22.644  43.706  27.109  1.00  0.00     0.020 A 
ATOM     16  C   UNL     1      22.071  43.820  24.377  1.00  0.00     0.093 A 
ATOM     17  C   UNL     1      22.385  42.531  26.397  1.00  0.00     0.047 A 
ATOM     18  C   UNL     1      22.099  42.586  25.029  1.00  0.00     0.119 A 
BRANCH  14  19
ATOM     19  O   UNL     1      22.276  46.229  24.412  1.00  0.00    -0.507 OA
ATOM     20  H   UNL     1      23.038  46.544  23.823  1.00  0.00     0.293 HD
ENDBRANCH  14  19
BRANCH  18  21
ATOM     21  O   UNL     1      21.841  41.420  24.312  1.00  0.00    -0.508 OA
ATOM     22  H   UNL     1      21.741  41.429  23.303  1.00  0.00     0.293 HD
ENDBRANCH  18  21
ENDBRANCH  11  13
ENDBRANCH   2  11
TORSDOF 6
ENDMDL
MODEL 2
REMARK VINA RESULT:    -3.253      2.170      3.547
REMARK INTER + INTRA:          -4.186
REMARK INTER:                  -4.589
REMARK INTRA:                   0.404
REMARK UNBOUND:                -0.076
REMARK SMILES O=C(C=Cc1ccc(O)cc1)c1ccc(O)cc1O
REMARK SMILES IDX 4 1 3 2 5 3 6 4 7 5 8 6 11 7 10 8 9 9 2 11 1 12 12 13 18 14
REMARK SMILES IDX 13 15 17 16 14 17 15 18 19 19 16 21
REMARK H PARENT 9 10 19 20 16 22
REMARK Flexibility Score: inf
ROOT
ATOM      1  C   UNL     1      21.630  43.874  30.549  1.00  0.00     0.012 C 
ATOM      2  C   UNL     1      21.371  42.568  30.701  1.00  0.00     0.053 C 
ENDROOT
BRANCH   1   3
ATOM      3  C   UNL     1      21.735  44.829  31.678  1.00  0.00    -0.025 A 
ATOM      4  C   UNL     1      20.649  45.120  32.530  1.00  0.00     0.012 A 
ATOM      5  C   UNL     1      20.802  46.018  33.590  1.00  0.00     0.047 A 
ATOM      6  C   UNL     1      22.040  46.631  33.823  1.00  0.00     0.115 A 
ATOM      7  C   UNL     1      22.976  45.438  31.933  1.00  0.00     0.012 A 
ATOM      8  C   UNL     1      23.125  46.337  32.992  1.00  0.00     0.047 A 
BRANCH   6   9
ATOM      9  O   UNL     1      22.202  47.529  34.876  1.00  0.00    -0.508 OA
ATOM     10  H   UNL     1      23.095  47.644  35.340  1.00  0.00     0.293 HD
ENDBRANCH   6   9
ENDBRANCH   1   3
BRANCH   2  11
ATOM     11  C   UNL     1      21.254  41.647  29.548  1.00  0.00     0.189 C 
ATOM     12  O   UNL     1      20.854  40.464  29.729  1.00  0.00    -0.289 OA
BRANCH  11  13
ATOM     13  C   UNL     1      21.611  42.092  28.176  1.00  0.00     0.064 A 
ATOM     14  C   UNL     1      21.277  41.307  27.049  1.00  0.00     0.130 A 
ATOM     15  C   UNL     1      22.269  43.320  27.979  1.00  0.00     0.020 A 
ATOM     16  C   UNL     1      21.608  41.754  25.762  1.00  0.00     0.093 A 
ATOM     17  C   UNL     1      22.597  43.754  26.691  1.00  0.00     0.047 A 
ATOM     18  C   UNL     1      22.267  42.972  25.580  1.00  0.00     0.119 A 
BRANCH  14  19
ATOM     19  O   UNL     1      20.633  40.080  27.208  1.00  0.00    -0.507 OA
ATOM     20  H   UNL     1      19.974  39.731  26.521  1.00  0.00     0.293 HD
ENDBRANCH  14  19
BRANCH  18  21
ATOM     21  O   UNL     1      22.588  43.396  24.293  1.00  0.00    -0.508 OA
ATOM     22  H   UNL     1      23.349  44.043  24.122  1.00  0.00     0.293 HD
ENDBRANCH  18  21
ENDBRANCH  11  13
ENDBRANCH   2  11
TORSDOF 6
ENDMDL
MODEL 3
REMARK VINA RESULT:    -2.675      1.757      2.202
REMARK INTER + INTRA:          -3.455
REMARK INTER:                  -3.917
REMARK INTRA:                   0.462
REMARK UNBOUND:                -0.076
REMARK SMILES O=C(C=Cc1ccc(O)cc1)c1ccc(O)cc1O
REMARK SMILES IDX 4 1 3 2 5 3 6 4 7 5 8 6 11 7 10 8 9 9 2 11 1 12 12 13 18 14
REMARK SMILES IDX 13 15 17 16 14 17 15 18 19 19 16 21
REMARK H PARENT 9 10 19 20 16 22
REMARK Flexibility Score: inf
ROOT
ATOM      1  C   UNL     1      22.044  44.584  30.060  1.00  0.00     0.012 C 
ATOM      2  C   UNL     1      22.584  45.124  28.958  1.00  0.00     0.053 C 
ENDROOT
BRANCH   1   3
ATOM      3  C   UNL     1      22.018  45.259  31.379  1.00  0.00    -0.025 A 
ATOM      4  C   UNL     1      23.125  45.966  31.892  1.00  0.00     0.012 A 
ATOM      5  C   UNL     1      23.047  46.597  33.137  1.00  0.00     0.047 A 
ATOM      6  C   UNL     1      21.862  46.543  33.883  1.00  0.00     0.115 A 
ATOM      7  C   UNL     1      20.829  45.226  32.130  1.00  0.00     0.012 A 
ATOM      8  C   UNL     1      20.755  45.858  33.374  1.00  0.00     0.047 A 
BRANCH   6   9
ATOM      9  O   UNL     1      21.774  47.168  35.125  1.00  0.00    -0.508 OA
ATOM     10  H   UNL     1      22.552  47.166  35.774  1.00  0.00     0.293 HD
ENDBRANCH   6   9
ENDBRANCH   1   3
BRANCH   2  11
ATOM     11  C   UNL     1      22.609  44.411  27.661  1.00  0.00     0.189 C 
ATOM     12  O   UNL     1      23.108  44.974  26.647  1.00  0.00    -0.289 OA
BRANCH  11  13
ATOM     13  C   UNL     1      22.046  43.043  27.529  1.00  0.00     0.064 A 
ATOM     14  C   UNL     1      21.912  42.431  26.263  1.00  0.00     0.130 A 
ATOM     15  C   UNL     1      21.657  42.325  28.676  1.00  0.00     0.020 A 
ATOM     16  C   UNL     1      21.394  41.132  26.163  1.00  0.00     0.093 A 
ATOM     17  C   UNL     1      21.139  41.032  28.565  1.00  0.00     0.047 A 
ATOM     18  C   UNL     1      21.007  40.432  27.308  1.00  0.00     0.119 A 
BRANCH  14  19
ATOM     19  O   UNL     1      22.278  43.118  25.105  1.00  0.00    -0.507 OA
ATOM     20  H   UNL     1      21.588  43.553  24.503  1.00  0.00     0.293 HD
ENDBRANCH  14  19
BRANCH  18  21
ATOM     21  O   UNL     1      20.493  39.143  27.187  1.00  0.00    -0.508 OA
ATOM     22  H   UNL     1      20.749  38.407  27.835  1.00  0.00     0.293 HD
ENDBRANCH  18  21
ENDBRANCH  11  13
ENDBRANCH   2  11
TORSDOF 6
ENDMDL
MODEL 4
REMARK VINA RESULT:    -1.149      1.944      2.726
REMARK INTER + INTRA:          -1.528
REMARK INTER:                  -1.907
REMARK INTRA:                   0.379
REMARK UNBOUND:                -0.076
REMARK SMILES O=C(C=Cc1ccc(O)cc1)c1ccc(O)cc1O
REMARK SMILES IDX 4 1 3 2 5 3 6 4 7 5 8 6 11 7 10 8 9 9 2 11 1 12 12 13 18 14
REMARK SMILES IDX 13 15 17 16 14 17 15 18 19 19 16 21
REMARK H PARENT 9 10 19 20 16 22
REMARK Flexibility Score: inf
ROOT
ATOM      1  C   UNL     1      22.080  43.664  31.014  1.00  0.00     0.012 C 
ATOM      2  C   UNL     1      21.280  43.574  29.942  1.00  0.00     0.053 C 
ENDROOT
BRANCH   1   3
ATOM      3  C   UNL     1      21.989  44.750  32.020  1.00  0.00    -0.025 A 
ATOM      4  C   UNL     1      23.124  45.432  32.506  1.00  0.00     0.012 A 
ATOM      5  C   UNL     1      22.984  46.458  33.445  1.00  0.00     0.047 A 
ATOM      6  C   UNL     1      21.713  46.826  33.904  1.00  0.00     0.115 A 
ATOM      7  C   UNL     1      20.718  45.140  32.475  1.00  0.00     0.012 A 
ATOM      8  C   UNL     1      20.583  46.166  33.415  1.00  0.00     0.047 A 
BRANCH   6   9
ATOM      9  O   UNL     1      21.564  47.847  34.840  1.00  0.00    -0.508 OA
ATOM     10  H   UNL     1      21.707  47.683  35.829  1.00  0.00     0.293 HD
ENDBRANCH   6   9
ENDBRANCH   1   3
BRANCH   2  11
ATOM     11  C   UNL     1      21.414  42.485  28.947  1.00  0.00     0.189 C 
ATOM     12  O   UNL     1      21.260  41.286  29.309  1.00  0.00    -0.289 OA
BRANCH  11  13
ATOM     13  C   UNL     1      21.736  42.782  27.528  1.00  0.00     0.064 A 
ATOM     14  C   UNL     1      22.431  43.958  27.172  1.00  0.00     0.130 A 
ATOM     15  C   UNL     1      21.369  41.875  26.515  1.00  0.00     0.020 A 
ATOM     16  C   UNL     1      22.740  44.210  25.828  1.00  0.00     0.093 A 
ATOM     17  C   UNL     1      21.678  42.138  25.178  1.00  0.00     0.047 A 
ATOM     18  C   UNL     1      22.365  43.306  24.831  1.00  0.00     0.119 A 
BRANCH  14  19
ATOM     19  O   UNL     1      22.802  44.883  28.149  1.00  0.00    -0.507 OA
ATOM     20  H   UNL     1      23.651  44.773  28.691  1.00  0.00     0.293 HD
ENDBRANCH  14  19
BRANCH  18  21
ATOM     21  O   UNL     1      22.680  43.576  23.501  1.00  0.00    -0.508 OA
ATOM     22  H   UNL     1      23.637  43.724  23.202  1.00  0.00     0.293 HD
ENDBRANCH  18  21
ENDBRANCH  11  13
ENDBRANCH   2  11
TORSDOF 6
ENDMDL
