MODEL 1
REMARK VINA RESULT:    -6.305      0.000      0.000
REMARK INTER + INTRA:          -6.305
REMARK INTER:                  -6.305
REMARK INTRA:                   0.000
REMARK UNBOUND:                 0.000
REMARK SMILES C[NH+]1CCN(C2=[NH+]c3ccccc3Oc3ccc(Cl)cc32)CC1
REMARK SMILES IDX 7 1 6 2 21 3 5 4 8 5 9 6 13 7 10 8 12 9 14 10 11 11 15 12
REMARK SMILES IDX 16 13 17 14 18 15 20 16 19 17 4 18 22 19 3 20 23 21 2 22
REMARK SMILES IDX 1 23
REMARK H PARENT 7 24 2 25
REMARK Flexibility Score: inf
ROOT
ATOM      1  N   UNL     1     102.975 115.473  89.741  1.00  0.00    -0.237 N 
ATOM      2  C   UNL     1     102.892 114.550  88.818  1.00  0.00     0.286 C 
ATOM      3  C   UNL     1     101.605 114.031  88.287  1.00  0.00     0.108 A 
ATOM      4  N   UNL     1     104.108 114.032  88.243  1.00  0.00    -0.250 N 
ATOM      5  C   UNL     1     101.894 116.146  90.409  1.00  0.00     0.168 A 
ATOM      6  C   UNL     1     102.091 117.477  90.816  1.00  0.00     0.056 A 
ATOM      7  C   UNL     1     100.732 115.467  90.834  1.00  0.00     0.173 A 
ATOM      8  C   UNL     1     101.151 118.125  91.623  1.00  0.00     0.005 A 
ATOM      9  C   UNL     1      99.814 116.115  91.670  1.00  0.00     0.052 A 
ATOM     10  O   UNL     1     100.452 114.161  90.447  1.00  0.00    -0.452 OA
ATOM     11  C   UNL     1     100.017 117.441  92.056  1.00  0.00     0.004 A 
ATOM     12  C   UNL     1     100.500 113.754  89.117  1.00  0.00     0.143 A 
ATOM     13  C   UNL     1      99.397 113.059  88.606  1.00  0.00     0.049 A 
ATOM     14  C   UNL     1      99.355 112.684  87.263  1.00  0.00     0.024 A 
ATOM     15  C   UNL     1     100.422 112.992  86.421  1.00  0.00     0.042 A 
ATOM     16  C   UNL     1     101.543 113.655  86.930  1.00  0.00     0.041 A 
ATOM     17  Cl  UNL     1     100.373 112.524  84.732  1.00  0.00    -0.084 Cl
ATOM     18  C   UNL     1     104.417 112.605  88.353  1.00  0.00     0.298 C 
ATOM     19  C   UNL     1     105.170 114.936  87.794  1.00  0.00     0.298 C 
ATOM     20  C   UNL     1     105.093 112.119  87.065  1.00  0.00     0.308 C 
ATOM     21  C   UNL     1     105.820 114.379  86.523  1.00  0.00     0.308 C 
ATOM     22  N   UNL     1     106.246 112.976  86.716  1.00  0.00    -0.331 N 
ATOM     23  C   UNL     1     106.897 112.473  85.495  1.00  0.00     0.332 C 
ATOM     24  H   UNL     1     103.933 115.799  90.008  1.00  0.00     0.312 HD
ATOM     25  H   UNL     1     106.950 112.936  87.494  1.00  0.00     0.348 HD
ENDROOT
TORSDOF 0
ENDMDL
MODEL 2
REMARK VINA RESULT:    -6.112     15.303     16.624
REMARK INTER + INTRA:          -6.112
REMARK INTER:                  -6.112
REMARK INTRA:                   0.000
REMARK UNBOUND:                 0.000
REMARK SMILES C[NH+]1CCN(C2=[NH+]c3ccccc3Oc3ccc(Cl)cc32)CC1
REMARK SMILES IDX 7 1 6 2 21 3 5 4 8 5 9 6 13 7 10 8 12 9 14 10 11 11 15 12
REMARK SMILES IDX 16 13 17 14 18 15 20 16 19 17 4 18 22 19 3 20 23 21 2 22
REMARK SMILES IDX 1 23
REMARK H PARENT 7 24 2 25
REMARK Flexibility Score: inf
ROOT
ATOM      1  N   UNL     1     108.629 102.221  83.344  1.00  0.00    -0.237 N 
ATOM      2  C   UNL     1     108.595 102.102  82.041  1.00  0.00     0.286 C 
ATOM      3  C   UNL     1     109.759 101.673  81.224  1.00  0.00     0.108 A 
ATOM      4  N   UNL     1     107.352 102.352  81.355  1.00  0.00    -0.250 N 
ATOM      5  C   UNL     1     109.745 101.981  84.218  1.00  0.00     0.168 A 
ATOM      6  C   UNL     1     109.483 101.504  85.514  1.00  0.00     0.056 A 
ATOM      7  C   UNL     1     111.058 102.384  83.892  1.00  0.00     0.173 A 
ATOM      8  C   UNL     1     110.502 101.420  86.466  1.00  0.00     0.005 A 
ATOM      9  C   UNL     1     112.065 102.328  84.865  1.00  0.00     0.052 A 
ATOM     10  O   UNL     1     111.402 102.838  82.623  1.00  0.00    -0.452 OA
ATOM     11  C   UNL     1     111.792 101.840  86.143  1.00  0.00     0.004 A 
ATOM     12  C   UNL     1     111.067 102.137  81.469  1.00  0.00     0.143 A 
ATOM     13  C   UNL     1     112.085 101.885  80.539  1.00  0.00     0.049 A 
ATOM     14  C   UNL     1     111.829 101.129  79.395  1.00  0.00     0.024 A 
ATOM     15  C   UNL     1     110.549 100.627  79.165  1.00  0.00     0.042 A 
ATOM     16  C   UNL     1     109.519 100.902  80.069  1.00  0.00     0.041 A 
ATOM     17  Cl  UNL     1     110.224  99.675  77.728  1.00  0.00    -0.084 Cl
ATOM     18  C   UNL     1     107.277 103.410  80.344  1.00  0.00     0.298 C 
ATOM     19  C   UNL     1     106.099 101.762  81.832  1.00  0.00     0.298 C 
ATOM     20  C   UNL     1     106.364 102.967  79.195  1.00  0.00     0.308 C 
ATOM     21  C   UNL     1     105.225 101.369  80.637  1.00  0.00     0.308 C 
ATOM     22  N   UNL     1     105.055 102.506  79.706  1.00  0.00    -0.331 N 
ATOM     23  C   UNL     1     104.186 102.115  78.584  1.00  0.00     0.332 C 
ATOM     24  H   UNL     1     107.738 102.485  83.824  1.00  0.00     0.312 HD
ATOM     25  H   UNL     1     104.588 103.297  80.213  1.00  0.00     0.348 HD
ENDROOT
TORSDOF 0
ENDMDL
MODEL 3
REMARK VINA RESULT:    -6.070      2.794      6.329
REMARK INTER + INTRA:          -6.070
REMARK INTER:                  -6.070
REMARK INTRA:                   0.000
REMARK UNBOUND:                 0.000
REMARK SMILES C[NH+]1CCN(C2=[NH+]c3ccccc3Oc3ccc(Cl)cc32)CC1
REMARK SMILES IDX 7 1 6 2 21 3 5 4 8 5 9 6 13 7 10 8 12 9 14 10 11 11 15 12
REMARK SMILES IDX 16 13 17 14 18 15 20 16 19 17 4 18 22 19 3 20 23 21 2 22
REMARK SMILES IDX 1 23
REMARK H PARENT 7 24 2 25
REMARK Flexibility Score: inf
ROOT
ATOM      1  N   UNL     1     103.463 114.995  88.127  1.00  0.00    -0.237 N 
ATOM      2  C   UNL     1     102.743 114.710  89.181  1.00  0.00     0.286 C 
ATOM      3  C   UNL     1     102.787 113.398  89.877  1.00  0.00     0.108 A 
ATOM      4  N   UNL     1     101.892 115.733  89.737  1.00  0.00    -0.250 N 
ATOM      5  C   UNL     1     104.398 114.140  87.446  1.00  0.00     0.168 A 
ATOM      6  C   UNL     1     105.513 114.734  86.830  1.00  0.00     0.056 A 
ATOM      7  C   UNL     1     104.139 112.773  87.214  1.00  0.00     0.173 A 
ATOM      8  C   UNL     1     106.359 113.986  86.006  1.00  0.00     0.005 A 
ATOM      9  C   UNL     1     104.973 112.040  86.360  1.00  0.00     0.052 A 
ATOM     10  O   UNL     1     103.074 112.107  87.813  1.00  0.00    -0.452 OA
ATOM     11  C   UNL     1     106.084 112.641  85.765  1.00  0.00     0.004 A 
ATOM     12  C   UNL     1     102.833 112.174  89.181  1.00  0.00     0.143 A 
ATOM     13  C   UNL     1     102.644 110.969  89.871  1.00  0.00     0.049 A 
ATOM     14  C   UNL     1     102.465 110.964  91.254  1.00  0.00     0.024 A 
ATOM     15  C   UNL     1     102.464 112.166  91.960  1.00  0.00     0.042 A 
ATOM     16  C   UNL     1     102.616 113.376  91.276  1.00  0.00     0.041 A 
ATOM     17  Cl  UNL     1     102.241 112.164  93.700  1.00  0.00    -0.084 Cl
ATOM     18  C   UNL     1     100.447 115.513  89.821  1.00  0.00     0.298 C 
ATOM     19  C   UNL     1     102.399 117.088  89.966  1.00  0.00     0.298 C 
ATOM     20  C   UNL     1      99.902 116.130  91.114  1.00  0.00     0.308 C 
ATOM     21  C   UNL     1     101.795 117.655  91.255  1.00  0.00     0.308 C 
ATOM     22  N   UNL     1     100.321 117.542  91.244  1.00  0.00    -0.331 N 
ATOM     23  C   UNL     1      99.761 118.123  92.476  1.00  0.00     0.332 C 
ATOM     24  H   UNL     1     103.389 115.965  87.743  1.00  0.00     0.312 HD
ATOM     25  H   UNL     1      99.941 118.088  90.432  1.00  0.00     0.348 HD
ENDROOT
TORSDOF 0
ENDMDL
MODEL 4
REMARK VINA RESULT:    -5.914      3.273      7.123
REMARK INTER + INTRA:          -5.914
REMARK INTER:                  -5.914
REMARK INTRA:                   0.000
REMARK UNBOUND:                 0.000
REMARK SMILES C[NH+]1CCN(C2=[NH+]c3ccccc3Oc3ccc(Cl)cc32)CC1
REMARK SMILES IDX 7 1 6 2 21 3 5 4 8 5 9 6 13 7 10 8 12 9 14 10 11 11 15 12
REMARK SMILES IDX 16 13 17 14 18 15 20 16 19 17 4 18 22 19 3 20 23 21 2 22
REMARK SMILES IDX 1 23
REMARK H PARENT 7 24 2 25
REMARK Flexibility Score: inf
ROOT
ATOM      1  N   UNL     1     104.970 114.086  87.549  1.00  0.00    -0.237 N 
ATOM      2  C   UNL     1     104.587 114.075  88.800  1.00  0.00     0.286 C 
ATOM      3  C   UNL     1     105.301 113.336  89.873  1.00  0.00     0.108 A 
ATOM      4  N   UNL     1     103.436 114.856  89.179  1.00  0.00    -0.250 N 
ATOM      5  C   UNL     1     106.104 113.415  86.973  1.00  0.00     0.168 A 
ATOM      6  C   UNL     1     106.748 114.019  85.879  1.00  0.00     0.056 A 
ATOM      7  C   UNL     1     106.468 112.101  87.338  1.00  0.00     0.173 A 
ATOM      8  C   UNL     1     107.738 113.339  85.166  1.00  0.00     0.005 A 
ATOM      9  C   UNL     1     107.437 111.415  86.594  1.00  0.00     0.052 A 
ATOM     10  O   UNL     1     105.899 111.448  88.426  1.00  0.00    -0.452 OA
ATOM     11  C   UNL     1     108.077 112.033  85.518  1.00  0.00     0.004 A 
ATOM     12  C   UNL     1     105.815 112.037  89.684  1.00  0.00     0.143 A 
ATOM     13  C   UNL     1     106.275 111.301  90.783  1.00  0.00     0.049 A 
ATOM     14  C   UNL     1     106.282 111.860  92.060  1.00  0.00     0.024 A 
ATOM     15  C   UNL     1     105.818 113.161  92.252  1.00  0.00     0.042 A 
ATOM     16  C   UNL     1     105.324 113.892  91.168  1.00  0.00     0.041 A 
ATOM     17  Cl  UNL     1     105.825 113.869  93.856  1.00  0.00    -0.084 Cl
ATOM     18  C   UNL     1     102.268 114.197  89.768  1.00  0.00     0.298 C 
ATOM     19  C   UNL     1     103.297 116.248  88.742  1.00  0.00     0.298 C 
ATOM     20  C   UNL     1     101.658 115.092  90.853  1.00  0.00     0.308 C 
ATOM     21  C   UNL     1     102.657 117.079  89.859  1.00  0.00     0.308 C 
ATOM     22  N   UNL     1     101.403 116.453  90.334  1.00  0.00    -0.331 N 
ATOM     23  C   UNL     1     100.790 117.285  91.382  1.00  0.00     0.332 C 
ATOM     24  H   UNL     1     104.420 114.678  86.884  1.00  0.00     0.312 HD
ATOM     25  H   UNL     1     100.726 116.394  89.535  1.00  0.00     0.348 HD
ENDROOT
TORSDOF 0
ENDMDL
MODEL 5
REMARK VINA RESULT:    -5.895      2.490      4.418
REMARK INTER + INTRA:          -5.895
REMARK INTER:                  -5.895
REMARK INTRA:                   0.000
REMARK UNBOUND:                 0.000
REMARK SMILES C[NH+]1CCN(C2=[NH+]c3ccccc3Oc3ccc(Cl)cc32)CC1
REMARK SMILES IDX 7 1 6 2 21 3 5 4 8 5 9 6 13 7 10 8 12 9 14 10 11 11 15 12
REMARK SMILES IDX 16 13 17 14 18 15 20 16 19 17 4 18 22 19 3 20 23 21 2 22
REMARK SMILES IDX 1 23
REMARK H PARENT 7 24 2 25
REMARK Flexibility Score: inf
ROOT
ATOM      1  N   UNL     1     100.362 115.004  89.237  1.00  0.00    -0.237 N 
ATOM      2  C   UNL     1     101.157 114.172  88.614  1.00  0.00     0.286 C 
ATOM      3  C   UNL     1     102.621 114.095  88.858  1.00  0.00     0.108 A 
ATOM      4  N   UNL     1     100.587 113.242  87.672  1.00  0.00    -0.250 N 
ATOM      5  C   UNL     1     100.716 115.976  90.235  1.00  0.00     0.168 A 
ATOM      6  C   UNL     1      99.773 116.277  91.233  1.00  0.00     0.056 A 
ATOM      7  C   UNL     1     101.882 116.765  90.138  1.00  0.00     0.173 A 
ATOM      8  C   UNL     1      99.984 117.334  92.122  1.00  0.00     0.005 A 
ATOM      9  C   UNL     1     102.068 117.844  91.013  1.00  0.00     0.052 A 
ATOM     10  O   UNL     1     102.875 116.510  89.198  1.00  0.00    -0.452 OA
ATOM     11  C   UNL     1     101.128 118.123  92.006  1.00  0.00     0.004 A 
ATOM     12  C   UNL     1     103.422 115.243  89.022  1.00  0.00     0.143 A 
ATOM     13  C   UNL     1     104.818 115.127  89.022  1.00  0.00     0.049 A 
ATOM     14  C   UNL     1     105.426 113.877  88.918  1.00  0.00     0.024 A 
ATOM     15  C   UNL     1     104.643 112.729  88.801  1.00  0.00     0.042 A 
ATOM     16  C   UNL     1     103.250 112.838  88.765  1.00  0.00     0.041 A 
ATOM     17  Cl  UNL     1     105.404 111.155  88.671  1.00  0.00    -0.084 Cl
ATOM     18  C   UNL     1     101.016 113.268  86.271  1.00  0.00     0.298 C 
ATOM     19  C   UNL     1      99.398 112.459  88.015  1.00  0.00     0.298 C 
ATOM     20  C   UNL     1     101.079 111.838  85.721  1.00  0.00     0.308 C 
ATOM     21  C   UNL     1      99.511 111.055  87.413  1.00  0.00     0.308 C 
ATOM     22  N   UNL     1      99.808 111.121  85.965  1.00  0.00    -0.331 N 
ATOM     23  C   UNL     1      99.880 109.763  85.402  1.00  0.00     0.332 C 
ATOM     24  H   UNL     1      99.339 114.942  89.022  1.00  0.00     0.312 HD
ATOM     25  H   UNL     1      99.030 111.629  85.479  1.00  0.00     0.348 HD
ENDROOT
TORSDOF 0
ENDMDL
MODEL 6
REMARK VINA RESULT:    -5.834      3.346      5.460
REMARK INTER + INTRA:          -5.834
REMARK INTER:                  -5.834
REMARK INTRA:                   0.000
REMARK UNBOUND:                 0.000
REMARK SMILES C[NH+]1CCN(C2=[NH+]c3ccccc3Oc3ccc(Cl)cc32)CC1
REMARK SMILES IDX 7 1 6 2 21 3 5 4 8 5 9 6 13 7 10 8 12 9 14 10 11 11 15 12
REMARK SMILES IDX 16 13 17 14 18 15 20 16 19 17 4 18 22 19 3 20 23 21 2 22
REMARK SMILES IDX 1 23
REMARK H PARENT 7 24 2 25
REMARK Flexibility Score: inf
ROOT
ATOM      1  N   UNL     1     105.349 113.787  88.110  1.00  0.00    -0.237 N 
ATOM      2  C   UNL     1     104.849 113.658  89.312  1.00  0.00     0.286 C 
ATOM      3  C   UNL     1     103.455 114.028  89.667  1.00  0.00     0.108 A 
ATOM      4  N   UNL     1     105.672 113.084  90.346  1.00  0.00    -0.250 N 
ATOM      5  C   UNL     1     104.690 114.294  86.936  1.00  0.00     0.168 A 
ATOM      6  C   UNL     1     105.065 113.770  85.686  1.00  0.00     0.056 A 
ATOM      7  C   UNL     1     103.835 115.415  86.976  1.00  0.00     0.173 A 
ATOM      8  C   UNL     1     104.595 114.341  84.500  1.00  0.00     0.005 A 
ATOM      9  C   UNL     1     103.397 116.001  85.781  1.00  0.00     0.052 A 
ATOM     10  O   UNL     1     103.396 115.971  88.173  1.00  0.00    -0.452 OA
ATOM     11  C   UNL     1     103.768 115.462  84.548  1.00  0.00     0.004 A 
ATOM     12  C   UNL     1     102.837 115.201  89.188  1.00  0.00     0.143 A 
ATOM     13  C   UNL     1     101.614 115.618  89.728  1.00  0.00     0.049 A 
ATOM     14  C   UNL     1     100.969 114.853  90.699  1.00  0.00     0.024 A 
ATOM     15  C   UNL     1     101.548 113.667  91.149  1.00  0.00     0.042 A 
ATOM     16  C   UNL     1     102.786 113.260  90.641  1.00  0.00     0.041 A 
ATOM     17  Cl  UNL     1     100.741 112.701  92.369  1.00  0.00    -0.084 Cl
ATOM     18  C   UNL     1     105.981 113.861  91.549  1.00  0.00     0.298 C 
ATOM     19  C   UNL     1     106.430 111.853  90.106  1.00  0.00     0.298 C 
ATOM     20  C   UNL     1     106.000 112.938  92.773  1.00  0.00     0.308 C 
ATOM     21  C   UNL     1     106.433 110.992  91.374  1.00  0.00     0.308 C 
ATOM     22  N   UNL     1     106.885 111.775  92.545  1.00  0.00    -0.331 N 
ATOM     23  C   UNL     1     106.912 110.919  93.743  1.00  0.00     0.332 C 
ATOM     24  H   UNL     1     106.328 113.452  87.959  1.00  0.00     0.312 HD
ATOM     25  H   UNL     1     107.861 112.116  92.373  1.00  0.00     0.348 HD
ENDROOT
TORSDOF 0
ENDMDL
MODEL 7
REMARK VINA RESULT:    -5.765      4.633      9.083
REMARK INTER + INTRA:          -5.765
REMARK INTER:                  -5.765
REMARK INTRA:                   0.000
REMARK UNBOUND:                 0.000
REMARK SMILES C[NH+]1CCN(C2=[NH+]c3ccccc3Oc3ccc(Cl)cc32)CC1
REMARK SMILES IDX 7 1 6 2 21 3 5 4 8 5 9 6 13 7 10 8 12 9 14 10 11 11 15 12
REMARK SMILES IDX 16 13 17 14 18 15 20 16 19 17 4 18 22 19 3 20 23 21 2 22
REMARK SMILES IDX 1 23
REMARK H PARENT 7 24 2 25
REMARK Flexibility Score: inf
ROOT
ATOM      1  N   UNL     1     106.288 114.352  82.284  1.00  0.00    -0.237 N 
ATOM      2  C   UNL     1     105.981 113.856  83.454  1.00  0.00     0.286 C 
ATOM      3  C   UNL     1     106.971 113.231  84.369  1.00  0.00     0.108 A 
ATOM      4  N   UNL     1     104.618 113.956  83.914  1.00  0.00    -0.250 N 
ATOM      5  C   UNL     1     107.583 114.392  81.661  1.00  0.00     0.168 A 
ATOM      6  C   UNL     1     107.879 115.473  80.811  1.00  0.00     0.056 A 
ATOM      7  C   UNL     1     108.482 113.306  81.719  1.00  0.00     0.173 A 
ATOM      8  C   UNL     1     109.044 115.480  80.040  1.00  0.00     0.005 A 
ATOM      9  C   UNL     1     109.630 113.307  80.916  1.00  0.00     0.052 A 
ATOM     10  O   UNL     1     108.275 112.215  82.558  1.00  0.00    -0.452 OA
ATOM     11  C   UNL     1     109.916 114.393  80.087  1.00  0.00     0.004 A 
ATOM     12  C   UNL     1     107.984 112.365  83.910  1.00  0.00     0.143 A 
ATOM     13  C   UNL     1     108.744 111.629  84.828  1.00  0.00     0.049 A 
ATOM     14  C   UNL     1     108.547 111.785  86.199  1.00  0.00     0.024 A 
ATOM     15  C   UNL     1     107.579 112.673  86.667  1.00  0.00     0.042 A 
ATOM     16  C   UNL     1     106.791 113.386  85.758  1.00  0.00     0.041 A 
ATOM     17  Cl  UNL     1     107.328 112.873  88.390  1.00  0.00    -0.084 Cl
ATOM     18  C   UNL     1     103.859 112.741  84.217  1.00  0.00     0.298 C 
ATOM     19  C   UNL     1     103.887 115.223  83.824  1.00  0.00     0.298 C 
ATOM     20  C   UNL     1     102.956 112.982  85.432  1.00  0.00     0.308 C 
ATOM     21  C   UNL     1     102.986 115.387  85.052  1.00  0.00     0.308 C 
ATOM     22  N   UNL     1     102.131 114.196  85.247  1.00  0.00    -0.331 N 
ATOM     23  C   UNL     1     101.251 114.390  86.411  1.00  0.00     0.332 C 
ATOM     24  H   UNL     1     105.521 114.811  81.741  1.00  0.00     0.312 HD
ATOM     25  H   UNL     1     101.522 114.070  84.402  1.00  0.00     0.348 HD
ENDROOT
TORSDOF 0
ENDMDL
MODEL 8
REMARK VINA RESULT:    -5.673     15.272     17.024
REMARK INTER + INTRA:          -5.673
REMARK INTER:                  -5.673
REMARK INTRA:                   0.000
REMARK UNBOUND:                 0.000
REMARK SMILES C[NH+]1CCN(C2=[NH+]c3ccccc3Oc3ccc(Cl)cc32)CC1
REMARK SMILES IDX 7 1 6 2 21 3 5 4 8 5 9 6 13 7 10 8 12 9 14 10 11 11 15 12
REMARK SMILES IDX 16 13 17 14 18 15 20 16 19 17 4 18 22 19 3 20 23 21 2 22
REMARK SMILES IDX 1 23
REMARK H PARENT 7 24 2 25
REMARK Flexibility Score: inf
ROOT
ATOM      1  N   UNL     1     113.901 101.828  91.759  1.00  0.00    -0.237 N 
ATOM      2  C   UNL     1     112.707 101.599  91.277  1.00  0.00     0.286 C 
ATOM      3  C   UNL     1     111.523 101.293  92.122  1.00  0.00     0.108 A 
ATOM      4  N   UNL     1     112.504 101.692  89.853  1.00  0.00    -0.250 N 
ATOM      5  C   UNL     1     114.305 101.826  93.139  1.00  0.00     0.168 A 
ATOM      6  C   UNL     1     115.339 102.695  93.529  1.00  0.00     0.056 A 
ATOM      7  C   UNL     1     113.841 100.863  94.060  1.00  0.00     0.173 A 
ATOM      8  C   UNL     1     115.897 102.616  94.808  1.00  0.00     0.005 A 
ATOM      9  C   UNL     1     114.430 100.769  95.327  1.00  0.00     0.052 A 
ATOM     10  O   UNL     1     112.801  99.989  93.759  1.00  0.00    -0.452 OA
ATOM     11  C   UNL     1     115.448 101.647  95.704  1.00  0.00     0.004 A 
ATOM     12  C   UNL     1     111.590 100.430  93.234  1.00  0.00     0.143 A 
ATOM     13  C   UNL     1     110.412  99.998  93.856  1.00  0.00     0.049 A 
ATOM     14  C   UNL     1     109.170 100.458  93.421  1.00  0.00     0.024 A 
ATOM     15  C   UNL     1     109.093 101.348  92.350  1.00  0.00     0.042 A 
ATOM     16  C   UNL     1     110.261 101.758  91.701  1.00  0.00     0.041 A 
ATOM     17  Cl  UNL     1     107.533 101.930  91.800  1.00  0.00    -0.084 Cl
ATOM     18  C   UNL     1     112.032 100.525  89.105  1.00  0.00     0.298 C 
ATOM     19  C   UNL     1     113.017 102.837  89.095  1.00  0.00     0.298 C 
ATOM     20  C   UNL     1     111.070 100.971  87.998  1.00  0.00     0.308 C 
ATOM     21  C   UNL     1     112.024 103.212  87.991  1.00  0.00     0.308 C 
ATOM     22  N   UNL     1     111.676 102.034  87.167  1.00  0.00    -0.331 N 
ATOM     23  C   UNL     1     110.747 102.425  86.093  1.00  0.00     0.332 C 
ATOM     24  H   UNL     1     114.653 102.080  91.077  1.00  0.00     0.312 HD
ATOM     25  H   UNL     1     112.547 101.661  86.717  1.00  0.00     0.348 HD
ENDROOT
TORSDOF 0
ENDMDL
MODEL 9
REMARK VINA RESULT:    -5.608      2.984      4.397
REMARK INTER + INTRA:          -5.608
REMARK INTER:                  -5.608
REMARK INTRA:                   0.000
REMARK UNBOUND:                 0.000
REMARK SMILES C[NH+]1CCN(C2=[NH+]c3ccccc3Oc3ccc(Cl)cc32)CC1
REMARK SMILES IDX 7 1 6 2 21 3 5 4 8 5 9 6 13 7 10 8 12 9 14 10 11 11 15 12
REMARK SMILES IDX 16 13 17 14 18 15 20 16 19 17 4 18 22 19 3 20 23 21 2 22
REMARK SMILES IDX 1 23
REMARK H PARENT 7 24 2 25
REMARK Flexibility Score: inf
ROOT
ATOM      1  N   UNL     1     101.215 114.683  87.235  1.00  0.00    -0.237 N 
ATOM      2  C   UNL     1     102.403 114.534  86.707  1.00  0.00     0.286 C 
ATOM      3  C   UNL     1     103.642 114.357  87.508  1.00  0.00     0.108 A 
ATOM      4  N   UNL     1     102.523 114.491  85.271  1.00  0.00    -0.250 N 
ATOM      5  C   UNL     1     100.872 114.712  88.631  1.00  0.00     0.168 A 
ATOM      6  C   UNL     1      99.616 114.213  89.017  1.00  0.00     0.056 A 
ATOM      7  C   UNL     1     101.660 115.387  89.587  1.00  0.00     0.173 A 
ATOM      8  C   UNL     1      99.152 114.374  90.325  1.00  0.00     0.005 A 
ATOM      9  C   UNL     1     101.172 115.573  90.887  1.00  0.00     0.052 A 
ATOM     10  O   UNL     1     102.926 115.881  89.290  1.00  0.00    -0.452 OA
ATOM     11  C   UNL     1      99.927 115.062  91.258  1.00  0.00     0.004 A 
ATOM     12  C   UNL     1     103.901 115.102  88.676  1.00  0.00     0.143 A 
ATOM     13  C   UNL     1     105.172 115.062  89.263  1.00  0.00     0.049 A 
ATOM     14  C   UNL     1     106.173 114.247  88.735  1.00  0.00     0.024 A 
ATOM     15  C   UNL     1     105.914 113.470  87.606  1.00  0.00     0.042 A 
ATOM     16  C   UNL     1     104.660 113.530  86.992  1.00  0.00     0.041 A 
ATOM     17  Cl  UNL     1     107.169 112.443  86.939  1.00  0.00    -0.084 Cl
ATOM     18  C   UNL     1     103.343 115.487  84.578  1.00  0.00     0.298 C 
ATOM     19  C   UNL     1     101.632 113.649  84.468  1.00  0.00     0.298 C 
ATOM     20  C   UNL     1     104.067 114.831  83.396  1.00  0.00     0.308 C 
ATOM     21  C   UNL     1     102.410 113.050  83.292  1.00  0.00     0.308 C 
ATOM     22  N   UNL     1     103.114 114.104  82.530  1.00  0.00    -0.331 N 
ATOM     23  C   UNL     1     103.826 113.509  81.386  1.00  0.00     0.332 C 
ATOM     24  H   UNL     1     100.404 114.754  86.578  1.00  0.00     0.312 HD
ATOM     25  H   UNL     1     102.409 114.782  82.151  1.00  0.00     0.348 HD
ENDROOT
TORSDOF 0
ENDMDL
