MODEL 1
REMARK VINA RESULT:    -3.811      0.000      0.000
REMARK INTER + INTRA:          -4.725
REMARK INTER:                  -4.591
REMARK INTRA:                  -0.134
REMARK UNBOUND:                -0.134
REMARK SMILES NC(=O)C[C@H]([NH3+])C(=O)[O-]
REMARK SMILES IDX 4 1 5 2 6 3 7 7 8 8 9 9 2 10 3 11 1 12
REMARK H PARENT 6 4 6 5 6 6 1 13 1 14
REMARK Flexibility Score: inf
ROOT
ATOM      1  C   UNL     1      28.614   4.305 143.353  1.00  0.00     0.171 C 
ENDROOT
BRANCH   1   2
ATOM      2  C   UNL     1      28.876   5.773 142.956  1.00  0.00     0.237 C 
BRANCH   2   3
ATOM      3  N   UNL     1      29.221   6.593 144.125  1.00  0.00    -0.350 N 
ATOM      4  H   UNL     1      30.228   6.454 144.371  1.00  0.00     0.345 HD
ATOM      5  H   UNL     1      28.648   6.302 144.949  1.00  0.00     0.345 HD
ATOM      6  H   UNL     1      29.053   7.608 143.930  1.00  0.00     0.345 HD
ENDBRANCH   2   3
BRANCH   2   7
ATOM      7  C   UNL     1      27.659   6.336 142.271  1.00  0.00     0.100 C 
ATOM      8  O   UNL     1      27.246   7.490 142.563  1.00  0.00    -0.544 OA
ATOM      9  O   UNL     1      26.995   5.595 141.301  1.00  0.00    -0.544 OA
ENDBRANCH   2   7
ENDBRANCH   1   2
BRANCH   1  10
ATOM     10  C   UNL     1      29.584   3.370 142.692  1.00  0.00     0.223 C 
ATOM     11  O   UNL     1      29.354   2.954 141.525  1.00  0.00    -0.275 OA
ATOM     12  N   UNL     1      30.781   2.974 143.361  1.00  0.00    -0.369 N 
ATOM     13  H   UNL     1      30.999   3.328 144.319  1.00  0.00     0.159 HD
ATOM     14  H   UNL     1      31.458   2.332 142.894  1.00  0.00     0.159 HD
ENDBRANCH   1  10
TORSDOF 4
ENDMDL
MODEL 2
REMARK VINA RESULT:    -3.799      2.095      2.532
REMARK INTER + INTRA:          -4.710
REMARK INTER:                  -4.197
REMARK INTRA:                  -0.513
REMARK UNBOUND:                -0.134
REMARK SMILES NC(=O)C[C@H]([NH3+])C(=O)[O-]
REMARK SMILES IDX 4 1 5 2 6 3 7 7 8 8 9 9 2 10 3 11 1 12
REMARK H PARENT 6 4 6 5 6 6 1 13 1 14
REMARK Flexibility Score: inf
ROOT
ATOM      1  C   UNL     1      28.876   3.906 141.279  1.00  0.00     0.171 C 
ENDROOT
BRANCH   1   2
ATOM      2  C   UNL     1      29.524   4.404 142.588  1.00  0.00     0.237 C 
BRANCH   2   3
ATOM      3  N   UNL     1      30.190   3.310 143.308  1.00  0.00    -0.350 N 
ATOM      4  H   UNL     1      30.748   2.732 142.639  1.00  0.00     0.345 HD
ATOM      5  H   UNL     1      29.477   2.686 143.751  1.00  0.00     0.345 HD
ATOM      6  H   UNL     1      30.826   3.686 144.049  1.00  0.00     0.345 HD
ENDBRANCH   2   3
BRANCH   2   7
ATOM      7  C   UNL     1      28.474   5.035 143.463  1.00  0.00     0.100 C 
ATOM      8  O   UNL     1      28.495   6.274 143.684  1.00  0.00    -0.544 OA
ATOM      9  O   UNL     1      27.465   4.256 144.018  1.00  0.00    -0.544 OA
ENDBRANCH   2   7
ENDBRANCH   1   2
BRANCH   1  10
ATOM     10  C   UNL     1      28.594   2.433 141.325  1.00  0.00     0.223 C 
ATOM     11  O   UNL     1      29.465   1.617 140.918  1.00  0.00    -0.275 OA
ATOM     12  N   UNL     1      27.362   1.946 141.855  1.00  0.00    -0.369 N 
ATOM     13  H   UNL     1      26.639   2.607 142.218  1.00  0.00     0.159 HD
ATOM     14  H   UNL     1      27.173   0.920 141.895  1.00  0.00     0.159 HD
ENDBRANCH   1  10
TORSDOF 4
ENDMDL
MODEL 3
REMARK VINA RESULT:    -3.775      2.657      3.739
REMARK INTER + INTRA:          -4.681
REMARK INTER:                  -4.418
REMARK INTRA:                  -0.263
REMARK UNBOUND:                -0.134
REMARK SMILES NC(=O)C[C@H]([NH3+])C(=O)[O-]
REMARK SMILES IDX 4 1 5 2 6 3 7 7 8 8 9 9 2 10 3 11 1 12
REMARK H PARENT 6 4 6 5 6 6 1 13 1 14
REMARK Flexibility Score: inf
ROOT
ATOM      1  C   UNL     1      29.086   2.771 141.528  1.00  0.00     0.171 C 
ENDROOT
BRANCH   1   2
ATOM      2  C   UNL     1      27.573   2.989 141.736  1.00  0.00     0.237 C 
BRANCH   2   3
ATOM      3  N   UNL     1      27.288   3.543 143.067  1.00  0.00    -0.350 N 
ATOM      4  H   UNL     1      28.178   3.644 143.607  1.00  0.00     0.345 HD
ATOM      5  H   UNL     1      26.664   2.894 143.598  1.00  0.00     0.345 HD
ATOM      6  H   UNL     1      26.826   4.479 142.988  1.00  0.00     0.345 HD
ENDBRANCH   2   3
BRANCH   2   7
ATOM      7  C   UNL     1      26.845   1.685 141.552  1.00  0.00     0.100 C 
ATOM      8  O   UNL     1      27.473   0.653 141.195  1.00  0.00    -0.544 OA
ATOM      9  O   UNL     1      25.478   1.606 141.793  1.00  0.00    -0.544 OA
ENDBRANCH   2   7
ENDBRANCH   1   2
BRANCH   1  10
ATOM     10  C   UNL     1      29.900   3.530 142.535  1.00  0.00     0.223 C 
ATOM     11  O   UNL     1      29.766   4.779 142.633  1.00  0.00    -0.275 OA
ATOM     12  N   UNL     1      30.800   2.845 143.406  1.00  0.00    -0.369 N 
ATOM     13  H   UNL     1      30.906   1.807 143.354  1.00  0.00     0.159 HD
ATOM     14  H   UNL     1      31.357   3.375 144.112  1.00  0.00     0.159 HD
ENDBRANCH   1  10
TORSDOF 4
ENDMDL
MODEL 4
REMARK VINA RESULT:    -3.714      1.714      1.852
REMARK INTER + INTRA:          -4.607
REMARK INTER:                  -4.344
REMARK INTRA:                  -0.263
REMARK UNBOUND:                -0.134
REMARK SMILES NC(=O)C[C@H]([NH3+])C(=O)[O-]
REMARK SMILES IDX 4 1 5 2 6 3 7 7 8 8 9 9 2 10 3 11 1 12
REMARK H PARENT 6 4 6 5 6 6 1 13 1 14
REMARK Flexibility Score: inf
ROOT
ATOM      1  C   UNL     1      29.198   5.021 142.870  1.00  0.00     0.171 C 
ENDROOT
BRANCH   1   2
ATOM      2  C   UNL     1      27.895   5.055 143.695  1.00  0.00     0.237 C 
BRANCH   2   3
ATOM      3  N   UNL     1      26.899   4.112 143.167  1.00  0.00    -0.350 N 
ATOM      4  H   UNL     1      26.031   4.628 142.895  1.00  0.00     0.345 HD
ATOM      5  H   UNL     1      26.640   3.415 143.901  1.00  0.00     0.345 HD
ATOM      6  H   UNL     1      27.274   3.607 142.330  1.00  0.00     0.345 HD
ENDBRANCH   2   3
BRANCH   2   7
ATOM      7  C   UNL     1      27.333   6.452 143.697  1.00  0.00     0.100 C 
ATOM      8  O   UNL     1      26.168   6.665 144.125  1.00  0.00    -0.544 OA
ATOM      9  O   UNL     1      28.103   7.517 143.244  1.00  0.00    -0.544 OA
ENDBRANCH   2   7
ENDBRANCH   1   2
BRANCH   1  10
ATOM     10  C   UNL     1      29.656   3.615 142.615  1.00  0.00     0.223 C 
ATOM     11  O   UNL     1      29.111   2.936 141.703  1.00  0.00    -0.275 OA
ATOM     12  N   UNL     1      30.726   3.051 143.372  1.00  0.00    -0.369 N 
ATOM     13  H   UNL     1      31.205   3.608 144.116  1.00  0.00     0.159 HD
ATOM     14  H   UNL     1      31.049   2.076 143.185  1.00  0.00     0.159 HD
ENDBRANCH   1  10
TORSDOF 4
ENDMDL
MODEL 5
REMARK VINA RESULT:    -3.703      2.196      2.753
REMARK INTER + INTRA:          -4.594
REMARK INTER:                  -4.465
REMARK INTRA:                  -0.130
REMARK UNBOUND:                -0.134
REMARK SMILES NC(=O)C[C@H]([NH3+])C(=O)[O-]
REMARK SMILES IDX 4 1 5 2 6 3 7 7 8 8 9 9 2 10 3 11 1 12
REMARK H PARENT 6 4 6 5 6 6 1 13 1 14
REMARK Flexibility Score: inf
ROOT
ATOM      1  C   UNL     1      28.837   3.013 141.742  1.00  0.00     0.171 C 
ENDROOT
BRANCH   1   2
ATOM      2  C   UNL     1      27.411   3.197 142.303  1.00  0.00     0.237 C 
BRANCH   2   3
ATOM      3  N   UNL     1      26.692   1.917 142.372  1.00  0.00    -0.350 N 
ATOM      4  H   UNL     1      26.695   1.457 141.433  1.00  0.00     0.345 HD
ATOM      5  H   UNL     1      25.696   2.081 142.644  1.00  0.00     0.345 HD
ATOM      6  H   UNL     1      27.139   1.277 143.069  1.00  0.00     0.345 HD
ENDBRANCH   2   3
BRANCH   2   7
ATOM      7  C   UNL     1      26.652   4.171 141.443  1.00  0.00     0.100 C 
ATOM      8  O   UNL     1      26.804   5.410 141.605  1.00  0.00    -0.544 OA
ATOM      9  O   UNL     1      25.791   3.709 140.454  1.00  0.00    -0.544 OA
ENDBRANCH   2   7
ENDBRANCH   1   2
BRANCH   1  10
ATOM     10  C   UNL     1      29.870   3.630 142.639  1.00  0.00     0.223 C 
ATOM     11  O   UNL     1      29.898   4.881 142.792  1.00  0.00    -0.275 OA
ATOM     12  N   UNL     1      30.800   2.810 143.345  1.00  0.00    -0.369 N 
ATOM     13  H   UNL     1      30.777   1.771 143.248  1.00  0.00     0.159 HD
ATOM     14  H   UNL     1      31.511   3.242 143.977  1.00  0.00     0.159 HD
ENDBRANCH   1  10
TORSDOF 4
ENDMDL
MODEL 6
REMARK VINA RESULT:    -3.665     15.011     15.764
REMARK INTER + INTRA:          -4.549
REMARK INTER:                  -4.207
REMARK INTRA:                  -0.343
REMARK UNBOUND:                -0.134
REMARK SMILES NC(=O)C[C@H]([NH3+])C(=O)[O-]
REMARK SMILES IDX 4 1 5 2 6 3 7 7 8 8 9 9 2 10 3 11 1 12
REMARK H PARENT 6 4 6 5 6 6 1 13 1 14
REMARK Flexibility Score: inf
ROOT
ATOM      1  C   UNL     1      27.234  16.801 133.227  1.00  0.00     0.171 C 
ENDROOT
BRANCH   1   2
ATOM      2  C   UNL     1      25.838  17.372 133.556  1.00  0.00     0.237 C 
BRANCH   2   3
ATOM      3  N   UNL     1      25.787  18.825 133.340  1.00  0.00    -0.350 N 
ATOM      4  H   UNL     1      25.014  19.241 133.908  1.00  0.00     0.345 HD
ATOM      5  H   UNL     1      25.592  19.031 132.334  1.00  0.00     0.345 HD
ATOM      6  H   UNL     1      26.693  19.272 133.614  1.00  0.00     0.345 HD
ENDBRANCH   2   3
BRANCH   2   7
ATOM      7  C   UNL     1      25.482  17.049 134.982  1.00  0.00     0.100 C 
ATOM      8  O   UNL     1      26.276  16.381 135.697  1.00  0.00    -0.544 OA
ATOM      9  O   UNL     1      24.285  17.500 135.525  1.00  0.00    -0.544 OA
ENDBRANCH   2   7
ENDBRANCH   1   2
BRANCH   1  10
ATOM     10  C   UNL     1      28.221  17.891 132.924  1.00  0.00     0.223 C 
ATOM     11  O   UNL     1      28.640  18.631 133.854  1.00  0.00    -0.275 OA
ATOM     12  N   UNL     1      28.714  18.074 131.598  1.00  0.00    -0.369 N 
ATOM     13  H   UNL     1      28.396  17.455 130.819  1.00  0.00     0.159 HD
ATOM     14  H   UNL     1      29.409  18.826 131.392  1.00  0.00     0.159 HD
ENDBRANCH   1  10
TORSDOF 4
ENDMDL
MODEL 7
REMARK VINA RESULT:    -3.531     12.714     13.736
REMARK INTER + INTRA:          -4.387
REMARK INTER:                  -4.042
REMARK INTRA:                  -0.345
REMARK UNBOUND:                -0.134
REMARK SMILES NC(=O)C[C@H]([NH3+])C(=O)[O-]
REMARK SMILES IDX 4 1 5 2 6 3 7 7 8 8 9 9 2 10 3 11 1 12
REMARK H PARENT 6 4 6 5 6 6 1 13 1 14
REMARK Flexibility Score: inf
ROOT
ATOM      1  C   UNL     1      34.480  14.770 137.965  1.00  0.00     0.171 C 
ENDROOT
BRANCH   1   2
ATOM      2  C   UNL     1      35.790  15.329 137.372  1.00  0.00     0.237 C 
BRANCH   2   3
ATOM      3  N   UNL     1      35.733  16.790 137.225  1.00  0.00    -0.350 N 
ATOM      4  H   UNL     1      36.587  17.223 137.644  1.00  0.00     0.345 HD
ATOM      5  H   UNL     1      34.901  17.169 137.732  1.00  0.00     0.345 HD
ATOM      6  H   UNL     1      35.672  17.060 136.215  1.00  0.00     0.345 HD
ENDBRANCH   2   3
BRANCH   2   7
ATOM      7  C   UNL     1      36.055  14.686 136.037  1.00  0.00     0.100 C 
ATOM      8  O   UNL     1      35.301  13.771 135.614  1.00  0.00    -0.544 OA
ATOM      9  O   UNL     1      37.123  15.111 135.255  1.00  0.00    -0.544 OA
ENDBRANCH   2   7
ENDBRANCH   1   2
BRANCH   1  10
ATOM     10  C   UNL     1      33.347  15.745 137.824  1.00  0.00     0.223 C 
ATOM     11  O   UNL     1      32.969  16.103 136.676  1.00  0.00    -0.275 OA
ATOM     12  N   UNL     1      32.672  16.245 138.979  1.00  0.00    -0.369 N 
ATOM     13  H   UNL     1      32.956  15.940 139.937  1.00  0.00     0.159 HD
ATOM     14  H   UNL     1      31.878  16.915 138.877  1.00  0.00     0.159 HD
ENDBRANCH   1  10
TORSDOF 4
ENDMDL
MODEL 8
REMARK VINA RESULT:    -3.528     13.699     14.391
REMARK INTER + INTRA:          -4.383
REMARK INTER:                  -3.933
REMARK INTRA:                  -0.450
REMARK UNBOUND:                -0.134
REMARK SMILES NC(=O)C[C@H]([NH3+])C(=O)[O-]
REMARK SMILES IDX 4 1 5 2 6 3 7 7 8 8 9 9 2 10 3 11 1 12
REMARK H PARENT 6 4 6 5 6 6 1 13 1 14
REMARK Flexibility Score: inf
ROOT
ATOM      1  C   UNL     1      37.125  15.829 135.985  1.00  0.00     0.171 C 
ENDROOT
BRANCH   1   2
ATOM      2  C   UNL     1      36.373  15.682 137.324  1.00  0.00     0.237 C 
BRANCH   2   3
ATOM      3  N   UNL     1      36.147  14.269 137.661  1.00  0.00    -0.350 N 
ATOM      4  H   UNL     1      37.017  13.718 137.481  1.00  0.00     0.345 HD
ATOM      5  H   UNL     1      35.389  13.875 137.060  1.00  0.00     0.345 HD
ATOM      6  H   UNL     1      35.878  14.166 138.668  1.00  0.00     0.345 HD
ENDBRANCH   2   3
BRANCH   2   7
ATOM      7  C   UNL     1      35.058  16.411 137.249  1.00  0.00     0.100 C 
ATOM      8  O   UNL     1      34.134  16.135 138.059  1.00  0.00    -0.544 OA
ATOM      9  O   UNL     1      34.863  17.405 136.298  1.00  0.00    -0.544 OA
ENDBRANCH   2   7
ENDBRANCH   1   2
BRANCH   1  10
ATOM     10  C   UNL     1      36.643  14.838 134.966  1.00  0.00     0.223 C 
ATOM     11  O   UNL     1      37.111  13.668 134.963  1.00  0.00    -0.275 OA
ATOM     12  N   UNL     1      35.636  15.200 134.022  1.00  0.00    -0.369 N 
ATOM     13  H   UNL     1      35.219  16.158 134.026  1.00  0.00     0.159 HD
ATOM     14  H   UNL     1      35.295  14.504 133.322  1.00  0.00     0.159 HD
ENDBRANCH   1  10
TORSDOF 4
ENDMDL
