MODEL 1
REMARK VINA RESULT:    -5.848      0.000      0.000
REMARK INTER + INTRA:          -6.378
REMARK INTER:                  -6.190
REMARK INTRA:                  -0.188
REMARK UNBOUND:                -0.188
REMARK SMILES C=C1CC=C(C(C)C)CC1
REMARK SMILES IDX 5 1 4 2 3 3 2 4 1 5 10 6 9 7 6 8 7 9 8 10
REMARK H PARENT
REMARK Flexibility Score: inf
ROOT
ATOM      1  C   UNL     1     137.730 135.920 123.473  1.00  0.00    -0.071 C 
ATOM      2  C   UNL     1     136.519 135.877 124.063  1.00  0.00    -0.023 C 
ATOM      3  C   UNL     1     135.461 136.906 123.749  1.00  0.00     0.057 C 
ATOM      4  C   UNL     1     136.084 138.269 123.529  1.00  0.00    -0.073 C 
ATOM      5  C   UNL     1     135.375 139.380 123.770  1.00  0.00     0.008 C 
ATOM      6  C   UNL     1     137.501 138.379 123.002  1.00  0.00     0.035 C 
ATOM      7  C   UNL     1     138.012 137.030 122.478  1.00  0.00     0.035 C 
ENDROOT
BRANCH   1   8
ATOM      8  C   UNL     1     138.805 134.916 123.857  1.00  0.00     0.008 C 
ATOM      9  C   UNL     1     140.127 135.216 123.140  1.00  0.00     0.012 C 
ATOM     10  C   UNL     1     138.997 134.877 125.376  1.00  0.00     0.012 C 
ENDBRANCH   1   8
TORSDOF 1
ENDMDL
MODEL 2
REMARK VINA RESULT:    -5.784      0.973      4.396
REMARK INTER + INTRA:          -6.311
REMARK INTER:                  -6.130
REMARK INTRA:                  -0.180
REMARK UNBOUND:                -0.188
REMARK SMILES C=C1CC=C(C(C)C)CC1
REMARK SMILES IDX 5 1 4 2 3 3 2 4 1 5 10 6 9 7 6 8 7 9 8 10
REMARK H PARENT
REMARK Flexibility Score: inf
ROOT
ATOM      1  C   UNL     1     136.399 137.518 123.740  1.00  0.00    -0.071 C 
ATOM      2  C   UNL     1     137.169 137.730 122.653  1.00  0.00    -0.023 C 
ATOM      3  C   UNL     1     138.213 136.727 122.231  1.00  0.00     0.057 C 
ATOM      4  C   UNL     1     138.869 136.090 123.438  1.00  0.00    -0.073 C 
ATOM      5  C   UNL     1     140.119 135.615 123.353  1.00  0.00     0.008 C 
ATOM      6  C   UNL     1     138.098 135.955 124.736  1.00  0.00     0.035 C 
ATOM      7  C   UNL     1     136.603 136.243 124.535  1.00  0.00     0.035 C 
ENDROOT
BRANCH   1   8
ATOM      8  C   UNL     1     135.402 138.574 124.190  1.00  0.00     0.008 C 
ATOM      9  C   UNL     1     136.014 139.503 125.245  1.00  0.00     0.012 C 
ATOM     10  C   UNL     1     134.875 139.371 122.992  1.00  0.00     0.012 C 
ENDBRANCH   1   8
TORSDOF 1
ENDMDL
MODEL 3
REMARK VINA RESULT:    -5.713     14.075     16.265
REMARK INTER + INTRA:          -6.236
REMARK INTER:                  -6.054
REMARK INTRA:                  -0.181
REMARK UNBOUND:                -0.188
REMARK SMILES C=C1CC=C(C(C)C)CC1
REMARK SMILES IDX 5 1 4 2 3 3 2 4 1 5 10 6 9 7 6 8 7 9 8 10
REMARK H PARENT
REMARK Flexibility Score: inf
ROOT
ATOM      1  C   UNL     1     153.233 136.387 123.762  1.00  0.00    -0.071 C 
ATOM      2  C   UNL     1     153.038 137.140 122.660  1.00  0.00    -0.023 C 
ATOM      3  C   UNL     1     154.040 138.187 122.242  1.00  0.00     0.057 C 
ATOM      4  C   UNL     1     154.647 138.865 123.453  1.00  0.00    -0.073 C 
ATOM      5  C   UNL     1     155.112 140.118 123.360  1.00  0.00     0.008 C 
ATOM      6  C   UNL     1     154.761 138.114 124.765  1.00  0.00     0.035 C 
ATOM      7  C   UNL     1     154.491 136.614 124.579  1.00  0.00     0.035 C 
ENDROOT
BRANCH   1   8
ATOM      8  C   UNL     1     152.177 135.387 124.204  1.00  0.00     0.008 C 
ATOM      9  C   UNL     1     151.253 135.990 125.269  1.00  0.00     0.012 C 
ATOM     10  C   UNL     1     151.375 134.875 123.003  1.00  0.00     0.012 C 
ENDBRANCH   1   8
TORSDOF 1
ENDMDL
MODEL 4
REMARK VINA RESULT:    -5.663     14.303     16.831
REMARK INTER + INTRA:          -6.183
REMARK INTER:                  -5.991
REMARK INTRA:                  -0.191
REMARK UNBOUND:                -0.188
REMARK SMILES C=C1CC=C(C(C)C)CC1
REMARK SMILES IDX 5 1 4 2 3 3 2 4 1 5 10 6 9 7 6 8 7 9 8 10
REMARK H PARENT
REMARK Flexibility Score: inf
ROOT
ATOM      1  C   UNL     1     136.051 153.009 123.742  1.00  0.00    -0.071 C 
ATOM      2  C   UNL     1     136.150 154.081 124.555  1.00  0.00    -0.023 C 
ATOM      3  C   UNL     1     137.218 155.125 124.342  1.00  0.00     0.057 C 
ATOM      4  C   UNL     1     138.507 154.488 123.865  1.00  0.00    -0.073 C 
ATOM      5  C   UNL     1     139.683 155.077 124.119  1.00  0.00     0.008 C 
ATOM      6  C   UNL     1     138.466 153.199 123.068  1.00  0.00     0.035 C 
ATOM      7  C   UNL     1     137.040 152.873 122.601  1.00  0.00     0.035 C 
ENDROOT
BRANCH   1   8
ATOM      8  C   UNL     1     135.013 151.933 124.017  1.00  0.00     0.008 C 
ATOM      9  C   UNL     1     135.344 150.637 123.267  1.00  0.00     0.012 C 
ATOM     10  C   UNL     1     134.875 151.680 125.522  1.00  0.00     0.012 C 
ENDBRANCH   1   8
TORSDOF 1
ENDMDL
MODEL 5
REMARK VINA RESULT:    -5.378     13.877     16.339
REMARK INTER + INTRA:          -5.881
REMARK INTER:                  -5.696
REMARK INTRA:                  -0.185
REMARK UNBOUND:                -0.188
REMARK SMILES C=C1CC=C(C(C)C)CC1
REMARK SMILES IDX 5 1 4 2 3 3 2 4 1 5 10 6 9 7 6 8 7 9 8 10
REMARK H PARENT
REMARK Flexibility Score: inf
ROOT
ATOM      1  C   UNL     1     154.182 137.633 123.793  1.00  0.00    -0.071 C 
ATOM      2  C   UNL     1     154.417 136.350 124.136  1.00  0.00    -0.023 C 
ATOM      3  C   UNL     1     153.458 135.251 123.753  1.00  0.00     0.057 C 
ATOM      4  C   UNL     1     152.026 135.740 123.817  1.00  0.00    -0.073 C 
ATOM      5  C   UNL     1     151.029 134.875 124.050  1.00  0.00     0.008 C 
ATOM      6  C   UNL     1     151.713 137.204 123.582  1.00  0.00     0.035 C 
ATOM      7  C   UNL     1     152.924 137.952 123.007  1.00  0.00     0.035 C 
ENDROOT
BRANCH   1   8
ATOM      8  C   UNL     1     155.125 138.734 124.251  1.00  0.00     0.008 C 
ATOM      9  C   UNL     1     154.775 140.074 123.592  1.00  0.00     0.012 C 
ATOM     10  C   UNL     1     155.123 138.853 125.779  1.00  0.00     0.012 C 
ENDBRANCH   1   8
TORSDOF 1
ENDMDL
MODEL 6
REMARK VINA RESULT:    -4.807     13.813     16.293
REMARK INTER + INTRA:          -5.276
REMARK INTER:                  -5.117
REMARK INTRA:                  -0.159
REMARK UNBOUND:                -0.188
REMARK SMILES C=C1CC=C(C(C)C)CC1
REMARK SMILES IDX 5 1 4 2 3 3 2 4 1 5 10 6 9 7 6 8 7 9 8 10
REMARK H PARENT
REMARK Flexibility Score: inf
ROOT
ATOM      1  C   UNL     1     154.013 137.757 123.600  1.00  0.00    -0.071 C 
ATOM      2  C   UNL     1     152.716 138.125 123.570  1.00  0.00    -0.023 C 
ATOM      3  C   UNL     1     151.639 137.233 124.137  1.00  0.00     0.057 C 
ATOM      4  C   UNL     1     151.958 135.775 123.883  1.00  0.00    -0.073 C 
ATOM      5  C   UNL     1     150.969 134.875 123.795  1.00  0.00     0.008 C 
ATOM      6  C   UNL     1     153.400 135.324 123.761  1.00  0.00     0.035 C 
ATOM      7  C   UNL     1     154.372 136.420 124.220  1.00  0.00     0.035 C 
ENDROOT
BRANCH   1   8
ATOM      8  C   UNL     1     155.074 138.637 122.959  1.00  0.00     0.008 C 
ATOM      9  C   UNL     1     154.851 138.766 121.448  1.00  0.00     0.012 C 
ATOM     10  C   UNL     1     155.116 140.014 123.630  1.00  0.00     0.012 C 
ENDBRANCH   1   8
TORSDOF 1
ENDMDL
MODEL 7
REMARK VINA RESULT:    -4.734     22.368     23.408
REMARK INTER + INTRA:          -5.199
REMARK INTER:                  -5.011
REMARK INTRA:                  -0.188
REMARK UNBOUND:                -0.188
REMARK SMILES C=C1CC=C(C(C)C)CC1
REMARK SMILES IDX 5 1 4 2 3 3 2 4 1 5 10 6 9 7 6 8 7 9 8 10
REMARK H PARENT
REMARK Flexibility Score: inf
ROOT
ATOM      1  C   UNL     1     153.111 154.191 123.568  1.00  0.00    -0.071 C 
ATOM      2  C   UNL     1     153.599 153.993 124.810  1.00  0.00    -0.023 C 
ATOM      3  C   UNL     1     154.727 153.023 125.060  1.00  0.00     0.057 C 
ATOM      4  C   UNL     1     154.608 151.815 124.154  1.00  0.00    -0.073 C 
ATOM      5  C   UNL     1     155.123 150.637 124.533  1.00  0.00     0.008 C 
ATOM      6  C   UNL     1     153.938 151.944 122.801  1.00  0.00     0.035 C 
ATOM      7  C   UNL     1     153.724 153.415 122.418  1.00  0.00     0.035 C 
ENDROOT
BRANCH   1   8
ATOM      8  C   UNL     1     151.927 155.119 123.349  1.00  0.00     0.008 C 
ATOM      9  C   UNL     1     151.481 155.113 121.883  1.00  0.00     0.012 C 
ATOM     10  C   UNL     1     150.768 154.753 124.281  1.00  0.00     0.012 C 
ENDBRANCH   1   8
TORSDOF 1
ENDMDL
MODEL 8
REMARK VINA RESULT:    -3.169     14.242     17.023
REMARK INTER + INTRA:          -3.542
REMARK INTER:                  -3.349
REMARK INTRA:                  -0.193
REMARK UNBOUND:                -0.188
REMARK SMILES C=C1CC=C(C(C)C)CC1
REMARK SMILES IDX 5 1 4 2 3 3 2 4 1 5 10 6 9 7 6 8 7 9 8 10
REMARK H PARENT
REMARK Flexibility Score: inf
ROOT
ATOM      1  C   UNL     1     136.913 154.138 123.749  1.00  0.00    -0.071 C 
ATOM      2  C   UNL     1     136.581 153.759 122.499  1.00  0.00    -0.023 C 
ATOM      3  C   UNL     1     135.465 152.774 122.253  1.00  0.00     0.057 C 
ATOM      4  C   UNL     1     135.432 151.716 123.336  1.00  0.00    -0.073 C 
ATOM      5  C   UNL     1     134.934 150.500 123.073  1.00  0.00     0.008 C 
ATOM      6  C   UNL     1     135.930 152.042 124.729  1.00  0.00     0.035 C 
ATOM      7  C   UNL     1     136.137 153.552 124.913  1.00  0.00     0.035 C 
ENDROOT
BRANCH   1   8
ATOM      8  C   UNL     1     138.087 155.076 123.979  1.00  0.00     0.008 C 
ATOM      9  C   UNL     1     138.878 154.681 125.232  1.00  0.00     0.012 C 
ATOM     10  C   UNL     1     138.995 155.125 122.746  1.00  0.00     0.012 C 
ENDBRANCH   1   8
TORSDOF 1
ENDMDL
