MODEL 1
REMARK VINA RESULT:    -5.621      0.000      0.000
REMARK INTER + INTRA:         -14.875
REMARK INTER:                 -12.851
REMARK INTRA:                  -2.024
REMARK UNBOUND:                -2.024
REMARK SMILES CCCCCCCCCCCCCCCCCCCCCCCC(=O)[O-]
REMARK SMILES IDX 13 1 14 2 15 3 16 4 17 5 18 6 19 7 20 8 21 9 22 10 23 11
REMARK SMILES IDX 24 12 25 13 26 14 12 15 11 16 10 17 9 18 8 19 7 20 6 21 5 22
REMARK SMILES IDX 4 23 3 24 2 25 1 26
REMARK H PARENT
REMARK Flexibility Score: inf
ROOT
ATOM      1  C   UNL     1      45.997  25.155  19.622  1.00  0.00     0.000 C 
ENDROOT
BRANCH   1   2
ATOM      2  C   UNL     1      44.615  25.633  20.103  1.00  0.00     0.000 C 
BRANCH   2   3
ATOM      3  C   UNL     1      44.247  27.025  19.563  1.00  0.00     0.000 C 
BRANCH   3   4
ATOM      4  C   UNL     1      45.448  27.982  19.530  1.00  0.00     0.000 C 
BRANCH   4   5
ATOM      5  C   UNL     1      45.454  28.895  18.289  1.00  0.00     0.000 C 
BRANCH   5   6
ATOM      6  C   UNL     1      44.581  30.154  18.482  1.00  0.00     0.000 C 
BRANCH   6   7
ATOM      7  C   UNL     1      44.573  31.104  17.267  1.00  0.00     0.000 C 
BRANCH   7   8
ATOM      8  C   UNL     1      43.457  32.164  17.274  1.00  0.00     0.000 C 
BRANCH   8   9
ATOM      9  C   UNL     1      43.250  32.892  15.928  1.00  0.00     0.000 C 
BRANCH   9  10
ATOM     10  C   UNL     1      42.533  32.031  14.866  1.00  0.00     0.006 C 
BRANCH  10  11
ATOM     11  C   UNL     1      43.509  31.420  13.852  1.00  0.00     0.053 C 
BRANCH  11  12
ATOM     12  C   UNL     1      43.467  29.926  13.914  1.00  0.00     0.041 C 
ATOM     13  O   UNL     1      44.534  29.259  13.978  1.00  0.00    -0.550 OA
ATOM     14  O   UNL     1      42.246  29.262  13.844  1.00  0.00    -0.550 OA
ENDBRANCH  11  12
ENDBRANCH  10  11
ENDBRANCH   9  10
ENDBRANCH   8   9
ENDBRANCH   7   8
ENDBRANCH   6   7
ENDBRANCH   5   6
ENDBRANCH   4   5
ENDBRANCH   3   4
ENDBRANCH   2   3
ENDBRANCH   1   2
BRANCH   1  15
ATOM     15  C   UNL     1      46.076  23.663  19.239  1.00  0.00     0.000 C 
BRANCH  15  16
ATOM     16  C   UNL     1      46.852  22.768  20.227  1.00  0.00     0.000 C 
BRANCH  16  17
ATOM     17  C   UNL     1      46.002  21.707  20.948  1.00  0.00     0.000 C 
BRANCH  17  18
ATOM     18  C   UNL     1      44.770  22.304  21.650  1.00  0.00    -0.000 C 
BRANCH  18  19
ATOM     19  C   UNL     1      43.450  21.813  21.033  1.00  0.00    -0.000 C 
BRANCH  19  20
ATOM     20  C   UNL     1      42.295  22.804  21.266  1.00  0.00    -0.000 C 
BRANCH  20  21
ATOM     21  C   UNL     1      41.742  23.382  19.954  1.00  0.00    -0.000 C 
BRANCH  21  22
ATOM     22  C   UNL     1      42.465  22.830  18.714  1.00  0.00    -0.000 C 
BRANCH  22  23
ATOM     23  C   UNL     1      41.476  22.258  17.674  1.00  0.00    -0.000 C 
BRANCH  23  24
ATOM     24  C   UNL     1      40.154  23.041  17.589  1.00  0.00    -0.000 C 
BRANCH  24  25
ATOM     25  C   UNL     1      38.925  22.132  17.464  1.00  0.00    -0.003 C 
ATOM     26  C   UNL     1      37.809  22.819  16.683  1.00  0.00     0.004 C 
ENDBRANCH  24  25
ENDBRANCH  23  24
ENDBRANCH  22  23
ENDBRANCH  21  22
ENDBRANCH  20  21
ENDBRANCH  19  20
ENDBRANCH  18  19
ENDBRANCH  17  18
ENDBRANCH  16  17
ENDBRANCH  15  16
ENDBRANCH   1  15
TORSDOF 22
ENDMDL
MODEL 2
REMARK VINA RESULT:    -5.522      4.919     10.320
REMARK INTER + INTRA:         -14.648
REMARK INTER:                 -11.008
REMARK INTRA:                  -3.639
REMARK UNBOUND:                -2.024
REMARK SMILES CCCCCCCCCCCCCCCCCCCCCCCC(=O)[O-]
REMARK SMILES IDX 13 1 14 2 15 3 16 4 17 5 18 6 19 7 20 8 21 9 22 10 23 11
REMARK SMILES IDX 24 12 25 13 26 14 12 15 11 16 10 17 9 18 8 19 7 20 6 21 5 22
REMARK SMILES IDX 4 23 3 24 2 25 1 26
REMARK H PARENT
REMARK Flexibility Score: inf
ROOT
ATOM      1  C   UNL     1      43.502  33.069  16.151  1.00  0.00     0.000 C 
ENDROOT
BRANCH   1   2
ATOM      2  C   UNL     1      44.535  33.470  17.220  1.00  0.00     0.000 C 
BRANCH   2   3
ATOM      3  C   UNL     1      45.758  34.188  16.624  1.00  0.00     0.000 C 
BRANCH   3   4
ATOM      4  C   UNL     1      45.847  34.037  15.098  1.00  0.00     0.000 C 
BRANCH   4   5
ATOM      5  C   UNL     1      47.159  33.374  14.636  1.00  0.00     0.000 C 
BRANCH   5   6
ATOM      6  C   UNL     1      47.738  32.414  15.697  1.00  0.00     0.000 C 
BRANCH   6   7
ATOM      7  C   UNL     1      47.063  31.028  15.724  1.00  0.00     0.000 C 
BRANCH   7   8
ATOM      8  C   UNL     1      46.746  30.483  17.128  1.00  0.00     0.000 C 
BRANCH   8   9
ATOM      9  C   UNL     1      45.627  29.421  17.171  1.00  0.00     0.000 C 
BRANCH   9  10
ATOM     10  C   UNL     1      45.539  28.672  18.518  1.00  0.00     0.006 C 
BRANCH  10  11
ATOM     11  C   UNL     1      44.476  29.267  19.451  1.00  0.00     0.053 C 
BRANCH  11  12
ATOM     12  C   UNL     1      43.750  28.183  20.183  1.00  0.00     0.041 C 
ATOM     13  O   UNL     1      43.525  28.286  21.418  1.00  0.00    -0.550 OA
ATOM     14  O   UNL     1      43.370  27.025  19.510  1.00  0.00    -0.550 OA
ENDBRANCH  11  12
ENDBRANCH  10  11
ENDBRANCH   9  10
ENDBRANCH   8   9
ENDBRANCH   7   8
ENDBRANCH   6   7
ENDBRANCH   5   6
ENDBRANCH   4   5
ENDBRANCH   3   4
ENDBRANCH   2   3
ENDBRANCH   1   2
BRANCH   1  15
ATOM     15  C   UNL     1      43.420  31.558  15.857  1.00  0.00     0.000 C 
BRANCH  15  16
ATOM     16  C   UNL     1      42.778  31.183  14.504  1.00  0.00     0.000 C 
BRANCH  16  17
ATOM     17  C   UNL     1      43.340  29.909  13.849  1.00  0.00     0.000 C 
BRANCH  17  18
ATOM     18  C   UNL     1      44.690  30.143  13.146  1.00  0.00    -0.000 C 
BRANCH  18  19
ATOM     19  C   UNL     1      44.832  31.581  12.619  1.00  0.00    -0.000 C 
BRANCH  19  20
ATOM     20  C   UNL     1      45.582  31.635  11.276  1.00  0.00    -0.000 C 
BRANCH  20  21
ATOM     21  C   UNL     1      47.101  31.477  11.444  1.00  0.00    -0.000 C 
BRANCH  21  22
ATOM     22  C   UNL     1      47.899  32.478  10.592  1.00  0.00    -0.000 C 
BRANCH  22  23
ATOM     23  C   UNL     1      47.237  33.873  10.567  1.00  0.00    -0.000 C 
BRANCH  23  24
ATOM     24  C   UNL     1      47.973  34.917  11.427  1.00  0.00    -0.000 C 
BRANCH  24  25
ATOM     25  C   UNL     1      47.098  36.127  11.782  1.00  0.00    -0.003 C 
ATOM     26  C   UNL     1      45.691  35.973  11.213  1.00  0.00     0.004 C 
ENDBRANCH  24  25
ENDBRANCH  23  24
ENDBRANCH  22  23
ENDBRANCH  21  22
ENDBRANCH  20  21
ENDBRANCH  19  20
ENDBRANCH  18  19
ENDBRANCH  17  18
ENDBRANCH  16  17
ENDBRANCH  15  16
ENDBRANCH   1  15
TORSDOF 22
ENDMDL
MODEL 3
REMARK VINA RESULT:    -5.452      2.853      8.887
REMARK INTER + INTRA:         -14.488
REMARK INTER:                 -11.895
REMARK INTRA:                  -2.592
REMARK UNBOUND:                -2.024
REMARK SMILES CCCCCCCCCCCCCCCCCCCCCCCC(=O)[O-]
REMARK SMILES IDX 13 1 14 2 15 3 16 4 17 5 18 6 19 7 20 8 21 9 22 10 23 11
REMARK SMILES IDX 24 12 25 13 26 14 12 15 11 16 10 17 9 18 8 19 7 20 6 21 5 22
REMARK SMILES IDX 4 23 3 24 2 25 1 26
REMARK H PARENT
REMARK Flexibility Score: inf
ROOT
ATOM      1  C   UNL     1      43.875  27.737  19.572  1.00  0.00     0.000 C 
ENDROOT
BRANCH   1   2
ATOM      2  C   UNL     1      43.808  26.243  19.936  1.00  0.00     0.000 C 
BRANCH   2   3
ATOM      3  C   UNL     1      45.109  25.492  19.608  1.00  0.00     0.000 C 
BRANCH   3   4
ATOM      4  C   UNL     1      44.914  23.970  19.546  1.00  0.00     0.000 C 
BRANCH   4   5
ATOM      5  C   UNL     1      44.379  23.378  20.864  1.00  0.00     0.000 C 
BRANCH   5   6
ATOM      6  C   UNL     1      43.140  22.484  20.647  1.00  0.00     0.000 C 
BRANCH   6   7
ATOM      7  C   UNL     1      41.806  23.257  20.615  1.00  0.00     0.000 C 
BRANCH   7   8
ATOM      8  C   UNL     1      41.277  23.589  19.209  1.00  0.00     0.000 C 
BRANCH   8   9
ATOM      9  C   UNL     1      41.670  22.574  18.114  1.00  0.00     0.000 C 
BRANCH   9  10
ATOM     10  C   UNL     1      40.487  22.141  17.221  1.00  0.00     0.006 C 
BRANCH  10  11
ATOM     11  C   UNL     1      39.455  23.261  17.034  1.00  0.00     0.053 C 
BRANCH  11  12
ATOM     12  C   UNL     1      38.101  22.810  17.484  1.00  0.00     0.041 C 
ATOM     13  O   UNL     1      37.123  22.836  16.690  1.00  0.00    -0.550 OA
ATOM     14  O   UNL     1      37.905  22.414  18.803  1.00  0.00    -0.550 OA
ENDBRANCH  11  12
ENDBRANCH  10  11
ENDBRANCH   9  10
ENDBRANCH   8   9
ENDBRANCH   7   8
ENDBRANCH   6   7
ENDBRANCH   5   6
ENDBRANCH   4   5
ENDBRANCH   3   4
ENDBRANCH   2   3
ENDBRANCH   1   2
BRANCH   1  15
ATOM     15  C   UNL     1      45.253  28.231  19.089  1.00  0.00     0.000 C 
BRANCH  15  16
ATOM     16  C   UNL     1      45.248  28.991  17.746  1.00  0.00     0.000 C 
BRANCH  16  17
ATOM     17  C   UNL     1      45.995  30.336  17.757  1.00  0.00     0.000 C 
BRANCH  17  18
ATOM     18  C   UNL     1      45.160  31.478  18.363  1.00  0.00    -0.000 C 
BRANCH  18  19
ATOM     19  C   UNL     1      43.761  31.576  17.733  1.00  0.00    -0.000 C 
BRANCH  19  20
ATOM     20  C   UNL     1      43.449  32.997  17.226  1.00  0.00    -0.000 C 
BRANCH  20  21
ATOM     21  C   UNL     1      43.485  33.095  15.694  1.00  0.00    -0.000 C 
BRANCH  21  22
ATOM     22  C   UNL     1      44.874  33.481  15.157  1.00  0.00    -0.000 C 
BRANCH  22  23
ATOM     23  C   UNL     1      45.305  32.589  13.972  1.00  0.00    -0.000 C 
BRANCH  23  24
ATOM     24  C   UNL     1      45.278  31.084  14.294  1.00  0.00    -0.000 C 
BRANCH  24  25
ATOM     25  C   UNL     1      44.295  30.300  13.416  1.00  0.00    -0.003 C 
ATOM     26  C   UNL     1      43.172  29.695  14.254  1.00  0.00     0.004 C 
ENDBRANCH  24  25
ENDBRANCH  23  24
ENDBRANCH  22  23
ENDBRANCH  21  22
ENDBRANCH  20  21
ENDBRANCH  19  20
ENDBRANCH  18  19
ENDBRANCH  17  18
ENDBRANCH  16  17
ENDBRANCH  15  16
ENDBRANCH   1  15
TORSDOF 22
ENDMDL
MODEL 4
REMARK VINA RESULT:    -5.432      2.542      9.122
REMARK INTER + INTRA:         -14.444
REMARK INTER:                 -11.901
REMARK INTRA:                  -2.542
REMARK UNBOUND:                -2.024
REMARK SMILES CCCCCCCCCCCCCCCCCCCCCCCC(=O)[O-]
REMARK SMILES IDX 13 1 14 2 15 3 16 4 17 5 18 6 19 7 20 8 21 9 22 10 23 11
REMARK SMILES IDX 24 12 25 13 26 14 12 15 11 16 10 17 9 18 8 19 7 20 6 21 5 22
REMARK SMILES IDX 4 23 3 24 2 25 1 26
REMARK H PARENT
REMARK Flexibility Score: inf
ROOT
ATOM      1  C   UNL     1      46.262  27.127  19.138  1.00  0.00     0.000 C 
ENDROOT
BRANCH   1   2
ATOM      2  C   UNL     1      45.303  25.993  19.546  1.00  0.00     0.000 C 
BRANCH   2   3
ATOM      3  C   UNL     1      46.001  24.888  20.355  1.00  0.00     0.000 C 
BRANCH   3   4
ATOM      4  C   UNL     1      46.260  23.621  19.525  1.00  0.00     0.000 C 
BRANCH   4   5
ATOM      5  C   UNL     1      46.735  22.430  20.378  1.00  0.00     0.000 C 
BRANCH   5   6
ATOM      6  C   UNL     1      45.758  22.105  21.529  1.00  0.00     0.000 C 
BRANCH   6   7
ATOM      7  C   UNL     1      44.880  20.863  21.275  1.00  0.00     0.000 C 
BRANCH   7   8
ATOM      8  C   UNL     1      43.408  21.161  20.939  1.00  0.00     0.000 C 
BRANCH   8   9
ATOM      9  C   UNL     1      42.940  22.588  21.296  1.00  0.00     0.000 C 
BRANCH   9  10
ATOM     10  C   UNL     1      42.618  23.458  20.062  1.00  0.00     0.006 C 
BRANCH  10  11
ATOM     11  C   UNL     1      41.149  23.901  20.026  1.00  0.00     0.053 C 
BRANCH  11  12
ATOM     12  C   UNL     1      40.502  23.480  18.745  1.00  0.00     0.041 C 
ATOM     13  O   UNL     1      41.142  22.799  17.900  1.00  0.00    -0.550 OA
ATOM     14  O   UNL     1      39.204  23.890  18.455  1.00  0.00    -0.550 OA
ENDBRANCH  11  12
ENDBRANCH  10  11
ENDBRANCH   9  10
ENDBRANCH   8   9
ENDBRANCH   7   8
ENDBRANCH   6   7
ENDBRANCH   5   6
ENDBRANCH   4   5
ENDBRANCH   3   4
ENDBRANCH   2   3
ENDBRANCH   1   2
BRANCH   1  15
ATOM     15  C   UNL     1      45.737  28.553  19.401  1.00  0.00     0.000 C 
BRANCH  15  16
ATOM     16  C   UNL     1      45.015  29.220  18.211  1.00  0.00     0.000 C 
BRANCH  16  17
ATOM     17  C   UNL     1      44.275  30.527  18.549  1.00  0.00     0.000 C 
BRANCH  17  18
ATOM     18  C   UNL     1      44.561  31.653  17.540  1.00  0.00    -0.000 C 
BRANCH  18  19
ATOM     19  C   UNL     1      43.273  32.320  17.029  1.00  0.00    -0.000 C 
BRANCH  19  20
ATOM     20  C   UNL     1      43.545  33.295  15.869  1.00  0.00    -0.000 C 
BRANCH  20  21
ATOM     21  C   UNL     1      45.044  33.454  15.573  1.00  0.00    -0.000 C 
BRANCH  21  22
ATOM     22  C   UNL     1      45.365  33.351  14.073  1.00  0.00    -0.000 C 
BRANCH  22  23
ATOM     23  C   UNL     1      44.893  32.010  13.469  1.00  0.00    -0.000 C 
BRANCH  23  24
ATOM     24  C   UNL     1      45.552  30.779  14.117  1.00  0.00    -0.000 C 
BRANCH  24  25
ATOM     25  C   UNL     1      44.588  29.596  14.274  1.00  0.00    -0.003 C 
ATOM     26  C   UNL     1      43.144  30.028  14.041  1.00  0.00     0.004 C 
ENDBRANCH  24  25
ENDBRANCH  23  24
ENDBRANCH  22  23
ENDBRANCH  21  22
ENDBRANCH  20  21
ENDBRANCH  19  20
ENDBRANCH  18  19
ENDBRANCH  17  18
ENDBRANCH  16  17
ENDBRANCH  15  16
ENDBRANCH   1  15
TORSDOF 22
ENDMDL
MODEL 5
REMARK VINA RESULT:    -5.423      6.628     10.895
REMARK INTER + INTRA:         -14.422
REMARK INTER:                 -10.622
REMARK INTRA:                  -3.800
REMARK UNBOUND:                -2.024
REMARK SMILES CCCCCCCCCCCCCCCCCCCCCCCC(=O)[O-]
REMARK SMILES IDX 13 1 14 2 15 3 16 4 17 5 18 6 19 7 20 8 21 9 22 10 23 11
REMARK SMILES IDX 24 12 25 13 26 14 12 15 11 16 10 17 9 18 8 19 7 20 6 21 5 22
REMARK SMILES IDX 4 23 3 24 2 25 1 26
REMARK H PARENT
REMARK Flexibility Score: inf
ROOT
ATOM      1  C   UNL     1      45.211  33.879  16.775  1.00  0.00     0.000 C 
ENDROOT
BRANCH   1   2
ATOM      2  C   UNL     1      44.587  32.766  17.635  1.00  0.00     0.000 C 
BRANCH   2   3
ATOM      3  C   UNL     1      43.256  32.249  17.063  1.00  0.00     0.000 C 
BRANCH   3   4
ATOM      4  C   UNL     1      42.876  32.932  15.741  1.00  0.00     0.000 C 
BRANCH   4   5
ATOM      5  C   UNL     1      43.340  32.143  14.501  1.00  0.00     0.000 C 
BRANCH   5   6
ATOM      6  C   UNL     1      42.733  30.725  14.447  1.00  0.00     0.000 C 
BRANCH   6   7
ATOM      7  C   UNL     1      43.779  29.600  14.305  1.00  0.00     0.000 C 
BRANCH   7   8
ATOM      8  C   UNL     1      45.238  30.034  14.528  1.00  0.00     0.000 C 
BRANCH   8   9
ATOM      9  C   UNL     1      45.778  29.781  15.952  1.00  0.00     0.000 C 
BRANCH   9  10
ATOM     10  C   UNL     1      47.260  30.175  16.129  1.00  0.00     0.006 C 
BRANCH  10  11
ATOM     11  C   UNL     1      47.622  31.453  15.361  1.00  0.00     0.053 C 
BRANCH  11  12
ATOM     12  C   UNL     1      48.735  31.190  14.395  1.00  0.00     0.041 C 
ATOM     13  O   UNL     1      49.573  30.276  14.619  1.00  0.00    -0.550 OA
ATOM     14  O   UNL     1      48.882  31.996  13.270  1.00  0.00    -0.550 OA
ENDBRANCH  11  12
ENDBRANCH  10  11
ENDBRANCH   9  10
ENDBRANCH   8   9
ENDBRANCH   7   8
ENDBRANCH   6   7
ENDBRANCH   5   6
ENDBRANCH   4   5
ENDBRANCH   3   4
ENDBRANCH   2   3
ENDBRANCH   1   2
BRANCH   1  15
ATOM     15  C   UNL     1      46.153  34.838  17.531  1.00  0.00     0.000 C 
BRANCH  15  16
ATOM     16  C   UNL     1      47.183  35.580  16.653  1.00  0.00     0.000 C 
BRANCH  16  17
ATOM     17  C   UNL     1      47.110  35.254  15.151  1.00  0.00     0.000 C 
BRANCH  17  18
ATOM     18  C   UNL     1      48.481  35.335  14.455  1.00  0.00    -0.000 C 
BRANCH  18  19
ATOM     19  C   UNL     1      48.588  36.548  13.515  1.00  0.00    -0.000 C 
BRANCH  19  20
ATOM     20  C   UNL     1      48.242  36.187  12.059  1.00  0.00    -0.000 C 
BRANCH  20  21
ATOM     21  C   UNL     1      46.911  36.802  11.601  1.00  0.00    -0.000 C 
BRANCH  21  22
ATOM     22  C   UNL     1      45.872  35.739  11.207  1.00  0.00    -0.000 C 
BRANCH  22  23
ATOM     23  C   UNL     1      46.474  34.316  11.199  1.00  0.00    -0.000 C 
BRANCH  23  24
ATOM     24  C   UNL     1      45.787  33.354  12.185  1.00  0.00    -0.000 C 
BRANCH  24  25
ATOM     25  C   UNL     1      45.627  31.935  11.625  1.00  0.00    -0.003 C 
ATOM     26  C   UNL     1      46.711  31.623  10.598  1.00  0.00     0.004 C 
ENDBRANCH  24  25
ENDBRANCH  23  24
ENDBRANCH  22  23
ENDBRANCH  21  22
ENDBRANCH  20  21
ENDBRANCH  19  20
ENDBRANCH  18  19
ENDBRANCH  17  18
ENDBRANCH  16  17
ENDBRANCH  15  16
ENDBRANCH   1  15
TORSDOF 22
ENDMDL
MODEL 6
REMARK VINA RESULT:    -5.419      2.600      8.496
REMARK INTER + INTRA:         -14.414
REMARK INTER:                 -12.205
REMARK INTRA:                  -2.209
REMARK UNBOUND:                -2.024
REMARK SMILES CCCCCCCCCCCCCCCCCCCCCCCC(=O)[O-]
REMARK SMILES IDX 13 1 14 2 15 3 16 4 17 5 18 6 19 7 20 8 21 9 22 10 23 11
REMARK SMILES IDX 24 12 25 13 26 14 12 15 11 16 10 17 9 18 8 19 7 20 6 21 5 22
REMARK SMILES IDX 4 23 3 24 2 25 1 26
REMARK H PARENT
REMARK Flexibility Score: inf
ROOT
ATOM      1  C   UNL     1      45.260  24.689  19.929  1.00  0.00     0.000 C 
ENDROOT
BRANCH   1   2
ATOM      2  C   UNL     1      46.125  23.600  19.267  1.00  0.00     0.000 C 
BRANCH   2   3
ATOM      3  C   UNL     1      47.172  23.010  20.226  1.00  0.00     0.000 C 
BRANCH   3   4
ATOM      4  C   UNL     1      46.537  22.291  21.425  1.00  0.00     0.000 C 
BRANCH   4   5
ATOM      5  C   UNL     1      45.763  21.021  21.023  1.00  0.00     0.000 C 
BRANCH   5   6
ATOM      6  C   UNL     1      44.381  20.933  21.708  1.00  0.00     0.000 C 
BRANCH   6   7
ATOM      7  C   UNL     1      43.270  21.714  20.978  1.00  0.00     0.000 C 
BRANCH   7   8
ATOM      8  C   UNL     1      42.662  22.883  21.773  1.00  0.00     0.000 C 
BRANCH   8   9
ATOM      9  C   UNL     1      41.837  23.878  20.931  1.00  0.00     0.000 C 
BRANCH   9  10
ATOM     10  C   UNL     1      41.525  23.369  19.506  1.00  0.00     0.006 C 
BRANCH  10  11
ATOM     11  C   UNL     1      40.339  24.105  18.869  1.00  0.00     0.053 C 
BRANCH  11  12
ATOM     12  C   UNL     1      39.454  23.144  18.139  1.00  0.00     0.041 C 
ATOM     13  O   UNL     1      38.204  23.186  18.290  1.00  0.00    -0.550 OA
ATOM     14  O   UNL     1      40.016  22.161  17.330  1.00  0.00    -0.550 OA
ENDBRANCH  11  12
ENDBRANCH  10  11
ENDBRANCH   9  10
ENDBRANCH   8   9
ENDBRANCH   7   8
ENDBRANCH   6   7
ENDBRANCH   5   6
ENDBRANCH   4   5
ENDBRANCH   3   4
ENDBRANCH   2   3
ENDBRANCH   1   2
BRANCH   1  15
ATOM     15  C   UNL     1      45.594  26.134  19.508  1.00  0.00     0.000 C 
BRANCH  15  16
ATOM     16  C   UNL     1      44.728  27.229  20.166  1.00  0.00     0.000 C 
BRANCH  16  17
ATOM     17  C   UNL     1      44.267  28.350  19.218  1.00  0.00     0.000 C 
BRANCH  17  18
ATOM     18  C   UNL     1      45.387  28.842  18.284  1.00  0.00    -0.000 C 
BRANCH  18  19
ATOM     19  C   UNL     1      44.878  29.852  17.242  1.00  0.00    -0.000 C 
BRANCH  19  20
ATOM     20  C   UNL     1      44.583  31.229  17.864  1.00  0.00    -0.000 C 
BRANCH  20  21
ATOM     21  C   UNL     1      44.497  32.344  16.811  1.00  0.00    -0.000 C 
BRANCH  21  22
ATOM     22  C   UNL     1      43.055  32.611  16.348  1.00  0.00    -0.000 C 
BRANCH  22  23
ATOM     23  C   UNL     1      42.769  31.996  14.960  1.00  0.00    -0.000 C 
BRANCH  23  24
ATOM     24  C   UNL     1      44.042  31.658  14.164  1.00  0.00    -0.000 C 
BRANCH  24  25
ATOM     25  C   UNL     1      43.983  30.279  13.493  1.00  0.00    -0.003 C 
ATOM     26  C   UNL     1      42.740  29.509  13.931  1.00  0.00     0.004 C 
ENDBRANCH  24  25
ENDBRANCH  23  24
ENDBRANCH  22  23
ENDBRANCH  21  22
ENDBRANCH  20  21
ENDBRANCH  19  20
ENDBRANCH  18  19
ENDBRANCH  17  18
ENDBRANCH  16  17
ENDBRANCH  15  16
ENDBRANCH   1  15
TORSDOF 22
ENDMDL
MODEL 7
REMARK VINA RESULT:    -5.339      6.122     10.536
REMARK INTER + INTRA:         -14.230
REMARK INTER:                  -9.647
REMARK INTRA:                  -4.583
REMARK UNBOUND:                -2.024
REMARK SMILES CCCCCCCCCCCCCCCCCCCCCCCC(=O)[O-]
REMARK SMILES IDX 13 1 14 2 15 3 16 4 17 5 18 6 19 7 20 8 21 9 22 10 23 11
REMARK SMILES IDX 24 12 25 13 26 14 12 15 11 16 10 17 9 18 8 19 7 20 6 21 5 22
REMARK SMILES IDX 4 23 3 24 2 25 1 26
REMARK H PARENT
REMARK Flexibility Score: inf
ROOT
ATOM      1  C   UNL     1      45.104  30.623  13.305  1.00  0.00     0.000 C 
ENDROOT
BRANCH   1   2
ATOM      2  C   UNL     1      43.736  29.998  13.632  1.00  0.00     0.000 C 
BRANCH   2   3
ATOM      3  C   UNL     1      42.760  31.004  14.265  1.00  0.00     0.000 C 
BRANCH   3   4
ATOM      4  C   UNL     1      43.468  32.257  14.802  1.00  0.00     0.000 C 
BRANCH   4   5
ATOM      5  C   UNL     1      42.626  33.023  15.841  1.00  0.00     0.000 C 
BRANCH   5   6
ATOM      6  C   UNL     1      43.244  32.966  17.255  1.00  0.00     0.000 C 
BRANCH   6   7
ATOM      7  C   UNL     1      44.617  32.266  17.312  1.00  0.00     0.000 C 
BRANCH   7   8
ATOM      8  C   UNL     1      44.621  30.891  18.001  1.00  0.00     0.000 C 
BRANCH   8   9
ATOM      9  C   UNL     1      44.981  29.707  17.078  1.00  0.00     0.000 C 
BRANCH   9  10
ATOM     10  C   UNL     1      46.457  29.705  16.625  1.00  0.00     0.006 C 
BRANCH  10  11
ATOM     11  C   UNL     1      47.390  29.084  17.673  1.00  0.00     0.053 C 
BRANCH  11  12
ATOM     12  C   UNL     1      48.278  30.128  18.273  1.00  0.00     0.041 C 
ATOM     13  O   UNL     1      48.210  31.325  17.884  1.00  0.00    -0.550 OA
ATOM     14  O   UNL     1      49.225  29.769  19.228  1.00  0.00    -0.550 OA
ENDBRANCH  11  12
ENDBRANCH  10  11
ENDBRANCH   9  10
ENDBRANCH   8   9
ENDBRANCH   7   8
ENDBRANCH   6   7
ENDBRANCH   5   6
ENDBRANCH   4   5
ENDBRANCH   3   4
ENDBRANCH   2   3
ENDBRANCH   1   2
BRANCH   1  15
ATOM     15  C   UNL     1      45.227  31.225  11.891  1.00  0.00     0.000 C 
BRANCH  15  16
ATOM     16  C   UNL     1      46.670  31.426  11.382  1.00  0.00     0.000 C 
BRANCH  16  17
ATOM     17  C   UNL     1      46.853  32.586  10.387  1.00  0.00     0.000 C 
BRANCH  17  18
ATOM     18  C   UNL     1      47.663  33.755  10.973  1.00  0.00    -0.000 C 
BRANCH  18  19
ATOM     19  C   UNL     1      46.820  35.031  11.127  1.00  0.00    -0.000 C 
BRANCH  19  20
ATOM     20  C   UNL     1      46.734  35.499  12.592  1.00  0.00    -0.000 C 
BRANCH  20  21
ATOM     21  C   UNL     1      45.972  34.505  13.482  1.00  0.00    -0.000 C 
BRANCH  21  22
ATOM     22  C   UNL     1      46.718  34.189  14.789  1.00  0.00    -0.000 C 
BRANCH  22  23
ATOM     23  C   UNL     1      47.414  32.811  14.740  1.00  0.00    -0.000 C 
BRANCH  23  24
ATOM     24  C   UNL     1      48.934  32.898  14.513  1.00  0.00    -0.000 C 
BRANCH  24  25
ATOM     25  C   UNL     1      49.496  31.695  13.743  1.00  0.00    -0.003 C 
ATOM     26  C   UNL     1      49.458  30.431  14.597  1.00  0.00     0.004 C 
ENDBRANCH  24  25
ENDBRANCH  23  24
ENDBRANCH  22  23
ENDBRANCH  21  22
ENDBRANCH  20  21
ENDBRANCH  19  20
ENDBRANCH  18  19
ENDBRANCH  17  18
ENDBRANCH  16  17
ENDBRANCH  15  16
ENDBRANCH   1  15
TORSDOF 22
ENDMDL
MODEL 8
REMARK VINA RESULT:    -5.332      6.023      9.002
REMARK INTER + INTRA:         -14.215
REMARK INTER:                 -10.036
REMARK INTRA:                  -4.178
REMARK UNBOUND:                -2.024
REMARK SMILES CCCCCCCCCCCCCCCCCCCCCCCC(=O)[O-]
REMARK SMILES IDX 13 1 14 2 15 3 16 4 17 5 18 6 19 7 20 8 21 9 22 10 23 11
REMARK SMILES IDX 24 12 25 13 26 14 12 15 11 16 10 17 9 18 8 19 7 20 6 21 5 22
REMARK SMILES IDX 4 23 3 24 2 25 1 26
REMARK H PARENT
REMARK Flexibility Score: inf
ROOT
ATOM      1  C   UNL     1      43.034  33.169  15.700  1.00  0.00     0.000 C 
ENDROOT
BRANCH   1   2
ATOM      2  C   UNL     1      43.429  32.952  17.172  1.00  0.00     0.000 C 
BRANCH   2   3
ATOM      3  C   UNL     1      44.865  33.409  17.475  1.00  0.00     0.000 C 
BRANCH   3   4
ATOM      4  C   UNL     1      45.711  33.582  16.205  1.00  0.00     0.000 C 
BRANCH   4   5
ATOM      5  C   UNL     1      46.570  34.861  16.225  1.00  0.00     0.000 C 
BRANCH   5   6
ATOM      6  C   UNL     1      47.061  35.261  14.816  1.00  0.00     0.000 C 
BRANCH   6   7
ATOM      7  C   UNL     1      46.414  34.452  13.674  1.00  0.00     0.000 C 
BRANCH   7   8
ATOM      8  C   UNL     1      46.134  35.249  12.387  1.00  0.00     0.000 C 
BRANCH   8   9
ATOM      9  C   UNL     1      47.144  35.008  11.245  1.00  0.00     0.000 C 
BRANCH   9  10
ATOM     10  C   UNL     1      46.904  33.690  10.477  1.00  0.00     0.006 C 
BRANCH  10  11
ATOM     11  C   UNL     1      48.105  32.739  10.559  1.00  0.00     0.053 C 
BRANCH  11  12
ATOM     12  C   UNL     1      47.647  31.330  10.768  1.00  0.00     0.041 C 
ATOM     13  O   UNL     1      48.402  30.363  10.479  1.00  0.00    -0.550 OA
ATOM     14  O   UNL     1      46.359  31.080  11.232  1.00  0.00    -0.550 OA
ENDBRANCH  11  12
ENDBRANCH  10  11
ENDBRANCH   9  10
ENDBRANCH   8   9
ENDBRANCH   7   8
ENDBRANCH   6   7
ENDBRANCH   5   6
ENDBRANCH   4   5
ENDBRANCH   3   4
ENDBRANCH   2   3
ENDBRANCH   1   2
BRANCH   1  15
ATOM     15  C   UNL     1      42.769  31.879  14.897  1.00  0.00     0.000 C 
BRANCH  15  16
ATOM     16  C   UNL     1      43.871  31.491  13.890  1.00  0.00     0.000 C 
BRANCH  16  17
ATOM     17  C   UNL     1      44.442  30.072  14.065  1.00  0.00     0.000 C 
BRANCH  17  18
ATOM     18  C   UNL     1      45.542  29.999  15.139  1.00  0.00    -0.000 C 
BRANCH  18  19
ATOM     19  C   UNL     1      44.984  29.636  16.525  1.00  0.00    -0.000 C 
BRANCH  19  20
ATOM     20  C   UNL     1      46.099  29.459  17.572  1.00  0.00    -0.000 C 
BRANCH  20  21
ATOM     21  C   UNL     1      47.273  30.423  17.349  1.00  0.00    -0.000 C 
BRANCH  21  22
ATOM     22  C   UNL     1      48.636  29.710  17.365  1.00  0.00    -0.000 C 
BRANCH  22  23
ATOM     23  C   UNL     1      49.757  30.590  16.769  1.00  0.00    -0.000 C 
BRANCH  23  24
ATOM     24  C   UNL     1      49.345  32.060  16.569  1.00  0.00    -0.000 C 
BRANCH  24  25
ATOM     25  C   UNL     1      49.524  32.542  15.124  1.00  0.00    -0.003 C 
ATOM     26  C   UNL     1      48.758  31.653  14.149  1.00  0.00     0.004 C 
ENDBRANCH  24  25
ENDBRANCH  23  24
ENDBRANCH  22  23
ENDBRANCH  21  22
ENDBRANCH  20  21
ENDBRANCH  19  20
ENDBRANCH  18  19
ENDBRANCH  17  18
ENDBRANCH  16  17
ENDBRANCH  15  16
ENDBRANCH   1  15
TORSDOF 22
ENDMDL
MODEL 9
REMARK VINA RESULT:    -5.320      3.704     10.468
REMARK INTER + INTRA:         -14.186
REMARK INTER:                 -10.760
REMARK INTRA:                  -3.426
REMARK UNBOUND:                -2.024
REMARK SMILES CCCCCCCCCCCCCCCCCCCCCCCC(=O)[O-]
REMARK SMILES IDX 13 1 14 2 15 3 16 4 17 5 18 6 19 7 20 8 21 9 22 10 23 11
REMARK SMILES IDX 24 12 25 13 26 14 12 15 11 16 10 17 9 18 8 19 7 20 6 21 5 22
REMARK SMILES IDX 4 23 3 24 2 25 1 26
REMARK H PARENT
REMARK Flexibility Score: inf
ROOT
ATOM      1  C   UNL     1      46.373  31.172  10.987  1.00  0.00     0.000 C 
ENDROOT
BRANCH   1   2
ATOM      2  C   UNL     1      45.129  31.524  11.822  1.00  0.00     0.000 C 
BRANCH   2   3
ATOM      3  C   UNL     1      45.336  31.283  13.327  1.00  0.00     0.000 C 
BRANCH   3   4
ATOM      4  C   UNL     1      44.612  30.024  13.829  1.00  0.00     0.000 C 
BRANCH   4   5
ATOM      5  C   UNL     1      44.680  29.862  15.359  1.00  0.00     0.000 C 
BRANCH   5   6
ATOM      6  C   UNL     1      46.119  30.000  15.902  1.00  0.00     0.000 C 
BRANCH   6   7
ATOM      7  C   UNL     1      46.269  29.616  17.387  1.00  0.00     0.000 C 
BRANCH   7   8
ATOM      8  C   UNL     1      44.955  29.268  18.108  1.00  0.00     0.000 C 
BRANCH   8   9
ATOM      9  C   UNL     1      45.100  28.254  19.263  1.00  0.00     0.000 C 
BRANCH   9  10
ATOM     10  C   UNL     1      43.860  27.353  19.451  1.00  0.00     0.006 C 
BRANCH  10  11
ATOM     11  C   UNL     1      44.217  25.985  20.047  1.00  0.00     0.053 C 
BRANCH  11  12
ATOM     12  C   UNL     1      42.993  25.136  20.188  1.00  0.00     0.041 C 
ATOM     13  O   UNL     1      41.847  25.642  20.062  1.00  0.00    -0.550 OA
ATOM     14  O   UNL     1      43.117  23.789  20.518  1.00  0.00    -0.550 OA
ENDBRANCH  11  12
ENDBRANCH  10  11
ENDBRANCH   9  10
ENDBRANCH   8   9
ENDBRANCH   7   8
ENDBRANCH   6   7
ENDBRANCH   5   6
ENDBRANCH   4   5
ENDBRANCH   3   4
ENDBRANCH   2   3
ENDBRANCH   1   2
BRANCH   1  15
ATOM     15  C   UNL     1      47.441  32.281  10.904  1.00  0.00     0.000 C 
BRANCH  15  16
ATOM     16  C   UNL     1      46.917  33.672  10.492  1.00  0.00     0.000 C 
BRANCH  16  17
ATOM     17  C   UNL     1      47.485  34.848  11.306  1.00  0.00     0.000 C 
BRANCH  17  18
ATOM     18  C   UNL     1      46.416  35.561  12.153  1.00  0.00    -0.000 C 
BRANCH  18  19
ATOM     19  C   UNL     1      46.082  34.790  13.442  1.00  0.00    -0.000 C 
BRANCH  19  20
ATOM     20  C   UNL     1      47.340  34.475  14.272  1.00  0.00    -0.000 C 
BRANCH  20  21
ATOM     21  C   UNL     1      47.025  33.634  15.519  1.00  0.00    -0.000 C 
BRANCH  21  22
ATOM     22  C   UNL     1      45.996  34.307  16.442  1.00  0.00    -0.000 C 
BRANCH  22  23
ATOM     23  C   UNL     1      45.333  33.297  17.404  1.00  0.00    -0.000 C 
BRANCH  23  24
ATOM     24  C   UNL     1      43.832  33.085  17.134  1.00  0.00    -0.000 C 
BRANCH  24  25
ATOM     25  C   UNL     1      43.440  33.359  15.677  1.00  0.00    -0.003 C 
ATOM     26  C   UNL     1      42.151  32.630  15.308  1.00  0.00     0.004 C 
ENDBRANCH  24  25
ENDBRANCH  23  24
ENDBRANCH  22  23
ENDBRANCH  21  22
ENDBRANCH  20  21
ENDBRANCH  19  20
ENDBRANCH  18  19
ENDBRANCH  17  18
ENDBRANCH  16  17
ENDBRANCH  15  16
ENDBRANCH   1  15
TORSDOF 22
ENDMDL
