MODEL 1
REMARK VINA RESULT:    -8.118      0.000      0.000
REMARK INTER + INTRA:         -10.035
REMARK INTER:                  -9.779
REMARK INTRA:                  -0.256
REMARK UNBOUND:                -0.256
REMARK SMILES O=c1c(O)c(-c2ccc(O)c(O)c2)oc2cc(O)cc(O)c12
REMARK SMILES IDX 5 1 3 2 2 3 1 4 22 5 20 6 19 7 17 8 16 9 15 10 14 11 6 12
REMARK SMILES IDX 7 13 8 14 9 15 13 16 11 17 10 18 12 20 4 22 21 24 18 26
REMARK H PARENT 10 19 12 21 4 23 21 25 18 27
REMARK Flexibility Score: inf
ROOT
ATOM      1  C   UNL     1     151.346 169.207 152.571  1.00  0.00     0.180 A 
ATOM      2  C   UNL     1     150.520 169.934 153.447  1.00  0.00     0.208 A 
ATOM      3  C   UNL     1     149.167 170.113 153.116  1.00  0.00     0.238 A 
ATOM      4  O   UNL     1     148.420 170.716 153.931  1.00  0.00    -0.285 OA
ATOM      5  C   UNL     1     148.660 169.578 151.907  1.00  0.00     0.111 A 
ATOM      6  C   UNL     1     147.316 169.733 151.453  1.00  0.00     0.134 A 
ATOM      7  C   UNL     1     146.893 169.051 150.306  1.00  0.00     0.093 A 
ATOM      8  C   UNL     1     147.781 168.273 149.561  1.00  0.00     0.123 A 
ATOM      9  C   UNL     1     149.111 168.163 149.963  1.00  0.00     0.094 A 
ATOM     10  C   UNL     1     149.554 168.802 151.124  1.00  0.00     0.146 A 
ATOM     11  O   UNL     1     150.826 168.663 151.477  1.00  0.00    -0.452 OA
ENDROOT
BRANCH   1  12
ATOM     12  C   UNL     1     152.786 168.999 152.839  1.00  0.00     0.025 A 
ATOM     13  C   UNL     1     153.182 168.051 153.796  1.00  0.00     0.016 A 
ATOM     14  C   UNL     1     154.536 167.823 154.049  1.00  0.00     0.051 A 
ATOM     15  C   UNL     1     155.517 168.526 153.342  1.00  0.00     0.157 A 
ATOM     16  C   UNL     1     153.774 169.689 152.113  1.00  0.00     0.062 A 
ATOM     17  C   UNL     1     155.135 169.461 152.365  1.00  0.00     0.158 A 
BRANCH  15  18
ATOM     18  O   UNL     1     156.860 168.279 153.618  1.00  0.00    -0.504 OA
ATOM     19  H   UNL     1     157.582 168.382 152.915  1.00  0.00     0.293 HD
ENDBRANCH  15  18
BRANCH  17  20
ATOM     20  O   UNL     1     156.107 170.154 151.645  1.00  0.00    -0.504 OA
ATOM     21  H   UNL     1     156.597 169.728 150.868  1.00  0.00     0.293 HD
ENDBRANCH  17  20
ENDBRANCH   1  12
BRANCH   2  22
ATOM     22  O   UNL     1     151.035 170.434 154.646  1.00  0.00    -0.502 OA
ATOM     23  H   UNL     1     150.722 171.308 155.050  1.00  0.00     0.293 HD
ENDBRANCH   2  22
BRANCH   6  24
ATOM     24  O   UNL     1     146.374 170.560 152.071  1.00  0.00    -0.507 OA
ATOM     25  H   UNL     1     145.376 170.494 151.938  1.00  0.00     0.293 HD
ENDBRANCH   6  24
BRANCH   8  26
ATOM     26  O   UNL     1     147.355 167.610 148.411  1.00  0.00    -0.508 OA
ATOM     27  H   UNL     1     147.890 167.645 147.551  1.00  0.00     0.293 HD
ENDBRANCH   8  26
TORSDOF 6
ENDMDL
MODEL 2
REMARK VINA RESULT:    -8.089     10.559     12.461
REMARK INTER + INTRA:         -10.001
REMARK INTER:                  -9.693
REMARK INTRA:                  -0.307
REMARK UNBOUND:                -0.256
REMARK SMILES O=c1c(O)c(-c2ccc(O)c(O)c2)oc2cc(O)cc(O)c12
REMARK SMILES IDX 5 1 3 2 2 3 1 4 22 5 20 6 19 7 17 8 16 9 15 10 14 11 6 12
REMARK SMILES IDX 7 13 8 14 9 15 13 16 11 17 10 18 12 20 4 22 21 24 18 26
REMARK H PARENT 10 19 12 21 4 23 21 25 18 27
REMARK Flexibility Score: inf
ROOT
ATOM      1  C   UNL     1     149.104 158.519 149.658  1.00  0.00     0.180 A 
ATOM      2  C   UNL     1     148.969 158.551 148.259  1.00  0.00     0.208 A 
ATOM      3  C   UNL     1     148.562 157.387 147.588  1.00  0.00     0.238 A 
ATOM      4  O   UNL     1     148.389 157.437 146.341  1.00  0.00    -0.285 OA
ATOM      5  C   UNL     1     148.311 156.202 148.320  1.00  0.00     0.111 A 
ATOM      6  C   UNL     1     147.933 154.954 147.739  1.00  0.00     0.134 A 
ATOM      7  C   UNL     1     147.585 153.883 148.570  1.00  0.00     0.093 A 
ATOM      8  C   UNL     1     147.663 153.994 149.960  1.00  0.00     0.123 A 
ATOM      9  C   UNL     1     148.089 155.189 150.536  1.00  0.00     0.094 A 
ATOM     10  C   UNL     1     148.408 156.288 149.733  1.00  0.00     0.146 A 
ATOM     11  O   UNL     1     148.799 157.411 150.323  1.00  0.00    -0.452 OA
ENDROOT
BRANCH   1  12
ATOM     12  C   UNL     1     149.553 159.697 150.433  1.00  0.00     0.025 A 
ATOM     13  C   UNL     1     150.913 159.839 150.750  1.00  0.00     0.016 A 
ATOM     14  C   UNL     1     151.362 160.953 151.463  1.00  0.00     0.051 A 
ATOM     15  C   UNL     1     150.464 161.950 151.858  1.00  0.00     0.157 A 
ATOM     16  C   UNL     1     148.655 160.711 150.812  1.00  0.00     0.062 A 
ATOM     17  C   UNL     1     149.103 161.831 151.528  1.00  0.00     0.158 A 
BRANCH  15  18
ATOM     18  O   UNL     1     150.940 163.048 152.570  1.00  0.00    -0.504 OA
ATOM     19  H   UNL     1     150.802 163.143 153.569  1.00  0.00     0.293 HD
ENDBRANCH  15  18
BRANCH  17  20
ATOM     20  O   UNL     1     148.204 162.828 151.904  1.00  0.00    -0.504 OA
ATOM     21  H   UNL     1     147.250 162.839 151.564  1.00  0.00     0.293 HD
ENDBRANCH  17  20
ENDBRANCH   1  12
BRANCH   2  22
ATOM     22  O   UNL     1     149.200 159.738 147.558  1.00  0.00    -0.502 OA
ATOM     23  H   UNL     1     149.072 160.651 147.977  1.00  0.00     0.293 HD
ENDBRANCH   2  22
BRANCH   6  24
ATOM     24  O   UNL     1     147.912 154.709 146.362  1.00  0.00    -0.507 OA
ATOM     25  H   UNL     1     148.726 154.514 145.801  1.00  0.00     0.293 HD
ENDBRANCH   6  24
BRANCH   8  26
ATOM     26  O   UNL     1     147.330 152.918 150.779  1.00  0.00    -0.508 OA
ATOM     27  H   UNL     1     146.364 152.672 150.965  1.00  0.00     0.293 HD
ENDBRANCH   8  26
TORSDOF 6
ENDMDL
MODEL 3
REMARK VINA RESULT:    -7.721      1.166      2.857
REMARK INTER + INTRA:          -9.557
REMARK INTER:                  -9.453
REMARK INTRA:                  -0.104
REMARK UNBOUND:                -0.256
REMARK SMILES O=c1c(O)c(-c2ccc(O)c(O)c2)oc2cc(O)cc(O)c12
REMARK SMILES IDX 5 1 3 2 2 3 1 4 22 5 20 6 19 7 17 8 16 9 15 10 14 11 6 12
REMARK SMILES IDX 7 13 8 14 9 15 13 16 11 17 10 18 12 20 4 22 21 24 18 26
REMARK H PARENT 10 19 12 21 4 23 21 25 18 27
REMARK Flexibility Score: inf
ROOT
ATOM      1  C   UNL     1     151.417 168.994 151.681  1.00  0.00     0.180 A 
ATOM      2  C   UNL     1     151.096 168.565 150.381  1.00  0.00     0.208 A 
ATOM      3  C   UNL     1     149.770 168.683 149.933  1.00  0.00     0.238 A 
ATOM      4  O   UNL     1     149.500 168.350 148.749  1.00  0.00    -0.285 OA
ATOM      5  C   UNL     1     148.780 169.212 150.795  1.00  0.00     0.111 A 
ATOM      6  C   UNL     1     147.398 169.340 150.460  1.00  0.00     0.134 A 
ATOM      7  C   UNL     1     146.532 169.997 151.342  1.00  0.00     0.093 A 
ATOM      8  C   UNL     1     146.983 170.473 152.575  1.00  0.00     0.123 A 
ATOM      9  C   UNL     1     148.317 170.299 152.937  1.00  0.00     0.094 A 
ATOM     10  C   UNL     1     149.214 169.681 152.062  1.00  0.00     0.146 A 
ATOM     11  O   UNL     1     150.479 169.545 152.442  1.00  0.00    -0.452 OA
ENDROOT
BRANCH   1  12
ATOM     12  C   UNL     1     152.785 168.878 152.233  1.00  0.00     0.025 A 
ATOM     13  C   UNL     1     153.012 168.066 153.355  1.00  0.00     0.016 A 
ATOM     14  C   UNL     1     154.298 167.926 153.880  1.00  0.00     0.051 A 
ATOM     15  C   UNL     1     155.381 168.583 153.286  1.00  0.00     0.157 A 
ATOM     16  C   UNL     1     153.878 169.521 151.624  1.00  0.00     0.062 A 
ATOM     17  C   UNL     1     155.172 169.381 152.149  1.00  0.00     0.158 A 
BRANCH  15  18
ATOM     18  O   UNL     1     156.652 168.426 153.834  1.00  0.00    -0.504 OA
ATOM     19  H   UNL     1     157.494 168.600 153.298  1.00  0.00     0.293 HD
ENDBRANCH  15  18
BRANCH  17  20
ATOM     20  O   UNL     1     156.248 170.027 151.542  1.00  0.00    -0.504 OA
ATOM     21  H   UNL     1     156.862 169.543 150.898  1.00  0.00     0.293 HD
ENDBRANCH  17  20
ENDBRANCH   1  12
BRANCH   2  22
ATOM     22  O   UNL     1     152.094 168.068 149.539  1.00  0.00    -0.502 OA
ATOM     23  H   UNL     1     152.929 168.595 149.314  1.00  0.00     0.293 HD
ENDBRANCH   2  22
BRANCH   6  24
ATOM     24  O   UNL     1     146.826 168.818 149.296  1.00  0.00    -0.507 OA
ATOM     25  H   UNL     1     146.008 169.193 148.839  1.00  0.00     0.293 HD
ENDBRANCH   6  24
BRANCH   8  26
ATOM     26  O   UNL     1     146.111 171.111 153.454  1.00  0.00    -0.508 OA
ATOM     27  H   UNL     1     145.105 171.028 153.356  1.00  0.00     0.293 HD
ENDBRANCH   8  26
TORSDOF 6
ENDMDL
MODEL 4
REMARK VINA RESULT:    -7.631      7.775      9.963
REMARK INTER + INTRA:          -9.448
REMARK INTER:                  -9.129
REMARK INTRA:                  -0.319
REMARK UNBOUND:                -0.256
REMARK SMILES O=c1c(O)c(-c2ccc(O)c(O)c2)oc2cc(O)cc(O)c12
REMARK SMILES IDX 5 1 3 2 2 3 1 4 22 5 20 6 19 7 17 8 16 9 15 10 14 11 6 12
REMARK SMILES IDX 7 13 8 14 9 15 13 16 11 17 10 18 12 20 4 22 21 24 18 26
REMARK H PARENT 10 19 12 21 4 23 21 25 18 27
REMARK Flexibility Score: inf
ROOT
ATOM      1  C   UNL     1     149.226 160.676 150.301  1.00  0.00     0.180 A 
ATOM      2  C   UNL     1     150.367 160.884 151.094  1.00  0.00     0.208 A 
ATOM      3  C   UNL     1     150.460 162.059 151.858  1.00  0.00     0.238 A 
ATOM      4  O   UNL     1     151.459 162.213 152.609  1.00  0.00    -0.285 OA
ATOM      5  C   UNL     1     149.420 163.017 151.807  1.00  0.00     0.111 A 
ATOM      6  C   UNL     1     149.428 164.260 152.508  1.00  0.00     0.134 A 
ATOM      7  C   UNL     1     148.288 165.072 152.486  1.00  0.00     0.093 A 
ATOM      8  C   UNL     1     147.165 164.717 151.736  1.00  0.00     0.123 A 
ATOM      9  C   UNL     1     147.170 163.535 151.000  1.00  0.00     0.094 A 
ATOM     10  C   UNL     1     148.279 162.685 151.032  1.00  0.00     0.146 A 
ATOM     11  O   UNL     1     148.238 161.563 150.324  1.00  0.00    -0.452 OA
ENDROOT
BRANCH   1  12
ATOM     12  C   UNL     1     149.066 159.476 149.449  1.00  0.00     0.025 A 
ATOM     13  C   UNL     1     148.502 158.312 149.993  1.00  0.00     0.016 A 
ATOM     14  C   UNL     1     148.324 157.174 149.203  1.00  0.00     0.051 A 
ATOM     15  C   UNL     1     148.692 157.186 147.853  1.00  0.00     0.157 A 
ATOM     16  C   UNL     1     149.416 159.492 148.087  1.00  0.00     0.062 A 
ATOM     17  C   UNL     1     149.237 158.352 147.290  1.00  0.00     0.158 A 
BRANCH  15  18
ATOM     18  O   UNL     1     148.504 156.035 147.090  1.00  0.00    -0.504 OA
ATOM     19  H   UNL     1     148.134 155.180 147.488  1.00  0.00     0.293 HD
ENDBRANCH  15  18
BRANCH  17  20
ATOM     20  O   UNL     1     149.592 158.375 145.942  1.00  0.00    -0.504 OA
ATOM     21  H   UNL     1     149.158 159.019 145.290  1.00  0.00     0.293 HD
ENDBRANCH  17  20
ENDBRANCH   1  12
BRANCH   2  22
ATOM     22  O   UNL     1     151.372 159.914 151.147  1.00  0.00    -0.502 OA
ATOM     23  H   UNL     1     152.328 160.105 150.871  1.00  0.00     0.293 HD
ENDBRANCH   2  22
BRANCH   6  24
ATOM     24  O   UNL     1     150.532 164.753 153.212  1.00  0.00    -0.507 OA
ATOM     25  H   UNL     1     151.100 165.532 152.917  1.00  0.00     0.293 HD
ENDBRANCH   6  24
BRANCH   8  26
ATOM     26  O   UNL     1     146.040 165.540 151.707  1.00  0.00    -0.508 OA
ATOM     27  H   UNL     1     145.229 165.349 152.284  1.00  0.00     0.293 HD
ENDBRANCH   8  26
TORSDOF 6
ENDMDL
MODEL 5
REMARK VINA RESULT:    -7.595      5.509      6.759
REMARK INTER + INTRA:          -9.406
REMARK INTER:                  -9.192
REMARK INTRA:                  -0.213
REMARK UNBOUND:                -0.256
REMARK SMILES O=c1c(O)c(-c2ccc(O)c(O)c2)oc2cc(O)cc(O)c12
REMARK SMILES IDX 5 1 3 2 2 3 1 4 22 5 20 6 19 7 17 8 16 9 15 10 14 11 6 12
REMARK SMILES IDX 7 13 8 14 9 15 13 16 11 17 10 18 12 20 4 22 21 24 18 26
REMARK H PARENT 10 19 12 21 4 23 21 25 18 27
REMARK Flexibility Score: inf
ROOT
ATOM      1  C   UNL     1     148.833 163.893 151.817  1.00  0.00     0.180 A 
ATOM      2  C   UNL     1     147.898 164.132 152.838  1.00  0.00     0.208 A 
ATOM      3  C   UNL     1     147.499 165.454 153.100  1.00  0.00     0.238 A 
ATOM      4  O   UNL     1     146.620 165.657 153.978  1.00  0.00    -0.285 OA
ATOM      5  C   UNL     1     148.053 166.519 152.350  1.00  0.00     0.111 A 
ATOM      6  C   UNL     1     147.752 167.898 152.557  1.00  0.00     0.134 A 
ATOM      7  C   UNL     1     148.259 168.856 151.671  1.00  0.00     0.093 A 
ATOM      8  C   UNL     1     149.108 168.491 150.624  1.00  0.00     0.123 A 
ATOM      9  C   UNL     1     149.456 167.153 150.450  1.00  0.00     0.094 A 
ATOM     10  C   UNL     1     148.936 166.170 151.296  1.00  0.00     0.146 A 
ATOM     11  O   UNL     1     149.285 164.906 151.088  1.00  0.00    -0.452 OA
ENDROOT
BRANCH   1  12
ATOM     12  C   UNL     1     149.321 162.532 151.499  1.00  0.00     0.025 A 
ATOM     13  C   UNL     1     148.463 161.622 150.863  1.00  0.00     0.016 A 
ATOM     14  C   UNL     1     148.908 160.339 150.535  1.00  0.00     0.051 A 
ATOM     15  C   UNL     1     150.220 159.950 150.824  1.00  0.00     0.157 A 
ATOM     16  C   UNL     1     150.645 162.146 151.770  1.00  0.00     0.062 A 
ATOM     17  C   UNL     1     151.096 160.859 151.441  1.00  0.00     0.158 A 
BRANCH  15  18
ATOM     18  O   UNL     1     150.635 158.663 150.488  1.00  0.00    -0.504 OA
ATOM     19  H   UNL     1     149.977 157.908 150.333  1.00  0.00     0.293 HD
ENDBRANCH  15  18
BRANCH  17  20
ATOM     20  O   UNL     1     152.409 160.483 151.719  1.00  0.00    -0.504 OA
ATOM     21  H   UNL     1     152.837 159.680 151.273  1.00  0.00     0.293 HD
ENDBRANCH  17  20
ENDBRANCH   1  12
BRANCH   2  22
ATOM     22  O   UNL     1     147.346 163.065 153.552  1.00  0.00    -0.502 OA
ATOM     23  H   UNL     1     147.199 163.098 154.554  1.00  0.00     0.293 HD
ENDBRANCH   2  22
BRANCH   6  24
ATOM     24  O   UNL     1     146.989 168.379 153.626  1.00  0.00    -0.507 OA
ATOM     25  H   UNL     1     146.929 167.940 154.532  1.00  0.00     0.293 HD
ENDBRANCH   6  24
BRANCH   8  26
ATOM     26  O   UNL     1     149.621 169.453 149.756  1.00  0.00    -0.508 OA
ATOM     27  H   UNL     1     149.719 170.422 150.036  1.00  0.00     0.293 HD
ENDBRANCH   8  26
TORSDOF 6
ENDMDL
MODEL 6
REMARK VINA RESULT:    -7.404      1.458      1.482
REMARK INTER + INTRA:          -9.175
REMARK INTER:                  -8.843
REMARK INTRA:                  -0.333
REMARK UNBOUND:                -0.256
REMARK SMILES O=c1c(O)c(-c2ccc(O)c(O)c2)oc2cc(O)cc(O)c12
REMARK SMILES IDX 5 1 3 2 2 3 1 4 22 5 20 6 19 7 17 8 16 9 15 10 14 11 6 12
REMARK SMILES IDX 7 13 8 14 9 15 13 16 11 17 10 18 12 20 4 22 21 24 18 26
REMARK H PARENT 10 19 12 21 4 23 21 25 18 27
REMARK Flexibility Score: inf
ROOT
ATOM      1  C   UNL     1     151.110 168.836 152.152  1.00  0.00     0.180 A 
ATOM      2  C   UNL     1     150.412 170.055 152.207  1.00  0.00     0.208 A 
ATOM      3  C   UNL     1     149.046 170.072 151.878  1.00  0.00     0.238 A 
ATOM      4  O   UNL     1     148.413 171.155 151.982  1.00  0.00    -0.285 OA
ATOM      5  C   UNL     1     148.401 168.875 151.484  1.00  0.00     0.111 A 
ATOM      6  C   UNL     1     147.032 168.784 151.090  1.00  0.00     0.134 A 
ATOM      7  C   UNL     1     146.466 167.527 150.845  1.00  0.00     0.093 A 
ATOM      8  C   UNL     1     147.237 166.364 150.915  1.00  0.00     0.123 A 
ATOM      9  C   UNL     1     148.589 166.448 151.240  1.00  0.00     0.094 A 
ATOM     10  C   UNL     1     149.173 167.685 151.526  1.00  0.00     0.146 A 
ATOM     11  O   UNL     1     150.462 167.720 151.841  1.00  0.00    -0.452 OA
ENDROOT
BRANCH   1  12
ATOM     12  C   UNL     1     152.555 168.742 152.459  1.00  0.00     0.025 A 
ATOM     13  C   UNL     1     152.965 168.369 153.748  1.00  0.00     0.016 A 
ATOM     14  C   UNL     1     154.323 168.254 154.055  1.00  0.00     0.051 A 
ATOM     15  C   UNL     1     155.292 168.496 153.076  1.00  0.00     0.157 A 
ATOM     16  C   UNL     1     153.530 168.964 151.470  1.00  0.00     0.062 A 
ATOM     17  C   UNL     1     154.895 168.849 151.775  1.00  0.00     0.158 A 
BRANCH  15  18
ATOM     18  O   UNL     1     156.639 168.376 153.412  1.00  0.00    -0.504 OA
ATOM     19  H   UNL     1     157.022 167.525 153.805  1.00  0.00     0.293 HD
ENDBRANCH  15  18
BRANCH  17  20
ATOM     20  O   UNL     1     155.854 169.076 150.790  1.00  0.00    -0.504 OA
ATOM     21  H   UNL     1     156.499 169.856 150.848  1.00  0.00     0.293 HD
ENDBRANCH  17  20
ENDBRANCH   1  12
BRANCH   2  22
ATOM     22  O   UNL     1     151.062 171.220 152.620  1.00  0.00    -0.502 OA
ATOM     23  H   UNL     1     150.639 171.881 153.261  1.00  0.00     0.293 HD
ENDBRANCH   2  22
BRANCH   6  24
ATOM     24  O   UNL     1     146.199 169.891 150.900  1.00  0.00    -0.507 OA
ATOM     25  H   UNL     1     145.500 169.967 150.177  1.00  0.00     0.293 HD
ENDBRANCH   6  24
BRANCH   8  26
ATOM     26  O   UNL     1     146.670 165.118 150.654  1.00  0.00    -0.508 OA
ATOM     27  H   UNL     1     146.379 164.500 151.403  1.00  0.00     0.293 HD
ENDBRANCH   8  26
TORSDOF 6
ENDMDL
MODEL 7
REMARK VINA RESULT:    -7.310      4.145      6.496
REMARK INTER + INTRA:          -9.061
REMARK INTER:                  -8.728
REMARK INTRA:                  -0.333
REMARK UNBOUND:                -0.256
REMARK SMILES O=c1c(O)c(-c2ccc(O)c(O)c2)oc2cc(O)cc(O)c12
REMARK SMILES IDX 5 1 3 2 2 3 1 4 22 5 20 6 19 7 17 8 16 9 15 10 14 11 6 12
REMARK SMILES IDX 7 13 8 14 9 15 13 16 11 17 10 18 12 20 4 22 21 24 18 26
REMARK H PARENT 10 19 12 21 4 23 21 25 18 27
REMARK Flexibility Score: inf
ROOT
ATOM      1  C   UNL     1     148.437 166.297 151.166  1.00  0.00     0.180 A 
ATOM      2  C   UNL     1     149.332 167.094 150.431  1.00  0.00     0.208 A 
ATOM      3  C   UNL     1     149.248 168.492 150.543  1.00  0.00     0.238 A 
ATOM      4  O   UNL     1     150.088 169.199 149.927  1.00  0.00    -0.285 OA
ATOM      5  C   UNL     1     148.262 169.075 151.375  1.00  0.00     0.111 A 
ATOM      6  C   UNL     1     148.062 170.479 151.532  1.00  0.00     0.134 A 
ATOM      7  C   UNL     1     147.142 170.943 152.481  1.00  0.00     0.093 A 
ATOM      8  C   UNL     1     146.370 170.053 153.231  1.00  0.00     0.123 A 
ATOM      9  C   UNL     1     146.515 168.680 153.041  1.00  0.00     0.094 A 
ATOM     10  C   UNL     1     147.451 168.187 152.129  1.00  0.00     0.146 A 
ATOM     11  O   UNL     1     147.566 166.872 151.986  1.00  0.00    -0.452 OA
ENDROOT
BRANCH   1  12
ATOM     12  C   UNL     1     148.446 164.819 151.080  1.00  0.00     0.025 A 
ATOM     13  C   UNL     1     149.155 164.076 152.037  1.00  0.00     0.016 A 
ATOM     14  C   UNL     1     149.160 162.680 151.987  1.00  0.00     0.051 A 
ATOM     15  C   UNL     1     148.446 162.005 150.992  1.00  0.00     0.157 A 
ATOM     16  C   UNL     1     147.712 164.138 150.093  1.00  0.00     0.062 A 
ATOM     17  C   UNL     1     147.714 162.736 150.042  1.00  0.00     0.158 A 
BRANCH  15  18
ATOM     18  O   UNL     1     148.472 160.611 150.967  1.00  0.00    -0.504 OA
ATOM     19  H   UNL     1     147.633 160.060 150.839  1.00  0.00     0.293 HD
ENDBRANCH  15  18
BRANCH  17  20
ATOM     20  O   UNL     1     146.988 162.069 149.056  1.00  0.00    -0.504 OA
ATOM     21  H   UNL     1     146.777 162.505 148.166  1.00  0.00     0.293 HD
ENDBRANCH  17  20
ENDBRANCH   1  12
BRANCH   2  22
ATOM     22  O   UNL     1     150.312 166.498 149.634  1.00  0.00    -0.502 OA
ATOM     23  H   UNL     1     150.589 165.530 149.744  1.00  0.00     0.293 HD
ENDBRANCH   2  22
BRANCH   6  24
ATOM     24  O   UNL     1     148.714 171.451 150.768  1.00  0.00    -0.507 OA
ATOM     25  H   UNL     1     149.705 171.468 150.584  1.00  0.00     0.293 HD
ENDBRANCH   6  24
BRANCH   8  26
ATOM     26  O   UNL     1     145.445 170.523 154.161  1.00  0.00    -0.508 OA
ATOM     27  H   UNL     1     145.363 170.109 155.083  1.00  0.00     0.293 HD
ENDBRANCH   8  26
TORSDOF 6
ENDMDL
MODEL 8
REMARK VINA RESULT:    -7.296      3.753      6.502
REMARK INTER + INTRA:          -9.045
REMARK INTER:                  -8.716
REMARK INTRA:                  -0.329
REMARK UNBOUND:                -0.256
REMARK SMILES O=c1c(O)c(-c2ccc(O)c(O)c2)oc2cc(O)cc(O)c12
REMARK SMILES IDX 5 1 3 2 2 3 1 4 22 5 20 6 19 7 17 8 16 9 15 10 14 11 6 12
REMARK SMILES IDX 7 13 8 14 9 15 13 16 11 17 10 18 12 20 4 22 21 24 18 26
REMARK H PARENT 10 19 12 21 4 23 21 25 18 27
REMARK Flexibility Score: inf
ROOT
ATOM      1  C   UNL     1     148.407 166.523 151.640  1.00  0.00     0.180 A 
ATOM      2  C   UNL     1     147.339 167.346 151.242  1.00  0.00     0.208 A 
ATOM      3  C   UNL     1     147.492 168.741 151.310  1.00  0.00     0.238 A 
ATOM      4  O   UNL     1     146.552 169.472 150.900  1.00  0.00    -0.285 OA
ATOM      5  C   UNL     1     148.703 169.295 151.789  1.00  0.00     0.111 A 
ATOM      6  C   UNL     1     148.951 170.692 151.937  1.00  0.00     0.134 A 
ATOM      7  C   UNL     1     150.231 171.131 152.298  1.00  0.00     0.093 A 
ATOM      8  C   UNL     1     151.253 170.220 152.578  1.00  0.00     0.123 A 
ATOM      9  C   UNL     1     151.003 168.853 152.495  1.00  0.00     0.094 A 
ATOM     10  C   UNL     1     149.746 168.385 152.101  1.00  0.00     0.146 A 
ATOM     11  O   UNL     1     149.553 167.074 152.024  1.00  0.00    -0.452 OA
ENDROOT
BRANCH   1  12
ATOM     12  C   UNL     1     148.314 165.047 151.622  1.00  0.00     0.025 A 
ATOM     13  C   UNL     1     148.840 164.334 150.534  1.00  0.00     0.016 A 
ATOM     14  C   UNL     1     148.781 162.939 150.505  1.00  0.00     0.051 A 
ATOM     15  C   UNL     1     148.209 162.233 151.568  1.00  0.00     0.157 A 
ATOM     16  C   UNL     1     147.758 164.334 152.700  1.00  0.00     0.062 A 
ATOM     17  C   UNL     1     147.698 162.933 152.674  1.00  0.00     0.158 A 
BRANCH  15  18
ATOM     18  O   UNL     1     148.162 160.841 151.510  1.00  0.00    -0.504 OA
ATOM     19  H   UNL     1     148.414 160.261 152.301  1.00  0.00     0.293 HD
ENDBRANCH  15  18
BRANCH  17  20
ATOM     20  O   UNL     1     147.140 162.235 153.744  1.00  0.00    -0.504 OA
ATOM     21  H   UNL     1     147.427 161.290 153.969  1.00  0.00     0.293 HD
ENDBRANCH  17  20
ENDBRANCH   1  12
BRANCH   2  22
ATOM     22  O   UNL     1     146.161 166.778 150.751  1.00  0.00    -0.502 OA
ATOM     23  H   UNL     1     145.364 166.579 151.344  1.00  0.00     0.293 HD
ENDBRANCH   2  22
BRANCH   6  24
ATOM     24  O   UNL     1     147.977 171.681 151.772  1.00  0.00    -0.507 OA
ATOM     25  H   UNL     1     147.346 171.740 150.987  1.00  0.00     0.293 HD
ENDBRANCH   6  24
BRANCH   8  26
ATOM     26  O   UNL     1     152.519 170.665 152.952  1.00  0.00    -0.508 OA
ATOM     27  H   UNL     1     152.807 170.691 153.924  1.00  0.00     0.293 HD
ENDBRANCH   8  26
TORSDOF 6
ENDMDL
MODEL 9
REMARK VINA RESULT:    -7.293      2.886      6.224
REMARK INTER + INTRA:          -9.041
REMARK INTER:                  -8.803
REMARK INTRA:                  -0.238
REMARK UNBOUND:                -0.256
REMARK SMILES O=c1c(O)c(-c2ccc(O)c(O)c2)oc2cc(O)cc(O)c12
REMARK SMILES IDX 5 1 3 2 2 3 1 4 22 5 20 6 19 7 17 8 16 9 15 10 14 11 6 12
REMARK SMILES IDX 7 13 8 14 9 15 13 16 11 17 10 18 12 20 4 22 21 24 18 26
REMARK H PARENT 10 19 12 21 4 23 21 25 18 27
REMARK Flexibility Score: inf
ROOT
ATOM      1  C   UNL     1     149.177 167.296 152.041  1.00  0.00     0.180 A 
ATOM      2  C   UNL     1     148.222 168.277 152.363  1.00  0.00     0.208 A 
ATOM      3  C   UNL     1     148.662 169.553 152.751  1.00  0.00     0.238 A 
ATOM      4  O   UNL     1     147.803 170.444 152.983  1.00  0.00    -0.285 OA
ATOM      5  C   UNL     1     150.049 169.828 152.828  1.00  0.00     0.111 A 
ATOM      6  C   UNL     1     150.606 171.073 153.247  1.00  0.00     0.134 A 
ATOM      7  C   UNL     1     151.989 171.274 153.161  1.00  0.00     0.093 A 
ATOM      8  C   UNL     1     152.840 170.253 152.731  1.00  0.00     0.123 A 
ATOM      9  C   UNL     1     152.311 169.014 152.377  1.00  0.00     0.094 A 
ATOM     10  C   UNL     1     150.932 168.795 152.417  1.00  0.00     0.146 A 
ATOM     11  O   UNL     1     150.468 167.604 152.061  1.00  0.00    -0.452 OA
ENDROOT
BRANCH   1  12
ATOM     12  C   UNL     1     148.792 165.921 151.649  1.00  0.00     0.025 A 
ATOM     13  C   UNL     1     148.948 164.872 152.568  1.00  0.00     0.016 A 
ATOM     14  C   UNL     1     148.572 163.570 152.226  1.00  0.00     0.051 A 
ATOM     15  C   UNL     1     148.022 163.299 150.969  1.00  0.00     0.157 A 
ATOM     16  C   UNL     1     148.219 165.651 150.394  1.00  0.00     0.062 A 
ATOM     17  C   UNL     1     147.840 164.345 150.049  1.00  0.00     0.158 A 
BRANCH  15  18
ATOM     18  O   UNL     1     147.659 161.990 150.656  1.00  0.00    -0.504 OA
ATOM     19  H   UNL     1     147.185 161.755 149.793  1.00  0.00     0.293 HD
ENDBRANCH  15  18
BRANCH  17  20
ATOM     20  O   UNL     1     147.279 164.085 148.800  1.00  0.00    -0.504 OA
ATOM     21  H   UNL     1     146.767 163.230 148.615  1.00  0.00     0.293 HD
ENDBRANCH  17  20
ENDBRANCH   1  12
BRANCH   2  22
ATOM     22  O   UNL     1     146.859 167.991 152.258  1.00  0.00    -0.502 OA
ATOM     23  H   UNL     1     146.422 167.226 152.759  1.00  0.00     0.293 HD
ENDBRANCH   2  22
BRANCH   6  24
ATOM     24  O   UNL     1     149.855 172.125 153.779  1.00  0.00    -0.507 OA
ATOM     25  H   UNL     1     149.744 173.029 153.346  1.00  0.00     0.293 HD
ENDBRANCH   6  24
BRANCH   8  26
ATOM     26  O   UNL     1     154.217 170.457 152.663  1.00  0.00    -0.508 OA
ATOM     27  H   UNL     1     154.845 169.729 152.343  1.00  0.00     0.293 HD
ENDBRANCH   8  26
TORSDOF 6
ENDMDL
