MODEL 1
REMARK VINA RESULT:     0.068      0.000      0.000
REMARK INTER + INTRA:           0.603
REMARK INTER:                   0.119
REMARK INTRA:                   0.483
REMARK UNBOUND:                 0.483
REMARK SMILES CCCCCCCCCCCCCCC(=O)[O-]
REMARK SMILES IDX 9 1 10 2 11 3 12 4 13 5 14 6 15 7 16 8 17 9 8 10 7 11 6 12
REMARK SMILES IDX 5 13 4 14 3 15 2 16 1 17
REMARK H PARENT
REMARK Flexibility Score: inf
ROOT
ATOM      1  C   UNL     1     -17.922  34.891 -18.872  1.00  0.00     0.000 C 
ENDROOT
BRANCH   1   2
ATOM      2  C   UNL     1     -17.724  35.754 -20.128  1.00  0.00     0.000 C 
BRANCH   2   3
ATOM      3  C   UNL     1     -18.920  35.682 -21.092  1.00  0.00     0.000 C 
BRANCH   3   4
ATOM      4  C   UNL     1     -20.192  35.143 -20.418  1.00  0.00     0.000 C 
BRANCH   4   5
ATOM      5  C   UNL     1     -20.684  36.041 -19.268  1.00  0.00     0.006 C 
BRANCH   5   6
ATOM      6  C   UNL     1     -21.120  35.277 -18.007  1.00  0.00     0.053 C 
BRANCH   6   7
ATOM      7  C   UNL     1     -20.441  35.790 -16.774  1.00  0.00     0.041 C 
ATOM      8  O   UNL     1     -21.120  36.109 -15.763  1.00  0.00    -0.550 OA
ATOM      9  O   UNL     1     -19.061  35.949 -16.756  1.00  0.00    -0.550 OA
ENDBRANCH   6   7
ENDBRANCH   5   6
ENDBRANCH   4   5
ENDBRANCH   3   4
ENDBRANCH   2   3
ENDBRANCH   1   2
BRANCH   1  10
ATOM     10  C   UNL     1     -16.988  33.674 -18.892  1.00  0.00     0.000 C 
BRANCH  10  11
ATOM     11  C   UNL     1     -16.190  33.614 -20.204  1.00  0.00    -0.000 C 
BRANCH  11  12
ATOM     12  C   UNL     1     -14.697  33.925 -20.005  1.00  0.00    -0.000 C 
BRANCH  12  13
ATOM     13  C   UNL     1     -14.357  34.285 -18.548  1.00  0.00    -0.000 C 
BRANCH  13  14
ATOM     14  C   UNL     1     -14.481  35.792 -18.269  1.00  0.00    -0.000 C 
BRANCH  14  15
ATOM     15  C   UNL     1     -14.508  36.115 -16.764  1.00  0.00    -0.000 C 
BRANCH  15  16
ATOM     16  C   UNL     1     -13.747  35.076 -15.926  1.00  0.00    -0.003 C 
ATOM     17  C   UNL     1     -13.021  35.694 -14.730  1.00  0.00     0.004 C 
ENDBRANCH  15  16
ENDBRANCH  14  15
ENDBRANCH  13  14
ENDBRANCH  12  13
ENDBRANCH  11  12
ENDBRANCH  10  11
ENDBRANCH   1  10
TORSDOF 13
ENDMDL
MODEL 2
REMARK VINA RESULT:     0.228      2.747      6.042
REMARK INTER + INTRA:           0.884
REMARK INTER:                   1.746
REMARK INTRA:                  -0.862
REMARK UNBOUND:                 0.483
REMARK SMILES CCCCCCCCCCCCCCC(=O)[O-]
REMARK SMILES IDX 9 1 10 2 11 3 12 4 13 5 14 6 15 7 16 8 17 9 8 10 7 11 6 12
REMARK SMILES IDX 5 13 4 14 3 15 2 16 1 17
REMARK H PARENT
REMARK Flexibility Score: inf
ROOT
ATOM      1  C   UNL     1     -16.499  33.796 -18.748  1.00  0.00     0.000 C 
ENDROOT
BRANCH   1   2
ATOM      2  C   UNL     1     -15.037  33.523 -19.134  1.00  0.00     0.000 C 
BRANCH   2   3
ATOM      3  C   UNL     1     -14.074  34.604 -18.613  1.00  0.00     0.000 C 
BRANCH   3   4
ATOM      4  C   UNL     1     -14.793  35.696 -17.803  1.00  0.00     0.000 C 
BRANCH   4   5
ATOM      5  C   UNL     1     -14.109  35.986 -16.454  1.00  0.00     0.006 C 
BRANCH   5   6
ATOM      6  C   UNL     1     -13.797  34.733 -15.619  1.00  0.00     0.053 C 
BRANCH   6   7
ATOM      7  C   UNL     1     -13.013  35.060 -14.386  1.00  0.00     0.041 C 
ATOM      8  O   UNL     1     -13.253  34.461 -13.305  1.00  0.00    -0.550 OA
ATOM      9  O   UNL     1     -12.038  36.050 -14.423  1.00  0.00    -0.550 OA
ENDBRANCH   6   7
ENDBRANCH   5   6
ENDBRANCH   4   5
ENDBRANCH   3   4
ENDBRANCH   2   3
ENDBRANCH   1   2
BRANCH   1  10
ATOM     10  C   UNL     1     -17.360  34.030 -19.996  1.00  0.00     0.000 C 
BRANCH  10  11
ATOM     11  C   UNL     1     -17.640  35.528 -20.198  1.00  0.00    -0.000 C 
BRANCH  11  12
ATOM     12  C   UNL     1     -19.034  35.798 -20.788  1.00  0.00    -0.000 C 
BRANCH  12  13
ATOM     13  C   UNL     1     -20.143  35.764 -19.722  1.00  0.00    -0.000 C 
BRANCH  13  14
ATOM     14  C   UNL     1     -19.601  35.982 -18.299  1.00  0.00    -0.000 C 
BRANCH  14  15
ATOM     15  C   UNL     1     -20.707  35.933 -17.231  1.00  0.00    -0.000 C 
BRANCH  15  16
ATOM     16  C   UNL     1     -20.151  35.697 -15.818  1.00  0.00    -0.003 C 
ATOM     17  C   UNL     1     -21.124  36.125 -14.718  1.00  0.00     0.004 C 
ENDBRANCH  15  16
ENDBRANCH  14  15
ENDBRANCH  13  14
ENDBRANCH  12  13
ENDBRANCH  11  12
ENDBRANCH  10  11
ENDBRANCH   1  10
TORSDOF 13
ENDMDL
MODEL 3
REMARK VINA RESULT:     1.129      2.853      6.219
REMARK INTER + INTRA:           2.471
REMARK INTER:                   2.812
REMARK INTRA:                  -0.341
REMARK UNBOUND:                 0.483
REMARK SMILES CCCCCCCCCCCCCCC(=O)[O-]
REMARK SMILES IDX 9 1 10 2 11 3 12 4 13 5 14 6 15 7 16 8 17 9 8 10 7 11 6 12
REMARK SMILES IDX 5 13 4 14 3 15 2 16 1 17
REMARK H PARENT
REMARK Flexibility Score: inf
ROOT
ATOM      1  C   UNL     1     -16.366  33.667 -18.766  1.00  0.00     0.000 C 
ENDROOT
BRANCH   1   2
ATOM      2  C   UNL     1     -14.865  33.377 -18.924  1.00  0.00     0.000 C 
BRANCH   2   3
ATOM      3  C   UNL     1     -13.991  34.616 -18.667  1.00  0.00     0.000 C 
BRANCH   3   4
ATOM      4  C   UNL     1     -14.730  35.707 -17.874  1.00  0.00     0.000 C 
BRANCH   4   5
ATOM      5  C   UNL     1     -14.109  35.961 -16.488  1.00  0.00     0.006 C 
BRANCH   5   6
ATOM      6  C   UNL     1     -13.559  34.702 -15.799  1.00  0.00     0.053 C 
BRANCH   6   7
ATOM      7  C   UNL     1     -13.009  35.000 -14.438  1.00  0.00     0.041 C 
ATOM      8  O   UNL     1     -12.499  36.125 -14.193  1.00  0.00    -0.550 OA
ATOM      9  O   UNL     1     -13.030  34.023 -13.450  1.00  0.00    -0.550 OA
ENDBRANCH   6   7
ENDBRANCH   5   6
ENDBRANCH   4   5
ENDBRANCH   3   4
ENDBRANCH   2   3
ENDBRANCH   1   2
BRANCH   1  10
ATOM     10  C   UNL     1     -17.029  33.884 -20.133  1.00  0.00     0.000 C 
BRANCH  10  11
ATOM     11  C   UNL     1     -16.777  35.311 -20.646  1.00  0.00    -0.000 C 
BRANCH  11  12
ATOM     12  C   UNL     1     -18.067  36.017 -21.095  1.00  0.00    -0.000 C 
BRANCH  12  13
ATOM     13  C   UNL     1     -19.336  35.278 -20.634  1.00  0.00    -0.000 C 
BRANCH  13  14
ATOM     14  C   UNL     1     -20.167  36.100 -19.634  1.00  0.00    -0.000 C 
BRANCH  14  15
ATOM     15  C   UNL     1     -20.383  35.365 -18.299  1.00  0.00    -0.000 C 
BRANCH  15  16
ATOM     16  C   UNL     1     -20.252  33.841 -18.439  1.00  0.00    -0.003 C 
ATOM     17  C   UNL     1     -21.022  33.286 -19.638  1.00  0.00     0.004 C 
ENDBRANCH  15  16
ENDBRANCH  14  15
ENDBRANCH  13  14
ENDBRANCH  12  13
ENDBRANCH  11  12
ENDBRANCH  10  11
ENDBRANCH   1  10
TORSDOF 13
ENDMDL
MODEL 4
REMARK VINA RESULT:     1.614      1.517      2.351
REMARK INTER + INTRA:           3.324
REMARK INTER:                   2.706
REMARK INTRA:                   0.618
REMARK UNBOUND:                 0.483
REMARK SMILES CCCCCCCCCCCCCCC(=O)[O-]
REMARK SMILES IDX 9 1 10 2 11 3 12 4 13 5 14 6 15 7 16 8 17 9 8 10 7 11 6 12
REMARK SMILES IDX 5 13 4 14 3 15 2 16 1 17
REMARK H PARENT
REMARK Flexibility Score: inf
ROOT
ATOM      1  C   UNL     1     -15.629  33.852 -19.821  1.00  0.00     0.000 C 
ENDROOT
BRANCH   1   2
ATOM      2  C   UNL     1     -16.412  34.108 -21.117  1.00  0.00     0.000 C 
BRANCH   2   3
ATOM      3  C   UNL     1     -17.917  34.313 -20.872  1.00  0.00     0.000 C 
BRANCH   3   4
ATOM      4  C   UNL     1     -18.345  35.782 -21.023  1.00  0.00     0.000 C 
BRANCH   4   5
ATOM      5  C   UNL     1     -19.873  35.951 -21.114  1.00  0.00     0.006 C 
BRANCH   5   6
ATOM      6  C   UNL     1     -20.602  35.871 -19.762  1.00  0.00     0.053 C 
BRANCH   6   7
ATOM      7  C   UNL     1     -20.553  34.492 -19.178  1.00  0.00     0.041 C 
ATOM      8  O   UNL     1     -21.072  33.525 -19.793  1.00  0.00    -0.550 OA
ATOM      9  O   UNL     1     -19.963  34.283 -17.938  1.00  0.00    -0.550 OA
ENDBRANCH   6   7
ENDBRANCH   5   6
ENDBRANCH   4   5
ENDBRANCH   3   4
ENDBRANCH   2   3
ENDBRANCH   1   2
BRANCH   1  10
ATOM     10  C   UNL     1     -16.583  33.651 -18.635  1.00  0.00     0.000 C 
BRANCH  10  11
ATOM     11  C   UNL     1     -16.961  34.998 -18.000  1.00  0.00    -0.000 C 
BRANCH  11  12
ATOM     12  C   UNL     1     -15.914  36.093 -18.261  1.00  0.00    -0.000 C 
BRANCH  12  13
ATOM     13  C   UNL     1     -14.484  35.636 -17.922  1.00  0.00    -0.000 C 
BRANCH  13  14
ATOM     14  C   UNL     1     -14.050  36.055 -16.508  1.00  0.00    -0.000 C 
BRANCH  14  15
ATOM     15  C   UNL     1     -13.447  34.889 -15.705  1.00  0.00    -0.000 C 
BRANCH  15  16
ATOM     16  C   UNL     1     -13.336  35.203 -14.205  1.00  0.00    -0.003 C 
ATOM     17  C   UNL     1     -12.129  36.082 -13.870  1.00  0.00     0.004 C 
ENDBRANCH  15  16
ENDBRANCH  14  15
ENDBRANCH  13  14
ENDBRANCH  12  13
ENDBRANCH  11  12
ENDBRANCH  10  11
ENDBRANCH   1  10
TORSDOF 13
ENDMDL
MODEL 5
REMARK VINA RESULT:     2.078      1.748      2.486
REMARK INTER + INTRA:           4.141
REMARK INTER:                   3.681
REMARK INTRA:                   0.460
REMARK UNBOUND:                 0.483
REMARK SMILES CCCCCCCCCCCCCCC(=O)[O-]
REMARK SMILES IDX 9 1 10 2 11 3 12 4 13 5 14 6 15 7 16 8 17 9 8 10 7 11 6 12
REMARK SMILES IDX 5 13 4 14 3 15 2 16 1 17
REMARK H PARENT
REMARK Flexibility Score: inf
ROOT
ATOM      1  C   UNL     1     -16.911  33.845 -18.502  1.00  0.00     0.000 C 
ENDROOT
BRANCH   1   2
ATOM      2  C   UNL     1     -17.018  35.360 -18.266  1.00  0.00     0.000 C 
BRANCH   2   3
ATOM      3  C   UNL     1     -18.396  35.924 -18.651  1.00  0.00     0.000 C 
BRANCH   3   4
ATOM      4  C   UNL     1     -19.327  36.091 -17.438  1.00  0.00     0.000 C 
BRANCH   4   5
ATOM      5  C   UNL     1     -20.777  35.667 -17.735  1.00  0.00     0.006 C 
BRANCH   5   6
ATOM      6  C   UNL     1     -21.124  35.603 -19.232  1.00  0.00     0.053 C 
BRANCH   6   7
ATOM      7  C   UNL     1     -20.869  34.245 -19.811  1.00  0.00     0.041 C 
ATOM      8  O   UNL     1     -21.054  33.214 -19.114  1.00  0.00    -0.550 OA
ATOM      9  O   UNL     1     -20.393  34.122 -21.111  1.00  0.00    -0.550 OA
ENDBRANCH   6   7
ENDBRANCH   5   6
ENDBRANCH   4   5
ENDBRANCH   3   4
ENDBRANCH   2   3
ENDBRANCH   1   2
BRANCH   1  10
ATOM     10  C   UNL     1     -16.154  33.546 -19.803  1.00  0.00     0.000 C 
BRANCH  10  11
ATOM     11  C   UNL     1     -14.831  34.327 -19.860  1.00  0.00    -0.000 C 
BRANCH  11  12
ATOM     12  C   UNL     1     -14.181  34.497 -18.478  1.00  0.00    -0.000 C 
BRANCH  12  13
ATOM     13  C   UNL     1     -14.116  35.969 -18.032  1.00  0.00    -0.000 C 
BRANCH  13  14
ATOM     14  C   UNL     1     -14.154  36.125 -16.503  1.00  0.00    -0.000 C 
BRANCH  14  15
ATOM     15  C   UNL     1     -13.438  34.974 -15.773  1.00  0.00    -0.000 C 
BRANCH  15  16
ATOM     16  C   UNL     1     -13.235  35.262 -14.278  1.00  0.00    -0.003 C 
ATOM     17  C   UNL     1     -11.762  35.412 -13.896  1.00  0.00     0.004 C 
ENDBRANCH  15  16
ENDBRANCH  14  15
ENDBRANCH  13  14
ENDBRANCH  12  13
ENDBRANCH  11  12
ENDBRANCH  10  11
ENDBRANCH   1  10
TORSDOF 13
ENDMDL
