MODEL 1
REMARK VINA RESULT:    -4.275      0.000      0.000
REMARK INTER + INTRA:          -6.479
REMARK INTER:                  -6.024
REMARK INTRA:                  -0.455
REMARK UNBOUND:                -0.455
REMARK SMILES CCCCCCCCC(=O)[O-]
REMARK SMILES IDX 6 1 7 2 8 3 9 4 10 5 11 6 5 7 4 8 3 9 2 10 1 11
REMARK H PARENT
REMARK Flexibility Score: inf
ROOT
ATOM      1  C   UNL     1      -9.360 -12.801  14.077  1.00  0.00     0.000 C 
ENDROOT
BRANCH   1   2
ATOM      2  C   UNL     1      -9.371 -11.328  14.513  1.00  0.00     0.006 C 
BRANCH   2   3
ATOM      3  C   UNL     1      -8.142 -10.564  14.003  1.00  0.00     0.053 C 
BRANCH   3   4
ATOM      4  C   UNL     1      -6.892 -10.978  14.719  1.00  0.00     0.041 C 
ATOM      5  O   UNL     1      -6.867 -11.019  15.978  1.00  0.00    -0.550 OA
ATOM      6  O   UNL     1      -5.747 -11.288  13.997  1.00  0.00    -0.550 OA
ENDBRANCH   3   4
ENDBRANCH   2   3
ENDBRANCH   1   2
BRANCH   1   7
ATOM      7  C   UNL     1     -10.151 -13.670  15.063  1.00  0.00     0.000 C 
BRANCH   7   8
ATOM      8  C   UNL     1     -11.062 -12.810  15.947  1.00  0.00    -0.000 C 
BRANCH   8   9
ATOM      9  C   UNL     1     -12.540 -13.068  15.631  1.00  0.00    -0.000 C 
BRANCH   9  10
ATOM     10  C   UNL     1     -12.698 -14.247  14.664  1.00  0.00    -0.003 C 
ATOM     11  C   UNL     1     -13.964 -14.105  13.824  1.00  0.00     0.004 C 
ENDBRANCH   9  10
ENDBRANCH   8   9
ENDBRANCH   7   8
ENDBRANCH   1   7
TORSDOF 7
ENDMDL
MODEL 2
REMARK VINA RESULT:    -4.103      3.103      5.718
REMARK INTER + INTRA:          -6.236
REMARK INTER:                  -5.845
REMARK INTRA:                  -0.391
REMARK UNBOUND:                -0.455
REMARK SMILES CCCCCCCCC(=O)[O-]
REMARK SMILES IDX 6 1 7 2 8 3 9 4 10 5 11 6 5 7 4 8 3 9 2 10 1 11
REMARK H PARENT
REMARK Flexibility Score: inf
ROOT
ATOM      1  C   UNL     1     -10.836 -12.820  15.902  1.00  0.00     0.000 C 
ENDROOT
BRANCH   1   2
ATOM      2  C   UNL     1     -11.257 -13.941  14.940  1.00  0.00     0.006 C 
BRANCH   2   3
ATOM      3  C   UNL     1     -12.764 -13.923  14.652  1.00  0.00     0.053 C 
BRANCH   3   4
ATOM      4  C   UNL     1     -13.261 -12.537  14.374  1.00  0.00     0.041 C 
ATOM      5  O   UNL     1     -12.868 -11.917  13.350  1.00  0.00    -0.550 OA
ATOM      6  O   UNL     1     -14.132 -11.919  15.262  1.00  0.00    -0.550 OA
ENDBRANCH   3   4
ENDBRANCH   2   3
ENDBRANCH   1   2
BRANCH   1   7
ATOM      7  C   UNL     1      -9.427 -12.314  15.572  1.00  0.00     0.000 C 
BRANCH   7   8
ATOM      8  C   UNL     1      -9.430 -11.475  14.288  1.00  0.00    -0.000 C 
BRANCH   8   9
ATOM      9  C   UNL     1      -8.232 -10.519  14.252  1.00  0.00    -0.000 C 
BRANCH   9  10
ATOM     10  C   UNL     1      -6.988 -11.171  14.865  1.00  0.00    -0.003 C 
ATOM     11  C   UNL     1      -5.898 -11.373  13.816  1.00  0.00     0.004 C 
ENDBRANCH   9  10
ENDBRANCH   8   9
ENDBRANCH   7   8
ENDBRANCH   1   7
TORSDOF 7
ENDMDL
MODEL 3
REMARK VINA RESULT:    -4.091      1.658      1.962
REMARK INTER + INTRA:          -6.220
REMARK INTER:                  -5.720
REMARK INTRA:                  -0.500
REMARK UNBOUND:                -0.455
REMARK SMILES CCCCCCCCC(=O)[O-]
REMARK SMILES IDX 6 1 7 2 8 3 9 4 10 5 11 6 5 7 4 8 3 9 2 10 1 11
REMARK H PARENT
REMARK Flexibility Score: inf
ROOT
ATOM      1  C   UNL     1     -10.191 -12.714  15.973  1.00  0.00     0.000 C 
ENDROOT
BRANCH   1   2
ATOM      2  C   UNL     1      -8.660 -12.765  15.856  1.00  0.00     0.006 C 
BRANCH   2   3
ATOM      3  C   UNL     1      -8.106 -11.620  14.996  1.00  0.00     0.053 C 
BRANCH   3   4
ATOM      4  C   UNL     1      -7.393 -12.131  13.781  1.00  0.00     0.041 C 
ATOM      5  O   UNL     1      -8.036 -12.712  12.867  1.00  0.00    -0.550 OA
ATOM      6  O   UNL     1      -6.015 -11.996  13.675  1.00  0.00    -0.550 OA
ENDBRANCH   3   4
ENDBRANCH   2   3
ENDBRANCH   1   2
BRANCH   1   7
ATOM      7  C   UNL     1     -10.853 -13.580  14.894  1.00  0.00     0.000 C 
BRANCH   7   8
ATOM      8  C   UNL     1     -11.555 -12.711  13.844  1.00  0.00    -0.000 C 
BRANCH   8   9
ATOM      9  C   UNL     1     -13.074 -12.720  14.048  1.00  0.00    -0.000 C 
BRANCH   9  10
ATOM     10  C   UNL     1     -13.507 -13.915  14.904  1.00  0.00    -0.003 C 
ATOM     11  C   UNL     1     -14.399 -13.471  16.059  1.00  0.00     0.004 C 
ENDBRANCH   9  10
ENDBRANCH   8   9
ENDBRANCH   7   8
ENDBRANCH   1   7
TORSDOF 7
ENDMDL
MODEL 4
REMARK VINA RESULT:    -4.089      3.824      5.813
REMARK INTER + INTRA:          -6.218
REMARK INTER:                  -5.750
REMARK INTRA:                  -0.467
REMARK UNBOUND:                -0.455
REMARK SMILES CCCCCCCCC(=O)[O-]
REMARK SMILES IDX 6 1 7 2 8 3 9 4 10 5 11 6 5 7 4 8 3 9 2 10 1 11
REMARK H PARENT
REMARK Flexibility Score: inf
ROOT
ATOM      1  C   UNL     1     -11.177 -12.811  15.884  1.00  0.00     0.000 C 
ENDROOT
BRANCH   1   2
ATOM      2  C   UNL     1     -12.156 -12.661  14.710  1.00  0.00     0.006 C 
BRANCH   2   3
ATOM      3  C   UNL     1     -13.131 -13.843  14.614  1.00  0.00     0.053 C 
BRANCH   3   4
ATOM      4  C   UNL     1     -14.102 -13.672  13.486  1.00  0.00     0.041 C 
ATOM      5  O   UNL     1     -14.585 -14.682  12.907  1.00  0.00    -0.550 OA
ATOM      6  O   UNL     1     -14.448 -12.399  13.052  1.00  0.00    -0.550 OA
ENDBRANCH   3   4
ENDBRANCH   2   3
ENDBRANCH   1   2
BRANCH   1   7
ATOM      7  C   UNL     1      -9.880 -13.495  15.433  1.00  0.00     0.000 C 
BRANCH   7   8
ATOM      8  C   UNL     1      -8.652 -12.690  15.873  1.00  0.00    -0.000 C 
BRANCH   8   9
ATOM      9  C   UNL     1      -7.724 -12.407  14.686  1.00  0.00    -0.000 C 
BRANCH   9  10
ATOM     10  C   UNL     1      -8.455 -11.623  13.590  1.00  0.00    -0.003 C 
ATOM     11  C   UNL     1      -8.799 -10.212  14.058  1.00  0.00     0.004 C 
ENDBRANCH   9  10
ENDBRANCH   8   9
ENDBRANCH   7   8
ENDBRANCH   1   7
TORSDOF 7
ENDMDL
MODEL 5
REMARK VINA RESULT:    -4.074      4.004      5.801
REMARK INTER + INTRA:          -6.196
REMARK INTER:                  -5.685
REMARK INTRA:                  -0.511
REMARK UNBOUND:                -0.455
REMARK SMILES CCCCCCCCC(=O)[O-]
REMARK SMILES IDX 6 1 7 2 8 3 9 4 10 5 11 6 5 7 4 8 3 9 2 10 1 11
REMARK H PARENT
REMARK Flexibility Score: inf
ROOT
ATOM      1  C   UNL     1     -11.831 -13.585  15.231  1.00  0.00     0.000 C 
ENDROOT
BRANCH   1   2
ATOM      2  C   UNL     1     -12.075 -12.948  13.854  1.00  0.00     0.006 C 
BRANCH   2   3
ATOM      3  C   UNL     1     -13.278 -11.996  13.861  1.00  0.00     0.053 C 
BRANCH   3   4
ATOM      4  C   UNL     1     -14.566 -12.724  13.625  1.00  0.00     0.041 C 
ATOM      5  O   UNL     1     -15.649 -12.256  14.066  1.00  0.00    -0.550 OA
ATOM      6  O   UNL     1     -14.565 -13.937  12.947  1.00  0.00    -0.550 OA
ENDBRANCH   3   4
ENDBRANCH   2   3
ENDBRANCH   1   2
BRANCH   1   7
ATOM      7  C   UNL     1     -10.790 -12.789  16.027  1.00  0.00     0.000 C 
BRANCH   7   8
ATOM      8  C   UNL     1      -9.367 -13.241  15.679  1.00  0.00    -0.000 C 
BRANCH   8   9
ATOM      9  C   UNL     1      -8.456 -12.037  15.414  1.00  0.00    -0.000 C 
BRANCH   9  10
ATOM     10  C   UNL     1      -8.516 -11.616  13.941  1.00  0.00    -0.003 C 
ATOM     11  C   UNL     1      -8.681 -10.105  13.806  1.00  0.00     0.004 C 
ENDBRANCH   9  10
ENDBRANCH   8   9
ENDBRANCH   7   8
ENDBRANCH   1   7
TORSDOF 7
ENDMDL
MODEL 6
REMARK VINA RESULT:    -4.042      4.225      5.988
REMARK INTER + INTRA:          -6.151
REMARK INTER:                  -5.523
REMARK INTRA:                  -0.628
REMARK UNBOUND:                -0.455
REMARK SMILES CCCCCCCCC(=O)[O-]
REMARK SMILES IDX 6 1 7 2 8 3 9 4 10 5 11 6 5 7 4 8 3 9 2 10 1 11
REMARK H PARENT
REMARK Flexibility Score: inf
ROOT
ATOM      1  C   UNL     1     -12.854 -13.150  15.817  1.00  0.00     0.000 C 
ENDROOT
BRANCH   1   2
ATOM      2  C   UNL     1     -13.983 -12.338  15.165  1.00  0.00     0.006 C 
BRANCH   2   3
ATOM      3  C   UNL     1     -13.690 -12.016  13.693  1.00  0.00     0.053 C 
BRANCH   3   4
ATOM      4  C   UNL     1     -14.878 -12.282  12.819  1.00  0.00     0.041 C 
ATOM      5  O   UNL     1     -14.886 -11.886  11.623  1.00  0.00    -0.550 OA
ATOM      6  O   UNL     1     -15.989 -12.937  13.335  1.00  0.00    -0.550 OA
ENDBRANCH   3   4
ENDBRANCH   2   3
ENDBRANCH   1   2
BRANCH   1   7
ATOM      7  C   UNL     1     -12.333 -14.230  14.862  1.00  0.00     0.000 C 
BRANCH   7   8
ATOM      8  C   UNL     1     -10.800 -14.287  14.878  1.00  0.00    -0.000 C 
BRANCH   8   9
ATOM      9  C   UNL     1     -10.202 -13.309  13.859  1.00  0.00    -0.000 C 
BRANCH   9  10
ATOM     10  C   UNL     1      -9.468 -12.162  14.562  1.00  0.00    -0.003 C 
ATOM     11  C   UNL     1      -9.181 -12.504  16.021  1.00  0.00     0.004 C 
ENDBRANCH   9  10
ENDBRANCH   8   9
ENDBRANCH   7   8
ENDBRANCH   1   7
TORSDOF 7
ENDMDL
MODEL 7
REMARK VINA RESULT:    -4.022      5.014      6.953
REMARK INTER + INTRA:          -6.122
REMARK INTER:                  -5.738
REMARK INTRA:                  -0.384
REMARK UNBOUND:                -0.455
REMARK SMILES CCCCCCCCC(=O)[O-]
REMARK SMILES IDX 6 1 7 2 8 3 9 4 10 5 11 6 5 7 4 8 3 9 2 10 1 11
REMARK H PARENT
REMARK Flexibility Score: inf
ROOT
ATOM      1  C   UNL     1     -13.477 -11.961  13.583  1.00  0.00     0.000 C 
ENDROOT
BRANCH   1   2
ATOM      2  C   UNL     1     -14.695 -12.356  12.735  1.00  0.00     0.006 C 
BRANCH   2   3
ATOM      3  C   UNL     1     -15.288 -13.705  13.164  1.00  0.00     0.053 C 
BRANCH   3   4
ATOM      4  C   UNL     1     -16.780 -13.642  13.293  1.00  0.00     0.041 C 
ATOM      5  O   UNL     1     -17.310 -12.877  14.142  1.00  0.00    -0.550 OA
ATOM      6  O   UNL     1     -17.582 -14.452  12.500  1.00  0.00    -0.550 OA
ENDBRANCH   3   4
ENDBRANCH   2   3
ENDBRANCH   1   2
BRANCH   1   7
ATOM      7  C   UNL     1     -12.848 -13.193  14.247  1.00  0.00     0.000 C 
BRANCH   7   8
ATOM      8  C   UNL     1     -12.594 -12.944  15.739  1.00  0.00    -0.000 C 
BRANCH   8   9
ATOM      9  C   UNL     1     -11.099 -12.746  16.017  1.00  0.00    -0.000 C 
BRANCH   9  10
ATOM     10  C   UNL     1     -10.244 -13.526  15.012  1.00  0.00    -0.003 C 
ATOM     11  C   UNL     1      -9.220 -12.618  14.338  1.00  0.00     0.004 C 
ENDBRANCH   9  10
ENDBRANCH   8   9
ENDBRANCH   7   8
ENDBRANCH   1   7
TORSDOF 7
ENDMDL
MODEL 8
REMARK VINA RESULT:    -3.975      4.643      6.614
REMARK INTER + INTRA:          -6.056
REMARK INTER:                  -5.733
REMARK INTRA:                  -0.324
REMARK UNBOUND:                -0.455
REMARK SMILES CCCCCCCCC(=O)[O-]
REMARK SMILES IDX 6 1 7 2 8 3 9 4 10 5 11 6 5 7 4 8 3 9 2 10 1 11
REMARK H PARENT
REMARK Flexibility Score: inf
ROOT
ATOM      1  C   UNL     1     -13.040 -14.176  14.586  1.00  0.00     0.000 C 
ENDROOT
BRANCH   1   2
ATOM      2  C   UNL     1     -13.720 -13.350  15.688  1.00  0.00     0.006 C 
BRANCH   2   3
ATOM      3  C   UNL     1     -14.798 -12.412  15.129  1.00  0.00     0.053 C 
BRANCH   3   4
ATOM      4  C   UNL     1     -16.145 -13.067  15.100  1.00  0.00     0.041 C 
ATOM      5  O   UNL     1     -16.461 -13.904  15.986  1.00  0.00    -0.550 OA
ATOM      6  O   UNL     1     -17.037 -12.778  14.075  1.00  0.00    -0.550 OA
ENDBRANCH   3   4
ENDBRANCH   2   3
ENDBRANCH   1   2
BRANCH   1   7
ATOM      7  C   UNL     1     -11.539 -14.329  14.861  1.00  0.00     0.000 C 
BRANCH   7   8
ATOM      8  C   UNL     1     -10.970 -13.068  15.523  1.00  0.00    -0.000 C 
BRANCH   8   9
ATOM      9  C   UNL     1     -10.448 -12.082  14.471  1.00  0.00    -0.000 C 
BRANCH   9  10
ATOM     10  C   UNL     1      -9.054 -11.566  14.844  1.00  0.00    -0.003 C 
ATOM     11  C   UNL     1      -8.682 -10.338  14.019  1.00  0.00     0.004 C 
ENDBRANCH   9  10
ENDBRANCH   8   9
ENDBRANCH   7   8
ENDBRANCH   1   7
TORSDOF 7
ENDMDL
MODEL 9
REMARK VINA RESULT:    -3.902      1.901      3.142
REMARK INTER + INTRA:          -5.954
REMARK INTER:                  -5.599
REMARK INTRA:                  -0.355
REMARK UNBOUND:                -0.455
REMARK SMILES CCCCCCCCC(=O)[O-]
REMARK SMILES IDX 6 1 7 2 8 3 9 4 10 5 11 6 5 7 4 8 3 9 2 10 1 11
REMARK H PARENT
REMARK Flexibility Score: inf
ROOT
ATOM      1  C   UNL     1     -12.373 -13.086  15.834  1.00  0.00     0.000 C 
ENDROOT
BRANCH   1   2
ATOM      2  C   UNL     1     -10.883 -12.753  16.006  1.00  0.00     0.006 C 
BRANCH   2   3
ATOM      3  C   UNL     1     -10.016 -13.395  14.915  1.00  0.00     0.053 C 
BRANCH   3   4
ATOM      4  C   UNL     1      -9.214 -12.373  14.169  1.00  0.00     0.041 C 
ATOM      5  O   UNL     1      -9.574 -11.165  14.163  1.00  0.00    -0.550 OA
ATOM      6  O   UNL     1      -8.088 -12.759  13.452  1.00  0.00    -0.550 OA
ENDBRANCH   3   4
ENDBRANCH   2   3
ENDBRANCH   1   2
BRANCH   1   7
ATOM      7  C   UNL     1     -12.574 -14.166  14.765  1.00  0.00     0.000 C 
BRANCH   7   8
ATOM      8  C   UNL     1     -13.841 -13.898  13.943  1.00  0.00    -0.000 C 
BRANCH   8   9
ATOM      9  C   UNL     1     -14.873 -13.114  14.762  1.00  0.00    -0.000 C 
BRANCH   9  10
ATOM     10  C   UNL     1     -16.071 -12.709  13.895  1.00  0.00    -0.003 C 
ATOM     11  C   UNL     1     -17.294 -13.565  14.211  1.00  0.00     0.004 C 
ENDBRANCH   9  10
ENDBRANCH   8   9
ENDBRANCH   7   8
ENDBRANCH   1   7
TORSDOF 7
ENDMDL
