MODEL 1
REMARK VINA RESULT:     3.314      0.000      0.000
REMARK INTER + INTRA:           4.342
REMARK INTER:                   4.670
REMARK INTRA:                  -0.328
REMARK UNBOUND:                -0.328
REMARK SMILES OC[C@H]1O[C@H](O[C@@H]2OC=C[C@@H]3[C@H](O)[C@@H]4O[C@]4(CO)[C@H]23)[C@H](O)[C@@H](O)[C@@H]1O
REMARK SMILES IDX 6 1 7 2 10 3 9 4 11 5 8 6 19 7 12 8 16 9 14 10 15 11 13 12
REMARK SMILES IDX 17 14 18 15 5 17 20 18 4 19 22 20 3 21 24 22 21 23 23 25
REMARK SMILES IDX 2 27 1 28 25 30
REMARK H PARENT 13 13 18 16 21 24 23 26 1 29 25 31
REMARK Flexibility Score: inf
ROOT
ATOM      1  O   UNL     1     -23.042 -18.202 -12.757  1.00  0.00    -0.310 OA
ENDROOT
BRANCH   1   2
ATOM      2  C   UNL     1     -22.862 -19.537 -12.324  1.00  0.00     0.315 C 
ATOM      3  C   UNL     1     -22.582 -22.353 -12.544  1.00  0.00     0.018 C 
ATOM      4  C   UNL     1     -21.603 -21.547 -12.959  1.00  0.00     0.186 C 
ATOM      5  C   UNL     1     -23.983 -21.843 -12.234  1.00  0.00     0.059 C 
ATOM      6  O   UNL     1     -21.801 -20.169 -13.039  1.00  0.00    -0.472 OA
ATOM      7  C   UNL     1     -24.165 -20.332 -12.520  1.00  0.00     0.105 C 
ATOM      8  C   UNL     1     -25.045 -22.518 -13.127  1.00  0.00     0.154 C 
ATOM      9  C   UNL     1     -24.738 -20.250 -13.944  1.00  0.00     0.130 C 
ATOM     10  C   UNL     1     -25.305 -21.564 -14.289  1.00  0.00     0.183 C 
ATOM     11  O   UNL     1     -24.127 -21.081 -14.907  1.00  0.00    -0.360 OA
BRANCH   8  12
ATOM     12  O   UNL     1     -24.639 -23.778 -13.597  1.00  0.00    -0.390 OA
ATOM     13  H   UNL     1     -23.655 -23.732 -13.720  1.00  0.00     0.211 HD
ENDBRANCH   8  12
BRANCH   9  14
ATOM     14  C   UNL     1     -25.481 -19.032 -14.498  1.00  0.00     0.195 C 
BRANCH  14  15
ATOM     15  O   UNL     1     -25.838 -18.178 -13.445  1.00  0.00    -0.393 OA
ATOM     16  H   UNL     1     -25.805 -17.258 -13.812  1.00  0.00     0.210 HD
ENDBRANCH  14  15
ENDBRANCH   9  14
ENDBRANCH   1   2
BRANCH   1  17
ATOM     17  C   UNL     1     -22.391 -17.967 -13.998  1.00  0.00     0.286 C 
ATOM     18  C   UNL     1     -21.094 -17.173 -13.771  1.00  0.00     0.202 C 
ATOM     19  O   UNL     1     -23.240 -17.286 -14.910  1.00  0.00    -0.341 OA
ATOM     20  C   UNL     1     -21.417 -15.754 -13.272  1.00  0.00     0.179 C 
ATOM     21  C   UNL     1     -23.660 -16.028 -14.400  1.00  0.00     0.178 C 
ATOM     22  C   UNL     1     -22.445 -15.089 -14.202  1.00  0.00     0.177 C 
BRANCH  18  23
ATOM     23  O   UNL     1     -20.295 -17.849 -12.835  1.00  0.00    -0.385 OA
ATOM     24  H   UNL     1     -20.809 -17.884 -11.986  1.00  0.00     0.211 HD
ENDBRANCH  18  23
BRANCH  20  25
ATOM     25  O   UNL     1     -20.244 -14.979 -13.249  1.00  0.00    -0.387 OA
ATOM     26  H   UNL     1     -19.495 -15.580 -13.500  1.00  0.00     0.211 HD
ENDBRANCH  20  25
BRANCH  21  27
ATOM     27  C   UNL     1     -24.670 -15.435 -15.394  1.00  0.00     0.191 C 
BRANCH  27  28
ATOM     28  O   UNL     1     -24.013 -14.679 -16.378  1.00  0.00    -0.394 OA
ATOM     29  H   UNL     1     -23.604 -13.896 -15.924  1.00  0.00     0.210 HD
ENDBRANCH  27  28
ENDBRANCH  21  27
BRANCH  22  30
ATOM     30  O   UNL     1     -22.868 -13.875 -13.634  1.00  0.00    -0.387 OA
ATOM     31  H   UNL     1     -23.503 -14.104 -12.906  1.00  0.00     0.211 HD
ENDBRANCH  22  30
ENDBRANCH   1  17
TORSDOF 10
ENDMDL
MODEL 2
REMARK VINA RESULT:     3.942      1.243      2.304
REMARK INTER + INTRA:           5.228
REMARK INTER:                   5.247
REMARK INTRA:                  -0.019
REMARK UNBOUND:                -0.328
REMARK SMILES OC[C@H]1O[C@H](O[C@@H]2OC=C[C@@H]3[C@H](O)[C@@H]4O[C@]4(CO)[C@H]23)[C@H](O)[C@@H](O)[C@@H]1O
REMARK SMILES IDX 6 1 7 2 10 3 9 4 11 5 8 6 19 7 12 8 16 9 14 10 15 11 13 12
REMARK SMILES IDX 17 14 18 15 5 17 20 18 4 19 22 20 3 21 24 22 21 23 23 25
REMARK SMILES IDX 2 27 1 28 25 30
REMARK H PARENT 13 13 18 16 21 24 23 26 1 29 25 31
REMARK Flexibility Score: inf
ROOT
ATOM      1  O   UNL     1     -22.766 -18.191 -12.502  1.00  0.00    -0.310 OA
ENDROOT
BRANCH   1   2
ATOM      2  C   UNL     1     -23.988 -18.904 -12.495  1.00  0.00     0.315 C 
ATOM      3  C   UNL     1     -25.796 -21.010 -11.897  1.00  0.00     0.018 C 
ATOM      4  C   UNL     1     -25.393 -20.177 -10.935  1.00  0.00     0.186 C 
ATOM      5  C   UNL     1     -25.104 -21.088 -13.250  1.00  0.00     0.059 C 
ATOM      6  O   UNL     1     -24.363 -19.265 -11.167  1.00  0.00    -0.472 OA
ATOM      7  C   UNL     1     -23.861 -20.171 -13.360  1.00  0.00     0.105 C 
ATOM      8  C   UNL     1     -24.545 -22.500 -13.523  1.00  0.00     0.154 C 
ATOM      9  C   UNL     1     -22.662 -21.059 -12.993  1.00  0.00     0.130 C 
ATOM     10  C   UNL     1     -23.070 -22.466 -13.133  1.00  0.00     0.183 C 
ATOM     11  O   UNL     1     -22.827 -21.889 -11.865  1.00  0.00    -0.360 OA
BRANCH   8  12
ATOM     12  O   UNL     1     -25.227 -23.501 -12.812  1.00  0.00    -0.390 OA
ATOM     13  H   UNL     1     -25.268 -24.295 -13.408  1.00  0.00     0.211 HD
ENDBRANCH   8  12
BRANCH   9  14
ATOM     14  C   UNL     1     -21.213 -20.740 -13.373  1.00  0.00     0.195 C 
BRANCH  14  15
ATOM     15  O   UNL     1     -20.528 -20.253 -12.251  1.00  0.00    -0.393 OA
ATOM     16  H   UNL     1     -21.096 -19.534 -11.871  1.00  0.00     0.210 HD
ENDBRANCH  14  15
ENDBRANCH   9  14
ENDBRANCH   1   2
BRANCH   1  17
ATOM     17  C   UNL     1     -22.303 -17.970 -13.827  1.00  0.00     0.286 C 
ATOM     18  C   UNL     1     -21.037 -17.098 -13.804  1.00  0.00     0.202 C 
ATOM     19  O   UNL     1     -23.306 -17.373 -14.636  1.00  0.00    -0.341 OA
ATOM     20  C   UNL     1     -21.374 -15.680 -13.312  1.00  0.00     0.179 C 
ATOM     21  C   UNL     1     -23.728 -16.121 -14.113  1.00  0.00     0.178 C 
ATOM     22  C   UNL     1     -22.556 -15.109 -14.113  1.00  0.00     0.177 C 
BRANCH  18  23
ATOM     23  O   UNL     1     -20.080 -17.691 -12.965  1.00  0.00    -0.385 OA
ATOM     24  H   UNL     1     -19.337 -17.039 -12.867  1.00  0.00     0.211 HD
ENDBRANCH  18  23
BRANCH  20  25
ATOM     25  O   UNL     1     -20.257 -14.841 -13.473  1.00  0.00    -0.387 OA
ATOM     26  H   UNL     1     -20.178 -14.650 -14.444  1.00  0.00     0.211 HD
ENDBRANCH  20  25
BRANCH  21  27
ATOM     27  C   UNL     1     -24.896 -15.625 -14.978  1.00  0.00     0.191 C 
BRANCH  27  28
ATOM     28  O   UNL     1     -24.444 -14.717 -15.950  1.00  0.00    -0.394 OA
ATOM     29  H   UNL     1     -24.002 -15.247 -16.664  1.00  0.00     0.210 HD
ENDBRANCH  27  28
ENDBRANCH  21  27
BRANCH  22  30
ATOM     30  O   UNL     1     -22.971 -13.899 -13.531  1.00  0.00    -0.387 OA
ATOM     31  H   UNL     1     -23.544 -14.134 -12.755  1.00  0.00     0.211 HD
ENDBRANCH  22  30
ENDBRANCH   1  17
TORSDOF 10
ENDMDL
MODEL 3
REMARK VINA RESULT:     4.065      1.432      3.369
REMARK INTER + INTRA:           5.400
REMARK INTER:                   6.531
REMARK INTRA:                  -1.131
REMARK UNBOUND:                -0.328
REMARK SMILES OC[C@H]1O[C@H](O[C@@H]2OC=C[C@@H]3[C@H](O)[C@@H]4O[C@]4(CO)[C@H]23)[C@H](O)[C@@H](O)[C@@H]1O
REMARK SMILES IDX 6 1 7 2 10 3 9 4 11 5 8 6 19 7 12 8 16 9 14 10 15 11 13 12
REMARK SMILES IDX 17 14 18 15 5 17 20 18 4 19 22 20 3 21 24 22 21 23 23 25
REMARK SMILES IDX 2 27 1 28 25 30
REMARK H PARENT 13 13 18 16 21 24 23 26 1 29 25 31
REMARK Flexibility Score: inf
ROOT
ATOM      1  O   UNL     1     -23.248 -18.323 -14.106  1.00  0.00    -0.310 OA
ENDROOT
BRANCH   1   2
ATOM      2  C   UNL     1     -24.140 -19.400 -13.894  1.00  0.00     0.315 C 
ATOM      3  C   UNL     1     -25.345 -21.584 -12.538  1.00  0.00     0.018 C 
ATOM      4  C   UNL     1     -25.539 -20.336 -12.107  1.00  0.00     0.186 C 
ATOM      5  C   UNL     1     -24.259 -21.940 -13.545  1.00  0.00     0.059 C 
ATOM      6  O   UNL     1     -24.804 -19.277 -12.638  1.00  0.00    -0.472 OA
ATOM      7  C   UNL     1     -23.374 -20.734 -13.946  1.00  0.00     0.105 C 
ATOM      8  C   UNL     1     -23.254 -22.956 -12.963  1.00  0.00     0.154 C 
ATOM      9  C   UNL     1     -22.155 -20.790 -13.012  1.00  0.00     0.130 C 
ATOM     10  C   UNL     1     -22.065 -22.148 -12.453  1.00  0.00     0.183 C 
ATOM     11  O   UNL     1     -22.428 -21.041 -11.651  1.00  0.00    -0.360 OA
BRANCH   8  12
ATOM     12  O   UNL     1     -23.806 -23.738 -11.935  1.00  0.00    -0.390 OA
ATOM     13  H   UNL     1     -23.187 -24.502 -11.797  1.00  0.00     0.211 HD
ENDBRANCH   8  12
BRANCH   9  14
ATOM     14  C   UNL     1     -20.822 -20.094 -13.302  1.00  0.00     0.195 C 
BRANCH  14  15
ATOM     15  O   UNL     1     -20.778 -18.863 -12.634  1.00  0.00    -0.393 OA
ATOM     16  H   UNL     1     -20.256 -18.252 -13.214  1.00  0.00     0.210 HD
ENDBRANCH  14  15
ENDBRANCH   9  14
ENDBRANCH   1   2
BRANCH   1  17
ATOM     17  C   UNL     1     -23.587 -17.203 -13.299  1.00  0.00     0.286 C 
ATOM     18  C   UNL     1     -24.521 -16.259 -14.073  1.00  0.00     0.202 C 
ATOM     19  O   UNL     1     -22.429 -16.508 -12.860  1.00  0.00    -0.341 OA
ATOM     20  C   UNL     1     -23.776 -15.622 -15.259  1.00  0.00     0.179 C 
ATOM     21  C   UNL     1     -21.654 -16.034 -13.952  1.00  0.00     0.178 C 
ATOM     22  C   UNL     1     -22.455 -14.997 -14.778  1.00  0.00     0.177 C 
BRANCH  18  23
ATOM     23  O   UNL     1     -25.636 -16.981 -14.531  1.00  0.00    -0.385 OA
ATOM     24  H   UNL     1     -26.389 -16.338 -14.600  1.00  0.00     0.211 HD
ENDBRANCH  18  23
BRANCH  20  25
ATOM     25  O   UNL     1     -24.574 -14.624 -15.844  1.00  0.00    -0.387 OA
ATOM     26  H   UNL     1     -25.011 -14.132 -15.101  1.00  0.00     0.211 HD
ENDBRANCH  20  25
BRANCH  21  27
ATOM     27  C   UNL     1     -20.368 -15.419 -13.379  1.00  0.00     0.191 C 
BRANCH  27  28
ATOM     28  O   UNL     1     -20.394 -14.019 -13.491  1.00  0.00    -0.394 OA
ATOM     29  H   UNL     1     -20.789 -13.802 -14.376  1.00  0.00     0.210 HD
ENDBRANCH  27  28
ENDBRANCH  21  27
BRANCH  22  30
ATOM     30  O   UNL     1     -21.701 -14.589 -15.891  1.00  0.00    -0.387 OA
ATOM     31  H   UNL     1     -21.717 -13.597 -15.901  1.00  0.00     0.211 HD
ENDBRANCH  22  30
ENDBRANCH   1  17
TORSDOF 10
ENDMDL
MODEL 4
REMARK VINA RESULT:     4.585      1.628      5.982
REMARK INTER + INTRA:           6.134
REMARK INTER:                   6.399
REMARK INTRA:                  -0.265
REMARK UNBOUND:                -0.328
REMARK SMILES OC[C@H]1O[C@H](O[C@@H]2OC=C[C@@H]3[C@H](O)[C@@H]4O[C@]4(CO)[C@H]23)[C@H](O)[C@@H](O)[C@@H]1O
REMARK SMILES IDX 6 1 7 2 10 3 9 4 11 5 8 6 19 7 12 8 16 9 14 10 15 11 13 12
REMARK SMILES IDX 17 14 18 15 5 17 20 18 4 19 22 20 3 21 24 22 21 23 23 25
REMARK SMILES IDX 2 27 1 28 25 30
REMARK H PARENT 13 13 18 16 21 24 23 26 1 29 25 31
REMARK Flexibility Score: inf
ROOT
ATOM      1  O   UNL     1     -23.226 -19.334 -13.383  1.00  0.00    -0.310 OA
ENDROOT
BRANCH   1   2
ATOM      2  C   UNL     1     -22.406 -18.247 -13.768  1.00  0.00     0.315 C 
ATOM      3  C   UNL     1     -21.604 -15.540 -14.066  1.00  0.00     0.018 C 
ATOM      4  C   UNL     1     -21.591 -16.116 -12.861  1.00  0.00     0.186 C 
ATOM      5  C   UNL     1     -22.318 -16.160 -15.259  1.00  0.00     0.059 C 
ATOM      6  O   UNL     1     -22.163 -17.373 -12.667  1.00  0.00    -0.472 OA
ATOM      7  C   UNL     1     -23.077 -17.464 -14.912  1.00  0.00     0.105 C 
ATOM      8  C   UNL     1     -23.419 -15.230 -15.810  1.00  0.00     0.154 C 
ATOM      9  C   UNL     1     -24.520 -17.032 -14.611  1.00  0.00     0.130 C 
ATOM     10  C   UNL     1     -24.733 -15.697 -15.192  1.00  0.00     0.183 C 
ATOM     11  O   UNL     1     -24.669 -15.893 -13.792  1.00  0.00    -0.360 OA
BRANCH   8  12
ATOM     12  O   UNL     1     -23.183 -13.876 -15.518  1.00  0.00    -0.390 OA
ATOM     13  H   UNL     1     -24.070 -13.465 -15.342  1.00  0.00     0.211 HD
ENDBRANCH   8  12
BRANCH   9  14
ATOM     14  C   UNL     1     -25.722 -17.980 -14.649  1.00  0.00     0.195 C 
BRANCH  14  15
ATOM     15  O   UNL     1     -25.282 -19.305 -14.531  1.00  0.00    -0.393 OA
ATOM     16  H   UNL     1     -24.431 -19.361 -15.036  1.00  0.00     0.210 HD
ENDBRANCH  14  15
ENDBRANCH   9  14
ENDBRANCH   1   2
BRANCH   1  17
ATOM     17  C   UNL     1     -22.717 -19.981 -12.225  1.00  0.00     0.286 C 
ATOM     18  C   UNL     1     -22.310 -21.424 -12.563  1.00  0.00     0.202 C 
ATOM     19  O   UNL     1     -23.660 -19.965 -11.163  1.00  0.00    -0.341 OA
ATOM     20  C   UNL     1     -23.552 -22.262 -12.914  1.00  0.00     0.179 C 
ATOM     21  C   UNL     1     -24.870 -20.616 -11.524  1.00  0.00     0.178 C 
ATOM     22  C   UNL     1     -24.615 -22.116 -11.812  1.00  0.00     0.177 C 
BRANCH  18  23
ATOM     23  O   UNL     1     -21.410 -21.412 -13.641  1.00  0.00    -0.385 OA
ATOM     24  H   UNL     1     -21.871 -21.842 -14.409  1.00  0.00     0.211 HD
ENDBRANCH  18  23
BRANCH  20  25
ATOM     25  O   UNL     1     -23.195 -23.616 -13.036  1.00  0.00    -0.387 OA
ATOM     26  H   UNL     1     -22.614 -23.691 -13.837  1.00  0.00     0.211 HD
ENDBRANCH  20  25
BRANCH  21  27
ATOM     27  C   UNL     1     -25.864 -20.430 -10.367  1.00  0.00     0.191 C 
BRANCH  27  28
ATOM     28  O   UNL     1     -25.466 -19.367  -9.538  1.00  0.00    -0.394 OA
ATOM     29  H   UNL     1     -25.765 -19.585  -8.617  1.00  0.00     0.210 HD
ENDBRANCH  27  28
ENDBRANCH  21  27
BRANCH  22  30
ATOM     30  O   UNL     1     -25.807 -22.730 -12.233  1.00  0.00    -0.387 OA
ATOM     31  H   UNL     1     -25.606 -23.694 -12.357  1.00  0.00     0.211 HD
ENDBRANCH  22  30
ENDBRANCH   1  17
TORSDOF 10
ENDMDL
MODEL 5
REMARK VINA RESULT:     4.654      1.545      6.407
REMARK INTER + INTRA:           6.231
REMARK INTER:                   7.471
REMARK INTRA:                  -1.239
REMARK UNBOUND:                -0.328
REMARK SMILES OC[C@H]1O[C@H](O[C@@H]2OC=C[C@@H]3[C@H](O)[C@@H]4O[C@]4(CO)[C@H]23)[C@H](O)[C@@H](O)[C@@H]1O
REMARK SMILES IDX 6 1 7 2 10 3 9 4 11 5 8 6 19 7 12 8 16 9 14 10 15 11 13 12
REMARK SMILES IDX 17 14 18 15 5 17 20 18 4 19 22 20 3 21 24 22 21 23 23 25
REMARK SMILES IDX 2 27 1 28 25 30
REMARK H PARENT 13 13 18 16 21 24 23 26 1 29 25 31
REMARK Flexibility Score: inf
ROOT
ATOM      1  O   UNL     1     -23.717 -19.020 -13.561  1.00  0.00    -0.310 OA
ENDROOT
BRANCH   1   2
ATOM      2  C   UNL     1     -23.865 -17.627 -13.759  1.00  0.00     0.315 C 
ATOM      3  C   UNL     1     -23.244 -15.032 -14.730  1.00  0.00     0.018 C 
ATOM      4  C   UNL     1     -23.690 -15.973 -15.565  1.00  0.00     0.186 C 
ATOM      5  C   UNL     1     -22.754 -15.355 -13.325  1.00  0.00     0.059 C 
ATOM      6  O   UNL     1     -23.812 -17.298 -15.146  1.00  0.00    -0.472 OA
ATOM      7  C   UNL     1     -22.757 -16.870 -13.004  1.00  0.00     0.105 C 
ATOM      8  C   UNL     1     -21.281 -14.940 -13.126  1.00  0.00     0.154 C 
ATOM      9  C   UNL     1     -21.336 -17.360 -13.325  1.00  0.00     0.130 C 
ATOM     10  C   UNL     1     -20.441 -16.193 -13.357  1.00  0.00     0.183 C 
ATOM     11  O   UNL     1     -20.779 -16.898 -14.536  1.00  0.00    -0.360 OA
BRANCH   8  12
ATOM     12  O   UNL     1     -20.886 -13.907 -13.992  1.00  0.00    -0.390 OA
ATOM     13  H   UNL     1     -21.162 -13.055 -13.562  1.00  0.00     0.211 HD
ENDBRANCH   8  12
BRANCH   9  14
ATOM     14  C   UNL     1     -20.732 -18.654 -12.771  1.00  0.00     0.195 C 
BRANCH  14  15
ATOM     15  O   UNL     1     -21.626 -19.242 -11.866  1.00  0.00    -0.393 OA
ATOM     16  H   UNL     1     -21.639 -18.654 -11.068  1.00  0.00     0.210 HD
ENDBRANCH  14  15
ENDBRANCH   9  14
ENDBRANCH   1   2
BRANCH   1  17
ATOM     17  C   UNL     1     -24.974 -19.650 -13.356  1.00  0.00     0.286 C 
ATOM     18  C   UNL     1     -25.002 -20.334 -11.979  1.00  0.00     0.202 C 
ATOM     19  O   UNL     1     -25.261 -20.587 -14.384  1.00  0.00    -0.341 OA
ATOM     20  C   UNL     1     -24.013 -21.511 -11.947  1.00  0.00     0.179 C 
ATOM     21  C   UNL     1     -24.275 -21.607 -14.457  1.00  0.00     0.178 C 
ATOM     22  C   UNL     1     -24.254 -22.438 -13.151  1.00  0.00     0.177 C 
BRANCH  18  23
ATOM     23  O   UNL     1     -24.675 -19.395 -10.988  1.00  0.00    -0.385 OA
ATOM     24  H   UNL     1     -25.285 -19.558 -10.221  1.00  0.00     0.211 HD
ENDBRANCH  18  23
BRANCH  20  25
ATOM     25  O   UNL     1     -24.181 -22.243 -10.758  1.00  0.00    -0.387 OA
ATOM     26  H   UNL     1     -25.061 -22.698 -10.821  1.00  0.00     0.211 HD
ENDBRANCH  20  25
BRANCH  21  27
ATOM     27  C   UNL     1     -24.602 -22.485 -15.674  1.00  0.00     0.191 C 
BRANCH  27  28
ATOM     28  O   UNL     1     -25.355 -23.607 -15.289  1.00  0.00    -0.394 OA
ATOM     29  H   UNL     1     -26.310 -23.337 -15.297  1.00  0.00     0.210 HD
ENDBRANCH  27  28
ENDBRANCH  21  27
BRANCH  22  30
ATOM     30  O   UNL     1     -23.229 -23.397 -13.211  1.00  0.00    -0.387 OA
ATOM     31  H   UNL     1     -22.423 -22.983 -12.806  1.00  0.00     0.211 HD
ENDBRANCH  22  30
ENDBRANCH   1  17
TORSDOF 10
ENDMDL
MODEL 6
REMARK VINA RESULT:     4.671      1.277      2.681
REMARK INTER + INTRA:           6.254
REMARK INTER:                   6.895
REMARK INTRA:                  -0.641
REMARK UNBOUND:                -0.328
REMARK SMILES OC[C@H]1O[C@H](O[C@@H]2OC=C[C@@H]3[C@H](O)[C@@H]4O[C@]4(CO)[C@H]23)[C@H](O)[C@@H](O)[C@@H]1O
REMARK SMILES IDX 6 1 7 2 10 3 9 4 11 5 8 6 19 7 12 8 16 9 14 10 15 11 13 12
REMARK SMILES IDX 17 14 18 15 5 17 20 18 4 19 22 20 3 21 24 22 21 23 23 25
REMARK SMILES IDX 2 27 1 28 25 30
REMARK H PARENT 13 13 18 16 21 24 23 26 1 29 25 31
REMARK Flexibility Score: inf
ROOT
ATOM      1  O   UNL     1     -22.958 -17.591 -14.107  1.00  0.00    -0.310 OA
ENDROOT
BRANCH   1   2
ATOM      2  C   UNL     1     -22.497 -18.506 -13.132  1.00  0.00     0.315 C 
ATOM      3  C   UNL     1     -21.743 -21.012 -12.030  1.00  0.00     0.018 C 
ATOM      4  C   UNL     1     -20.974 -20.423 -12.948  1.00  0.00     0.186 C 
ATOM      5  C   UNL     1     -23.171 -20.563 -11.753  1.00  0.00     0.059 C 
ATOM      6  O   UNL     1     -21.422 -19.297 -13.637  1.00  0.00    -0.472 OA
ATOM      7  C   UNL     1     -23.650 -19.424 -12.686  1.00  0.00     0.105 C 
ATOM      8  C   UNL     1     -24.185 -21.698 -12.010  1.00  0.00     0.154 C 
ATOM      9  C   UNL     1     -24.377 -20.121 -13.847  1.00  0.00     0.130 C 
ATOM     10  C   UNL     1     -24.733 -21.482 -13.417  1.00  0.00     0.183 C 
ATOM     11  O   UNL     1     -23.733 -21.253 -14.391  1.00  0.00    -0.360 OA
BRANCH   8  12
ATOM     12  O   UNL     1     -23.613 -22.976 -11.887  1.00  0.00    -0.390 OA
ATOM     13  H   UNL     1     -24.163 -23.588 -12.443  1.00  0.00     0.211 HD
ENDBRANCH   8  12
BRANCH   9  14
ATOM     14  C   UNL     1     -25.380 -19.424 -14.770  1.00  0.00     0.195 C 
BRANCH  14  15
ATOM     15  O   UNL     1     -26.062 -18.428 -14.059  1.00  0.00    -0.393 OA
ATOM     16  H   UNL     1     -27.008 -18.475 -14.354  1.00  0.00     0.210 HD
ENDBRANCH  14  15
ENDBRANCH   9  14
ENDBRANCH   1   2
BRANCH   1  17
ATOM     17  C   UNL     1     -23.561 -16.454 -13.506  1.00  0.00     0.286 C 
ATOM     18  C   UNL     1     -24.222 -15.577 -14.582  1.00  0.00     0.202 C 
ATOM     19  O   UNL     1     -22.618 -15.699 -12.759  1.00  0.00    -0.341 OA
ATOM     20  C   UNL     1     -23.154 -14.961 -15.501  1.00  0.00     0.179 C 
ATOM     21  C   UNL     1     -21.548 -15.240 -13.572  1.00  0.00     0.178 C 
ATOM     22  C   UNL     1     -22.069 -14.268 -14.659  1.00  0.00     0.177 C 
BRANCH  18  23
ATOM     23  O   UNL     1     -25.117 -16.358 -15.332  1.00  0.00    -0.385 OA
ATOM     24  H   UNL     1     -24.570 -16.960 -15.901  1.00  0.00     0.211 HD
ENDBRANCH  18  23
BRANCH  20  25
ATOM     25  O   UNL     1     -23.747 -14.017 -16.357  1.00  0.00    -0.387 OA
ATOM     26  H   UNL     1     -23.084 -13.292 -16.493  1.00  0.00     0.211 HD
ENDBRANCH  20  25
BRANCH  21  27
ATOM     27  C   UNL     1     -20.525 -14.555 -12.653  1.00  0.00     0.191 C 
BRANCH  27  28
ATOM     28  O   UNL     1     -19.478 -13.996 -13.405  1.00  0.00    -0.394 OA
ATOM     29  H   UNL     1     -19.210 -13.153 -12.956  1.00  0.00     0.210 HD
ENDBRANCH  27  28
ENDBRANCH  21  27
BRANCH  22  30
ATOM     30  O   UNL     1     -21.010 -13.877 -15.496  1.00  0.00    -0.387 OA
ATOM     31  H   UNL     1     -21.319 -13.078 -15.997  1.00  0.00     0.211 HD
ENDBRANCH  22  30
ENDBRANCH   1  17
TORSDOF 10
ENDMDL
MODEL 7
REMARK VINA RESULT:     6.092      1.933      4.086
REMARK INTER + INTRA:           8.258
REMARK INTER:                   6.535
REMARK INTRA:                   1.723
REMARK UNBOUND:                -0.328
REMARK SMILES OC[C@H]1O[C@H](O[C@@H]2OC=C[C@@H]3[C@H](O)[C@@H]4O[C@]4(CO)[C@H]23)[C@H](O)[C@@H](O)[C@@H]1O
REMARK SMILES IDX 6 1 7 2 10 3 9 4 11 5 8 6 19 7 12 8 16 9 14 10 15 11 13 12
REMARK SMILES IDX 17 14 18 15 5 17 20 18 4 19 22 20 3 21 24 22 21 23 23 25
REMARK SMILES IDX 2 27 1 28 25 30
REMARK H PARENT 13 13 18 16 21 24 23 26 1 29 25 31
REMARK Flexibility Score: inf
ROOT
ATOM      1  O   UNL     1     -23.507 -20.725 -11.423  1.00  0.00    -0.310 OA
ENDROOT
BRANCH   1   2
ATOM      2  C   UNL     1     -24.629 -21.201 -12.143  1.00  0.00     0.315 C 
ATOM      3  C   UNL     1     -26.384 -23.099 -13.316  1.00  0.00     0.018 C 
ATOM      4  C   UNL     1     -26.330 -22.964 -11.989  1.00  0.00     0.186 C 
ATOM      5  C   UNL     1     -25.331 -22.504 -14.240  1.00  0.00     0.059 C 
ATOM      6  O   UNL     1     -25.341 -22.182 -11.392  1.00  0.00    -0.472 OA
ATOM      7  C   UNL     1     -24.173 -21.805 -13.484  1.00  0.00     0.105 C 
ATOM      8  C   UNL     1     -24.621 -23.593 -15.071  1.00  0.00     0.154 C 
ATOM      9  C   UNL     1     -23.071 -22.867 -13.348  1.00  0.00     0.130 C 
ATOM     10  C   UNL     1     -23.325 -23.925 -14.339  1.00  0.00     0.183 C 
ATOM     11  O   UNL     1     -23.494 -24.153 -12.953  1.00  0.00    -0.360 OA
BRANCH   8  12
ATOM     12  O   UNL     1     -25.408 -24.744 -15.242  1.00  0.00    -0.390 OA
ATOM     13  H   UNL     1     -25.852 -24.917 -14.371  1.00  0.00     0.211 HD
ENDBRANCH   8  12
BRANCH   9  14
ATOM     14  C   UNL     1     -21.600 -22.542 -13.075  1.00  0.00     0.195 C 
BRANCH  14  15
ATOM     15  O   UNL     1     -21.334 -21.215 -13.437  1.00  0.00    -0.393 OA
ATOM     16  H   UNL     1     -22.088 -20.676 -13.085  1.00  0.00     0.210 HD
ENDBRANCH  14  15
ENDBRANCH   9  14
ENDBRANCH   1   2
BRANCH   1  17
ATOM     17  C   UNL     1     -23.673 -19.366 -11.044  1.00  0.00     0.286 C 
ATOM     18  C   UNL     1     -24.933 -18.785 -11.706  1.00  0.00     0.202 C 
ATOM     19  O   UNL     1     -22.532 -18.590 -11.377  1.00  0.00    -0.341 OA
ATOM     20  C   UNL     1     -24.746 -18.701 -13.231  1.00  0.00     0.179 C 
ATOM     21  C   UNL     1     -22.263 -18.618 -12.772  1.00  0.00     0.178 C 
ATOM     22  C   UNL     1     -23.430 -17.977 -13.563  1.00  0.00     0.177 C 
BRANCH  18  23
ATOM     23  O   UNL     1     -26.037 -19.594 -11.395  1.00  0.00    -0.385 OA
ATOM     24  H   UNL     1     -25.679 -20.468 -11.088  1.00  0.00     0.211 HD
ENDBRANCH  18  23
BRANCH  20  25
ATOM     25  O   UNL     1     -25.819 -17.998 -13.806  1.00  0.00    -0.387 OA
ATOM     26  H   UNL     1     -26.530 -18.663 -13.998  1.00  0.00     0.211 HD
ENDBRANCH  20  25
BRANCH  21  27
ATOM     27  C   UNL     1     -20.946 -17.866 -13.009  1.00  0.00     0.191 C 
BRANCH  27  28
ATOM     28  O   UNL     1     -21.184 -16.637 -13.647  1.00  0.00    -0.394 OA
ATOM     29  H   UNL     1     -20.468 -16.012 -13.359  1.00  0.00     0.210 HD
ENDBRANCH  27  28
ENDBRANCH  21  27
BRANCH  22  30
ATOM     30  O   UNL     1     -23.181 -18.075 -14.942  1.00  0.00    -0.387 OA
ATOM     31  H   UNL     1     -22.495 -17.391 -15.160  1.00  0.00     0.211 HD
ENDBRANCH  22  30
ENDBRANCH   1  17
TORSDOF 10
ENDMDL
