MODEL 1
REMARK VINA RESULT:    -3.719      0.000      0.000
REMARK INTER + INTRA:          -5.460
REMARK INTER:                  -5.676
REMARK INTRA:                   0.215
REMARK UNBOUND:                 0.215
REMARK SMILES CC1=CCC[C@H](C)C(=O)C[C@@H](C(C)C)C(=O)C1
REMARK SMILES IDX 8 1 9 2 6 3 7 4 5 5 4 6 3 7 2 8 1 9 10 11 11 12 15 13 16 14
REMARK SMILES IDX 17 15 12 17 13 18 14 19
REMARK H PARENT
REMARK Flexibility Score: 70.00
ROOT
ATOM      1  C   UNL     1       4.076  16.607  -5.600  1.00  0.00     0.136 C 
ATOM      2  O   UNL     1       5.235  16.221  -5.544  1.00  0.00    -0.299 OA
ENDROOT
BRANCH   1   3
ATOM      3  C   UNL     1       2.990  15.847  -4.865  1.00  0.00     0.053 C 
ATOM      4  C   UNL     1       1.619  16.302  -5.373  1.00  0.00     0.016 C 
BRANCH   3   5
ATOM      5  C   UNL     1       3.143  14.318  -5.032  1.00  0.00     0.015 C 
BRANCH   5   6
ATOM      6  C   UNL     1       2.741  13.815  -6.427  1.00  0.00     0.028 C 
BRANCH   6   7
ATOM      7  C   UNL     1       3.956  13.491  -7.264  1.00  0.00    -0.028 C 
ATOM      8  C   UNL     1       4.291  14.081  -8.434  1.00  0.00    -0.070 CG0
ATOM      9  C   UNL     1       5.552  13.622  -9.120  1.00  0.00     0.039 C 
ATOM     10  G   UNL     1       3.485  15.201  -9.064  1.00  0.00     0.000 G0
ENDBRANCH   6   7
ENDBRANCH   5   6
ENDBRANCH   3   5
ENDBRANCH   1   3
BRANCH   1  11
ATOM     11  C   UNL     1       3.748  17.812  -6.442  1.00  0.00     0.087 C 
BRANCH  11  12
ATOM     12  C   UNL     1       2.996  17.422  -7.741  1.00  0.00     0.066 C 
BRANCH  12  13
ATOM     13  C   UNL     1       3.902  16.553  -8.600  1.00  0.00     0.140 C 
ATOM     14  O   UNL     1       4.974  17.000  -8.985  1.00  0.00    -0.299 OA
BRANCH  13  15
ATOM     15  C   UNL     1       3.471  15.186  -9.067  1.00  0.00     0.106 CG0
ATOM     16  G   UNL     1       4.298  14.098  -8.410  1.00  0.00     0.000 G0
ENDBRANCH  13  15
ENDBRANCH  12  13
BRANCH  12  17
ATOM     17  C   UNL     1       2.516  18.672  -8.550  1.00  0.00    -0.006 C 
ATOM     18  C   UNL     1       0.992  18.870  -8.430  1.00  0.00     0.008 C 
ATOM     19  C   UNL     1       3.215  19.967  -8.089  1.00  0.00     0.008 C 
ENDBRANCH  12  17
ENDBRANCH  11  12
ENDBRANCH   1  11
TORSDOF 1
ENDMDL
MODEL 2
REMARK VINA RESULT:    -3.511      1.945      4.717
REMARK INTER + INTRA:          -5.143
REMARK INTER:                  -5.847
REMARK INTRA:                   0.704
REMARK UNBOUND:                 0.215
REMARK SMILES CC1=CCC[C@H](C)C(=O)C[C@@H](C(C)C)C(=O)C1
REMARK SMILES IDX 8 1 9 2 6 3 7 4 5 5 4 6 3 7 2 8 1 9 10 11 11 12 15 13 16 14
REMARK SMILES IDX 17 15 12 17 13 18 14 19
REMARK H PARENT
REMARK Flexibility Score: 70.00
ROOT
ATOM      1  C   UNL     1       1.971  16.610  -8.958  1.00  0.00     0.136 C 
ATOM      2  O   UNL     1       1.007  15.869  -9.094  1.00  0.00    -0.299 OA
ENDROOT
BRANCH   1   3
ATOM      3  C   UNL     1       1.790  18.111  -9.056  1.00  0.00     0.053 C 
ATOM      4  C   UNL     1       0.440  18.499  -8.447  1.00  0.00     0.016 C 
BRANCH   3   5
ATOM      5  C   UNL     1       2.934  18.876  -8.352  1.00  0.00     0.015 C 
BRANCH   5   6
ATOM      6  C   UNL     1       2.656  19.157  -6.868  1.00  0.00     0.028 C 
BRANCH   6   7
ATOM      7  C   UNL     1       3.634  18.427  -5.978  1.00  0.00    -0.028 C 
ATOM      8  C   UNL     1       3.539  17.136  -5.590  1.00  0.00    -0.070 CG0
ATOM      9  C   UNL     1       4.624  16.584  -4.701  1.00  0.00     0.039 C 
ATOM     10  G   UNL     1       2.422  16.212  -6.034  1.00  0.00     0.000 G0
ENDBRANCH   6   7
ENDBRANCH   5   6
ENDBRANCH   3   5
ENDBRANCH   1   3
BRANCH   1  11
ATOM     11  C   UNL     1       3.332  16.004  -8.738  1.00  0.00     0.087 C 
BRANCH  11  12
ATOM     12  C   UNL     1       3.245  14.637  -8.011  1.00  0.00     0.066 C 
BRANCH  12  13
ATOM     13  C   UNL     1       2.962  14.873  -6.536  1.00  0.00     0.140 C 
ATOM     14  O   UNL     1       3.108  13.952  -5.742  1.00  0.00    -0.299 OA
BRANCH  13  15
ATOM     15  C   UNL     1       2.417  16.187  -6.037  1.00  0.00     0.106 CG0
ATOM     16  G   UNL     1       3.535  17.108  -5.592  1.00  0.00     0.000 G0
ENDBRANCH  13  15
ENDBRANCH  12  13
BRANCH  12  17
ATOM     17  C   UNL     1       4.545  13.785  -8.186  1.00  0.00    -0.006 C 
ATOM     18  C   UNL     1       4.305  12.568  -9.101  1.00  0.00     0.008 C 
ATOM     19  C   UNL     1       5.709  14.612  -8.768  1.00  0.00     0.008 C 
ENDBRANCH  12  17
ENDBRANCH  11  12
ENDBRANCH   1  11
TORSDOF 1
ENDMDL
MODEL 3
REMARK VINA RESULT:    -3.167      1.893      4.342
REMARK INTER + INTRA:          -4.618
REMARK INTER:                  -5.312
REMARK INTRA:                   0.695
REMARK UNBOUND:                 0.215
REMARK SMILES CC1=CCC[C@H](C)C(=O)C[C@@H](C(C)C)C(=O)C1
REMARK SMILES IDX 8 1 9 2 6 3 7 4 5 5 4 6 3 7 2 8 1 9 10 11 11 12 15 13 16 14
REMARK SMILES IDX 17 15 12 17 13 18 14 19
REMARK H PARENT
REMARK Flexibility Score: 70.00
ROOT
ATOM      1  C   UNL     1       1.538  17.143  -7.953  1.00  0.00     0.136 C 
ATOM      2  O   UNL     1       0.722  16.933  -7.068  1.00  0.00    -0.299 OA
ENDROOT
BRANCH   1   3
ATOM      3  C   UNL     1       2.135  18.527  -8.118  1.00  0.00     0.053 C 
ATOM      4  C   UNL     1       1.144  19.421  -8.868  1.00  0.00     0.016 C 
BRANCH   3   5
ATOM      5  C   UNL     1       2.503  19.160  -6.756  1.00  0.00     0.015 C 
BRANCH   5   6
ATOM      6  C   UNL     1       3.758  18.546  -6.119  1.00  0.00     0.028 C 
BRANCH   6   7
ATOM      7  C   UNL     1       3.420  17.310  -5.319  1.00  0.00    -0.028 C 
ATOM      8  C   UNL     1       3.896  16.066  -5.547  1.00  0.00    -0.070 CG0
ATOM      9  C   UNL     1       3.443  14.958  -4.629  1.00  0.00     0.039 C 
ATOM     10  G   UNL     1       4.886  15.739  -6.647  1.00  0.00     0.000 G0
ENDBRANCH   6   7
ENDBRANCH   5   6
ENDBRANCH   3   5
ENDBRANCH   1   3
BRANCH   1  11
ATOM     11  C   UNL     1       1.901  16.024  -8.893  1.00  0.00     0.087 C 
BRANCH  11  12
ATOM     12  C   UNL     1       2.895  15.026  -8.245  1.00  0.00     0.066 C 
BRANCH  12  13
ATOM     13  C   UNL     1       4.219  15.731  -7.995  1.00  0.00     0.140 C 
ATOM     14  O   UNL     1       4.804  16.260  -8.931  1.00  0.00    -0.299 OA
BRANCH  13  15
ATOM     15  C   UNL     1       4.876  15.717  -6.639  1.00  0.00     0.106 CG0
ATOM     16  G   UNL     1       3.884  16.067  -5.547  1.00  0.00     0.000 G0
ENDBRANCH  13  15
ENDBRANCH  12  13
BRANCH  12  17
ATOM     17  C   UNL     1       3.117  13.750  -9.124  1.00  0.00    -0.006 C 
ATOM     18  C   UNL     1       4.417  13.018  -8.738  1.00  0.00     0.008 C 
ATOM     19  C   UNL     1       1.944  12.756  -9.012  1.00  0.00     0.008 C 
ENDBRANCH  12  17
ENDBRANCH  11  12
ENDBRANCH   1  11
TORSDOF 1
ENDMDL
MODEL 4
REMARK VINA RESULT:    -3.161      1.438      3.393
REMARK INTER + INTRA:          -4.609
REMARK INTER:                  -5.837
REMARK INTRA:                   1.228
REMARK UNBOUND:                 0.215
REMARK SMILES CC1=CCC[C@H](C)C(=O)C[C@@H](C(C)C)C(=O)C1
REMARK SMILES IDX 8 1 9 2 6 3 7 4 5 5 4 6 3 7 2 8 1 9 10 11 11 12 15 13 16 14
REMARK SMILES IDX 17 15 12 17 13 18 14 19
REMARK H PARENT
REMARK Flexibility Score: 70.00
ROOT
ATOM      1  C   UNL     1       4.957  15.015  -9.006  1.00  0.00     0.136 C 
ATOM      2  O   UNL     1       6.066  15.525  -9.084  1.00  0.00    -0.299 OA
ENDROOT
BRANCH   1   3
ATOM      3  C   UNL     1       4.808  13.511  -9.123  1.00  0.00     0.053 C 
ATOM      4  C   UNL     1       6.058  12.832  -8.556  1.00  0.00     0.016 C 
BRANCH   3   5
ATOM      5  C   UNL     1       3.544  13.000  -8.394  1.00  0.00     0.015 C 
BRANCH   5   6
ATOM      6  C   UNL     1       3.700  12.948  -6.867  1.00  0.00     0.028 C 
BRANCH   6   7
ATOM      7  C   UNL     1       2.707  13.857  -6.182  1.00  0.00    -0.028 C 
ATOM      8  C   UNL     1       2.939  15.129  -5.789  1.00  0.00    -0.070 CG0
ATOM      9  C   UNL     1       1.812  15.879  -5.124  1.00  0.00     0.039 C 
ATOM     10  G   UNL     1       4.255  15.846  -6.017  1.00  0.00     0.000 G0
ENDBRANCH   6   7
ENDBRANCH   5   6
ENDBRANCH   3   5
ENDBRANCH   1   3
BRANCH   1  11
ATOM     11  C   UNL     1       3.754  15.905  -8.838  1.00  0.00     0.087 C 
BRANCH  11  12
ATOM     12  C   UNL     1       4.132  17.276  -8.219  1.00  0.00     0.066 C 
BRANCH  12  13
ATOM     13  C   UNL     1       4.093  17.167  -6.702  1.00  0.00     0.140 C 
ATOM     14  O   UNL     1       3.996  18.186  -6.030  1.00  0.00    -0.299 OA
BRANCH  13  15
ATOM     15  C   UNL     1       4.262  15.843  -6.002  1.00  0.00     0.106 CG0
ATOM     16  G   UNL     1       2.927  15.151  -5.812  1.00  0.00     0.000 G0
ENDBRANCH  13  15
ENDBRANCH  12  13
BRANCH  12  17
ATOM     17  C   UNL     1       3.193  18.428  -8.706  1.00  0.00    -0.006 C 
ATOM     18  C   UNL     1       1.782  18.303  -8.098  1.00  0.00     0.008 C 
ATOM     19  C   UNL     1       3.753  19.822  -8.356  1.00  0.00     0.008 C 
ENDBRANCH  12  17
ENDBRANCH  11  12
ENDBRANCH   1  11
TORSDOF 1
ENDMDL
MODEL 5
REMARK VINA RESULT:    -2.956      2.008      4.912
REMARK INTER + INTRA:          -4.296
REMARK INTER:                  -5.082
REMARK INTRA:                   0.786
REMARK UNBOUND:                 0.215
REMARK SMILES CC1=CCC[C@H](C)C(=O)C[C@@H](C(C)C)C(=O)C1
REMARK SMILES IDX 8 1 9 2 6 3 7 4 5 5 4 6 3 7 2 8 1 9 10 11 11 12 15 13 16 14
REMARK SMILES IDX 17 15 12 17 13 18 14 19
REMARK H PARENT
REMARK Flexibility Score: 70.00
ROOT
ATOM      1  C   UNL     1       1.260  16.786  -7.947  1.00  0.00     0.136 C 
ATOM      2  O   UNL     1       0.853  16.959  -6.807  1.00  0.00    -0.299 OA
ENDROOT
BRANCH   1   3
ATOM      3  C   UNL     1       0.659  17.578  -9.092  1.00  0.00     0.053 C 
ATOM      4  C   UNL     1      -0.855  17.352  -9.125  1.00  0.00     0.016 C 
BRANCH   3   5
ATOM      5  C   UNL     1       0.973  19.087  -8.976  1.00  0.00     0.015 C 
BRANCH   5   6
ATOM      6  C   UNL     1       2.477  19.398  -8.988  1.00  0.00     0.028 C 
BRANCH   6   7
ATOM      7  C   UNL     1       2.993  19.674  -7.596  1.00  0.00    -0.028 C 
ATOM      8  C   UNL     1       3.811  18.869  -6.882  1.00  0.00    -0.070 CG0
ATOM      9  C   UNL     1       4.223  19.325  -5.504  1.00  0.00     0.039 C 
ATOM     10  G   UNL     1       4.362  17.559  -7.410  1.00  0.00     0.000 G0
ENDBRANCH   6   7
ENDBRANCH   5   6
ENDBRANCH   3   5
ENDBRANCH   1   3
BRANCH   1  11
ATOM     11  C   UNL     1       2.328  15.753  -8.193  1.00  0.00     0.087 C 
BRANCH  11  12
ATOM     12  C   UNL     1       3.039  15.335  -6.880  1.00  0.00     0.066 C 
BRANCH  12  13
ATOM     13  C   UNL     1       4.060  16.397  -6.504  1.00  0.00     0.140 C 
ATOM     14  O   UNL     1       4.583  16.362  -5.398  1.00  0.00    -0.299 OA
BRANCH  13  15
ATOM     15  C   UNL     1       4.376  17.547  -7.425  1.00  0.00     0.106 CG0
ATOM     16  G   UNL     1       3.846  18.854  -6.869  1.00  0.00     0.000 G0
ENDBRANCH  13  15
ENDBRANCH  12  13
BRANCH  12  17
ATOM     17  C   UNL     1       3.728  13.935  -6.996  1.00  0.00    -0.006 C 
ATOM     18  C   UNL     1       2.690  12.802  -7.110  1.00  0.00     0.008 C 
ATOM     19  C   UNL     1       4.678  13.852  -8.208  1.00  0.00     0.008 C 
ENDBRANCH  12  17
ENDBRANCH  11  12
ENDBRANCH   1  11
TORSDOF 1
ENDMDL
MODEL 6
REMARK VINA RESULT:    -2.781      1.806      3.575
REMARK INTER + INTRA:          -4.028
REMARK INTER:                  -4.993
REMARK INTRA:                   0.965
REMARK UNBOUND:                 0.215
REMARK SMILES CC1=CCC[C@H](C)C(=O)C[C@@H](C(C)C)C(=O)C1
REMARK SMILES IDX 8 1 9 2 6 3 7 4 5 5 4 6 3 7 2 8 1 9 10 11 11 12 15 13 16 14
REMARK SMILES IDX 17 15 12 17 13 18 14 19
REMARK H PARENT
REMARK Flexibility Score: 70.00
ROOT
ATOM      1  C   UNL     1       4.115  15.816  -8.764  1.00  0.00     0.136 C 
ATOM      2  O   UNL     1       5.270  16.050  -9.092  1.00  0.00    -0.299 OA
ENDROOT
BRANCH   1   3
ATOM      3  C   UNL     1       3.768  14.491  -8.116  1.00  0.00     0.053 C 
ATOM      4  C   UNL     1       4.321  13.347  -8.970  1.00  0.00     0.016 C 
BRANCH   3   5
ATOM      5  C   UNL     1       4.316  14.395  -6.673  1.00  0.00     0.015 C 
BRANCH   5   6
ATOM      6  C   UNL     1       4.208  15.713  -5.892  1.00  0.00     0.028 C 
BRANCH   6   7
ATOM      7  C   UNL     1       2.974  15.736  -5.023  1.00  0.00    -0.028 C 
ATOM      8  C   UNL     1       1.794  16.316  -5.339  1.00  0.00    -0.070 CG0
ATOM      9  C   UNL     1       0.672  16.226  -4.336  1.00  0.00     0.039 C 
ATOM     10  G   UNL     1       1.535  17.015  -6.660  1.00  0.00     0.000 G0
ENDBRANCH   6   7
ENDBRANCH   5   6
ENDBRANCH   3   5
ENDBRANCH   1   3
BRANCH   1  11
ATOM     11  C   UNL     1       3.051  16.841  -9.055  1.00  0.00     0.087 C 
BRANCH  11  12
ATOM     12  C   UNL     1       3.284  18.154  -8.263  1.00  0.00     0.066 C 
BRANCH  12  13
ATOM     13  C   UNL     1       2.541  18.078  -6.939  1.00  0.00     0.140 C 
ATOM     14  O   UNL     1       2.828  18.862  -6.043  1.00  0.00    -0.299 OA
BRANCH  13  15
ATOM     15  C   UNL     1       1.521  17.002  -6.667  1.00  0.00     0.106 CG0
ATOM     16  G   UNL     1       1.777  16.332  -5.332  1.00  0.00     0.000 G0
ENDBRANCH  13  15
ENDBRANCH  12  13
BRANCH  12  17
ATOM     17  C   UNL     1       2.837  19.421  -9.066  1.00  0.00    -0.006 C 
ATOM     18  C   UNL     1       1.303  19.572  -9.073  1.00  0.00     0.008 C 
ATOM     19  C   UNL     1       3.453  20.716  -8.500  1.00  0.00     0.008 C 
ENDBRANCH  12  17
ENDBRANCH  11  12
ENDBRANCH   1  11
TORSDOF 1
ENDMDL
MODEL 7
REMARK VINA RESULT:    -2.484      2.217      3.738
REMARK INTER + INTRA:          -3.576
REMARK INTER:                  -5.604
REMARK INTRA:                   2.027
REMARK UNBOUND:                 0.215
REMARK SMILES CC1=CCC[C@H](C)C(=O)C[C@@H](C(C)C)C(=O)C1
REMARK SMILES IDX 8 1 9 2 6 3 7 4 5 5 4 6 3 7 2 8 1 9 10 11 11 12 15 13 16 14
REMARK SMILES IDX 17 15 12 17 13 18 14 19
REMARK H PARENT
REMARK Flexibility Score: 70.00
ROOT
ATOM      1  C   UNL     1       2.701  13.106  -7.231  1.00  0.00     0.136 C 
ATOM      2  O   UNL     1       2.440  13.106  -6.037  1.00  0.00    -0.299 OA
ENDROOT
BRANCH   1   3
ATOM      3  C   UNL     1       3.339  11.886  -7.865  1.00  0.00     0.053 C 
ATOM      4  C   UNL     1       2.249  10.870  -8.218  1.00  0.00     0.016 C 
BRANCH   3   5
ATOM      5  C   UNL     1       4.157  12.253  -9.124  1.00  0.00     0.015 C 
BRANCH   5   6
ATOM      6  C   UNL     1       5.610  12.641  -8.815  1.00  0.00     0.028 C 
BRANCH   6   7
ATOM      7  C   UNL     1       5.949  12.387  -7.365  1.00  0.00    -0.028 C 
ATOM      8  C   UNL     1       6.011  13.324  -6.392  1.00  0.00    -0.070 CG0
ATOM      9  C   UNL     1       6.362  12.870  -4.997  1.00  0.00     0.039 C 
ATOM     10  G   UNL     1       5.710  14.791  -6.625  1.00  0.00     0.000 G0
ENDBRANCH   6   7
ENDBRANCH   5   6
ENDBRANCH   3   5
ENDBRANCH   1   3
BRANCH   1  11
ATOM     11  C   UNL     1       2.419  14.344  -8.041  1.00  0.00     0.087 C 
BRANCH  11  12
ATOM     12  C   UNL     1       3.432  15.477  -7.735  1.00  0.00     0.066 C 
BRANCH  12  13
ATOM     13  C   UNL     1       4.253  15.098  -6.513  1.00  0.00     0.140 C 
ATOM     14  O   UNL     1       3.725  15.108  -5.408  1.00  0.00    -0.299 OA
BRANCH  13  15
ATOM     15  C   UNL     1       5.727  14.797  -6.614  1.00  0.00     0.106 CG0
ATOM     16  G   UNL     1       6.001  13.325  -6.380  1.00  0.00     0.000 G0
ENDBRANCH  13  15
ENDBRANCH  12  13
BRANCH  12  17
ATOM     17  C   UNL     1       2.733  16.859  -7.512  1.00  0.00    -0.006 C 
ATOM     18  C   UNL     1       3.535  18.008  -8.153  1.00  0.00     0.008 C 
ATOM     19  C   UNL     1       1.301  16.885  -8.084  1.00  0.00     0.008 C 
ENDBRANCH  12  17
ENDBRANCH  11  12
ENDBRANCH   1  11
TORSDOF 1
ENDMDL
MODEL 8
REMARK VINA RESULT:    -2.473      1.874      4.134
REMARK INTER + INTRA:          -3.559
REMARK INTER:                  -4.977
REMARK INTRA:                   1.418
REMARK UNBOUND:                 0.215
REMARK SMILES CC1=CCC[C@H](C)C(=O)C[C@@H](C(C)C)C(=O)C1
REMARK SMILES IDX 8 1 9 2 6 3 7 4 5 5 4 6 3 7 2 8 1 9 10 11 11 12 15 13 16 14
REMARK SMILES IDX 17 15 12 17 13 18 14 19
REMARK H PARENT
REMARK Flexibility Score: 70.00
ROOT
ATOM      1  C   UNL     1       2.199  15.743  -6.068  1.00  0.00     0.136 C 
ATOM      2  O   UNL     1       2.160  15.422  -4.888  1.00  0.00    -0.299 OA
ENDROOT
BRANCH   1   3
ATOM      3  C   UNL     1       2.007  17.194  -6.463  1.00  0.00     0.053 C 
ATOM      4  C   UNL     1       3.016  18.063  -5.708  1.00  0.00     0.016 C 
BRANCH   3   5
ATOM      5  C   UNL     1       2.157  17.399  -7.987  1.00  0.00     0.015 C 
BRANCH   5   6
ATOM      6  C   UNL     1       3.531  17.953  -8.394  1.00  0.00     0.028 C 
BRANCH   6   7
ATOM      7  C   UNL     1       4.398  16.877  -9.003  1.00  0.00    -0.028 C 
ATOM      8  C   UNL     1       5.061  15.915  -8.322  1.00  0.00    -0.070 CG0
ATOM      9  C   UNL     1       5.873  14.921  -9.114  1.00  0.00     0.039 C 
ATOM     10  G   UNL     1       4.996  15.765  -6.815  1.00  0.00     0.000 G0
ENDBRANCH   6   7
ENDBRANCH   5   6
ENDBRANCH   3   5
ENDBRANCH   1   3
BRANCH   1  11
ATOM     11  C   UNL     1       2.397  14.673  -7.109  1.00  0.00     0.087 C 
BRANCH  11  12
ATOM     12  C   UNL     1       3.448  13.623  -6.665  1.00  0.00     0.066 C 
BRANCH  12  13
ATOM     13  C   UNL     1       4.769  14.323  -6.390  1.00  0.00     0.140 C 
ATOM     14  O   UNL     1       5.638  13.737  -5.757  1.00  0.00    -0.299 OA
BRANCH  13  15
ATOM     15  C   UNL     1       5.003  15.755  -6.798  1.00  0.00     0.106 CG0
ATOM     16  G   UNL     1       5.053  15.892  -8.307  1.00  0.00     0.000 G0
ENDBRANCH  13  15
ENDBRANCH  12  13
BRANCH  12  17
ATOM     17  C   UNL     1       3.643  12.490  -7.727  1.00  0.00    -0.006 C 
ATOM     18  C   UNL     1       3.147  11.130  -7.199  1.00  0.00     0.008 C 
ATOM     19  C   UNL     1       2.910  12.798  -9.048  1.00  0.00     0.008 C 
ENDBRANCH  12  17
ENDBRANCH  11  12
ENDBRANCH   1  11
TORSDOF 1
ENDMDL
MODEL 9
REMARK VINA RESULT:    -2.340      2.090      4.191
REMARK INTER + INTRA:          -3.356
REMARK INTER:                  -5.050
REMARK INTRA:                   1.694
REMARK UNBOUND:                 0.215
REMARK SMILES CC1=CCC[C@H](C)C(=O)C[C@@H](C(C)C)C(=O)C1
REMARK SMILES IDX 8 1 9 2 6 3 7 4 5 5 4 6 3 7 2 8 1 9 10 11 11 12 15 13 16 14
REMARK SMILES IDX 17 15 12 17 13 18 14 19
REMARK H PARENT
REMARK Flexibility Score: 70.00
ROOT
ATOM      1  C   UNL     1       4.437  14.710  -6.637  1.00  0.00     0.136 C 
ATOM      2  O   UNL     1       5.490  14.529  -6.042  1.00  0.00    -0.299 OA
ENDROOT
BRANCH   1   3
ATOM      3  C   UNL     1       4.350  14.421  -8.123  1.00  0.00     0.053 C 
ATOM      4  C   UNL     1       3.448  13.204  -8.350  1.00  0.00     0.016 C 
BRANCH   3   5
ATOM      5  C   UNL     1       3.818  15.637  -8.915  1.00  0.00     0.015 C 
BRANCH   5   6
ATOM      6  C   UNL     1       4.720  16.875  -8.808  1.00  0.00     0.028 C 
BRANCH   6   7
ATOM      7  C   UNL     1       3.908  18.149  -8.830  1.00  0.00    -0.028 C 
ATOM      8  C   UNL     1       3.782  19.024  -7.807  1.00  0.00    -0.070 CG0
ATOM      9  C   UNL     1       2.928  20.248  -8.027  1.00  0.00     0.039 C 
ATOM     10  G   UNL     1       4.482  18.856  -6.473  1.00  0.00     0.000 G0
ENDBRANCH   6   7
ENDBRANCH   5   6
ENDBRANCH   3   5
ENDBRANCH   1   3
BRANCH   1  11
ATOM     11  C   UNL     1       3.256  15.260  -5.882  1.00  0.00     0.087 C 
BRANCH  11  12
ATOM     12  C   UNL     1       2.947  16.726  -6.282  1.00  0.00     0.066 C 
BRANCH  12  13
ATOM     13  C   UNL     1       4.027  17.636  -5.719  1.00  0.00     0.140 C 
ATOM     14  O   UNL     1       4.498  17.397  -4.615  1.00  0.00    -0.299 OA
BRANCH  13  15
ATOM     15  C   UNL     1       4.468  18.880  -6.447  1.00  0.00     0.106 CG0
ATOM     16  G   UNL     1       3.763  19.011  -7.782  1.00  0.00     0.000 G0
ENDBRANCH  13  15
ENDBRANCH  12  13
BRANCH  12  17
ATOM     17  C   UNL     1       1.535  17.191  -5.794  1.00  0.00    -0.006 C 
ATOM     18  C   UNL     1       0.535  17.281  -6.963  1.00  0.00     0.008 C 
ATOM     19  C   UNL     1       0.950  16.250  -4.722  1.00  0.00     0.008 C 
ENDBRANCH  12  17
ENDBRANCH  11  12
ENDBRANCH   1  11
TORSDOF 1
ENDMDL
