MODEL 1
REMARK VINA RESULT:    28.358      0.000      0.000
REMARK INTER + INTRA:          34.504
REMARK INTER:                  34.160
REMARK INTRA:                   0.343
REMARK UNBOUND:                 0.343
REMARK SMILES O=c1c(O)c(-c2ccc(O)c(O)c2)oc2cc(O)cc(O)c12
REMARK SMILES IDX 5 1 3 2 2 3 1 4 22 5 20 6 19 7 17 8 16 9 15 10 14 11 6 12
REMARK SMILES IDX 7 13 8 14 9 15 13 16 11 17 10 18 12 20 4 22 21 24 18 26
REMARK H PARENT 10 19 12 21 4 23 21 25 18 27
REMARK Flexibility Score: inf
ROOT
ATOM      1  C   UNL     1     -25.773  29.497   6.360  1.00  0.00     0.180 A 
ATOM      2  C   UNL     1     -24.516  28.946   6.675  1.00  0.00     0.208 A 
ATOM      3  C   UNL     1     -23.630  29.689   7.470  1.00  0.00     0.238 A 
ATOM      4  O   UNL     1     -22.505  29.201   7.767  1.00  0.00    -0.285 OA
ATOM      5  C   UNL     1     -24.004  30.972   7.918  1.00  0.00     0.111 A 
ATOM      6  C   UNL     1     -23.168  31.787   8.719  1.00  0.00     0.134 A 
ATOM      7  C   UNL     1     -23.609  33.058   9.118  1.00  0.00     0.093 A 
ATOM      8  C   UNL     1     -24.869  33.528   8.730  1.00  0.00     0.123 A 
ATOM      9  C   UNL     1     -25.697  32.728   7.941  1.00  0.00     0.094 A 
ATOM     10  C   UNL     1     -25.276  31.459   7.535  1.00  0.00     0.146 A 
ATOM     11  O   UNL     1     -26.086  30.717   6.788  1.00  0.00    -0.452 OA
ENDROOT
BRANCH   1  12
ATOM     12  C   UNL     1     -26.770  28.768   5.543  1.00  0.00     0.025 A 
ATOM     13  C   UNL     1     -26.332  27.843   4.583  1.00  0.00     0.016 A 
ATOM     14  C   UNL     1     -27.254  27.159   3.786  1.00  0.00     0.051 A 
ATOM     15  C   UNL     1     -28.624  27.399   3.926  1.00  0.00     0.157 A 
ATOM     16  C   UNL     1     -28.147  29.024   5.667  1.00  0.00     0.062 A 
ATOM     17  C   UNL     1     -29.074  28.340   4.867  1.00  0.00     0.158 A 
BRANCH  15  18
ATOM     18  O   UNL     1     -29.520  26.699   3.119  1.00  0.00    -0.504 OA
ATOM     19  H   UNL     1     -30.065  27.157   2.398  1.00  0.00     0.293 HD
ENDBRANCH  15  18
BRANCH  17  20
ATOM     20  O   UNL     1     -30.438  28.593   5.003  1.00  0.00    -0.504 OA
ATOM     21  H   UNL     1     -30.977  29.013   4.254  1.00  0.00     0.293 HD
ENDBRANCH  17  20
ENDBRANCH   1  12
BRANCH   2  22
ATOM     22  O   UNL     1     -24.150  27.693   6.176  1.00  0.00    -0.502 OA
ATOM     23  H   UNL     1     -23.279  27.538   5.683  1.00  0.00     0.293 HD
ENDBRANCH   2  22
BRANCH   6  24
ATOM     24  O   UNL     1     -21.906  31.346   9.121  1.00  0.00    -0.507 OA
ATOM     25  H   UNL     1     -21.381  30.670   8.579  1.00  0.00     0.293 HD
ENDBRANCH   6  24
BRANCH   8  26
ATOM     26  O   UNL     1     -25.307  34.791   9.124  1.00  0.00    -0.508 OA
ATOM     27  H   UNL     1     -24.803  35.335   9.814  1.00  0.00     0.293 HD
ENDBRANCH   8  26
TORSDOF 6
ENDMDL
MODEL 2
REMARK VINA RESULT:    29.713     10.950     13.862
REMARK INTER + INTRA:          36.136
REMARK INTER:                  36.337
REMARK INTRA:                  -0.201
REMARK UNBOUND:                 0.343
REMARK SMILES O=c1c(O)c(-c2ccc(O)c(O)c2)oc2cc(O)cc(O)c12
REMARK SMILES IDX 5 1 3 2 2 3 1 4 22 5 20 6 19 7 17 8 16 9 15 10 14 11 6 12
REMARK SMILES IDX 7 13 8 14 9 15 13 16 11 17 10 18 12 20 4 22 21 24 18 26
REMARK H PARENT 10 19 12 21 4 23 21 25 18 27
REMARK Flexibility Score: inf
ROOT
ATOM      1  C   UNL     1     -33.027  31.538  -2.706  1.00  0.00     0.180 A 
ATOM      2  C   UNL     1     -33.382  31.666  -1.350  1.00  0.00     0.208 A 
ATOM      3  C   UNL     1     -34.707  31.408  -0.967  1.00  0.00     0.238 A 
ATOM      4  O   UNL     1     -35.034  31.510   0.247  1.00  0.00    -0.285 OA
ATOM      5  C   UNL     1     -35.657  31.047  -1.945  1.00  0.00     0.111 A 
ATOM      6  C   UNL     1     -37.013  30.774  -1.644  1.00  0.00     0.134 A 
ATOM      7  C   UNL     1     -37.899  30.429  -2.675  1.00  0.00     0.093 A 
ATOM      8  C   UNL     1     -37.455  30.353  -4.000  1.00  0.00     0.123 A 
ATOM      9  C   UNL     1     -36.119  30.621  -4.302  1.00  0.00     0.094 A 
ATOM     10  C   UNL     1     -35.220  30.965  -3.288  1.00  0.00     0.146 A 
ATOM     11  O   UNL     1     -33.953  31.209  -3.603  1.00  0.00    -0.452 OA
ENDROOT
BRANCH   1  12
ATOM     12  C   UNL     1     -31.646  31.774  -3.185  1.00  0.00     0.025 A 
ATOM     13  C   UNL     1     -30.622  30.893  -2.803  1.00  0.00     0.016 A 
ATOM     14  C   UNL     1     -29.308  31.109  -3.226  1.00  0.00     0.051 A 
ATOM     15  C   UNL     1     -28.994  32.214  -4.022  1.00  0.00     0.157 A 
ATOM     16  C   UNL     1     -31.325  32.897  -3.968  1.00  0.00     0.062 A 
ATOM     17  C   UNL     1     -30.006  33.116  -4.392  1.00  0.00     0.158 A 
BRANCH  15  18
ATOM     18  O   UNL     1     -27.674  32.402  -4.431  1.00  0.00    -0.504 OA
ATOM     19  H   UNL     1     -27.328  33.305  -4.733  1.00  0.00     0.293 HD
ENDBRANCH  15  18
BRANCH  17  20
ATOM     20  O   UNL     1     -29.697  34.228  -5.175  1.00  0.00    -0.504 OA
ATOM     21  H   UNL     1     -28.816  34.718  -5.077  1.00  0.00     0.293 HD
ENDBRANCH  17  20
ENDBRANCH   1  12
BRANCH   2  22
ATOM     22  O   UNL     1     -32.433  32.075  -0.408  1.00  0.00    -0.502 OA
ATOM     23  H   UNL     1     -32.336  33.040  -0.119  1.00  0.00     0.293 HD
ENDBRANCH   2  22
BRANCH   6  24
ATOM     24  O   UNL     1     -37.485  30.843  -0.332  1.00  0.00    -0.507 OA
ATOM     25  H   UNL     1     -37.745  30.011   0.184  1.00  0.00     0.293 HD
ENDBRANCH   6  24
BRANCH   8  26
ATOM     26  O   UNL     1     -38.335  30.013  -5.026  1.00  0.00    -0.508 OA
ATOM     27  H   UNL     1     -38.008  29.588  -5.885  1.00  0.00     0.293 HD
ENDBRANCH   8  26
TORSDOF 6
ENDMDL
MODEL 3
REMARK VINA RESULT:    30.411     10.094     13.498
REMARK INTER + INTRA:          36.977
REMARK INTER:                  36.904
REMARK INTRA:                   0.073
REMARK UNBOUND:                 0.343
REMARK SMILES O=c1c(O)c(-c2ccc(O)c(O)c2)oc2cc(O)cc(O)c12
REMARK SMILES IDX 5 1 3 2 2 3 1 4 22 5 20 6 19 7 17 8 16 9 15 10 14 11 6 12
REMARK SMILES IDX 7 13 8 14 9 15 13 16 11 17 10 18 12 20 4 22 21 24 18 26
REMARK H PARENT 10 19 12 21 4 23 21 25 18 27
REMARK Flexibility Score: inf
ROOT
ATOM      1  C   UNL     1     -38.191  24.629   7.003  1.00  0.00     0.180 A 
ATOM      2  C   UNL     1     -37.486  24.506   5.790  1.00  0.00     0.208 A 
ATOM      3  C   UNL     1     -36.510  25.463   5.472  1.00  0.00     0.238 A 
ATOM      4  O   UNL     1     -35.865  25.358   4.393  1.00  0.00    -0.285 OA
ATOM      5  C   UNL     1     -36.271  26.535   6.357  1.00  0.00     0.111 A 
ATOM      6  C   UNL     1     -35.309  27.544   6.109  1.00  0.00     0.134 A 
ATOM      7  C   UNL     1     -35.135  28.583   7.035  1.00  0.00     0.093 A 
ATOM      8  C   UNL     1     -35.906  28.632   8.202  1.00  0.00     0.123 A 
ATOM      9  C   UNL     1     -36.855  27.640   8.451  1.00  0.00     0.094 A 
ATOM     10  C   UNL     1     -37.042  26.595   7.542  1.00  0.00     0.146 A 
ATOM     11  O   UNL     1     -37.948  25.661   7.806  1.00  0.00    -0.452 OA
ENDROOT
BRANCH   1  12
ATOM     12  C   UNL     1     -39.221  23.649   7.418  1.00  0.00     0.025 A 
ATOM     13  C   UNL     1     -39.188  23.123   8.718  1.00  0.00     0.016 A 
ATOM     14  C   UNL     1     -40.137  22.181   9.125  1.00  0.00     0.051 A 
ATOM     15  C   UNL     1     -41.123  21.742   8.236  1.00  0.00     0.157 A 
ATOM     16  C   UNL     1     -40.199  23.191   6.519  1.00  0.00     0.062 A 
ATOM     17  C   UNL     1     -41.152  22.245   6.924  1.00  0.00     0.158 A 
BRANCH  15  18
ATOM     18  O   UNL     1     -42.058  20.804   8.671  1.00  0.00    -0.504 OA
ATOM     19  H   UNL     1     -42.232  20.634   9.654  1.00  0.00     0.293 HD
ENDBRANCH  15  18
BRANCH  17  20
ATOM     20  O   UNL     1     -42.124  21.800   6.028  1.00  0.00    -0.504 OA
ATOM     21  H   UNL     1     -42.259  20.815   5.837  1.00  0.00     0.293 HD
ENDBRANCH  17  20
ENDBRANCH   1  12
BRANCH   2  22
ATOM     22  O   UNL     1     -37.777  23.463   4.907  1.00  0.00    -0.502 OA
ATOM     23  H   UNL     1     -38.542  22.817   5.063  1.00  0.00     0.293 HD
ENDBRANCH   2  22
BRANCH   6  24
ATOM     24  O   UNL     1     -34.526  27.521   4.953  1.00  0.00    -0.507 OA
ATOM     25  H   UNL     1     -34.866  27.887   4.072  1.00  0.00     0.293 HD
ENDBRANCH   6  24
BRANCH   8  26
ATOM     26  O   UNL     1     -35.736  29.666   9.122  1.00  0.00    -0.508 OA
ATOM     27  H   UNL     1     -36.194  30.561   9.003  1.00  0.00     0.293 HD
ENDBRANCH   8  26
TORSDOF 6
ENDMDL
MODEL 4
REMARK VINA RESULT:    31.319      1.516      6.633
REMARK INTER + INTRA:          38.070
REMARK INTER:                  38.012
REMARK INTRA:                   0.058
REMARK UNBOUND:                 0.343
REMARK SMILES O=c1c(O)c(-c2ccc(O)c(O)c2)oc2cc(O)cc(O)c12
REMARK SMILES IDX 5 1 3 2 2 3 1 4 22 5 20 6 19 7 17 8 16 9 15 10 14 11 6 12
REMARK SMILES IDX 7 13 8 14 9 15 13 16 11 17 10 18 12 20 4 22 21 24 18 26
REMARK H PARENT 10 19 12 21 4 23 21 25 18 27
REMARK Flexibility Score: inf
ROOT
ATOM      1  C   UNL     1     -23.982  30.725   7.375  1.00  0.00     0.180 A 
ATOM      2  C   UNL     1     -23.205  29.655   7.858  1.00  0.00     0.208 A 
ATOM      3  C   UNL     1     -23.462  28.361   7.381  1.00  0.00     0.238 A 
ATOM      4  O   UNL     1     -22.766  27.395   7.799  1.00  0.00    -0.285 OA
ATOM      5  C   UNL     1     -24.499  28.155   6.448  1.00  0.00     0.111 A 
ATOM      6  C   UNL     1     -24.825  26.882   5.920  1.00  0.00     0.134 A 
ATOM      7  C   UNL     1     -25.877  26.758   5.001  1.00  0.00     0.093 A 
ATOM      8  C   UNL     1     -26.610  27.881   4.602  1.00  0.00     0.123 A 
ATOM      9  C   UNL     1     -26.292  29.138   5.119  1.00  0.00     0.094 A 
ATOM     10  C   UNL     1     -25.246  29.283   6.034  1.00  0.00     0.146 A 
ATOM     11  O   UNL     1     -24.962  30.491   6.506  1.00  0.00    -0.452 OA
ENDROOT
BRANCH   1  12
ATOM     12  C   UNL     1     -23.760  32.121   7.816  1.00  0.00     0.025 A 
ATOM     13  C   UNL     1     -22.455  32.636   7.849  1.00  0.00     0.016 A 
ATOM     14  C   UNL     1     -22.219  33.943   8.282  1.00  0.00     0.051 A 
ATOM     15  C   UNL     1     -23.281  34.751   8.701  1.00  0.00     0.157 A 
ATOM     16  C   UNL     1     -24.824  32.927   8.258  1.00  0.00     0.062 A 
ATOM     17  C   UNL     1     -24.590  34.240   8.695  1.00  0.00     0.158 A 
BRANCH  15  18
ATOM     18  O   UNL     1     -23.016  36.052   9.125  1.00  0.00    -0.504 OA
ATOM     19  H   UNL     1     -23.339  36.862   8.609  1.00  0.00     0.293 HD
ENDBRANCH  15  18
BRANCH  17  20
ATOM     20  O   UNL     1     -25.651  35.035   9.124  1.00  0.00    -0.504 OA
ATOM     21  H   UNL     1     -26.375  35.344   8.486  1.00  0.00     0.293 HD
ENDBRANCH  17  20
ENDBRANCH   1  12
BRANCH   2  22
ATOM     22  O   UNL     1     -22.217  29.878   8.821  1.00  0.00    -0.502 OA
ATOM     23  H   UNL     1     -22.437  30.109   9.782  1.00  0.00     0.293 HD
ENDBRANCH   2  22
BRANCH   6  24
ATOM     24  O   UNL     1     -24.112  25.743   6.300  1.00  0.00    -0.507 OA
ATOM     25  H   UNL     1     -23.347  25.789   6.962  1.00  0.00     0.293 HD
ENDBRANCH   6  24
BRANCH   8  26
ATOM     26  O   UNL     1     -27.657  27.759   3.690  1.00  0.00    -0.508 OA
ATOM     27  H   UNL     1     -28.364  27.040   3.790  1.00  0.00     0.293 HD
ENDBRANCH   8  26
TORSDOF 6
ENDMDL
