MODEL 1
REMARK VINA RESULT:    -4.045      0.000      0.000
REMARK INTER + INTRA:          -5.874
REMARK INTER:                  -5.463
REMARK INTRA:                  -0.411
REMARK UNBOUND:                -0.411
REMARK SMILES CCCCCCCC(=O)[O-]
REMARK SMILES IDX 5 1 6 2 7 3 8 4 9 5 10 6 4 7 3 8 2 9 1 10
REMARK H PARENT
REMARK Flexibility Score: inf
ROOT
ATOM      1  C   UNL     1      -5.076 -35.554  53.402  1.00  0.00     0.000 C 
ENDROOT
BRANCH   1   2
ATOM      2  C   UNL     1      -5.248 -34.654  52.160  1.00  0.00     0.006 C 
BRANCH   2   3
ATOM      3  C   UNL     1      -4.777 -33.215  52.409  1.00  0.00     0.053 C 
BRANCH   3   4
ATOM      4  C   UNL     1      -5.500 -32.264  51.509  1.00  0.00     0.041 C 
ATOM      5  O   UNL     1      -6.485 -32.659  50.831  1.00  0.00    -0.550 OA
ATOM      6  O   UNL     1      -5.056 -30.954  51.379  1.00  0.00    -0.550 OA
ENDBRANCH   3   4
ENDBRANCH   2   3
ENDBRANCH   1   2
BRANCH   1   7
ATOM      7  C   UNL     1      -4.551 -34.807  54.643  1.00  0.00     0.000 C 
BRANCH   7   8
ATOM      8  C   UNL     1      -3.495 -35.570  55.464  1.00  0.00    -0.000 C 
BRANCH   8   9
ATOM      9  C   UNL     1      -2.123 -35.712  54.779  1.00  0.00    -0.003 C 
ATOM     10  C   UNL     1      -1.690 -34.445  54.043  1.00  0.00     0.004 C 
ENDBRANCH   8   9
ENDBRANCH   7   8
ENDBRANCH   1   7
TORSDOF 6
ENDMDL
MODEL 2
REMARK VINA RESULT:    -4.026      2.922      4.873
REMARK INTER + INTRA:          -5.850
REMARK INTER:                  -5.522
REMARK INTRA:                  -0.328
REMARK UNBOUND:                -0.411
REMARK SMILES CCCCCCCC(=O)[O-]
REMARK SMILES IDX 5 1 6 2 7 3 8 4 9 5 10 6 4 7 3 8 2 9 1 10
REMARK H PARENT
REMARK Flexibility Score: inf
ROOT
ATOM      1  C   UNL     1      -5.244 -35.435  53.532  1.00  0.00     0.000 C 
ENDROOT
BRANCH   1   2
ATOM      2  C   UNL     1      -4.292 -34.836  54.589  1.00  0.00     0.006 C 
BRANCH   2   3
ATOM      3  C   UNL     1      -3.124 -35.773  54.924  1.00  0.00     0.053 C 
BRANCH   3   4
ATOM      4  C   UNL     1      -1.819 -35.128  54.581  1.00  0.00     0.041 C 
ATOM      5  O   UNL     1      -1.749 -34.315  53.622  1.00  0.00    -0.550 OA
ATOM      6  O   UNL     1      -0.670 -35.461  55.287  1.00  0.00    -0.550 OA
ENDBRANCH   3   4
ENDBRANCH   2   3
ENDBRANCH   1   2
BRANCH   1   7
ATOM      7  C   UNL     1      -5.340 -34.601  52.240  1.00  0.00     0.000 C 
BRANCH   7   8
ATOM      8  C   UNL     1      -4.756 -33.180  52.337  1.00  0.00    -0.000 C 
BRANCH   8   9
ATOM      9  C   UNL     1      -5.497 -32.117  51.506  1.00  0.00    -0.003 C 
ATOM     10  C   UNL     1      -6.179 -32.698  50.267  1.00  0.00     0.004 C 
ENDBRANCH   8   9
ENDBRANCH   7   8
ENDBRANCH   1   7
TORSDOF 6
ENDMDL
MODEL 3
REMARK VINA RESULT:    -3.994      9.514     11.274
REMARK INTER + INTRA:          -5.806
REMARK INTER:                  -5.273
REMARK INTRA:                  -0.533
REMARK UNBOUND:                -0.411
REMARK SMILES CCCCCCCC(=O)[O-]
REMARK SMILES IDX 5 1 6 2 7 3 8 4 9 5 10 6 4 7 3 8 2 9 1 10
REMARK H PARENT
REMARK Flexibility Score: inf
ROOT
ATOM      1  C   UNL     1      -8.774 -32.709  41.274  1.00  0.00     0.000 C 
ENDROOT
BRANCH   1   2
ATOM      2  C   UNL     1      -7.523 -32.848  42.167  1.00  0.00     0.006 C 
BRANCH   2   3
ATOM      3  C   UNL     1      -7.244 -31.581  42.986  1.00  0.00     0.053 C 
BRANCH   3   4
ATOM      4  C   UNL     1      -6.956 -31.933  44.412  1.00  0.00     0.041 C 
ATOM      5  O   UNL     1      -7.842 -32.478  45.120  1.00  0.00    -0.550 OA
ATOM      6  O   UNL     1      -5.726 -31.612  44.973  1.00  0.00    -0.550 OA
ENDBRANCH   3   4
ENDBRANCH   2   3
ENDBRANCH   1   2
BRANCH   1   7
ATOM      7  C   UNL     1      -9.932 -33.643  41.675  1.00  0.00     0.000 C 
BRANCH   7   8
ATOM      8  C   UNL     1     -10.628 -33.285  43.001  1.00  0.00    -0.000 C 
BRANCH   8   9
ATOM      9  C   UNL     1     -10.584 -34.388  44.074  1.00  0.00    -0.003 C 
ATOM     10  C   UNL     1      -9.589 -35.500  43.745  1.00  0.00     0.004 C 
ENDBRANCH   8   9
ENDBRANCH   7   8
ENDBRANCH   1   7
TORSDOF 6
ENDMDL
MODEL 4
REMARK VINA RESULT:    -3.961      9.051     11.615
REMARK INTER + INTRA:          -5.762
REMARK INTER:                  -5.302
REMARK INTRA:                  -0.460
REMARK UNBOUND:                -0.411
REMARK SMILES CCCCCCCC(=O)[O-]
REMARK SMILES IDX 5 1 6 2 7 3 8 4 9 5 10 6 4 7 3 8 2 9 1 10
REMARK H PARENT
REMARK Flexibility Score: inf
ROOT
ATOM      1  C   UNL     1      -7.942 -31.415  41.269  1.00  0.00     0.000 C 
ENDROOT
BRANCH   1   2
ATOM      2  C   UNL     1      -7.484 -31.020  42.689  1.00  0.00     0.006 C 
BRANCH   2   3
ATOM      3  C   UNL     1      -7.139 -32.239  43.554  1.00  0.00     0.053 C 
BRANCH   3   4
ATOM      4  C   UNL     1      -6.790 -31.813  44.945  1.00  0.00     0.041 C 
ATOM      5  O   UNL     1      -7.698 -31.629  45.797  1.00  0.00    -0.550 OA
ATOM      6  O   UNL     1      -5.465 -31.569  45.286  1.00  0.00    -0.550 OA
ENDBRANCH   3   4
ENDBRANCH   2   3
ENDBRANCH   1   2
BRANCH   1   7
ATOM      7  C   UNL     1      -8.101 -32.934  41.068  1.00  0.00     0.000 C 
BRANCH   7   8
ATOM      8  C   UNL     1      -9.557 -33.430  40.982  1.00  0.00    -0.000 C 
BRANCH   8   9
ATOM      9  C   UNL     1     -10.028 -34.262  42.189  1.00  0.00    -0.003 C 
ATOM     10  C   UNL     1     -10.712 -33.418  43.264  1.00  0.00     0.004 C 
ENDBRANCH   8   9
ENDBRANCH   7   8
ENDBRANCH   1   7
TORSDOF 6
ENDMDL
MODEL 5
REMARK VINA RESULT:    -3.937     11.052     11.942
REMARK INTER + INTRA:          -5.729
REMARK INTER:                  -5.476
REMARK INTRA:                  -0.253
REMARK UNBOUND:                -0.411
REMARK SMILES CCCCCCCC(=O)[O-]
REMARK SMILES IDX 5 1 6 2 7 3 8 4 9 5 10 6 4 7 3 8 2 9 1 10
REMARK H PARENT
REMARK Flexibility Score: inf
ROOT
ATOM      1  C   UNL     1     -10.358 -33.698  43.504  1.00  0.00     0.000 C 
ENDROOT
BRANCH   1   2
ATOM      2  C   UNL     1      -9.859 -34.307  42.176  1.00  0.00     0.006 C 
BRANCH   2   3
ATOM      3  C   UNL     1      -9.675 -33.250  41.079  1.00  0.00     0.053 C 
BRANCH   3   4
ATOM      4  C   UNL     1      -8.291 -32.684  41.125  1.00  0.00     0.041 C 
ATOM      5  O   UNL     1      -7.293 -33.452  41.119  1.00  0.00    -0.550 OA
ATOM      6  O   UNL     1      -8.103 -31.311  41.224  1.00  0.00    -0.550 OA
ENDBRANCH   3   4
ENDBRANCH   2   3
ENDBRANCH   1   2
BRANCH   1   7
ATOM      7  C   UNL     1     -10.553 -34.735  44.628  1.00  0.00     0.000 C 
BRANCH   7   8
ATOM      8  C   UNL     1     -10.100 -36.164  44.280  1.00  0.00    -0.000 C 
BRANCH   8   9
ATOM      9  C   UNL     1     -11.001 -37.282  44.837  1.00  0.00    -0.003 C 
ATOM     10  C   UNL     1     -11.373 -38.328  43.787  1.00  0.00     0.004 C 
ENDBRANCH   8   9
ENDBRANCH   7   8
ENDBRANCH   1   7
TORSDOF 6
ENDMDL
MODEL 6
REMARK VINA RESULT:    -3.933     10.335     11.822
REMARK INTER + INTRA:          -5.724
REMARK INTER:                  -5.315
REMARK INTRA:                  -0.409
REMARK UNBOUND:                -0.411
REMARK SMILES CCCCCCCC(=O)[O-]
REMARK SMILES IDX 5 1 6 2 7 3 8 4 9 5 10 6 4 7 3 8 2 9 1 10
REMARK H PARENT
REMARK Flexibility Score: inf
ROOT
ATOM      1  C   UNL     1     -10.310 -33.551  42.037  1.00  0.00     0.000 C 
ENDROOT
BRANCH   1   2
ATOM      2  C   UNL     1     -10.014 -34.797  42.898  1.00  0.00     0.006 C 
BRANCH   2   3
ATOM      3  C   UNL     1     -10.397 -34.597  44.370  1.00  0.00     0.053 C 
BRANCH   3   4
ATOM      4  C   UNL     1     -10.435 -35.911  45.084  1.00  0.00     0.041 C 
ATOM      5  O   UNL     1     -11.194 -36.070  46.076  1.00  0.00    -0.550 OA
ATOM      6  O   UNL     1      -9.595 -36.944  44.687  1.00  0.00    -0.550 OA
ENDBRANCH   3   4
ENDBRANCH   2   3
ENDBRANCH   1   2
BRANCH   1   7
ATOM      7  C   UNL     1      -9.345 -33.374  40.848  1.00  0.00     0.000 C 
BRANCH   7   8
ATOM      8  C   UNL     1      -7.885 -33.074  41.235  1.00  0.00    -0.000 C 
BRANCH   8   9
ATOM      9  C   UNL     1      -7.697 -31.857  42.158  1.00  0.00    -0.003 C 
ATOM     10  C   UNL     1      -7.204 -32.237  43.554  1.00  0.00     0.004 C 
ENDBRANCH   8   9
ENDBRANCH   7   8
ENDBRANCH   1   7
TORSDOF 6
ENDMDL
MODEL 7
REMARK VINA RESULT:    -3.878      8.641     11.129
REMARK INTER + INTRA:          -5.649
REMARK INTER:                  -5.205
REMARK INTRA:                  -0.444
REMARK UNBOUND:                -0.411
REMARK SMILES CCCCCCCC(=O)[O-]
REMARK SMILES IDX 5 1 6 2 7 3 8 4 9 5 10 6 4 7 3 8 2 9 1 10
REMARK H PARENT
REMARK Flexibility Score: inf
ROOT
ATOM      1  C   UNL     1     -10.447 -33.585  43.479  1.00  0.00     0.000 C 
ENDROOT
BRANCH   1   2
ATOM      2  C   UNL     1      -9.555 -33.898  44.700  1.00  0.00     0.006 C 
BRANCH   2   3
ATOM      3  C   UNL     1      -8.510 -32.805  44.957  1.00  0.00     0.053 C 
BRANCH   3   4
ATOM      4  C   UNL     1      -8.571 -32.347  46.380  1.00  0.00     0.041 C 
ATOM      5  O   UNL     1      -8.647 -31.119  46.646  1.00  0.00    -0.550 OA
ATOM      6  O   UNL     1      -8.495 -33.272  47.413  1.00  0.00    -0.550 OA
ENDBRANCH   3   4
ENDBRANCH   2   3
ENDBRANCH   1   2
BRANCH   1   7
ATOM      7  C   UNL     1     -10.053 -34.360  42.207  1.00  0.00     0.000 C 
BRANCH   7   8
ATOM      8  C   UNL     1      -9.557 -33.487  41.040  1.00  0.00    -0.000 C 
BRANCH   8   9
ATOM      9  C   UNL     1      -8.093 -33.025  41.157  1.00  0.00    -0.003 C 
ATOM     10  C   UNL     1      -7.960 -31.527  41.428  1.00  0.00     0.004 C 
ENDBRANCH   8   9
ENDBRANCH   7   8
ENDBRANCH   1   7
TORSDOF 6
ENDMDL
MODEL 8
REMARK VINA RESULT:    -3.810     10.336     11.977
REMARK INTER + INTRA:          -5.557
REMARK INTER:                  -5.259
REMARK INTRA:                  -0.298
REMARK UNBOUND:                -0.411
REMARK SMILES CCCCCCCC(=O)[O-]
REMARK SMILES IDX 5 1 6 2 7 3 8 4 9 5 10 6 4 7 3 8 2 9 1 10
REMARK H PARENT
REMARK Flexibility Score: inf
ROOT
ATOM      1  C   UNL     1     -10.107 -33.638  43.481  1.00  0.00     0.000 C 
ENDROOT
BRANCH   1   2
ATOM      2  C   UNL     1     -10.009 -34.684  44.612  1.00  0.00     0.006 C 
BRANCH   2   3
ATOM      3  C   UNL     1     -10.321 -36.105  44.124  1.00  0.00     0.053 C 
BRANCH   3   4
ATOM      4  C   UNL     1      -9.455 -37.102  44.827  1.00  0.00     0.041 C 
ATOM      5  O   UNL     1      -8.487 -37.635  44.225  1.00  0.00    -0.550 OA
ATOM      6  O   UNL     1      -9.747 -37.479  46.132  1.00  0.00    -0.550 OA
ENDBRANCH   3   4
ENDBRANCH   2   3
ENDBRANCH   1   2
BRANCH   1   7
ATOM      7  C   UNL     1     -10.130 -34.251  42.067  1.00  0.00     0.000 C 
BRANCH   7   8
ATOM      8  C   UNL     1      -9.628 -33.323  40.947  1.00  0.00    -0.000 C 
BRANCH   8   9
ATOM      9  C   UNL     1      -8.319 -32.577  41.263  1.00  0.00    -0.003 C 
ATOM     10  C   UNL     1      -7.078 -33.453  41.097  1.00  0.00     0.004 C 
ENDBRANCH   8   9
ENDBRANCH   7   8
ENDBRANCH   1   7
TORSDOF 6
ENDMDL
MODEL 9
REMARK VINA RESULT:    -3.807      8.314     10.698
REMARK INTER + INTRA:          -5.553
REMARK INTER:                  -5.168
REMARK INTRA:                  -0.385
REMARK UNBOUND:                -0.411
REMARK SMILES CCCCCCCC(=O)[O-]
REMARK SMILES IDX 5 1 6 2 7 3 8 4 9 5 10 6 4 7 3 8 2 9 1 10
REMARK H PARENT
REMARK Flexibility Score: inf
ROOT
ATOM      1  C   UNL     1      -9.467 -33.990  44.791  1.00  0.00     0.000 C 
ENDROOT
BRANCH   1   2
ATOM      2  C   UNL     1      -8.760 -32.825  45.517  1.00  0.00     0.006 C 
BRANCH   2   3
ATOM      3  C   UNL     1      -7.616 -32.227  44.689  1.00  0.00     0.053 C 
BRANCH   3   4
ATOM      4  C   UNL     1      -6.445 -31.911  45.565  1.00  0.00     0.041 C 
ATOM      5  O   UNL     1      -6.473 -32.205  46.789  1.00  0.00    -0.550 OA
ATOM      6  O   UNL     1      -5.343 -31.247  45.041  1.00  0.00    -0.550 OA
ENDBRANCH   3   4
ENDBRANCH   2   3
ENDBRANCH   1   2
BRANCH   1   7
ATOM      7  C   UNL     1     -10.280 -33.550  43.558  1.00  0.00     0.000 C 
BRANCH   7   8
ATOM      8  C   UNL     1      -9.970 -34.325  42.265  1.00  0.00    -0.000 C 
BRANCH   8   9
ATOM      9  C   UNL     1      -9.443 -33.462  41.104  1.00  0.00    -0.003 C 
ATOM     10  C   UNL     1      -7.931 -33.244  41.162  1.00  0.00     0.004 C 
ENDBRANCH   8   9
ENDBRANCH   7   8
ENDBRANCH   1   7
TORSDOF 6
ENDMDL
