MODEL 1
REMARK VINA RESULT:    -2.852      0.000      0.000
REMARK INTER + INTRA:          -3.468
REMARK INTER:                  -3.435
REMARK INTRA:                  -0.033
REMARK UNBOUND:                -0.033
REMARK SMILES CCCCCO
REMARK SMILES IDX 4 1 3 2 2 3 1 4 5 5 6 6
REMARK H PARENT 6 7
REMARK Flexibility Score: inf
ROOT
ATOM      1  C   UNL     1     145.766 128.905 116.867  1.00  0.00     0.028 C 
ENDROOT
BRANCH   1   2
ATOM      2  C   UNL     1     145.832 127.470 116.328  1.00  0.00     0.002 C 
BRANCH   2   3
ATOM      3  C   UNL     1     145.611 127.443 114.811  1.00  0.00    -0.003 C 
ATOM      4  C   UNL     1     145.406 128.849 114.256  1.00  0.00     0.004 C 
ENDBRANCH   2   3
ENDBRANCH   1   2
BRANCH   1   5
ATOM      5  C   UNL     1     145.265 128.946 118.315  1.00  0.00     0.156 C 
BRANCH   5   6
ATOM      6  O   UNL     1     146.091 129.755 119.108  1.00  0.00    -0.396 OA
ATOM      7  H   UNL     1     145.768 129.660 120.043  1.00  0.00     0.210 HD
ENDBRANCH   5   6
ENDBRANCH   1   5
TORSDOF 4
ENDMDL
MODEL 2
REMARK VINA RESULT:    -2.687      1.340      1.372
REMARK INTER + INTRA:          -3.270
REMARK INTER:                  -3.240
REMARK INTRA:                  -0.030
REMARK UNBOUND:                -0.033
REMARK SMILES CCCCCO
REMARK SMILES IDX 4 1 3 2 2 3 1 4 5 5 6 6
REMARK H PARENT 6 7
REMARK Flexibility Score: inf
ROOT
ATOM      1  C   UNL     1     145.717 127.876 116.746  1.00  0.00     0.028 C 
ENDROOT
BRANCH   1   2
ATOM      2  C   UNL     1     146.002 126.875 115.619  1.00  0.00     0.002 C 
BRANCH   2   3
ATOM      3  C   UNL     1     145.703 127.492 114.247  1.00  0.00    -0.003 C 
ATOM      4  C   UNL     1     145.449 128.992 114.359  1.00  0.00     0.004 C 
ENDBRANCH   2   3
ENDBRANCH   1   2
BRANCH   1   5
ATOM      5  C   UNL     1     145.349 127.169 118.055  1.00  0.00     0.156 C 
BRANCH   5   6
ATOM      6  O   UNL     1     146.337 127.373 119.029  1.00  0.00    -0.396 OA
ATOM      7  H   UNL     1     146.313 126.581 119.629  1.00  0.00     0.210 HD
ENDBRANCH   5   6
ENDBRANCH   1   5
TORSDOF 4
ENDMDL
MODEL 3
REMARK VINA RESULT:    -2.677      2.604      3.010
REMARK INTER + INTRA:          -3.258
REMARK INTER:                  -3.249
REMARK INTRA:                  -0.009
REMARK UNBOUND:                -0.033
REMARK SMILES CCCCCO
REMARK SMILES IDX 4 1 3 2 2 3 1 4 5 5 6 6
REMARK H PARENT 6 7
REMARK Flexibility Score: inf
ROOT
ATOM      1  C   UNL     1     145.455 131.266 116.096  1.00  0.00     0.028 C 
ENDROOT
BRANCH   1   2
ATOM      2  C   UNL     1     146.109 129.994 115.542  1.00  0.00     0.002 C 
BRANCH   2   3
ATOM      3  C   UNL     1     145.192 129.302 114.527  1.00  0.00    -0.003 C 
ATOM      4  C   UNL     1     145.625 127.860 114.284  1.00  0.00     0.004 C 
ENDBRANCH   2   3
ENDBRANCH   1   2
BRANCH   1   5
ATOM      5  C   UNL     1     146.288 132.515 115.788  1.00  0.00     0.156 C 
BRANCH   5   6
ATOM      6  O   UNL     1     146.805 133.075 116.966  1.00  0.00    -0.396 OA
ATOM      7  H   UNL     1     147.789 132.944 116.934  1.00  0.00     0.210 HD
ENDBRANCH   5   6
ENDBRANCH   1   5
TORSDOF 4
ENDMDL
MODEL 4
REMARK VINA RESULT:    -2.657     14.707     15.175
REMARK INTER + INTRA:          -3.234
REMARK INTER:                  -3.192
REMARK INTRA:                  -0.042
REMARK UNBOUND:                -0.033
REMARK SMILES CCCCCO
REMARK SMILES IDX 4 1 3 2 2 3 1 4 5 5 6 6
REMARK H PARENT 6 7
REMARK Flexibility Score: inf
ROOT
ATOM      1  C   UNL     1     145.556 144.515 115.779  1.00  0.00     0.028 C 
ENDROOT
BRANCH   1   2
ATOM      2  C   UNL     1     146.632 143.444 115.998  1.00  0.00     0.002 C 
BRANCH   2   3
ATOM      3  C   UNL     1     146.952 142.710 114.691  1.00  0.00    -0.003 C 
ATOM      4  C   UNL     1     146.139 141.425 114.565  1.00  0.00     0.004 C 
ENDBRANCH   2   3
ENDBRANCH   1   2
BRANCH   1   5
ATOM      5  C   UNL     1     144.231 144.137 116.450  1.00  0.00     0.156 C 
BRANCH   5   6
ATOM      6  O   UNL     1     143.573 145.276 116.937  1.00  0.00    -0.396 OA
ATOM      7  H   UNL     1     142.608 145.048 116.985  1.00  0.00     0.210 HD
ENDBRANCH   5   6
ENDBRANCH   1   5
TORSDOF 4
ENDMDL
MODEL 5
REMARK VINA RESULT:    -2.585      1.928      2.271
REMARK INTER + INTRA:          -3.147
REMARK INTER:                  -3.131
REMARK INTRA:                  -0.017
REMARK UNBOUND:                -0.033
REMARK SMILES CCCCCO
REMARK SMILES IDX 4 1 3 2 2 3 1 4 5 5 6 6
REMARK H PARENT 6 7
REMARK Flexibility Score: inf
ROOT
ATOM      1  C   UNL     1     145.861 129.809 115.515  1.00  0.00     0.028 C 
ENDROOT
BRANCH   1   2
ATOM      2  C   UNL     1     145.531 128.641 116.452  1.00  0.00     0.002 C 
BRANCH   2   3
ATOM      3  C   UNL     1     145.998 127.308 115.855  1.00  0.00    -0.003 C 
ATOM      4  C   UNL     1     145.679 127.228 114.365  1.00  0.00     0.004 C 
ENDBRANCH   2   3
ENDBRANCH   1   2
BRANCH   1   5
ATOM      5  C   UNL     1     145.856 131.151 116.256  1.00  0.00     0.156 C 
BRANCH   5   6
ATOM      6  O   UNL     1     147.125 131.748 116.219  1.00  0.00    -0.396 OA
ATOM      7  H   UNL     1     147.745 131.074 115.835  1.00  0.00     0.210 HD
ENDBRANCH   5   6
ENDBRANCH   1   5
TORSDOF 4
ENDMDL
MODEL 6
REMARK VINA RESULT:    -2.583     21.972     22.423
REMARK INTER + INTRA:          -3.145
REMARK INTER:                  -3.098
REMARK INTRA:                  -0.047
REMARK UNBOUND:                -0.033
REMARK SMILES CCCCCO
REMARK SMILES IDX 4 1 3 2 2 3 1 4 5 5 6 6
REMARK H PARENT 6 7
REMARK Flexibility Score: inf
ROOT
ATOM      1  C   UNL     1     128.385 142.845 116.490  1.00  0.00     0.028 C 
ENDROOT
BRANCH   1   2
ATOM      2  C   UNL     1     128.233 142.952 114.968  1.00  0.00     0.002 C 
BRANCH   2   3
ATOM      3  C   UNL     1     129.589 142.801 114.268  1.00  0.00    -0.003 C 
ATOM      4  C   UNL     1     129.785 143.880 113.207  1.00  0.00     0.004 C 
ENDBRANCH   2   3
ENDBRANCH   1   2
BRANCH   1   5
ATOM      5  C   UNL     1     129.377 143.878 117.037  1.00  0.00     0.156 C 
BRANCH   5   6
ATOM      6  O   UNL     1     128.739 144.773 117.908  1.00  0.00    -0.396 OA
ATOM      7  H   UNL     1     129.266 144.774 118.751  1.00  0.00     0.210 HD
ENDBRANCH   5   6
ENDBRANCH   1   5
TORSDOF 4
ENDMDL
MODEL 7
REMARK VINA RESULT:    -2.562     21.720     22.176
REMARK INTER + INTRA:          -3.119
REMARK INTER:                  -3.021
REMARK INTRA:                  -0.098
REMARK UNBOUND:                -0.033
REMARK SMILES CCCCCO
REMARK SMILES IDX 4 1 3 2 2 3 1 4 5 5 6 6
REMARK H PARENT 6 7
REMARK Flexibility Score: inf
ROOT
ATOM      1  C   UNL     1     131.015 144.612 115.209  1.00  0.00     0.028 C 
ENDROOT
BRANCH   1   2
ATOM      2  C   UNL     1     130.446 143.374 114.504  1.00  0.00     0.002 C 
BRANCH   2   3
ATOM      3  C   UNL     1     129.143 143.709 113.770  1.00  0.00    -0.003 C 
ATOM      4  C   UNL     1     127.924 143.313 114.597  1.00  0.00     0.004 C 
ENDBRANCH   2   3
ENDBRANCH   1   2
BRANCH   1   5
ATOM      5  C   UNL     1     131.063 144.429 116.730  1.00  0.00     0.156 C 
BRANCH   5   6
ATOM      6  O   UNL     1     129.877 144.882 117.327  1.00  0.00    -0.396 OA
ATOM      7  H   UNL     1     129.211 144.152 117.225  1.00  0.00     0.210 HD
ENDBRANCH   5   6
ENDBRANCH   1   5
TORSDOF 4
ENDMDL
