MODEL 1
REMARK VINA RESULT:    -5.981      0.000      0.000
REMARK INTER + INTRA:          -6.308
REMARK INTER:                  -6.855
REMARK INTRA:                   0.547
REMARK UNBOUND:                 0.547
REMARK SMILES C=C(C)[C@@H]1CC[C@]2(C(=O)[O-])CC[C@@]3(C)[C@H](CC[C@@H]4[C@@]5(C)CC[C@H](O)C(C)(C)[C@H]5CC[C@@]43C)[C@@H]12
REMARK SMILES IDX 7 1 6 2 33 3 11 4 5 5 15 6 4 7 12 8 16 9 13 10 17 11 31 12
REMARK SMILES IDX 14 13 18 14 30 15 32 16 19 17 29 18 21 19 20 20 28 21 22 22
REMARK SMILES IDX 25 23 23 24 26 25 27 26 8 27 9 28 10 29 2 30 3 31 1 32 24 33
REMARK H PARENT 24 34
REMARK Flexibility Score: inf
ROOT
ATOM      1  C   UNL     1     -24.541 -10.787 -32.750  1.00  0.00     0.014 C 
ATOM      2  C   UNL     1     -23.981 -11.182 -34.125  1.00  0.00     0.014 C 
ATOM      3  C   UNL     1     -23.846  -9.456 -32.519  1.00  0.00     0.012 C 
ATOM      4  C   UNL     1     -26.083 -10.508 -32.723  1.00  0.00     0.014 C 
ATOM      5  C   UNL     1     -22.495 -10.819 -34.026  1.00  0.00     0.009 C 
ATOM      6  C   UNL     1     -24.106  -8.807 -31.103  1.00  0.00     0.000 C 
ATOM      7  C   UNL     1     -22.399  -9.622 -33.052  1.00  0.00     0.018 C 
ATOM      8  C   UNL     1     -26.506  -9.295 -31.810  1.00  0.00     0.008 C 
ATOM      9  C   UNL     1     -23.796  -7.319 -31.322  1.00  0.00     0.005 C 
ATOM     10  C   UNL     1     -25.591  -9.076 -30.534  1.00  0.00    -0.024 C 
ATOM     11  C   UNL     1     -24.149  -6.450 -30.170  1.00  0.00     0.005 C 
ATOM     12  C   UNL     1     -26.139  -7.899 -29.510  1.00  0.00    -0.024 C 
ATOM     13  C   UNL     1     -25.639 -10.421 -29.717  1.00  0.00     0.012 C 
ATOM     14  C   UNL     1     -25.690  -6.432 -29.940  1.00  0.00     0.002 C 
ATOM     15  C   UNL     1     -25.578  -8.105 -28.061  1.00  0.00     0.008 C 
ATOM     16  C   UNL     1     -27.699  -8.037 -29.431  1.00  0.00     0.012 C 
ATOM     17  C   UNL     1     -26.053  -5.221 -28.943  1.00  0.00    -0.026 C 
ATOM     18  C   UNL     1     -25.893  -6.979 -27.064  1.00  0.00     0.005 C 
ATOM     19  C   UNL     1     -27.589  -4.918 -28.860  1.00  0.00     0.010 C 
ATOM     20  C   UNL     1     -25.399  -3.924 -29.543  1.00  0.00     0.012 C 
ATOM     21  C   UNL     1     -25.498  -5.536 -27.493  1.00  0.00     0.003 C 
ATOM     22  C   UNL     1     -27.975  -3.843 -27.829  1.00  0.00     0.033 C 
ATOM     23  C   UNL     1     -25.917  -4.466 -26.381  1.00  0.00    -0.006 C 
ATOM     24  C   UNL     1     -27.454  -4.185 -26.424  1.00  0.00     0.120 C 
ATOM     25  C   UNL     1     -25.567  -4.993 -24.960  1.00  0.00     0.014 C 
ATOM     26  C   UNL     1     -25.108  -3.143 -26.528  1.00  0.00     0.014 C 
ENDROOT
BRANCH   1  27
ATOM     27  C   UNL     1     -24.110 -11.904 -31.799  1.00  0.00     0.048 C 
ATOM     28  O   UNL     1     -24.749 -12.990 -31.706  1.00  0.00    -0.550 OA
ATOM     29  O   UNL     1     -23.011 -11.702 -30.971  1.00  0.00    -0.550 OA
ENDBRANCH   1  27
BRANCH   7  30
ATOM     30  C   UNL     1     -21.854  -8.378 -33.752  1.00  0.00    -0.077 C 
ATOM     31  C   UNL     1     -20.388  -8.271 -34.069  1.00  0.00     0.039 C 
ATOM     32  C   UNL     1     -22.665  -7.373 -34.124  1.00  0.00     0.008 C 
ENDBRANCH   7  30
BRANCH  24  33
ATOM     33  O   UNL     1     -27.782  -3.119 -25.568  1.00  0.00    -0.393 OA
ATOM     34  H   UNL     1     -26.930  -2.674 -25.317  1.00  0.00     0.210 HD
ENDBRANCH  24  33
TORSDOF 3
ENDMDL
MODEL 2
REMARK VINA RESULT:    -5.894     11.185     15.012
REMARK INTER + INTRA:          -6.208
REMARK INTER:                  -6.239
REMARK INTRA:                   0.031
REMARK UNBOUND:                 0.547
REMARK SMILES C=C(C)[C@@H]1CC[C@]2(C(=O)[O-])CC[C@@]3(C)[C@H](CC[C@@H]4[C@@]5(C)CC[C@H](O)C(C)(C)[C@H]5CC[C@@]43C)[C@@H]12
REMARK SMILES IDX 7 1 6 2 33 3 11 4 5 5 15 6 4 7 12 8 16 9 13 10 17 11 31 12
REMARK SMILES IDX 14 13 18 14 30 15 32 16 19 17 29 18 21 19 20 20 28 21 22 22
REMARK SMILES IDX 25 23 23 24 26 25 27 26 8 27 9 28 10 29 2 30 3 31 1 32 24 33
REMARK H PARENT 24 34
REMARK Flexibility Score: inf
ROOT
ATOM      1  C   UNL     1     -13.932  -2.095 -23.644  1.00  0.00     0.014 C 
ATOM      2  C   UNL     1     -14.987  -1.715 -22.594  1.00  0.00     0.014 C 
ATOM      3  C   UNL     1     -14.812  -2.568 -24.789  1.00  0.00     0.012 C 
ATOM      4  C   UNL     1     -13.082  -0.896 -24.186  1.00  0.00     0.014 C 
ATOM      5  C   UNL     1     -16.010  -2.854 -22.682  1.00  0.00     0.009 C 
ATOM      6  C   UNL     1     -14.030  -3.165 -26.025  1.00  0.00     0.000 C 
ATOM      7  C   UNL     1     -15.979  -3.360 -24.144  1.00  0.00     0.018 C 
ATOM      8  C   UNL     1     -12.775  -0.965 -25.731  1.00  0.00     0.008 C 
ATOM      9  C   UNL     1     -15.029  -3.037 -27.184  1.00  0.00     0.005 C 
ATOM     10  C   UNL     1     -12.621  -2.433 -26.310  1.00  0.00    -0.024 C 
ATOM     11  C   UNL     1     -14.458  -3.363 -28.516  1.00  0.00     0.005 C 
ATOM     12  C   UNL     1     -12.148  -2.482 -27.894  1.00  0.00    -0.024 C 
ATOM     13  C   UNL     1     -11.463  -3.115 -25.489  1.00  0.00     0.012 C 
ATOM     14  C   UNL     1     -13.360  -2.331 -28.917  1.00  0.00     0.002 C 
ATOM     15  C   UNL     1     -11.473  -3.853 -28.239  1.00  0.00     0.008 C 
ATOM     16  C   UNL     1     -11.067  -1.365 -28.095  1.00  0.00     0.012 C 
ATOM     17  C   UNL     1     -13.036  -2.500 -30.484  1.00  0.00    -0.026 C 
ATOM     18  C   UNL     1     -11.140  -4.071 -29.723  1.00  0.00     0.005 C 
ATOM     19  C   UNL     1     -12.164  -1.336 -31.071  1.00  0.00     0.010 C 
ATOM     20  C   UNL     1     -14.409  -2.422 -31.246  1.00  0.00     0.012 C 
ATOM     21  C   UNL     1     -12.307  -3.884 -30.736  1.00  0.00     0.003 C 
ATOM     22  C   UNL     1     -11.743  -1.529 -32.538  1.00  0.00     0.033 C 
ATOM     23  C   UNL     1     -11.811  -4.103 -32.240  1.00  0.00    -0.006 C 
ATOM     24  C   UNL     1     -11.009  -2.862 -32.752  1.00  0.00     0.120 C 
ATOM     25  C   UNL     1     -10.879  -5.345 -32.329  1.00  0.00     0.014 C 
ATOM     26  C   UNL     1     -13.000  -4.426 -33.192  1.00  0.00     0.014 C 
ENDROOT
BRANCH   1  27
ATOM     27  C   UNL     1     -13.088  -3.191 -22.994  1.00  0.00     0.048 C 
ATOM     28  O   UNL     1     -13.371  -4.417 -23.114  1.00  0.00    -0.550 OA
ATOM     29  O   UNL     1     -12.004  -2.829 -22.200  1.00  0.00    -0.550 OA
ENDBRANCH   1  27
BRANCH   7  30
ATOM     30  C   UNL     1     -17.324  -3.145 -24.835  1.00  0.00    -0.077 C 
ATOM     31  C   UNL     1     -17.936  -4.246 -25.656  1.00  0.00     0.039 C 
ATOM     32  C   UNL     1     -18.000  -1.990 -24.705  1.00  0.00     0.008 C 
ENDBRANCH   7  30
BRANCH  24  33
ATOM     33  O   UNL     1     -10.732  -2.990 -34.125  1.00  0.00    -0.393 OA
ATOM     34  H   UNL     1     -10.159  -3.794 -34.232  1.00  0.00     0.210 HD
ENDBRANCH  24  33
TORSDOF 3
ENDMDL
MODEL 3
REMARK VINA RESULT:    -5.344     10.336     12.804
REMARK INTER + INTRA:          -5.578
REMARK INTER:                  -5.519
REMARK INTRA:                  -0.059
REMARK UNBOUND:                 0.547
REMARK SMILES C=C(C)[C@@H]1CC[C@]2(C(=O)[O-])CC[C@@]3(C)[C@H](CC[C@@H]4[C@@]5(C)CC[C@H](O)C(C)(C)[C@H]5CC[C@@]43C)[C@@H]12
REMARK SMILES IDX 7 1 6 2 33 3 11 4 5 5 15 6 4 7 12 8 16 9 13 10 17 11 31 12
REMARK SMILES IDX 14 13 18 14 30 15 32 16 19 17 29 18 21 19 20 20 28 21 22 22
REMARK SMILES IDX 25 23 23 24 26 25 27 26 8 27 9 28 10 29 2 30 3 31 1 32 24 33
REMARK H PARENT 24 34
REMARK Flexibility Score: inf
ROOT
ATOM      1  C   UNL     1     -11.587  -3.353 -31.980  1.00  0.00     0.014 C 
ATOM      2  C   UNL     1     -11.534  -3.807 -33.446  1.00  0.00     0.014 C 
ATOM      3  C   UNL     1     -13.087  -3.295 -31.742  1.00  0.00     0.012 C 
ATOM      4  C   UNL     1     -11.001  -4.380 -30.952  1.00  0.00     0.014 C 
ATOM      5  C   UNL     1     -12.635  -2.979 -34.119  1.00  0.00     0.009 C 
ATOM      6  C   UNL     1     -13.514  -2.730 -30.330  1.00  0.00     0.000 C 
ATOM      7  C   UNL     1     -13.712  -2.719 -33.039  1.00  0.00     0.018 C 
ATOM      8  C   UNL     1     -11.813  -4.484 -29.605  1.00  0.00     0.008 C 
ATOM      9  C   UNL     1     -14.935  -3.278 -30.134  1.00  0.00     0.005 C 
ATOM     10  C   UNL     1     -12.502  -3.134 -29.142  1.00  0.00    -0.024 C 
ATOM     11  C   UNL     1     -15.496  -3.039 -28.780  1.00  0.00     0.005 C 
ATOM     12  C   UNL     1     -13.217  -3.223 -27.653  1.00  0.00    -0.024 C 
ATOM     13  C   UNL     1     -11.349  -2.069 -29.007  1.00  0.00     0.012 C 
ATOM     14  C   UNL     1     -14.692  -3.824 -27.699  1.00  0.00     0.002 C 
ATOM     15  C   UNL     1     -13.361  -1.801 -27.010  1.00  0.00     0.008 C 
ATOM     16  C   UNL     1     -12.270  -4.061 -26.727  1.00  0.00     0.012 C 
ATOM     17  C   UNL     1     -15.535  -3.832 -26.328  1.00  0.00    -0.026 C 
ATOM     18  C   UNL     1     -14.157  -1.747 -25.697  1.00  0.00     0.005 C 
ATOM     19  C   UNL     1     -14.973  -4.827 -25.255  1.00  0.00     0.010 C 
ATOM     20  C   UNL     1     -16.974  -4.360 -26.679  1.00  0.00     0.012 C 
ATOM     21  C   UNL     1     -15.583  -2.370 -25.719  1.00  0.00     0.003 C 
ATOM     22  C   UNL     1     -15.689  -4.772 -23.894  1.00  0.00     0.033 C 
ATOM     23  C   UNL     1     -16.278  -2.278 -24.282  1.00  0.00    -0.006 C 
ATOM     24  C   UNL     1     -15.695  -3.351 -23.307  1.00  0.00     0.120 C 
ATOM     25  C   UNL     1     -16.038  -0.877 -23.651  1.00  0.00     0.014 C 
ATOM     26  C   UNL     1     -17.827  -2.408 -24.388  1.00  0.00     0.014 C 
ENDROOT
BRANCH   1  27
ATOM     27  C   UNL     1     -10.884  -1.996 -31.949  1.00  0.00     0.048 C 
ATOM     28  O   UNL     1     -11.524  -0.910 -31.881  1.00  0.00    -0.550 OA
ATOM     29  O   UNL     1      -9.497  -1.950 -32.051  1.00  0.00    -0.550 OA
ENDBRANCH   1  27
BRANCH   7  30
ATOM     30  C   UNL     1     -15.045  -3.361 -33.418  1.00  0.00    -0.077 C 
ATOM     31  C   UNL     1     -16.277  -2.511 -33.567  1.00  0.00     0.039 C 
ATOM     32  C   UNL     1     -15.145  -4.681 -33.651  1.00  0.00     0.008 C 
ENDBRANCH   7  30
BRANCH  24  33
ATOM     33  O   UNL     1     -16.433  -3.379 -22.110  1.00  0.00    -0.393 OA
ATOM     34  H   UNL     1     -16.760  -4.309 -21.991  1.00  0.00     0.210 HD
ENDBRANCH  24  33
TORSDOF 3
ENDMDL
MODEL 4
REMARK VINA RESULT:    -5.105      1.734      7.991
REMARK INTER + INTRA:          -5.304
REMARK INTER:                  -5.703
REMARK INTRA:                   0.399
REMARK UNBOUND:                 0.547
REMARK SMILES C=C(C)[C@@H]1CC[C@]2(C(=O)[O-])CC[C@@]3(C)[C@H](CC[C@@H]4[C@@]5(C)CC[C@H](O)C(C)(C)[C@H]5CC[C@@]43C)[C@@H]12
REMARK SMILES IDX 7 1 6 2 33 3 11 4 5 5 15 6 4 7 12 8 16 9 13 10 17 11 31 12
REMARK SMILES IDX 14 13 18 14 30 15 32 16 19 17 29 18 21 19 20 20 28 21 22 22
REMARK SMILES IDX 25 23 23 24 26 25 27 26 8 27 9 28 10 29 2 30 3 31 1 32 24 33
REMARK H PARENT 24 34
REMARK Flexibility Score: inf
ROOT
ATOM      1  C   UNL     1     -27.000  -5.005 -28.005  1.00  0.00     0.014 C 
ATOM      2  C   UNL     1     -27.304  -4.360 -26.644  1.00  0.00     0.014 C 
ATOM      3  C   UNL     1     -25.810  -5.883 -27.657  1.00  0.00     0.012 C 
ATOM      4  C   UNL     1     -28.124  -5.952 -28.549  1.00  0.00     0.014 C 
ATOM      5  C   UNL     1     -25.916  -4.013 -26.092  1.00  0.00     0.009 C 
ATOM      6  C   UNL     1     -25.146  -6.619 -28.887  1.00  0.00     0.000 C 
ATOM      7  C   UNL     1     -24.939  -5.065 -26.669  1.00  0.00     0.018 C 
ATOM      8  C   UNL     1     -27.587  -7.250 -29.263  1.00  0.00     0.008 C 
ATOM      9  C   UNL     1     -24.401  -7.798 -28.246  1.00  0.00     0.005 C 
ATOM     10  C   UNL     1     -26.205  -7.067 -30.018  1.00  0.00    -0.024 C 
ATOM     11  C   UNL     1     -23.840  -8.765 -29.224  1.00  0.00     0.005 C 
ATOM     12  C   UNL     1     -25.735  -8.393 -30.887  1.00  0.00    -0.024 C 
ATOM     13  C   UNL     1     -26.421  -5.913 -31.067  1.00  0.00     0.012 C 
ATOM     14  C   UNL     1     -24.978  -9.485 -30.008  1.00  0.00     0.002 C 
ATOM     15  C   UNL     1     -24.732  -7.997 -32.024  1.00  0.00     0.008 C 
ATOM     16  C   UNL     1     -27.015  -8.979 -31.576  1.00  0.00     0.012 C 
ATOM     17  C   UNL     1     -24.356 -10.757 -30.775  1.00  0.00    -0.026 C 
ATOM     18  C   UNL     1     -24.106  -9.171 -32.792  1.00  0.00     0.005 C 
ATOM     19  C   UNL     1     -25.442 -11.725 -31.362  1.00  0.00     0.010 C 
ATOM     20  C   UNL     1     -23.575 -11.600 -29.703  1.00  0.00     0.012 C 
ATOM     21  C   UNL     1     -23.401 -10.266 -31.940  1.00  0.00     0.003 C 
ATOM     22  C   UNL     1     -24.878 -12.886 -32.198  1.00  0.00     0.033 C 
ATOM     23  C   UNL     1     -22.831 -11.441 -32.863  1.00  0.00    -0.006 C 
ATOM     24  C   UNL     1     -23.981 -12.386 -33.342  1.00  0.00     0.120 C 
ATOM     25  C   UNL     1     -22.138 -10.854 -34.125  1.00  0.00     0.014 C 
ATOM     26  C   UNL     1     -21.717 -12.249 -32.134  1.00  0.00     0.014 C 
ENDROOT
BRANCH   1  27
ATOM     27  C   UNL     1     -26.681  -3.841 -28.944  1.00  0.00     0.048 C 
ATOM     28  O   UNL     1     -27.587  -3.129 -29.463  1.00  0.00    -0.550 OA
ATOM     29  O   UNL     1     -25.355  -3.587 -29.281  1.00  0.00    -0.550 OA
ENDBRANCH   1  27
BRANCH   7  30
ATOM     30  C   UNL     1     -24.311  -5.907 -25.560  1.00  0.00    -0.077 C 
ATOM     31  C   UNL     1     -22.953  -6.523 -25.757  1.00  0.00     0.039 C 
ATOM     32  C   UNL     1     -24.935  -6.093 -24.385  1.00  0.00     0.008 C 
ENDBRANCH   7  30
BRANCH  24  33
ATOM     33  O   UNL     1     -23.450 -13.509 -34.001  1.00  0.00    -0.393 OA
ATOM     34  H   UNL     1     -22.939 -14.028 -33.326  1.00  0.00     0.210 HD
ENDBRANCH  24  33
TORSDOF 3
ENDMDL
MODEL 5
REMARK VINA RESULT:    -5.038     10.756     14.622
REMARK INTER + INTRA:          -5.227
REMARK INTER:                  -5.271
REMARK INTRA:                   0.044
REMARK UNBOUND:                 0.547
REMARK SMILES C=C(C)[C@@H]1CC[C@]2(C(=O)[O-])CC[C@@]3(C)[C@H](CC[C@@H]4[C@@]5(C)CC[C@H](O)C(C)(C)[C@H]5CC[C@@]43C)[C@@H]12
REMARK SMILES IDX 7 1 6 2 33 3 11 4 5 5 15 6 4 7 12 8 16 9 13 10 17 11 31 12
REMARK SMILES IDX 14 13 18 14 30 15 32 16 19 17 29 18 21 19 20 20 28 21 22 22
REMARK SMILES IDX 25 23 23 24 26 25 27 26 8 27 9 28 10 29 2 30 3 31 1 32 24 33
REMARK H PARENT 24 34
REMARK Flexibility Score: inf
ROOT
ATOM      1  C   UNL     1     -16.088  -3.211 -24.396  1.00  0.00     0.014 C 
ATOM      2  C   UNL     1     -16.099  -3.345 -22.865  1.00  0.00     0.014 C 
ATOM      3  C   UNL     1     -14.652  -2.781 -24.645  1.00  0.00     0.012 C 
ATOM      4  C   UNL     1     -16.305  -4.553 -25.175  1.00  0.00     0.014 C 
ATOM      5  C   UNL     1     -15.312  -2.118 -22.391  1.00  0.00     0.009 C 
ATOM      6  C   UNL     1     -14.316  -2.426 -26.146  1.00  0.00     0.000 C 
ATOM      7  C   UNL     1     -14.289  -1.794 -23.505  1.00  0.00     0.018 C 
ATOM      8  C   UNL     1     -15.418  -4.701 -26.470  1.00  0.00     0.008 C 
ATOM      9  C   UNL     1     -12.789  -2.577 -26.223  1.00  0.00     0.005 C 
ATOM     10  C   UNL     1     -15.105  -3.338 -27.216  1.00  0.00    -0.024 C 
ATOM     11  C   UNL     1     -12.238  -2.476 -27.598  1.00  0.00     0.005 C 
ATOM     12  C   UNL     1     -14.307  -3.529 -28.652  1.00  0.00    -0.024 C 
ATOM     13  C   UNL     1     -16.498  -2.697 -27.575  1.00  0.00     0.012 C 
ATOM     14  C   UNL     1     -12.728  -3.664 -28.481  1.00  0.00     0.002 C 
ATOM     15  C   UNL     1     -14.525  -2.292 -29.589  1.00  0.00     0.008 C 
ATOM     16  C   UNL     1     -14.928  -4.775 -29.372  1.00  0.00     0.012 C 
ATOM     17  C   UNL     1     -11.837  -3.718 -29.820  1.00  0.00    -0.026 C 
ATOM     18  C   UNL     1     -13.700  -2.289 -30.885  1.00  0.00     0.005 C 
ATOM     19  C   UNL     1     -12.037  -5.033 -30.651  1.00  0.00     0.010 C 
ATOM     20  C   UNL     1     -10.331  -3.731 -29.367  1.00  0.00     0.012 C 
ATOM     21  C   UNL     1     -12.160  -2.463 -30.731  1.00  0.00     0.003 C 
ATOM     22  C   UNL     1     -11.285  -5.062 -31.993  1.00  0.00     0.033 C 
ATOM     23  C   UNL     1     -11.435  -2.480 -32.156  1.00  0.00    -0.006 C 
ATOM     24  C   UNL     1     -11.639  -3.853 -32.874  1.00  0.00     0.120 C 
ATOM     25  C   UNL     1     -12.017  -1.368 -33.076  1.00  0.00     0.014 C 
ATOM     26  C   UNL     1      -9.920  -2.140 -32.029  1.00  0.00     0.014 C 
ENDROOT
BRANCH   1  27
ATOM     27  C   UNL     1     -17.137  -2.147 -24.718  1.00  0.00     0.048 C 
ATOM     28  O   UNL     1     -18.376  -2.376 -24.628  1.00  0.00    -0.550 OA
ATOM     29  O   UNL     1     -16.718  -0.901 -25.176  1.00  0.00    -0.550 OA
ENDBRANCH   1  27
BRANCH   7  30
ATOM     30  C   UNL     1     -12.854  -1.938 -23.000  1.00  0.00    -0.077 C 
ATOM     31  C   UNL     1     -12.316  -3.294 -22.634  1.00  0.00     0.039 C 
ATOM     32  C   UNL     1     -12.038  -0.875 -22.897  1.00  0.00     0.008 C 
ENDBRANCH   7  30
BRANCH  24  33
ATOM     33  O   UNL     1     -10.854  -3.920 -34.039  1.00  0.00    -0.393 OA
ATOM     34  H   UNL     1     -10.840  -4.870 -34.327  1.00  0.00     0.210 HD
ENDBRANCH  24  33
TORSDOF 3
ENDMDL
MODEL 6
REMARK VINA RESULT:    -4.243      1.741      3.856
REMARK INTER + INTRA:          -4.316
REMARK INTER:                  -4.238
REMARK INTRA:                  -0.079
REMARK UNBOUND:                 0.547
REMARK SMILES C=C(C)[C@@H]1CC[C@]2(C(=O)[O-])CC[C@@]3(C)[C@H](CC[C@@H]4[C@@]5(C)CC[C@H](O)C(C)(C)[C@H]5CC[C@@]43C)[C@@H]12
REMARK SMILES IDX 7 1 6 2 33 3 11 4 5 5 15 6 4 7 12 8 16 9 13 10 17 11 31 12
REMARK SMILES IDX 14 13 18 14 30 15 32 16 19 17 29 18 21 19 20 20 28 21 22 22
REMARK SMILES IDX 25 23 23 24 26 25 27 26 8 27 9 28 10 29 2 30 3 31 1 32 24 33
REMARK H PARENT 24 34
REMARK Flexibility Score: inf
ROOT
ATOM      1  C   UNL     1     -22.961 -11.146 -32.279  1.00  0.00     0.014 C 
ATOM      2  C   UNL     1     -23.081 -12.592 -32.784  1.00  0.00     0.014 C 
ATOM      3  C   UNL     1     -24.337 -10.929 -31.673  1.00  0.00     0.012 C 
ATOM      4  C   UNL     1     -21.917 -10.936 -31.129  1.00  0.00     0.014 C 
ATOM      5  C   UNL     1     -24.482 -12.640 -33.407  1.00  0.00     0.009 C 
ATOM      6  C   UNL     1     -24.611  -9.463 -31.153  1.00  0.00     0.000 C 
ATOM      7  C   UNL     1     -25.347 -11.625 -32.622  1.00  0.00     0.018 C 
ATOM      8  C   UNL     1     -22.378  -9.925 -30.012  1.00  0.00     0.008 C 
ATOM      9  C   UNL     1     -25.753  -9.642 -30.142  1.00  0.00     0.005 C 
ATOM     10  C   UNL     1     -23.308  -8.748 -30.527  1.00  0.00    -0.024 C 
ATOM     11  C   UNL     1     -26.073  -8.418 -29.365  1.00  0.00     0.005 C 
ATOM     12  C   UNL     1     -23.654  -7.614 -29.375  1.00  0.00    -0.024 C 
ATOM     13  C   UNL     1     -22.494  -7.996 -31.647  1.00  0.00     0.012 C 
ATOM     14  C   UNL     1     -24.881  -8.019 -28.443  1.00  0.00     0.002 C 
ATOM     15  C   UNL     1     -24.054  -6.247 -30.029  1.00  0.00     0.008 C 
ATOM     16  C   UNL     1     -22.344  -7.370 -28.549  1.00  0.00     0.012 C 
ATOM     17  C   UNL     1     -25.393  -6.931 -27.373  1.00  0.00    -0.026 C 
ATOM     18  C   UNL     1     -24.552  -5.168 -29.055  1.00  0.00     0.005 C 
ATOM     19  C   UNL     1     -24.371  -6.665 -26.214  1.00  0.00     0.010 C 
ATOM     20  C   UNL     1     -26.668  -7.536 -26.680  1.00  0.00     0.012 C 
ATOM     21  C   UNL     1     -25.722  -5.567 -28.110  1.00  0.00     0.003 C 
ATOM     22  C   UNL     1     -24.784  -5.547 -25.241  1.00  0.00     0.033 C 
ATOM     23  C   UNL     1     -26.110  -4.366 -27.129  1.00  0.00    -0.006 C 
ATOM     24  C   UNL     1     -25.067  -4.225 -25.974  1.00  0.00     0.120 C 
ATOM     25  C   UNL     1     -26.146  -3.019 -27.907  1.00  0.00     0.014 C 
ATOM     26  C   UNL     1     -27.549  -4.537 -26.559  1.00  0.00     0.014 C 
ENDROOT
BRANCH   1  27
ATOM     27  C   UNL     1     -22.672 -10.304 -33.522  1.00  0.00     0.048 C 
ATOM     28  O   UNL     1     -23.578  -9.661 -34.122  1.00  0.00    -0.550 OA
ATOM     29  O   UNL     1     -21.381 -10.285 -34.041  1.00  0.00    -0.550 OA
ENDBRANCH   1  27
BRANCH   7  30
ATOM     30  C   UNL     1     -26.496 -12.321 -31.895  1.00  0.00    -0.077 C 
ATOM     31  C   UNL     1     -27.921 -12.003 -32.259  1.00  0.00     0.039 C 
ATOM     32  C   UNL     1     -26.268 -13.243 -30.945  1.00  0.00     0.008 C 
ENDBRANCH   7  30
BRANCH  24  33
ATOM     33  O   UNL     1     -25.510  -3.288 -25.024  1.00  0.00    -0.393 OA
ATOM     34  H   UNL     1     -25.337  -3.678 -24.127  1.00  0.00     0.210 HD
ENDBRANCH  24  33
TORSDOF 3
ENDMDL
MODEL 7
REMARK VINA RESULT:    -3.681     11.485     13.615
REMARK INTER + INTRA:          -3.672
REMARK INTER:                  -4.972
REMARK INTRA:                   1.301
REMARK UNBOUND:                 0.547
REMARK SMILES C=C(C)[C@@H]1CC[C@]2(C(=O)[O-])CC[C@@]3(C)[C@H](CC[C@@H]4[C@@]5(C)CC[C@H](O)C(C)(C)[C@H]5CC[C@@]43C)[C@@H]12
REMARK SMILES IDX 7 1 6 2 33 3 11 4 5 5 15 6 4 7 12 8 16 9 13 10 17 11 31 12
REMARK SMILES IDX 14 13 18 14 30 15 32 16 19 17 29 18 21 19 20 20 28 21 22 22
REMARK SMILES IDX 25 23 23 24 26 25 27 26 8 27 9 28 10 29 2 30 3 31 1 32 24 33
REMARK H PARENT 24 34
REMARK Flexibility Score: inf
ROOT
ATOM      1  C   UNL     1     -12.402  -2.522 -32.804  1.00  0.00     0.014 C 
ATOM      2  C   UNL     1     -11.565  -1.922 -33.944  1.00  0.00     0.014 C 
ATOM      3  C   UNL     1     -11.514  -2.241 -31.604  1.00  0.00     0.012 C 
ATOM      4  C   UNL     1     -13.768  -1.801 -32.541  1.00  0.00     0.014 C 
ATOM      5  C   UNL     1     -10.136  -2.370 -33.615  1.00  0.00     0.009 C 
ATOM      6  C   UNL     1     -12.026  -2.851 -30.240  1.00  0.00     0.000 C 
ATOM      7  C   UNL     1     -10.056  -2.488 -32.074  1.00  0.00     0.018 C 
ATOM      8  C   UNL     1     -14.145  -1.665 -31.017  1.00  0.00     0.008 C 
ATOM      9  C   UNL     1     -11.321  -2.001 -29.174  1.00  0.00     0.005 C 
ATOM     10  C   UNL     1     -13.633  -2.852 -30.100  1.00  0.00    -0.024 C 
ATOM     11  C   UNL     1     -11.788  -2.257 -27.787  1.00  0.00     0.005 C 
ATOM     12  C   UNL     1     -14.169  -2.772 -28.537  1.00  0.00    -0.024 C 
ATOM     13  C   UNL     1     -14.243  -4.174 -30.701  1.00  0.00     0.012 C 
ATOM     14  C   UNL     1     -13.276  -1.828 -27.614  1.00  0.00     0.002 C 
ATOM     15  C   UNL     1     -14.136  -4.182 -27.855  1.00  0.00     0.008 C 
ATOM     16  C   UNL     1     -15.665  -2.307 -28.578  1.00  0.00     0.012 C 
ATOM     17  C   UNL     1     -13.624  -1.780 -26.043  1.00  0.00    -0.026 C 
ATOM     18  C   UNL     1     -14.461  -4.198 -26.353  1.00  0.00     0.005 C 
ATOM     19  C   UNL     1     -14.995  -1.088 -25.728  1.00  0.00     0.010 C 
ATOM     20  C   UNL     1     -12.531  -0.879 -25.361  1.00  0.00     0.012 C 
ATOM     21  C   UNL     1     -13.623  -3.248 -25.448  1.00  0.00     0.003 C 
ATOM     22  C   UNL     1     -15.407  -1.130 -24.246  1.00  0.00     0.033 C 
ATOM     23  C   UNL     1     -14.091  -3.340 -23.922  1.00  0.00    -0.006 C 
ATOM     24  C   UNL     1     -15.431  -2.567 -23.699  1.00  0.00     0.120 C 
ATOM     25  C   UNL     1     -14.321  -4.823 -23.513  1.00  0.00     0.014 C 
ATOM     26  C   UNL     1     -12.986  -2.825 -22.954  1.00  0.00     0.014 C 
ENDROOT
BRANCH   1  27
ATOM     27  C   UNL     1     -12.557  -4.004 -33.150  1.00  0.00     0.048 C 
ATOM     28  O   UNL     1     -11.797  -4.889 -32.666  1.00  0.00    -0.550 OA
ATOM     29  O   UNL     1     -13.531  -4.387 -34.067  1.00  0.00    -0.550 OA
ENDBRANCH   1  27
BRANCH   7  30
ATOM     30  C   UNL     1      -9.047  -1.499 -31.493  1.00  0.00    -0.077 C 
ATOM     31  C   UNL     1      -8.000  -0.881 -32.379  1.00  0.00     0.039 C 
ATOM     32  C   UNL     1      -9.085  -1.139 -30.198  1.00  0.00     0.008 C 
ENDBRANCH   7  30
BRANCH  24  33
ATOM     33  O   UNL     1     -15.739  -2.504 -22.328  1.00  0.00    -0.393 OA
ATOM     34  H   UNL     1     -15.872  -3.438 -22.017  1.00  0.00     0.210 HD
ENDBRANCH  24  33
TORSDOF 3
ENDMDL
MODEL 8
REMARK VINA RESULT:    -3.214      1.777      8.003
REMARK INTER + INTRA:          -3.136
REMARK INTER:                  -4.880
REMARK INTRA:                   1.744
REMARK UNBOUND:                 0.547
REMARK SMILES C=C(C)[C@@H]1CC[C@]2(C(=O)[O-])CC[C@@]3(C)[C@H](CC[C@@H]4[C@@]5(C)CC[C@H](O)C(C)(C)[C@H]5CC[C@@]43C)[C@@H]12
REMARK SMILES IDX 7 1 6 2 33 3 11 4 5 5 15 6 4 7 12 8 16 9 13 10 17 11 31 12
REMARK SMILES IDX 14 13 18 14 30 15 32 16 19 17 29 18 21 19 20 20 28 21 22 22
REMARK SMILES IDX 25 23 23 24 26 25 27 26 8 27 9 28 10 29 2 30 3 31 1 32 24 33
REMARK H PARENT 24 34
REMARK Flexibility Score: inf
ROOT
ATOM      1  C   UNL     1     -25.086  -4.306 -27.003  1.00  0.00     0.014 C 
ATOM      2  C   UNL     1     -25.705  -2.931 -26.710  1.00  0.00     0.014 C 
ATOM      3  C   UNL     1     -25.789  -4.677 -28.297  1.00  0.00     0.012 C 
ATOM      4  C   UNL     1     -23.549  -4.285 -27.307  1.00  0.00     0.014 C 
ATOM      5  C   UNL     1     -27.190  -3.128 -27.036  1.00  0.00     0.009 C 
ATOM      6  C   UNL     1     -25.472  -6.129 -28.834  1.00  0.00     0.000 C 
ATOM      7  C   UNL     1     -27.258  -4.201 -28.148  1.00  0.00     0.018 C 
ATOM      8  C   UNL     1     -23.102  -5.273 -28.450  1.00  0.00     0.008 C 
ATOM      9  C   UNL     1     -25.814  -6.047 -30.328  1.00  0.00     0.005 C 
ATOM     10  C   UNL     1     -23.957  -6.604 -28.547  1.00  0.00    -0.024 C 
ATOM     11  C   UNL     1     -25.419  -7.248 -31.107  1.00  0.00     0.005 C 
ATOM     12  C   UNL     1     -23.378  -7.695 -29.647  1.00  0.00    -0.024 C 
ATOM     13  C   UNL     1     -23.851  -7.305 -27.141  1.00  0.00     0.012 C 
ATOM     14  C   UNL     1     -23.869  -7.407 -31.135  1.00  0.00     0.002 C 
ATOM     15  C   UNL     1     -23.866  -9.146 -29.314  1.00  0.00     0.008 C 
ATOM     16  C   UNL     1     -21.815  -7.690 -29.533  1.00  0.00     0.012 C 
ATOM     17  C   UNL     1     -23.477  -8.482 -32.268  1.00  0.00    -0.026 C 
ATOM     18  C   UNL     1     -23.521 -10.216 -30.361  1.00  0.00     0.005 C 
ATOM     19  C   UNL     1     -21.944  -8.518 -32.592  1.00  0.00     0.010 C 
ATOM     20  C   UNL     1     -24.178  -8.021 -33.598  1.00  0.00     0.012 C 
ATOM     21  C   UNL     1     -23.958  -9.926 -31.826  1.00  0.00     0.003 C 
ATOM     22  C   UNL     1     -21.525  -9.615 -33.587  1.00  0.00     0.033 C 
ATOM     23  C   UNL     1     -23.501 -11.101 -32.810  1.00  0.00    -0.006 C 
ATOM     24  C   UNL     1     -21.973 -11.010 -33.122  1.00  0.00     0.120 C 
ATOM     25  C   UNL     1     -23.776 -12.489 -32.164  1.00  0.00     0.014 C 
ATOM     26  C   UNL     1     -24.337 -11.101 -34.125  1.00  0.00     0.014 C 
ENDROOT
BRANCH   1  27
ATOM     27  C   UNL     1     -25.455  -5.181 -25.804  1.00  0.00     0.048 C 
ATOM     28  O   UNL     1     -25.789  -6.392 -25.934  1.00  0.00    -0.550 OA
ATOM     29  O   UNL     1     -25.473  -4.614 -24.533  1.00  0.00    -0.550 OA
ENDBRANCH   1  27
BRANCH   7  30
ATOM     30  C   UNL     1     -27.853  -3.630 -29.434  1.00  0.00    -0.077 C 
ATOM     31  C   UNL     1     -28.125  -2.156 -29.551  1.00  0.00     0.039 C 
ATOM     32  C   UNL     1     -28.121  -4.417 -30.491  1.00  0.00     0.008 C 
ENDBRANCH   7  30
BRANCH  24  33
ATOM     33  O   UNL     1     -21.620 -11.935 -34.121  1.00  0.00    -0.393 OA
ATOM     34  H   UNL     1     -22.292 -11.850 -34.847  1.00  0.00     0.210 HD
ENDBRANCH  24  33
TORSDOF 3
ENDMDL
MODEL 9
REMARK VINA RESULT:    -2.995     12.805     14.734
REMARK INTER + INTRA:          -2.885
REMARK INTER:                  -2.804
REMARK INTRA:                  -0.081
REMARK UNBOUND:                 0.547
REMARK SMILES C=C(C)[C@@H]1CC[C@]2(C(=O)[O-])CC[C@@]3(C)[C@H](CC[C@@H]4[C@@]5(C)CC[C@H](O)C(C)(C)[C@H]5CC[C@@]43C)[C@@H]12
REMARK SMILES IDX 7 1 6 2 33 3 11 4 5 5 15 6 4 7 12 8 16 9 13 10 17 11 31 12
REMARK SMILES IDX 14 13 18 14 30 15 32 16 19 17 29 18 21 19 20 20 28 21 22 22
REMARK SMILES IDX 25 23 23 24 26 25 27 26 8 27 9 28 10 29 2 30 3 31 1 32 24 33
REMARK H PARENT 24 34
REMARK Flexibility Score: inf
ROOT
ATOM      1  C   UNL     1     -15.481  -2.929 -27.781  1.00  0.00     0.014 C 
ATOM      2  C   UNL     1     -15.721  -2.468 -29.226  1.00  0.00     0.014 C 
ATOM      3  C   UNL     1     -13.987  -2.694 -27.639  1.00  0.00     0.012 C 
ATOM      4  C   UNL     1     -16.187  -2.058 -26.686  1.00  0.00     0.014 C 
ATOM      5  C   UNL     1     -14.527  -3.049 -29.992  1.00  0.00     0.009 C 
ATOM      6  C   UNL     1     -13.363  -3.188 -26.275  1.00  0.00     0.000 C 
ATOM      7  C   UNL     1     -13.350  -3.111 -28.989  1.00  0.00     0.018 C 
ATOM      8  C   UNL     1     -15.323  -1.820 -25.390  1.00  0.00     0.008 C 
ATOM      9  C   UNL     1     -12.067  -2.374 -26.151  1.00  0.00     0.005 C 
ATOM     10  C   UNL     1     -14.352  -3.015 -25.013  1.00  0.00    -0.024 C 
ATOM     11  C   UNL     1     -11.380  -2.522 -24.842  1.00  0.00     0.005 C 
ATOM     12  C   UNL     1     -13.570  -2.814 -23.570  1.00  0.00    -0.024 C 
ATOM     13  C   UNL     1     -15.262  -4.289 -24.841  1.00  0.00     0.012 C 
ATOM     14  C   UNL     1     -12.248  -1.932 -23.690  1.00  0.00     0.002 C 
ATOM     15  C   UNL     1     -13.107  -4.191 -22.982  1.00  0.00     0.008 C 
ATOM     16  C   UNL     1     -14.599  -2.197 -22.562  1.00  0.00     0.012 C 
ATOM     17  C   UNL     1     -11.333  -1.782 -22.374  1.00  0.00    -0.026 C 
ATOM     18  C   UNL     1     -12.229  -4.110 -21.724  1.00  0.00     0.005 C 
ATOM     19  C   UNL     1     -12.006  -0.938 -21.237  1.00  0.00     0.010 C 
ATOM     20  C   UNL     1     -10.053  -0.974 -22.798  1.00  0.00     0.012 C 
ATOM     21  C   UNL     1     -10.957  -3.217 -21.816  1.00  0.00     0.003 C 
ATOM     22  C   UNL     1     -11.203  -0.875 -19.926  1.00  0.00     0.033 C 
ATOM     23  C   UNL     1     -10.163  -3.195 -20.428  1.00  0.00    -0.006 C 
ATOM     24  C   UNL     1     -10.878  -2.277 -19.386  1.00  0.00     0.120 C 
ATOM     25  C   UNL     1     -10.080  -4.628 -19.827  1.00  0.00     0.014 C 
ATOM     26  C   UNL     1      -8.681  -2.760 -20.626  1.00  0.00     0.014 C 
ENDROOT
BRANCH   1  27
ATOM     27  C   UNL     1     -15.900  -4.399 -27.748  1.00  0.00     0.048 C 
ATOM     28  O   UNL     1     -15.061  -5.339 -27.839  1.00  0.00    -0.550 OA
ATOM     29  O   UNL     1     -17.254  -4.716 -27.668  1.00  0.00    -0.550 OA
ENDBRANCH   1  27
BRANCH   7  30
ATOM     30  C   UNL     1     -12.197  -2.210 -29.431  1.00  0.00    -0.077 C 
ATOM     31  C   UNL     1     -10.853  -2.806 -29.749  1.00  0.00     0.039 C 
ATOM     32  C   UNL     1     -12.359  -0.884 -29.570  1.00  0.00     0.008 C 
ENDBRANCH   7  30
BRANCH  24  33
ATOM     33  O   UNL     1     -10.082  -2.126 -18.236  1.00  0.00    -0.393 OA
ATOM     34  H   UNL     1      -9.986  -1.151 -18.075  1.00  0.00     0.210 HD
ENDBRANCH  24  33
TORSDOF 3
ENDMDL
