MODEL 1
REMARK VINA RESULT:    -7.619      0.000      0.000
REMARK INTER + INTRA:         -15.147
REMARK INTER:                 -13.855
REMARK INTRA:                  -1.292
REMARK UNBOUND:                -1.292
REMARK SMILES CCCCCCCCCCCCCC[C@H](C)C(=O)[O-]
REMARK SMILES IDX 9 1 10 2 11 3 12 4 13 5 14 6 15 7 16 8 17 9 18 10 19 11 8 12
REMARK SMILES IDX 7 13 6 14 5 15 4 16 3 17 2 18 1 19
REMARK H PARENT
REMARK Flexibility Score: inf
ROOT
ATOM      1  C   UNL     1       6.786  -2.198  20.413  1.00  0.00     0.000 C 
ENDROOT
BRANCH   1   2
ATOM      2  C   UNL     1       5.989  -1.602  21.587  1.00  0.00     0.000 C 
BRANCH   2   3
ATOM      3  C   UNL     1       5.453  -2.662  22.572  1.00  0.00     0.000 C 
BRANCH   3   4
ATOM      4  C   UNL     1       3.930  -2.852  22.447  1.00  0.00     0.000 C 
BRANCH   4   5
ATOM      5  C   UNL     1       3.226  -1.627  21.844  1.00  0.00     0.001 C 
BRANCH   5   6
ATOM      6  C   UNL     1       2.849  -1.831  20.363  1.00  0.00     0.009 C 
BRANCH   6   7
ATOM      7  C   UNL     1       2.337  -0.557  19.654  1.00  0.00     0.032 C 
ATOM      8  C   UNL     1       1.043  -0.795  18.862  1.00  0.00     0.014 C 
BRANCH   7   9
ATOM      9  C   UNL     1       3.407   0.078  18.806  1.00  0.00     0.044 C 
ATOM     10  O   UNL     1       4.520   0.398  19.302  1.00  0.00    -0.550 OA
ATOM     11  O   UNL     1       3.148   0.363  17.472  1.00  0.00    -0.550 OA
ENDBRANCH   7   9
ENDBRANCH   6   7
ENDBRANCH   5   6
ENDBRANCH   4   5
ENDBRANCH   3   4
ENDBRANCH   2   3
ENDBRANCH   1   2
BRANCH   1  12
ATOM     12  C   UNL     1       6.064  -3.376  19.739  1.00  0.00     0.000 C 
BRANCH  12  13
ATOM     13  C   UNL     1       6.927  -4.649  19.691  1.00  0.00    -0.000 C 
BRANCH  13  14
ATOM     14  C   UNL     1       8.068  -4.627  20.723  1.00  0.00    -0.000 C 
BRANCH  14  15
ATOM     15  C   UNL     1       8.060  -5.865  21.637  1.00  0.00    -0.000 C 
BRANCH  15  16
ATOM     16  C   UNL     1       6.922  -6.843  21.294  1.00  0.00    -0.000 C 
BRANCH  16  17
ATOM     17  C   UNL     1       7.387  -8.311  21.259  1.00  0.00    -0.000 C 
BRANCH  17  18
ATOM     18  C   UNL     1       6.776  -9.212  22.346  1.00  0.00    -0.003 C 
ATOM     19  C   UNL     1       7.143  -8.776  23.764  1.00  0.00     0.004 C 
ENDBRANCH  17  18
ENDBRANCH  16  17
ENDBRANCH  15  16
ENDBRANCH  14  15
ENDBRANCH  13  14
ENDBRANCH  12  13
ENDBRANCH   1  12
TORSDOF 14
ENDMDL
MODEL 2
REMARK VINA RESULT:    -7.147      3.574      8.354
REMARK INTER + INTRA:         -14.289
REMARK INTER:                 -13.120
REMARK INTRA:                  -1.169
REMARK UNBOUND:                -1.292
REMARK SMILES CCCCCCCCCCCCCC[C@H](C)C(=O)[O-]
REMARK SMILES IDX 9 1 10 2 11 3 12 4 13 5 14 6 15 7 16 8 17 9 18 10 19 11 8 12
REMARK SMILES IDX 7 13 6 14 5 15 4 16 3 17 2 18 1 19
REMARK H PARENT
REMARK Flexibility Score: inf
ROOT
ATOM      1  C   UNL     1       5.916  -1.951  21.817  1.00  0.00     0.000 C 
ENDROOT
BRANCH   1   2
ATOM      2  C   UNL     1       6.852  -2.424  20.692  1.00  0.00     0.000 C 
BRANCH   2   3
ATOM      3  C   UNL     1       6.188  -3.408  19.706  1.00  0.00     0.000 C 
BRANCH   3   4
ATOM      4  C   UNL     1       6.991  -4.713  19.560  1.00  0.00     0.000 C 
BRANCH   4   5
ATOM      5  C   UNL     1       7.437  -5.290  20.913  1.00  0.00     0.001 C 
BRANCH   5   6
ATOM      6  C   UNL     1       6.625  -6.536  21.321  1.00  0.00     0.009 C 
BRANCH   6   7
ATOM      7  C   UNL     1       7.487  -7.741  21.761  1.00  0.00     0.032 C 
ATOM      8  C   UNL     1       7.946  -8.608  20.579  1.00  0.00     0.014 C 
BRANCH   7   9
ATOM      9  C   UNL     1       6.802  -8.558  22.825  1.00  0.00     0.044 C 
ATOM     10  O   UNL     1       5.710  -9.141  22.590  1.00  0.00    -0.550 OA
ATOM     11  O   UNL     1       7.351  -8.626  24.099  1.00  0.00    -0.550 OA
ENDBRANCH   7   9
ENDBRANCH   6   7
ENDBRANCH   5   6
ENDBRANCH   4   5
ENDBRANCH   3   4
ENDBRANCH   2   3
ENDBRANCH   1   2
BRANCH   1  12
ATOM     12  C   UNL     1       4.652  -2.818  21.946  1.00  0.00     0.000 C 
BRANCH  12  13
ATOM     13  C   UNL     1       3.357  -1.996  21.833  1.00  0.00    -0.000 C 
BRANCH  13  14
ATOM     14  C   UNL     1       2.902  -1.811  20.375  1.00  0.00    -0.000 C 
BRANCH  14  15
ATOM     15  C   UNL     1       3.395  -0.487  19.767  1.00  0.00    -0.000 C 
BRANCH  15  16
ATOM     16  C   UNL     1       2.801  -0.221  18.373  1.00  0.00    -0.000 C 
BRANCH  16  17
ATOM     17  C   UNL     1       1.322   0.207  18.425  1.00  0.00    -0.000 C 
BRANCH  17  18
ATOM     18  C   UNL     1       0.900   1.223  17.350  1.00  0.00    -0.003 C 
ATOM     19  C   UNL     1       1.074   2.674  17.796  1.00  0.00     0.004 C 
ENDBRANCH  17  18
ENDBRANCH  16  17
ENDBRANCH  15  16
ENDBRANCH  14  15
ENDBRANCH  13  14
ENDBRANCH  12  13
ENDBRANCH   1  12
TORSDOF 14
ENDMDL
MODEL 3
REMARK VINA RESULT:    -6.968      1.471      2.129
REMARK INTER + INTRA:         -13.962
REMARK INTER:                 -13.016
REMARK INTRA:                  -0.946
REMARK UNBOUND:                -1.292
REMARK SMILES CCCCCCCCCCCCCC[C@H](C)C(=O)[O-]
REMARK SMILES IDX 9 1 10 2 11 3 12 4 13 5 14 6 15 7 16 8 17 9 18 10 19 11 8 12
REMARK SMILES IDX 7 13 6 14 5 15 4 16 3 17 2 18 1 19
REMARK H PARENT
REMARK Flexibility Score: inf
ROOT
ATOM      1  C   UNL     1       4.895  -3.290  21.056  1.00  0.00     0.000 C 
ENDROOT
BRANCH   1   2
ATOM      2  C   UNL     1       4.834  -1.814  21.482  1.00  0.00     0.000 C 
BRANCH   2   3
ATOM      3  C   UNL     1       6.089  -1.004  21.091  1.00  0.00     0.000 C 
BRANCH   3   4
ATOM      4  C   UNL     1       5.910  -0.271  19.749  1.00  0.00     0.000 C 
BRANCH   4   5
ATOM      5  C   UNL     1       4.606   0.540  19.685  1.00  0.00     0.001 C 
BRANCH   5   6
ATOM      6  C   UNL     1       3.605  -0.031  18.660  1.00  0.00     0.009 C 
BRANCH   6   7
ATOM      7  C   UNL     1       2.122   0.244  18.997  1.00  0.00     0.032 C 
ATOM      8  C   UNL     1       1.306  -1.043  19.189  1.00  0.00     0.014 C 
BRANCH   7   9
ATOM      9  C   UNL     1       1.485   1.170  17.995  1.00  0.00     0.044 C 
ATOM     10  O   UNL     1       0.952   0.719  16.946  1.00  0.00    -0.550 OA
ATOM     11  O   UNL     1       1.531   2.542  18.201  1.00  0.00    -0.550 OA
ENDBRANCH   7   9
ENDBRANCH   6   7
ENDBRANCH   5   6
ENDBRANCH   4   5
ENDBRANCH   3   4
ENDBRANCH   2   3
ENDBRANCH   1   2
BRANCH   1  12
ATOM     12  C   UNL     1       5.390  -3.475  19.612  1.00  0.00     0.000 C 
BRANCH  12  13
ATOM     13  C   UNL     1       6.597  -4.423  19.518  1.00  0.00    -0.000 C 
BRANCH  13  14
ATOM     14  C   UNL     1       7.147  -4.817  20.900  1.00  0.00    -0.000 C 
BRANCH  14  15
ATOM     15  C   UNL     1       6.721  -6.234  21.321  1.00  0.00    -0.000 C 
BRANCH  15  16
ATOM     16  C   UNL     1       7.874  -7.248  21.231  1.00  0.00    -0.000 C 
BRANCH  16  17
ATOM     17  C   UNL     1       7.407  -8.703  21.422  1.00  0.00    -0.000 C 
BRANCH  17  18
ATOM     18  C   UNL     1       6.450  -8.929  22.606  1.00  0.00    -0.003 C 
ATOM     19  C   UNL     1       7.143  -8.828  23.964  1.00  0.00     0.004 C 
ENDBRANCH  17  18
ENDBRANCH  16  17
ENDBRANCH  15  16
ENDBRANCH  14  15
ENDBRANCH  13  14
ENDBRANCH  12  13
ENDBRANCH   1  12
TORSDOF 14
ENDMDL
MODEL 4
REMARK VINA RESULT:    -6.848      1.487      2.150
REMARK INTER + INTRA:         -13.744
REMARK INTER:                 -12.889
REMARK INTRA:                  -0.855
REMARK UNBOUND:                -1.292
REMARK SMILES CCCCCCCCCCCCCC[C@H](C)C(=O)[O-]
REMARK SMILES IDX 9 1 10 2 11 3 12 4 13 5 14 6 15 7 16 8 17 9 18 10 19 11 8 12
REMARK SMILES IDX 7 13 6 14 5 15 4 16 3 17 2 18 1 19
REMARK H PARENT
REMARK Flexibility Score: inf
ROOT
ATOM      1  C   UNL     1       5.949  -2.776  22.240  1.00  0.00     0.000 C 
ENDROOT
BRANCH   1   2
ATOM      2  C   UNL     1       5.493  -1.451  21.606  1.00  0.00     0.000 C 
BRANCH   2   3
ATOM      3  C   UNL     1       6.543  -0.822  20.665  1.00  0.00     0.000 C 
BRANCH   3   4
ATOM      4  C   UNL     1       5.902   0.117  19.627  1.00  0.00     0.000 C 
BRANCH   4   5
ATOM      5  C   UNL     1       4.418   0.395  19.913  1.00  0.00     0.001 C 
BRANCH   5   6
ATOM      6  C   UNL     1       3.552   0.352  18.639  1.00  0.00     0.009 C 
BRANCH   6   7
ATOM      7  C   UNL     1       2.383  -0.657  18.697  1.00  0.00     0.032 C 
ATOM      8  C   UNL     1       1.056  -0.009  19.117  1.00  0.00     0.014 C 
BRANCH   7   9
ATOM      9  C   UNL     1       2.720  -1.852  19.550  1.00  0.00     0.044 C 
ATOM     10  O   UNL     1       2.319  -1.929  20.742  1.00  0.00    -0.550 OA
ATOM     11  O   UNL     1       3.528  -2.857  19.036  1.00  0.00    -0.550 OA
ENDBRANCH   7   9
ENDBRANCH   6   7
ENDBRANCH   5   6
ENDBRANCH   4   5
ENDBRANCH   3   4
ENDBRANCH   2   3
ENDBRANCH   1   2
BRANCH   1  12
ATOM     12  C   UNL     1       5.380  -4.010  21.521  1.00  0.00     0.000 C 
BRANCH  12  13
ATOM     13  C   UNL     1       6.253  -4.460  20.338  1.00  0.00    -0.000 C 
BRANCH  13  14
ATOM     14  C   UNL     1       7.740  -4.579  20.714  1.00  0.00    -0.000 C 
BRANCH  14  15
ATOM     15  C   UNL     1       8.055  -5.884  21.465  1.00  0.00    -0.000 C 
BRANCH  15  16
ATOM     16  C   UNL     1       6.920  -6.917  21.354  1.00  0.00    -0.000 C 
BRANCH  16  17
ATOM     17  C   UNL     1       7.437  -8.360  21.211  1.00  0.00    -0.000 C 
BRANCH  17  18
ATOM     18  C   UNL     1       6.869  -9.360  22.234  1.00  0.00    -0.003 C 
ATOM     19  C   UNL     1       6.897  -8.831  23.667  1.00  0.00     0.004 C 
ENDBRANCH  17  18
ENDBRANCH  16  17
ENDBRANCH  15  16
ENDBRANCH  14  15
ENDBRANCH  13  14
ENDBRANCH  12  13
ENDBRANCH   1  12
TORSDOF 14
ENDMDL
MODEL 5
REMARK VINA RESULT:    -6.748      4.012      5.626
REMARK INTER + INTRA:         -13.563
REMARK INTER:                 -12.985
REMARK INTRA:                  -0.578
REMARK UNBOUND:                -1.292
REMARK SMILES CCCCCCCCCCCCCC[C@H](C)C(=O)[O-]
REMARK SMILES IDX 9 1 10 2 11 3 12 4 13 5 14 6 15 7 16 8 17 9 18 10 19 11 8 12
REMARK SMILES IDX 7 13 6 14 5 15 4 16 3 17 2 18 1 19
REMARK H PARENT
REMARK Flexibility Score: inf
ROOT
ATOM      1  C   UNL     1       3.604  -0.217  18.925  1.00  0.00     0.000 C 
ENDROOT
BRANCH   1   2
ATOM      2  C   UNL     1       2.640   0.978  18.829  1.00  0.00     0.000 C 
BRANCH   2   3
ATOM      3  C   UNL     1       1.401   0.704  17.950  1.00  0.00     0.000 C 
BRANCH   3   4
ATOM      4  C   UNL     1       0.875   1.984  17.275  1.00  0.00     0.000 C 
BRANCH   4   5
ATOM      5  C   UNL     1       1.538   3.259  17.820  1.00  0.00     0.001 C 
BRANCH   5   6
ATOM      6  C   UNL     1       1.062   4.531  17.090  1.00  0.00     0.009 C 
BRANCH   6   7
ATOM      7  C   UNL     1       1.775   5.826  17.538  1.00  0.00     0.032 C 
ATOM      8  C   UNL     1       0.997   6.593  18.617  1.00  0.00     0.014 C 
BRANCH   7   9
ATOM      9  C   UNL     1       2.125   6.704  16.365  1.00  0.00     0.044 C 
ATOM     10  O   UNL     1       3.096   6.424  15.614  1.00  0.00    -0.550 OA
ATOM     11  O   UNL     1       1.401   7.867  16.138  1.00  0.00    -0.550 OA
ENDBRANCH   7   9
ENDBRANCH   6   7
ENDBRANCH   5   6
ENDBRANCH   4   5
ENDBRANCH   3   4
ENDBRANCH   2   3
ENDBRANCH   1   2
BRANCH   1  12
ATOM     12  C   UNL     1       3.230  -1.197  20.050  1.00  0.00     0.000 C 
BRANCH  12  13
ATOM     13  C   UNL     1       3.571  -2.655  19.701  1.00  0.00    -0.000 C 
BRANCH  13  14
ATOM     14  C   UNL     1       4.473  -3.318  20.757  1.00  0.00    -0.000 C 
BRANCH  14  15
ATOM     15  C   UNL     1       5.691  -4.021  20.133  1.00  0.00    -0.000 C 
BRANCH  15  16
ATOM     16  C   UNL     1       6.966  -3.850  20.978  1.00  0.00    -0.000 C 
BRANCH  16  17
ATOM     17  C   UNL     1       7.734  -5.171  21.174  1.00  0.00    -0.000 C 
BRANCH  17  18
ATOM     18  C   UNL     1       6.849  -6.416  21.358  1.00  0.00    -0.003 C 
ATOM     19  C   UNL     1       7.644  -7.722  21.352  1.00  0.00     0.004 C 
ENDBRANCH  17  18
ENDBRANCH  16  17
ENDBRANCH  15  16
ENDBRANCH  14  15
ENDBRANCH  13  14
ENDBRANCH  12  13
ENDBRANCH   1  12
TORSDOF 14
ENDMDL
MODEL 6
REMARK VINA RESULT:    -6.735      4.012      9.498
REMARK INTER + INTRA:         -13.539
REMARK INTER:                 -12.661
REMARK INTRA:                  -0.878
REMARK UNBOUND:                -1.292
REMARK SMILES CCCCCCCCCCCCCC[C@H](C)C(=O)[O-]
REMARK SMILES IDX 9 1 10 2 11 3 12 4 13 5 14 6 15 7 16 8 17 9 18 10 19 11 8 12
REMARK SMILES IDX 7 13 6 14 5 15 4 16 3 17 2 18 1 19
REMARK H PARENT
REMARK Flexibility Score: inf
ROOT
ATOM      1  C   UNL     1       3.120  -0.161  19.097  1.00  0.00     0.000 C 
ENDROOT
BRANCH   1   2
ATOM      2  C   UNL     1       2.283  -1.430  19.336  1.00  0.00     0.000 C 
BRANCH   2   3
ATOM      3  C   UNL     1       2.939  -2.429  20.312  1.00  0.00     0.000 C 
BRANCH   3   4
ATOM      4  C   UNL     1       3.109  -1.835  21.722  1.00  0.00     0.000 C 
BRANCH   4   5
ATOM      5  C   UNL     1       4.295  -2.447  22.485  1.00  0.00     0.001 C 
BRANCH   5   6
ATOM      6  C   UNL     1       5.038  -3.518  21.662  1.00  0.00     0.009 C 
BRANCH   6   7
ATOM      7  C   UNL     1       6.505  -3.163  21.332  1.00  0.00     0.032 C 
ATOM      8  C   UNL     1       6.646  -1.805  20.628  1.00  0.00     0.014 C 
BRANCH   7   9
ATOM      9  C   UNL     1       7.187  -4.267  20.566  1.00  0.00     0.044 C 
ATOM     10  O   UNL     1       6.850  -4.536  19.382  1.00  0.00    -0.550 OA
ATOM     11  O   UNL     1       8.163  -5.033  21.188  1.00  0.00    -0.550 OA
ENDBRANCH   7   9
ENDBRANCH   6   7
ENDBRANCH   5   6
ENDBRANCH   4   5
ENDBRANCH   3   4
ENDBRANCH   2   3
ENDBRANCH   1   2
BRANCH   1  12
ATOM     12  C   UNL     1       2.880   0.460  17.711  1.00  0.00     0.000 C 
BRANCH  12  13
ATOM     13  C   UNL     1       1.423   0.908  17.507  1.00  0.00    -0.000 C 
BRANCH  13  14
ATOM     14  C   UNL     1       1.121   2.256  18.185  1.00  0.00    -0.000 C 
BRANCH  14  15
ATOM     15  C   UNL     1       0.942   3.398  17.170  1.00  0.00    -0.000 C 
BRANCH  15  16
ATOM     16  C   UNL     1       1.080   4.788  17.815  1.00  0.00    -0.000 C 
BRANCH  16  17
ATOM     17  C   UNL     1       1.067   5.930  16.783  1.00  0.00    -0.000 C 
BRANCH  17  18
ATOM     18  C   UNL     1       2.450   6.331  16.238  1.00  0.00    -0.003 C 
ATOM     19  C   UNL     1       2.377   7.399  15.148  1.00  0.00     0.004 C 
ENDBRANCH  17  18
ENDBRANCH  16  17
ENDBRANCH  15  16
ENDBRANCH  14  15
ENDBRANCH  13  14
ENDBRANCH  12  13
ENDBRANCH   1  12
TORSDOF 14
ENDMDL
MODEL 7
REMARK VINA RESULT:    -6.664      4.020      9.736
REMARK INTER + INTRA:         -13.409
REMARK INTER:                 -12.380
REMARK INTRA:                  -1.029
REMARK UNBOUND:                -1.292
REMARK SMILES CCCCCCCCCCCCCC[C@H](C)C(=O)[O-]
REMARK SMILES IDX 9 1 10 2 11 3 12 4 13 5 14 6 15 7 16 8 17 9 18 10 19 11 8 12
REMARK SMILES IDX 7 13 6 14 5 15 4 16 3 17 2 18 1 19
REMARK H PARENT
REMARK Flexibility Score: inf
ROOT
ATOM      1  C   UNL     1       2.953   0.898  18.464  1.00  0.00     0.000 C 
ENDROOT
BRANCH   1   2
ATOM      2  C   UNL     1       3.603  -0.313  19.155  1.00  0.00     0.000 C 
BRANCH   2   3
ATOM      3  C   UNL     1       2.666  -1.037  20.145  1.00  0.00     0.000 C 
BRANCH   3   4
ATOM      4  C   UNL     1       2.888  -2.560  20.144  1.00  0.00     0.000 C 
BRANCH   4   5
ATOM      5  C   UNL     1       4.038  -2.993  19.222  1.00  0.00     0.001 C 
BRANCH   5   6
ATOM      6  C   UNL     1       5.085  -3.861  19.949  1.00  0.00     0.009 C 
BRANCH   6   7
ATOM      7  C   UNL     1       6.396  -3.121  20.296  1.00  0.00     0.032 C 
ATOM      8  C   UNL     1       7.589  -4.072  20.471  1.00  0.00     0.014 C 
BRANCH   7   9
ATOM      9  C   UNL     1       6.225  -2.208  21.482  1.00  0.00     0.044 C 
ATOM     10  O   UNL     1       5.948  -2.672  22.620  1.00  0.00    -0.550 OA
ATOM     11  O   UNL     1       6.320  -0.834  21.311  1.00  0.00    -0.550 OA
ENDBRANCH   7   9
ENDBRANCH   6   7
ENDBRANCH   5   6
ENDBRANCH   4   5
ENDBRANCH   3   4
ENDBRANCH   2   3
ENDBRANCH   1   2
BRANCH   1  12
ATOM     12  C   UNL     1       1.632   0.546  17.761  1.00  0.00     0.000 C 
BRANCH  12  13
ATOM     13  C   UNL     1       0.939   1.776  17.152  1.00  0.00    -0.000 C 
BRANCH  13  14
ATOM     14  C   UNL     1       0.967   2.994  18.092  1.00  0.00    -0.000 C 
BRANCH  14  15
ATOM     15  C   UNL     1       0.882   4.328  17.330  1.00  0.00    -0.000 C 
BRANCH  15  16
ATOM     16  C   UNL     1       1.937   5.344  17.801  1.00  0.00    -0.000 C 
BRANCH  16  17
ATOM     17  C   UNL     1       1.729   6.745  17.197  1.00  0.00    -0.000 C 
BRANCH  17  18
ATOM     18  C   UNL     1       1.500   6.770  15.675  1.00  0.00    -0.003 C 
ATOM     19  C   UNL     1       2.510   7.642  14.931  1.00  0.00     0.004 C 
ENDBRANCH  17  18
ENDBRANCH  16  17
ENDBRANCH  15  16
ENDBRANCH  14  15
ENDBRANCH  13  14
ENDBRANCH  12  13
ENDBRANCH   1  12
TORSDOF 14
ENDMDL
MODEL 8
REMARK VINA RESULT:    -6.467      3.677      8.844
REMARK INTER + INTRA:         -13.052
REMARK INTER:                 -12.620
REMARK INTRA:                  -0.432
REMARK UNBOUND:                -1.292
REMARK SMILES CCCCCCCCCCCCCC[C@H](C)C(=O)[O-]
REMARK SMILES IDX 9 1 10 2 11 3 12 4 13 5 14 6 15 7 16 8 17 9 18 10 19 11 8 12
REMARK SMILES IDX 7 13 6 14 5 15 4 16 3 17 2 18 1 19
REMARK H PARENT
REMARK Flexibility Score: inf
ROOT
ATOM      1  C   UNL     1       3.601  -0.681  19.499  1.00  0.00     0.000 C 
ENDROOT
BRANCH   1   2
ATOM      2  C   UNL     1       4.922  -1.463  19.590  1.00  0.00     0.000 C 
BRANCH   2   3
ATOM      3  C   UNL     1       5.896  -0.911  20.652  1.00  0.00     0.000 C 
BRANCH   3   4
ATOM      4  C   UNL     1       6.362  -2.000  21.635  1.00  0.00     0.000 C 
BRANCH   4   5
ATOM      5  C   UNL     1       5.216  -2.916  22.093  1.00  0.00     0.001 C 
BRANCH   5   6
ATOM      6  C   UNL     1       5.331  -4.341  21.515  1.00  0.00     0.009 C 
BRANCH   6   7
ATOM      7  C   UNL     1       6.694  -4.654  20.858  1.00  0.00     0.032 C 
ATOM      8  C   UNL     1       6.664  -4.522  19.328  1.00  0.00     0.014 C 
BRANCH   7   9
ATOM      9  C   UNL     1       7.230  -5.992  21.297  1.00  0.00     0.044 C 
ATOM     10  O   UNL     1       6.458  -6.971  21.473  1.00  0.00    -0.550 OA
ATOM     11  O   UNL     1       8.585  -6.135  21.563  1.00  0.00    -0.550 OA
ENDBRANCH   7   9
ENDBRANCH   6   7
ENDBRANCH   5   6
ENDBRANCH   4   5
ENDBRANCH   3   4
ENDBRANCH   2   3
ENDBRANCH   1   2
BRANCH   1  12
ATOM     12  C   UNL     1       2.362  -1.580  19.651  1.00  0.00     0.000 C 
BRANCH  12  13
ATOM     13  C   UNL     1       1.169  -1.091  18.813  1.00  0.00    -0.000 C 
BRANCH  13  14
ATOM     14  C   UNL     1       0.875   0.405  19.023  1.00  0.00    -0.000 C 
BRANCH  14  15
ATOM     15  C   UNL     1       1.669   1.303  18.058  1.00  0.00    -0.000 C 
BRANCH  15  16
ATOM     16  C   UNL     1       0.876   2.546  17.622  1.00  0.00    -0.000 C 
BRANCH  16  17
ATOM     17  C   UNL     1       1.684   3.850  17.763  1.00  0.00    -0.000 C 
BRANCH  17  18
ATOM     18  C   UNL     1       1.126   5.049  16.976  1.00  0.00    -0.003 C 
ATOM     19  C   UNL     1       1.953   6.321  17.157  1.00  0.00     0.004 C 
ENDBRANCH  17  18
ENDBRANCH  16  17
ENDBRANCH  15  16
ENDBRANCH  14  15
ENDBRANCH  13  14
ENDBRANCH  12  13
ENDBRANCH   1  12
TORSDOF 14
ENDMDL
MODEL 9
REMARK VINA RESULT:    -6.346      3.698      7.916
REMARK INTER + INTRA:         -12.832
REMARK INTER:                 -11.370
REMARK INTRA:                  -1.462
REMARK UNBOUND:                -1.292
REMARK SMILES CCCCCCCCCCCCCC[C@H](C)C(=O)[O-]
REMARK SMILES IDX 9 1 10 2 11 3 12 4 13 5 14 6 15 7 16 8 17 9 18 10 19 11 8 12
REMARK SMILES IDX 7 13 6 14 5 15 4 16 3 17 2 18 1 19
REMARK H PARENT
REMARK Flexibility Score: inf
ROOT
ATOM      1  C   UNL     1       4.828  -3.514  19.947  1.00  0.00     0.000 C 
ENDROOT
BRANCH   1   2
ATOM      2  C   UNL     1       5.060  -3.530  21.467  1.00  0.00     0.000 C 
BRANCH   2   3
ATOM      3  C   UNL     1       6.550  -3.485  21.866  1.00  0.00     0.000 C 
BRANCH   3   4
ATOM      4  C   UNL     1       7.440  -4.250  20.870  1.00  0.00     0.000 C 
BRANCH   4   5
ATOM      5  C   UNL     1       8.013  -5.548  21.460  1.00  0.00     0.001 C 
BRANCH   5   6
ATOM      6  C   UNL     1       7.009  -6.716  21.405  1.00  0.00     0.009 C 
BRANCH   6   7
ATOM      7  C   UNL     1       7.643  -8.111  21.605  1.00  0.00     0.032 C 
ATOM      8  C   UNL     1       7.694  -8.934  20.310  1.00  0.00     0.014 C 
BRANCH   7   9
ATOM      9  C   UNL     1       6.982  -8.868  22.727  1.00  0.00     0.044 C 
ATOM     10  O   UNL     1       6.956  -8.400  23.897  1.00  0.00    -0.550 OA
ATOM     11  O   UNL     1       6.440 -10.123  22.484  1.00  0.00    -0.550 OA
ENDBRANCH   7   9
ENDBRANCH   6   7
ENDBRANCH   5   6
ENDBRANCH   4   5
ENDBRANCH   3   4
ENDBRANCH   2   3
ENDBRANCH   1   2
BRANCH   1  12
ATOM     12  C   UNL     1       3.350  -3.314  19.571  1.00  0.00     0.000 C 
BRANCH  12  13
ATOM     13  C   UNL     1       2.747  -2.045  20.197  1.00  0.00    -0.000 C 
BRANCH  13  14
ATOM     14  C   UNL     1       1.685  -1.391  19.296  1.00  0.00    -0.000 C 
BRANCH  14  15
ATOM     15  C   UNL     1       1.927   0.116  19.100  1.00  0.00    -0.000 C 
BRANCH  15  16
ATOM     16  C   UNL     1       3.237   0.410  18.348  1.00  0.00    -0.000 C 
BRANCH  16  17
ATOM     17  C   UNL     1       4.351   0.935  19.273  1.00  0.00    -0.000 C 
BRANCH  17  18
ATOM     18  C   UNL     1       5.606   0.048  19.349  1.00  0.00    -0.003 C 
ATOM     19  C   UNL     1       6.163  -0.082  20.766  1.00  0.00     0.004 C 
ENDBRANCH  17  18
ENDBRANCH  16  17
ENDBRANCH  15  16
ENDBRANCH  14  15
ENDBRANCH  13  14
ENDBRANCH  12  13
ENDBRANCH   1  12
TORSDOF 14
ENDMDL
