MODEL 1
REMARK VINA RESULT:    -3.125      0.000      0.000
REMARK INTER + INTRA:          -3.548
REMARK INTER:                  -3.491
REMARK INTRA:                  -0.057
REMARK UNBOUND:                -0.057
REMARK SMILES CCCC(=O)[O-]
REMARK SMILES IDX 3 1 4 2 5 3 6 4 2 5 1 6
REMARK H PARENT
REMARK Flexibility Score: inf
ROOT
ATOM      1  C   UNL     1      16.085 -38.101  27.303  1.00  0.00     0.052 C 
ENDROOT
BRANCH   1   2
ATOM      2  C   UNL     1      16.985 -37.430  26.311  1.00  0.00     0.041 C 
ATOM      3  O   UNL     1      17.916 -38.074  25.761  1.00  0.00    -0.550 OA
ATOM      4  O   UNL     1      16.774 -36.100  25.969  1.00  0.00    -0.550 OA
ENDBRANCH   1   2
BRANCH   1   5
ATOM      5  C   UNL     1      16.080 -37.367  28.651  1.00  0.00     0.003 C 
ATOM      6  C   UNL     1      17.316 -37.686  29.491  1.00  0.00     0.004 C 
ENDBRANCH   1   5
TORSDOF 2
ENDMDL
MODEL 2
REMARK VINA RESULT:    -3.124     10.910     11.708
REMARK INTER + INTRA:          -3.546
REMARK INTER:                  -3.518
REMARK INTRA:                  -0.028
REMARK UNBOUND:                -0.057
REMARK SMILES CCCC(=O)[O-]
REMARK SMILES IDX 3 1 4 2 5 3 6 4 2 5 1 6
REMARK H PARENT
REMARK Flexibility Score: inf
ROOT
ATOM      1  C   UNL     1      12.427 -27.279  24.701  1.00  0.00     0.052 C 
ENDROOT
BRANCH   1   2
ATOM      2  C   UNL     1      13.421 -26.184  24.461  1.00  0.00     0.041 C 
ATOM      3  O   UNL     1      13.487 -25.622  23.337  1.00  0.00    -0.550 OA
ATOM      4  O   UNL     1      14.252 -25.763  25.491  1.00  0.00    -0.550 OA
ENDBRANCH   1   2
BRANCH   1   5
ATOM      5  C   UNL     1      12.221 -28.142  23.448  1.00  0.00     0.003 C 
ATOM      6  C   UNL     1      12.911 -29.502  23.558  1.00  0.00     0.004 C 
ENDBRANCH   1   5
TORSDOF 2
ENDMDL
MODEL 3
REMARK VINA RESULT:    -3.116      1.347      1.895
REMARK INTER + INTRA:          -3.537
REMARK INTER:                  -3.515
REMARK INTRA:                  -0.023
REMARK UNBOUND:                -0.057
REMARK SMILES CCCC(=O)[O-]
REMARK SMILES IDX 3 1 4 2 5 3 6 4 2 5 1 6
REMARK H PARENT
REMARK Flexibility Score: inf
ROOT
ATOM      1  C   UNL     1      16.611 -37.128  28.529  1.00  0.00     0.052 C 
ENDROOT
BRANCH   1   2
ATOM      2  C   UNL     1      16.321 -37.777  27.211  1.00  0.00     0.041 C 
ATOM      3  O   UNL     1      15.148 -38.125  26.919  1.00  0.00    -0.550 OA
ATOM      4  O   UNL     1      17.344 -37.968  26.291  1.00  0.00    -0.550 OA
ENDBRANCH   1   2
BRANCH   1   5
ATOM      5  C   UNL     1      17.208 -38.123  29.533  1.00  0.00     0.003 C 
ATOM      6  C   UNL     1      18.557 -37.658  30.081  1.00  0.00     0.004 C 
ENDBRANCH   1   5
TORSDOF 2
ENDMDL
MODEL 4
REMARK VINA RESULT:    -3.024      9.463      9.749
REMARK INTER + INTRA:          -3.435
REMARK INTER:                  -3.403
REMARK INTRA:                  -0.031
REMARK UNBOUND:                -0.057
REMARK SMILES CCCC(=O)[O-]
REMARK SMILES IDX 3 1 4 2 5 3 6 4 2 5 1 6
REMARK H PARENT
REMARK Flexibility Score: inf
ROOT
ATOM      1  C   UNL     1      12.466 -30.597  22.249  1.00  0.00     0.052 C 
ENDROOT
BRANCH   1   2
ATOM      2  C   UNL     1      13.402 -30.847  21.107  1.00  0.00     0.041 C 
ATOM      3  O   UNL     1      14.507 -30.248  21.048  1.00  0.00    -0.550 OA
ATOM      4  O   UNL     1      13.066 -31.768  20.122  1.00  0.00    -0.550 OA
ENDBRANCH   1   2
BRANCH   1   5
ATOM      5  C   UNL     1      13.167 -29.877  23.409  1.00  0.00     0.003 C 
ATOM      6  C   UNL     1      12.428 -28.610  23.838  1.00  0.00     0.004 C 
ENDBRANCH   1   5
TORSDOF 2
ENDMDL
MODEL 5
REMARK VINA RESULT:    -2.984      9.238      9.973
REMARK INTER + INTRA:          -3.390
REMARK INTER:                  -3.384
REMARK INTRA:                  -0.005
REMARK UNBOUND:                -0.057
REMARK SMILES CCCC(=O)[O-]
REMARK SMILES IDX 3 1 4 2 5 3 6 4 2 5 1 6
REMARK H PARENT
REMARK Flexibility Score: inf
ROOT
ATOM      1  C   UNL     1      13.285 -29.104  23.156  1.00  0.00     0.052 C 
ENDROOT
BRANCH   1   2
ATOM      2  C   UNL     1      12.922 -30.516  22.811  1.00  0.00     0.041 C 
ATOM      3  O   UNL     1      12.157 -30.756  21.842  1.00  0.00    -0.550 OA
ATOM      4  O   UNL     1      13.456 -31.569  23.543  1.00  0.00    -0.550 OA
ENDBRANCH   1   2
BRANCH   1   5
ATOM      5  C   UNL     1      12.128 -28.374  23.851  1.00  0.00     0.003 C 
ATOM      6  C   UNL     1      12.608 -27.196  24.698  1.00  0.00     0.004 C 
ENDBRANCH   1   5
TORSDOF 2
ENDMDL
MODEL 6
REMARK VINA RESULT:    -2.964     13.950     14.884
REMARK INTER + INTRA:          -3.367
REMARK INTER:                  -3.329
REMARK INTRA:                  -0.038
REMARK UNBOUND:                -0.057
REMARK SMILES CCCC(=O)[O-]
REMARK SMILES IDX 3 1 4 2 5 3 6 4 2 5 1 6
REMARK H PARENT
REMARK Flexibility Score: inf
ROOT
ATOM      1  C   UNL     1      21.626 -25.161  20.571  1.00  0.00     0.052 C 
ENDROOT
BRANCH   1   2
ATOM      2  C   UNL     1      22.726 -25.401  19.582  1.00  0.00     0.041 C 
ATOM      3  O   UNL     1      23.246 -24.436  18.965  1.00  0.00    -0.550 OA
ATOM      4  O   UNL     1      23.197 -26.690  19.366  1.00  0.00    -0.550 OA
ENDBRANCH   1   2
BRANCH   1   5
ATOM      5  C   UNL     1      20.268 -25.630  20.034  1.00  0.00     0.003 C 
ATOM      6  C   UNL     1      19.782 -26.908  20.717  1.00  0.00     0.004 C 
ENDBRANCH   1   5
TORSDOF 2
ENDMDL
MODEL 7
REMARK VINA RESULT:    -2.944     14.370     15.268
REMARK INTER + INTRA:          -3.346
REMARK INTER:                  -3.315
REMARK INTRA:                  -0.031
REMARK UNBOUND:                -0.057
REMARK SMILES CCCC(=O)[O-]
REMARK SMILES IDX 3 1 4 2 5 3 6 4 2 5 1 6
REMARK H PARENT
REMARK Flexibility Score: inf
ROOT
ATOM      1  C   UNL     1      21.669 -24.949  20.649  1.00  0.00     0.052 C 
ENDROOT
BRANCH   1   2
ATOM      2  C   UNL     1      22.851 -24.745  19.751  1.00  0.00     0.041 C 
ATOM      3  O   UNL     1      23.046 -25.515  18.775  1.00  0.00    -0.550 OA
ATOM      4  O   UNL     1      23.718 -23.683  19.974  1.00  0.00    -0.550 OA
ENDBRANCH   1   2
BRANCH   1   5
ATOM      5  C   UNL     1      20.476 -25.545  19.891  1.00  0.00     0.003 C 
ATOM      6  C   UNL     1      19.888 -26.766  20.599  1.00  0.00     0.004 C 
ENDBRANCH   1   5
TORSDOF 2
ENDMDL
MODEL 8
REMARK VINA RESULT:    -2.944      9.456     10.375
REMARK INTER + INTRA:          -3.345
REMARK INTER:                  -3.332
REMARK INTRA:                  -0.013
REMARK UNBOUND:                -0.057
REMARK SMILES CCCC(=O)[O-]
REMARK SMILES IDX 3 1 4 2 5 3 6 4 2 5 1 6
REMARK H PARENT
REMARK Flexibility Score: inf
ROOT
ATOM      1  C   UNL     1      13.265 -29.103  23.130  1.00  0.00     0.052 C 
ENDROOT
BRANCH   1   2
ATOM      2  C   UNL     1      12.136 -28.288  23.683  1.00  0.00     0.041 C 
ATOM      3  O   UNL     1      12.330 -27.509  24.652  1.00  0.00    -0.550 OA
ATOM      4  O   UNL     1      10.875 -28.367  23.105  1.00  0.00    -0.550 OA
ENDBRANCH   1   2
BRANCH   1   5
ATOM      5  C   UNL     1      12.813 -30.522  22.761  1.00  0.00     0.003 C 
ATOM      6  C   UNL     1      13.560 -31.595  23.553  1.00  0.00     0.004 C 
ENDBRANCH   1   5
TORSDOF 2
ENDMDL
MODEL 9
REMARK VINA RESULT:    -2.654      2.220      3.143
REMARK INTER + INTRA:          -3.021
REMARK INTER:                  -2.999
REMARK INTRA:                  -0.022
REMARK UNBOUND:                -0.057
REMARK SMILES CCCC(=O)[O-]
REMARK SMILES IDX 3 1 4 2 5 3 6 4 2 5 1 6
REMARK H PARENT
REMARK Flexibility Score: inf
ROOT
ATOM      1  C   UNL     1      16.282 -37.151  28.032  1.00  0.00     0.052 C 
ENDROOT
BRANCH   1   2
ATOM      2  C   UNL     1      17.442 -37.570  28.882  1.00  0.00     0.041 C 
ATOM      3  O   UNL     1      17.246 -38.125  29.994  1.00  0.00    -0.550 OA
ATOM      4  O   UNL     1      18.741 -37.377  28.429  1.00  0.00    -0.550 OA
ENDBRANCH   1   2
BRANCH   1   5
ATOM      5  C   UNL     1      16.514 -37.482  26.552  1.00  0.00     0.003 C 
ATOM      6  C   UNL     1      16.874 -36.245  25.729  1.00  0.00     0.004 C 
ENDBRANCH   1   5
TORSDOF 2
ENDMDL
