MODEL 1
REMARK VINA RESULT:    -4.228      0.000      0.000
REMARK INTER + INTRA:          -8.070
REMARK INTER:                  -6.700
REMARK INTRA:                  -1.370
REMARK UNBOUND:                -1.370
REMARK SMILES CCCCCCCCCCCC(=O)[O-]
REMARK SMILES IDX 7 1 8 2 9 3 10 4 11 5 12 6 13 7 14 8 6 9 5 10 4 11 3 12 2 13
REMARK SMILES IDX 1 14
REMARK H PARENT
REMARK Flexibility Score: inf
ROOT
ATOM      1  C   UNL     1     -45.846  26.031 -13.677  1.00  0.00     0.000 C 
ENDROOT
BRANCH   1   2
ATOM      2  C   UNL     1     -47.236  25.476 -14.011  1.00  0.00     0.000 C 
BRANCH   2   3
ATOM      3  C   UNL     1     -48.161  26.585 -14.534  1.00  0.00     0.000 C 
BRANCH   3   4
ATOM      4  C   UNL     1     -49.433  26.033 -15.195  1.00  0.00     0.006 C 
BRANCH   4   5
ATOM      5  C   UNL     1     -49.472  24.499 -15.215  1.00  0.00     0.053 C 
BRANCH   5   6
ATOM      6  C   UNL     1     -50.867  24.010 -14.992  1.00  0.00     0.041 C 
ATOM      7  O   UNL     1     -51.155  22.800 -15.190  1.00  0.00    -0.550 OA
ATOM      8  O   UNL     1     -51.865  24.900 -14.614  1.00  0.00    -0.550 OA
ENDBRANCH   5   6
ENDBRANCH   4   5
ENDBRANCH   3   4
ENDBRANCH   2   3
ENDBRANCH   1   2
BRANCH   1   9
ATOM      9  C   UNL     1     -45.755  27.526 -14.016  1.00  0.00     0.000 C 
BRANCH   9  10
ATOM     10  C   UNL     1     -44.666  27.835 -15.056  1.00  0.00    -0.000 C 
BRANCH  10  11
ATOM     11  C   UNL     1     -45.229  27.966 -16.481  1.00  0.00    -0.000 C 
BRANCH  11  12
ATOM     12  C   UNL     1     -45.209  26.636 -17.257  1.00  0.00    -0.000 C 
BRANCH  12  13
ATOM     13  C   UNL     1     -46.519  26.288 -17.987  1.00  0.00    -0.003 C 
ATOM     14  C   UNL     1     -47.481  27.472 -18.087  1.00  0.00     0.004 C 
ENDBRANCH  12  13
ENDBRANCH  11  12
ENDBRANCH  10  11
ENDBRANCH   9  10
ENDBRANCH   1   9
TORSDOF 10
ENDMDL
MODEL 2
REMARK VINA RESULT:    -4.177      3.286      4.904
REMARK INTER + INTRA:          -7.988
REMARK INTER:                  -6.537
REMARK INTRA:                  -1.451
REMARK UNBOUND:                -1.370
REMARK SMILES CCCCCCCCCCCC(=O)[O-]
REMARK SMILES IDX 7 1 8 2 9 3 10 4 11 5 12 6 13 7 14 8 6 9 5 10 4 11 3 12 2 13
REMARK SMILES IDX 1 14
REMARK H PARENT
REMARK Flexibility Score: inf
ROOT
ATOM      1  C   UNL     1     -45.610  27.813 -13.528  1.00  0.00     0.000 C 
ENDROOT
BRANCH   1   2
ATOM      2  C   UNL     1     -44.961  27.321 -14.828  1.00  0.00     0.000 C 
BRANCH   2   3
ATOM      3  C   UNL     1     -44.940  28.433 -15.887  1.00  0.00     0.000 C 
BRANCH   3   4
ATOM      4  C   UNL     1     -44.742  27.891 -17.311  1.00  0.00     0.006 C 
BRANCH   4   5
ATOM      5  C   UNL     1     -44.936  26.371 -17.398  1.00  0.00     0.053 C 
BRANCH   5   6
ATOM      6  C   UNL     1     -44.950  25.927 -18.826  1.00  0.00     0.041 C 
ATOM      7  O   UNL     1     -45.226  24.734 -19.117  1.00  0.00    -0.550 OA
ATOM      8  O   UNL     1     -44.609  26.820 -19.834  1.00  0.00    -0.550 OA
ENDBRANCH   5   6
ENDBRANCH   4   5
ENDBRANCH   3   4
ENDBRANCH   2   3
ENDBRANCH   1   2
BRANCH   1   9
ATOM      9  C   UNL     1     -46.849  26.975 -13.181  1.00  0.00     0.000 C 
BRANCH   9  10
ATOM     10  C   UNL     1     -46.832  25.587 -13.842  1.00  0.00    -0.000 C 
BRANCH  10  11
ATOM     11  C   UNL     1     -48.030  25.365 -14.781  1.00  0.00    -0.000 C 
BRANCH  11  12
ATOM     12  C   UNL     1     -48.802  26.663 -15.085  1.00  0.00    -0.000 C 
BRANCH  12  13
ATOM     13  C   UNL     1     -48.471  27.314 -16.440  1.00  0.00    -0.003 C 
ATOM     14  C   UNL     1     -48.579  26.340 -17.614  1.00  0.00     0.004 C 
ENDBRANCH  12  13
ENDBRANCH  11  12
ENDBRANCH  10  11
ENDBRANCH   9  10
ENDBRANCH   1   9
TORSDOF 10
ENDMDL
MODEL 3
REMARK VINA RESULT:    -4.160      0.879      2.975
REMARK INTER + INTRA:          -7.962
REMARK INTER:                  -6.636
REMARK INTRA:                  -1.326
REMARK UNBOUND:                -1.370
REMARK SMILES CCCCCCCCCCCC(=O)[O-]
REMARK SMILES IDX 7 1 8 2 9 3 10 4 11 5 12 6 13 7 14 8 6 9 5 10 4 11 3 12 2 13
REMARK SMILES IDX 1 14
REMARK H PARENT
REMARK Flexibility Score: inf
ROOT
ATOM      1  C   UNL     1     -46.111  26.368 -18.410  1.00  0.00     0.000 C 
ENDROOT
BRANCH   1   2
ATOM      2  C   UNL     1     -47.431  26.637 -17.677  1.00  0.00     0.000 C 
BRANCH   2   3
ATOM      3  C   UNL     1     -48.030  25.335 -17.124  1.00  0.00     0.000 C 
BRANCH   3   4
ATOM      4  C   UNL     1     -49.042  25.581 -15.994  1.00  0.00     0.006 C 
BRANCH   4   5
ATOM      5  C   UNL     1     -49.303  24.326 -15.151  1.00  0.00     0.053 C 
BRANCH   5   6
ATOM      6  C   UNL     1     -50.773  24.086 -15.014  1.00  0.00     0.041 C 
ATOM      7  O   UNL     1     -51.547  25.037 -14.725  1.00  0.00    -0.550 OA
ATOM      8  O   UNL     1     -51.283  22.802 -15.155  1.00  0.00    -0.550 OA
ENDBRANCH   5   6
ENDBRANCH   4   5
ENDBRANCH   3   4
ENDBRANCH   2   3
ENDBRANCH   1   2
BRANCH   1   9
ATOM      9  C   UNL     1     -44.912  26.548 -17.467  1.00  0.00     0.000 C 
BRANCH   9  10
ATOM     10  C   UNL     1     -44.953  27.881 -16.702  1.00  0.00    -0.000 C 
BRANCH  10  11
ATOM     11  C   UNL     1     -44.954  27.686 -15.176  1.00  0.00    -0.000 C 
BRANCH  11  12
ATOM     12  C   UNL     1     -45.029  26.205 -14.761  1.00  0.00    -0.000 C 
BRANCH  12  13
ATOM     13  C   UNL     1     -46.096  25.880 -13.701  1.00  0.00    -0.003 C 
ATOM     14  C   UNL     1     -46.929  27.097 -13.298  1.00  0.00     0.004 C 
ENDBRANCH  12  13
ENDBRANCH  11  12
ENDBRANCH  10  11
ENDBRANCH   9  10
ENDBRANCH   1   9
TORSDOF 10
ENDMDL
MODEL 4
REMARK VINA RESULT:    -4.144      3.604      5.910
REMARK INTER + INTRA:          -7.936
REMARK INTER:                  -6.570
REMARK INTRA:                  -1.366
REMARK UNBOUND:                -1.370
REMARK SMILES CCCCCCCCCCCC(=O)[O-]
REMARK SMILES IDX 7 1 8 2 9 3 10 4 11 5 12 6 13 7 14 8 6 9 5 10 4 11 3 12 2 13
REMARK SMILES IDX 1 14
REMARK H PARENT
REMARK Flexibility Score: inf
ROOT
ATOM      1  C   UNL     1     -47.637  27.565 -17.915  1.00  0.00     0.000 C 
ENDROOT
BRANCH   1   2
ATOM      2  C   UNL     1     -47.243  28.202 -16.577  1.00  0.00     0.000 C 
BRANCH   2   3
ATOM      3  C   UNL     1     -45.720  28.378 -16.477  1.00  0.00     0.000 C 
BRANCH   3   4
ATOM      4  C   UNL     1     -44.948  27.150 -16.981  1.00  0.00     0.006 C 
BRANCH   4   5
ATOM      5  C   UNL     1     -43.983  27.487 -18.126  1.00  0.00     0.053 C 
BRANCH   5   6
ATOM      6  C   UNL     1     -44.182  26.545 -19.271  1.00  0.00     0.041 C 
ATOM      7  O   UNL     1     -43.682  26.801 -20.398  1.00  0.00    -0.550 OA
ATOM      8  O   UNL     1     -44.963  25.407 -19.107  1.00  0.00    -0.550 OA
ENDBRANCH   5   6
ENDBRANCH   4   5
ENDBRANCH   3   4
ENDBRANCH   2   3
ENDBRANCH   1   2
BRANCH   1   9
ATOM      9  C   UNL     1     -48.632  26.414 -17.705  1.00  0.00     0.000 C 
BRANCH   9  10
ATOM     10  C   UNL     1     -47.954  25.127 -17.207  1.00  0.00    -0.000 C 
BRANCH  10  11
ATOM     11  C   UNL     1     -48.673  24.513 -15.993  1.00  0.00    -0.000 C 
BRANCH  11  12
ATOM     12  C   UNL     1     -48.490  25.340 -14.708  1.00  0.00    -0.000 C 
BRANCH  12  13
ATOM     13  C   UNL     1     -47.100  25.231 -14.056  1.00  0.00    -0.003 C 
ATOM     14  C   UNL     1     -46.675  26.509 -13.333  1.00  0.00     0.004 C 
ENDBRANCH  12  13
ENDBRANCH  11  12
ENDBRANCH  10  11
ENDBRANCH   9  10
ENDBRANCH   1   9
TORSDOF 10
ENDMDL
MODEL 5
REMARK VINA RESULT:    -4.142      4.229      6.234
REMARK INTER + INTRA:          -7.934
REMARK INTER:                  -6.552
REMARK INTRA:                  -1.382
REMARK UNBOUND:                -1.370
REMARK SMILES CCCCCCCCCCCC(=O)[O-]
REMARK SMILES IDX 7 1 8 2 9 3 10 4 11 5 12 6 13 7 14 8 6 9 5 10 4 11 3 12 2 13
REMARK SMILES IDX 1 14
REMARK H PARENT
REMARK Flexibility Score: inf
ROOT
ATOM      1  C   UNL     1     -48.153  27.245 -17.006  1.00  0.00     0.000 C 
ENDROOT
BRANCH   1   2
ATOM      2  C   UNL     1     -47.013  27.183 -18.030  1.00  0.00     0.000 C 
BRANCH   2   3
ATOM      3  C   UNL     1     -46.469  25.753 -18.162  1.00  0.00     0.000 C 
BRANCH   3   4
ATOM      4  C   UNL     1     -45.101  25.702 -18.860  1.00  0.00     0.006 C 
BRANCH   4   5
ATOM      5  C   UNL     1     -44.153  26.813 -18.386  1.00  0.00     0.053 C 
BRANCH   5   6
ATOM      6  C   UNL     1     -43.295  27.284 -19.516  1.00  0.00     0.041 C 
ATOM      7  O   UNL     1     -42.256  27.957 -19.287  1.00  0.00    -0.550 OA
ATOM      8  O   UNL     1     -43.670  27.023 -20.829  1.00  0.00    -0.550 OA
ENDBRANCH   5   6
ENDBRANCH   4   5
ENDBRANCH   3   4
ENDBRANCH   2   3
ENDBRANCH   1   2
BRANCH   1   9
ATOM      9  C   UNL     1     -48.355  25.883 -16.325  1.00  0.00     0.000 C 
BRANCH   9  10
ATOM     10  C   UNL     1     -48.456  25.993 -14.795  1.00  0.00    -0.000 C 
BRANCH  10  11
ATOM     11  C   UNL     1     -47.288  25.297 -14.075  1.00  0.00    -0.000 C 
BRANCH  11  12
ATOM     12  C   UNL     1     -46.175  26.275 -13.657  1.00  0.00    -0.000 C 
BRANCH  12  13
ATOM     13  C   UNL     1     -45.140  26.589 -14.751  1.00  0.00    -0.003 C 
ATOM     14  C   UNL     1     -44.926  28.088 -14.961  1.00  0.00     0.004 C 
ENDBRANCH  12  13
ENDBRANCH  11  12
ENDBRANCH  10  11
ENDBRANCH   9  10
ENDBRANCH   1   9
TORSDOF 10
ENDMDL
MODEL 6
REMARK VINA RESULT:    -4.120      1.536      2.208
REMARK INTER + INTRA:          -7.899
REMARK INTER:                  -6.956
REMARK INTRA:                  -0.943
REMARK UNBOUND:                -1.370
REMARK SMILES CCCCCCCCCCCC(=O)[O-]
REMARK SMILES IDX 7 1 8 2 9 3 10 4 11 5 12 6 13 7 14 8 6 9 5 10 4 11 3 12 2 13
REMARK SMILES IDX 1 14
REMARK H PARENT
REMARK Flexibility Score: inf
ROOT
ATOM      1  C   UNL     1     -44.988  26.534 -15.108  1.00  0.00     0.000 C 
ENDROOT
BRANCH   1   2
ATOM      2  C   UNL     1     -45.835  26.587 -13.831  1.00  0.00     0.000 C 
BRANCH   2   3
ATOM      3  C   UNL     1     -46.909  25.489 -13.837  1.00  0.00     0.000 C 
BRANCH   3   4
ATOM      4  C   UNL     1     -48.111  25.840 -14.726  1.00  0.00     0.006 C 
BRANCH   4   5
ATOM      5  C   UNL     1     -48.708  24.612 -15.425  1.00  0.00     0.053 C 
BRANCH   5   6
ATOM      6  C   UNL     1     -50.172  24.506 -15.136  1.00  0.00     0.041 C 
ATOM      7  O   UNL     1     -50.724  23.377 -15.060  1.00  0.00    -0.550 OA
ATOM      8  O   UNL     1     -50.938  25.657 -14.998  1.00  0.00    -0.550 OA
ENDBRANCH   5   6
ENDBRANCH   4   5
ENDBRANCH   3   4
ENDBRANCH   2   3
ENDBRANCH   1   2
BRANCH   1   9
ATOM      9  C   UNL     1     -45.107  27.843 -15.902  1.00  0.00     0.000 C 
BRANCH   9  10
ATOM     10  C   UNL     1     -45.726  27.638 -17.295  1.00  0.00    -0.000 C 
BRANCH  10  11
ATOM     11  C   UNL     1     -45.649  26.176 -17.767  1.00  0.00    -0.000 C 
BRANCH  11  12
ATOM     12  C   UNL     1     -44.795  26.001 -19.036  1.00  0.00    -0.000 C 
BRANCH  12  13
ATOM     13  C   UNL     1     -43.520  26.861 -19.086  1.00  0.00    -0.003 C 
ATOM     14  C   UNL     1     -43.241  27.437 -20.475  1.00  0.00     0.004 C 
ENDBRANCH  12  13
ENDBRANCH  11  12
ENDBRANCH  10  11
ENDBRANCH   9  10
ENDBRANCH   1   9
TORSDOF 10
ENDMDL
MODEL 7
REMARK VINA RESULT:    -4.087      3.245      4.894
REMARK INTER + INTRA:          -7.847
REMARK INTER:                  -6.427
REMARK INTRA:                  -1.420
REMARK UNBOUND:                -1.370
REMARK SMILES CCCCCCCCCCCC(=O)[O-]
REMARK SMILES IDX 7 1 8 2 9 3 10 4 11 5 12 6 13 7 14 8 6 9 5 10 4 11 3 12 2 13
REMARK SMILES IDX 1 14
REMARK H PARENT
REMARK Flexibility Score: inf
ROOT
ATOM      1  C   UNL     1     -48.712  24.769 -15.446  1.00  0.00     0.000 C 
ENDROOT
BRANCH   1   2
ATOM      2  C   UNL     1     -48.257  25.048 -16.885  1.00  0.00     0.000 C 
BRANCH   2   3
ATOM      3  C   UNL     1     -48.446  26.529 -17.245  1.00  0.00     0.000 C 
BRANCH   3   4
ATOM      4  C   UNL     1     -47.190  27.150 -17.874  1.00  0.00     0.006 C 
BRANCH   4   5
ATOM      5  C   UNL     1     -45.918  26.347 -17.573  1.00  0.00     0.053 C 
BRANCH   5   6
ATOM      6  C   UNL     1     -45.276  25.888 -18.843  1.00  0.00     0.041 C 
ATOM      7  O   UNL     1     -45.261  24.665 -19.142  1.00  0.00    -0.550 OA
ATOM      8  O   UNL     1     -44.650  26.807 -19.677  1.00  0.00    -0.550 OA
ENDBRANCH   5   6
ENDBRANCH   4   5
ENDBRANCH   3   4
ENDBRANCH   2   3
ENDBRANCH   1   2
BRANCH   1   9
ATOM      9  C   UNL     1     -48.145  25.818 -14.478  1.00  0.00     0.000 C 
BRANCH   9  10
ATOM     10  C   UNL     1     -46.890  25.327 -13.739  1.00  0.00    -0.000 C 
BRANCH  10  11
ATOM     11  C   UNL     1     -45.796  26.405 -13.652  1.00  0.00    -0.000 C 
BRANCH  11  12
ATOM     12  C   UNL     1     -46.361  27.837 -13.701  1.00  0.00    -0.000 C 
BRANCH  12  13
ATOM     13  C   UNL     1     -45.736  28.746 -14.774  1.00  0.00    -0.003 C 
ATOM     14  C   UNL     1     -44.260  28.442 -15.031  1.00  0.00     0.004 C 
ENDBRANCH  12  13
ENDBRANCH  11  12
ENDBRANCH  10  11
ENDBRANCH   9  10
ENDBRANCH   1   9
TORSDOF 10
ENDMDL
MODEL 8
REMARK VINA RESULT:    -4.087      3.033      4.264
REMARK INTER + INTRA:          -7.846
REMARK INTER:                  -6.922
REMARK INTRA:                  -0.924
REMARK UNBOUND:                -1.370
REMARK SMILES CCCCCCCCCCCC(=O)[O-]
REMARK SMILES IDX 7 1 8 2 9 3 10 4 11 5 12 6 13 7 14 8 6 9 5 10 4 11 3 12 2 13
REMARK SMILES IDX 1 14
REMARK H PARENT
REMARK Flexibility Score: inf
ROOT
ATOM      1  C   UNL     1     -48.107  26.594 -17.426  1.00  0.00     0.000 C 
ENDROOT
BRANCH   1   2
ATOM      2  C   UNL     1     -48.044  25.062 -17.393  1.00  0.00     0.000 C 
BRANCH   2   3
ATOM      3  C   UNL     1     -48.562  24.518 -16.053  1.00  0.00     0.000 C 
BRANCH   3   4
ATOM      4  C   UNL     1     -48.458  25.546 -14.917  1.00  0.00     0.006 C 
BRANCH   4   5
ATOM      5  C   UNL     1     -47.322  25.230 -13.934  1.00  0.00     0.053 C 
BRANCH   5   6
ATOM      6  C   UNL     1     -46.342  26.358 -13.888  1.00  0.00     0.041 C 
ATOM      7  O   UNL     1     -46.391  27.204 -12.957  1.00  0.00    -0.550 OA
ATOM      8  O   UNL     1     -45.404  26.506 -14.903  1.00  0.00    -0.550 OA
ENDBRANCH   5   6
ENDBRANCH   4   5
ENDBRANCH   3   4
ENDBRANCH   2   3
ENDBRANCH   1   2
BRANCH   1   9
ATOM      9  C   UNL     1     -46.857  27.181 -18.098  1.00  0.00     0.000 C 
BRANCH   9  10
ATOM     10  C   UNL     1     -45.847  26.102 -18.520  1.00  0.00    -0.000 C 
BRANCH  10  11
ATOM     11  C   UNL     1     -44.400  26.470 -18.148  1.00  0.00    -0.000 C 
BRANCH  11  12
ATOM     12  C   UNL     1     -44.085  27.960 -18.371  1.00  0.00    -0.000 C 
BRANCH  12  13
ATOM     13  C   UNL     1     -42.868  28.241 -19.270  1.00  0.00    -0.003 C 
ATOM     14  C   UNL     1     -43.147  27.982 -20.751  1.00  0.00     0.004 C 
ENDBRANCH  12  13
ENDBRANCH  11  12
ENDBRANCH  10  11
ENDBRANCH   9  10
ENDBRANCH   1   9
TORSDOF 10
ENDMDL
MODEL 9
REMARK VINA RESULT:    -4.059      2.312      2.930
REMARK INTER + INTRA:          -7.801
REMARK INTER:                  -6.707
REMARK INTRA:                  -1.094
REMARK UNBOUND:                -1.370
REMARK SMILES CCCCCCCCCCCC(=O)[O-]
REMARK SMILES IDX 7 1 8 2 9 3 10 4 11 5 12 6 13 7 14 8 6 9 5 10 4 11 3 12 2 13
REMARK SMILES IDX 1 14
REMARK H PARENT
REMARK Flexibility Score: inf
ROOT
ATOM      1  C   UNL     1     -44.979  26.503 -14.940  1.00  0.00     0.000 C 
ENDROOT
BRANCH   1   2
ATOM      2  C   UNL     1     -46.068  26.438 -13.862  1.00  0.00     0.000 C 
BRANCH   2   3
ATOM      3  C   UNL     1     -47.176  27.466 -14.136  1.00  0.00     0.000 C 
BRANCH   3   4
ATOM      4  C   UNL     1     -48.451  26.825 -14.706  1.00  0.00     0.006 C 
BRANCH   4   5
ATOM      5  C   UNL     1     -48.390  26.641 -16.228  1.00  0.00     0.053 C 
BRANCH   5   6
ATOM      6  C   UNL     1     -48.314  25.188 -16.576  1.00  0.00     0.041 C 
ATOM      7  O   UNL     1     -48.612  24.314 -15.720  1.00  0.00    -0.550 OA
ATOM      8  O   UNL     1     -47.864  24.797 -17.831  1.00  0.00    -0.550 OA
ENDBRANCH   5   6
ENDBRANCH   4   5
ENDBRANCH   3   4
ENDBRANCH   2   3
ENDBRANCH   1   2
BRANCH   1   9
ATOM      9  C   UNL     1     -44.827  27.932 -15.482  1.00  0.00     0.000 C 
BRANCH   9  10
ATOM     10  C   UNL     1     -44.893  27.995 -17.017  1.00  0.00    -0.000 C 
BRANCH  10  11
ATOM     11  C   UNL     1     -44.924  26.600 -17.664  1.00  0.00    -0.000 C 
BRANCH  11  12
ATOM     12  C   UNL     1     -44.158  26.542 -18.999  1.00  0.00    -0.000 C 
BRANCH  12  13
ATOM     13  C   UNL     1     -43.175  27.702 -19.235  1.00  0.00    -0.003 C 
ATOM     14  C   UNL     1     -42.714  27.810 -20.689  1.00  0.00     0.004 C 
ENDBRANCH  12  13
ENDBRANCH  11  12
ENDBRANCH  10  11
ENDBRANCH   9  10
ENDBRANCH   1   9
TORSDOF 10
ENDMDL
