MODEL 1
REMARK VINA RESULT:    -4.200      0.000      0.000
REMARK INTER + INTRA:          -5.525
REMARK INTER:                  -5.428
REMARK INTRA:                  -0.098
REMARK UNBOUND:                -0.098
REMARK SMILES CCCCCCC(=O)[O-]
REMARK SMILES IDX 5 1 6 2 7 3 8 4 9 5 4 6 3 7 2 8 1 9
REMARK H PARENT
REMARK Flexibility Score: inf
ROOT
ATOM      1  C   UNL     1       5.931  42.016  45.890  1.00  0.00     0.006 C 
ENDROOT
BRANCH   1   2
ATOM      2  C   UNL     1       4.991  42.023  47.110  1.00  0.00     0.053 C 
BRANCH   2   3
ATOM      3  C   UNL     1       5.612  41.408  48.325  1.00  0.00     0.041 C 
ATOM      4  O   UNL     1       6.062  40.233  48.284  1.00  0.00    -0.550 OA
ATOM      5  O   UNL     1       5.669  42.123  49.515  1.00  0.00    -0.550 OA
ENDBRANCH   2   3
ENDBRANCH   1   2
BRANCH   1   6
ATOM      6  C   UNL     1       5.332  42.678  44.636  1.00  0.00     0.000 C 
BRANCH   6   7
ATOM      7  C   UNL     1       6.380  42.984  43.557  1.00  0.00    -0.000 C 
BRANCH   7   8
ATOM      8  C   UNL     1       6.955  44.395  43.733  1.00  0.00    -0.003 C 
ATOM      9  C   UNL     1       7.402  44.980  42.396  1.00  0.00     0.004 C 
ENDBRANCH   7   8
ENDBRANCH   6   7
ENDBRANCH   1   6
TORSDOF 5
ENDMDL
MODEL 2
REMARK VINA RESULT:    -4.131      4.029      5.889
REMARK INTER + INTRA:          -5.436
REMARK INTER:                  -5.337
REMARK INTRA:                  -0.099
REMARK UNBOUND:                -0.098
REMARK SMILES CCCCCCC(=O)[O-]
REMARK SMILES IDX 5 1 6 2 7 3 8 4 9 5 4 6 3 7 2 8 1 9
REMARK H PARENT
REMARK Flexibility Score: inf
ROOT
ATOM      1  C   UNL     1       6.625  43.090  43.576  1.00  0.00     0.006 C 
ENDROOT
BRANCH   1   2
ATOM      2  C   UNL     1       7.011  44.581  43.597  1.00  0.00     0.053 C 
BRANCH   2   3
ATOM      3  C   UNL     1       7.314  45.121  42.233  1.00  0.00     0.041 C 
ATOM      4  O   UNL     1       7.222  46.355  42.003  1.00  0.00    -0.550 OA
ATOM      5  O   UNL     1       7.668  44.256  41.205  1.00  0.00    -0.550 OA
ENDBRANCH   2   3
ENDBRANCH   1   2
BRANCH   1   6
ATOM      6  C   UNL     1       5.433  42.741  44.486  1.00  0.00     0.000 C 
BRANCH   6   7
ATOM      7  C   UNL     1       5.828  41.881  45.694  1.00  0.00    -0.000 C 
BRANCH   7   8
ATOM      8  C   UNL     1       5.011  42.265  46.934  1.00  0.00    -0.003 C 
ATOM      9  C   UNL     1       5.616  41.667  48.200  1.00  0.00     0.004 C 
ENDBRANCH   7   8
ENDBRANCH   6   7
ENDBRANCH   1   6
TORSDOF 5
ENDMDL
MODEL 3
REMARK VINA RESULT:    -4.115     10.254     11.502
REMARK INTER + INTRA:          -5.415
REMARK INTER:                  -5.008
REMARK INTRA:                  -0.408
REMARK UNBOUND:                -0.098
REMARK SMILES CCCCCCC(=O)[O-]
REMARK SMILES IDX 5 1 6 2 7 3 8 4 9 5 4 6 3 7 2 8 1 9
REMARK H PARENT
REMARK Flexibility Score: inf
ROOT
ATOM      1  C   UNL     1      10.399  34.247  42.275  1.00  0.00     0.006 C 
ENDROOT
BRANCH   1   2
ATOM      2  C   UNL     1      10.146  33.328  41.066  1.00  0.00     0.053 C 
BRANCH   2   3
ATOM      3  C   UNL     1       8.769  32.739  41.064  1.00  0.00     0.041 C 
ATOM      4  O   UNL     1       7.756  33.488  41.074  1.00  0.00    -0.550 OA
ATOM      5  O   UNL     1       8.602  31.360  41.081  1.00  0.00    -0.550 OA
ENDBRANCH   2   3
ENDBRANCH   1   2
BRANCH   1   6
ATOM      6  C   UNL     1      10.561  33.496  43.609  1.00  0.00     0.000 C 
BRANCH   6   7
ATOM      7  C   UNL     1       9.398  33.735  44.582  1.00  0.00    -0.000 C 
BRANCH   7   8
ATOM      8  C   UNL     1       8.790  32.407  45.049  1.00  0.00    -0.003 C 
ATOM      9  C   UNL     1       7.396  32.202  44.465  1.00  0.00     0.004 C 
ENDBRANCH   7   8
ENDBRANCH   6   7
ENDBRANCH   1   6
TORSDOF 5
ENDMDL
MODEL 4
REMARK VINA RESULT:    -4.087      2.708      4.855
REMARK INTER + INTRA:          -5.380
REMARK INTER:                  -5.135
REMARK INTRA:                  -0.245
REMARK UNBOUND:                -0.098
REMARK SMILES CCCCCCC(=O)[O-]
REMARK SMILES IDX 5 1 6 2 7 3 8 4 9 5 4 6 3 7 2 8 1 9
REMARK H PARENT
REMARK Flexibility Score: inf
ROOT
ATOM      1  C   UNL     1       4.805  41.834  46.880  1.00  0.00     0.006 C 
ENDROOT
BRANCH   1   2
ATOM      2  C   UNL     1       5.144  42.655  45.623  1.00  0.00     0.053 C 
BRANCH   2   3
ATOM      3  C   UNL     1       5.940  41.879  44.620  1.00  0.00     0.041 C 
ATOM      4  O   UNL     1       6.357  40.723  44.896  1.00  0.00    -0.550 OA
ATOM      5  O   UNL     1       6.249  42.443  43.389  1.00  0.00    -0.550 OA
ENDBRANCH   2   3
ENDBRANCH   1   2
BRANCH   1   6
ATOM      6  C   UNL     1       5.285  42.477  48.194  1.00  0.00     0.000 C 
BRANCH   6   7
ATOM      7  C   UNL     1       6.014  41.490  49.118  1.00  0.00    -0.000 C 
BRANCH   7   8
ATOM      8  C   UNL     1       6.942  40.570  48.316  1.00  0.00    -0.003 C 
ATOM      9  C   UNL     1       8.367  40.612  48.861  1.00  0.00     0.004 C 
ENDBRANCH   7   8
ENDBRANCH   6   7
ENDBRANCH   1   6
TORSDOF 5
ENDMDL
MODEL 5
REMARK VINA RESULT:    -4.072      3.595      5.565
REMARK INTER + INTRA:          -5.360
REMARK INTER:                  -5.281
REMARK INTRA:                  -0.079
REMARK UNBOUND:                -0.098
REMARK SMILES CCCCCCC(=O)[O-]
REMARK SMILES IDX 5 1 6 2 7 3 8 4 9 5 4 6 3 7 2 8 1 9
REMARK H PARENT
REMARK Flexibility Score: inf
ROOT
ATOM      1  C   UNL     1       5.796  42.880  44.495  1.00  0.00     0.006 C 
ENDROOT
BRANCH   1   2
ATOM      2  C   UNL     1       6.663  42.594  43.255  1.00  0.00     0.053 C 
BRANCH   2   3
ATOM      3  C   UNL     1       7.120  43.842  42.566  1.00  0.00     0.041 C 
ATOM      4  O   UNL     1       7.539  43.797  41.379  1.00  0.00    -0.550 OA
ATOM      5  O   UNL     1       7.112  45.054  43.244  1.00  0.00    -0.550 OA
ENDBRANCH   2   3
ENDBRANCH   1   2
BRANCH   1   6
ATOM      6  C   UNL     1       5.909  41.811  45.597  1.00  0.00     0.000 C 
BRANCH   6   7
ATOM      7  C   UNL     1       5.089  42.147  46.850  1.00  0.00    -0.000 C 
BRANCH   7   8
ATOM      8  C   UNL     1       5.612  41.383  48.072  1.00  0.00    -0.003 C 
ATOM      9  C   UNL     1       5.528  42.236  49.334  1.00  0.00     0.004 C 
ENDBRANCH   7   8
ENDBRANCH   6   7
ENDBRANCH   1   6
TORSDOF 5
ENDMDL
MODEL 6
REMARK VINA RESULT:    -3.995      9.830     10.798
REMARK INTER + INTRA:          -5.260
REMARK INTER:                  -5.046
REMARK INTRA:                  -0.214
REMARK UNBOUND:                -0.098
REMARK SMILES CCCCCCC(=O)[O-]
REMARK SMILES IDX 5 1 6 2 7 3 8 4 9 5 4 6 3 7 2 8 1 9
REMARK H PARENT
REMARK Flexibility Score: inf
ROOT
ATOM      1  C   UNL     1      10.601  33.990  41.876  1.00  0.00     0.006 C 
ENDROOT
BRANCH   1   2
ATOM      2  C   UNL     1      10.007  33.131  40.744  1.00  0.00     0.053 C 
BRANCH   2   3
ATOM      3  C   UNL     1       8.621  32.652  41.045  1.00  0.00     0.041 C 
ATOM      4  O   UNL     1       7.658  33.464  41.068  1.00  0.00    -0.550 OA
ATOM      5  O   UNL     1       8.394  31.312  41.332  1.00  0.00    -0.550 OA
ENDBRANCH   2   3
ENDBRANCH   1   2
BRANCH   1   6
ATOM      6  C   UNL     1      10.360  33.419  43.285  1.00  0.00     0.000 C 
BRANCH   6   7
ATOM      7  C   UNL     1      10.680  34.420  44.404  1.00  0.00    -0.000 C 
BRANCH   7   8
ATOM      8  C   UNL     1      10.079  35.798  44.098  1.00  0.00    -0.003 C 
ATOM      9  C   UNL     1      11.135  36.895  44.200  1.00  0.00     0.004 C 
ENDBRANCH   7   8
ENDBRANCH   6   7
ENDBRANCH   1   6
TORSDOF 5
ENDMDL
MODEL 7
REMARK VINA RESULT:    -3.977      3.320      4.773
REMARK INTER + INTRA:          -5.237
REMARK INTER:                  -5.057
REMARK INTRA:                  -0.181
REMARK UNBOUND:                -0.098
REMARK SMILES CCCCCCC(=O)[O-]
REMARK SMILES IDX 5 1 6 2 7 3 8 4 9 5 4 6 3 7 2 8 1 9
REMARK H PARENT
REMARK Flexibility Score: inf
ROOT
ATOM      1  C   UNL     1       8.001  44.631  42.701  1.00  0.00     0.006 C 
ENDROOT
BRANCH   1   2
ATOM      2  C   UNL     1       6.864  44.328  43.694  1.00  0.00     0.053 C 
BRANCH   2   3
ATOM      3  C   UNL     1       6.359  42.923  43.587  1.00  0.00     0.041 C 
ATOM      4  O   UNL     1       6.943  42.092  42.842  1.00  0.00    -0.550 OA
ATOM      5  O   UNL     1       5.224  42.536  44.288  1.00  0.00    -0.550 OA
ENDBRANCH   2   3
ENDBRANCH   1   2
BRANCH   1   6
ATOM      6  C   UNL     1       7.537  45.348  41.420  1.00  0.00     0.000 C 
BRANCH   6   7
ATOM      7  C   UNL     1       7.216  46.833  41.642  1.00  0.00    -0.000 C 
BRANCH   7   8
ATOM      8  C   UNL     1       7.977  47.715  40.646  1.00  0.00    -0.003 C 
ATOM      9  C   UNL     1       8.596  46.880  39.529  1.00  0.00     0.004 C 
ENDBRANCH   7   8
ENDBRANCH   6   7
ENDBRANCH   1   6
TORSDOF 5
ENDMDL
MODEL 8
REMARK VINA RESULT:    -3.930      9.960     11.227
REMARK INTER + INTRA:          -5.176
REMARK INTER:                  -4.891
REMARK INTRA:                  -0.285
REMARK UNBOUND:                -0.098
REMARK SMILES CCCCCCC(=O)[O-]
REMARK SMILES IDX 5 1 6 2 7 3 8 4 9 5 4 6 3 7 2 8 1 9
REMARK H PARENT
REMARK Flexibility Score: inf
ROOT
ATOM      1  C   UNL     1       4.835  35.106  55.039  1.00  0.00     0.006 C 
ENDROOT
BRANCH   1   2
ATOM      2  C   UNL     1       3.585  35.762  55.654  1.00  0.00     0.053 C 
BRANCH   2   3
ATOM      3  C   UNL     1       2.309  35.234  55.074  1.00  0.00     0.041 C 
ATOM      4  O   UNL     1       1.202  35.731  55.413  1.00  0.00    -0.550 OA
ATOM      5  O   UNL     1       2.338  34.170  54.181  1.00  0.00    -0.550 OA
ENDBRANCH   2   3
ENDBRANCH   1   2
BRANCH   1   6
ATOM      6  C   UNL     1       5.328  35.788  53.750  1.00  0.00     0.000 C 
BRANCH   6   7
ATOM      7  C   UNL     1       5.510  34.810  52.581  1.00  0.00    -0.000 C 
BRANCH   7   8
ATOM      8  C   UNL     1       4.980  35.410  51.274  1.00  0.00    -0.003 C 
ATOM      9  C   UNL     1       3.499  35.761  51.388  1.00  0.00     0.004 C 
ENDBRANCH   7   8
ENDBRANCH   6   7
ENDBRANCH   1   6
TORSDOF 5
ENDMDL
MODEL 9
REMARK VINA RESULT:    -3.885      1.327      2.161
REMARK INTER + INTRA:          -5.118
REMARK INTER:                  -5.051
REMARK INTRA:                  -0.067
REMARK UNBOUND:                -0.098
REMARK SMILES CCCCCCC(=O)[O-]
REMARK SMILES IDX 5 1 6 2 7 3 8 4 9 5 4 6 3 7 2 8 1 9
REMARK H PARENT
REMARK Flexibility Score: inf
ROOT
ATOM      1  C   UNL     1       5.971  43.080  44.547  1.00  0.00     0.006 C 
ENDROOT
BRANCH   1   2
ATOM      2  C   UNL     1       6.053  41.656  45.127  1.00  0.00     0.053 C 
BRANCH   2   3
ATOM      3  C   UNL     1       5.751  41.608  46.592  1.00  0.00     0.041 C 
ATOM      4  O   UNL     1       4.684  42.107  47.039  1.00  0.00    -0.550 OA
ATOM      5  O   UNL     1       6.662  41.038  47.472  1.00  0.00    -0.550 OA
ENDBRANCH   2   3
ENDBRANCH   1   2
BRANCH   1   6
ATOM      6  C   UNL     1       6.785  43.276  43.255  1.00  0.00     0.000 C 
BRANCH   6   7
ATOM      7  C   UNL     1       7.184  44.738  43.009  1.00  0.00    -0.000 C 
BRANCH   7   8
ATOM      8  C   UNL     1       7.575  44.963  41.544  1.00  0.00    -0.003 C 
ATOM      9  C   UNL     1       7.435  46.432  41.154  1.00  0.00     0.004 C 
ENDBRANCH   7   8
ENDBRANCH   6   7
ENDBRANCH   1   6
TORSDOF 5
ENDMDL
