MODEL 1
REMARK VINA RESULT:    -3.189      0.000      0.000
REMARK INTER + INTRA:          -3.179
REMARK INTER:                  -3.934
REMARK INTRA:                   0.755
REMARK UNBOUND:                 0.755
REMARK SMILES CC1=CC=CC(C)(C)CC1=O
REMARK SMILES IDX 1 1 2 2 3 3 10 4 11 5 9 6 4 8 5 9 6 10 7 11 8 12
REMARK H PARENT
REMARK Flexibility Score: 80.00
ROOT
ATOM      1  C   UNL     1      68.647 -17.376 -10.996  1.00  0.00     0.048 C 
ATOM      2  C   UNL     1      69.455 -17.815  -9.799  1.00  0.00    -0.008 C 
ATOM      3  C   UNL     1      70.093 -16.859  -9.089  1.00  0.00     0.007 C 
ENDROOT
BRANCH   2   4
ATOM      4  C   UNL     1      69.547 -19.275  -9.544  1.00  0.00     0.159 C 
ATOM      5  O   UNL     1      69.090 -20.073 -10.408  1.00  0.00    -0.295 OA
BRANCH   4   6
ATOM      6  C   UNL     1      70.141 -19.861  -8.300  1.00  0.00     0.091 CG0
ATOM      7  G   UNL     1      71.605 -19.428  -8.062  1.00  0.00     0.000 G0
ENDBRANCH   4   6
ENDBRANCH   2   4
BRANCH   3   8
ATOM      8  C   UNL     1      70.968 -16.982  -7.900  1.00  0.00    -0.003 C 
ATOM      9  C   UNL     1      71.629 -18.054  -7.445  1.00  0.00    -0.020 C 
BRANCH   9  10
ATOM     10  C   UNL     1      71.610 -19.441  -8.044  1.00  0.00    -0.010 CG0
ATOM     11  C   UNL     1      72.490 -19.479  -9.315  1.00  0.00     0.016 C 
ATOM     12  C   UNL     1      72.217 -20.422  -7.016  1.00  0.00     0.016 C 
ATOM     13  G   UNL     1      70.152 -19.871  -8.316  1.00  0.00     0.000 G0
ENDBRANCH   9  10
ENDBRANCH   3   8
TORSDOF 0
ENDMDL
MODEL 2
REMARK VINA RESULT:    -3.044      2.155      3.844
REMARK INTER + INTRA:          -3.001
REMARK INTER:                  -3.755
REMARK INTRA:                   0.755
REMARK UNBOUND:                 0.755
REMARK SMILES CC1=CC=CC(C)(C)CC1=O
REMARK SMILES IDX 1 1 2 2 3 3 10 4 11 5 9 6 4 8 5 9 6 10 7 11 8 12
REMARK H PARENT
REMARK Flexibility Score: 80.00
ROOT
ATOM      1  C   UNL     1      70.502 -20.515  -7.272  1.00  0.00     0.048 C 
ATOM      2  C   UNL     1      70.117 -19.435  -8.255  1.00  0.00    -0.008 C 
ATOM      3  C   UNL     1      69.246 -19.761  -9.234  1.00  0.00     0.007 C 
ENDROOT
BRANCH   2   4
ATOM      4  C   UNL     1      70.788 -18.119  -8.110  1.00  0.00     0.159 C 
ATOM      5  O   UNL     1      71.769 -18.020  -7.321  1.00  0.00    -0.295 OA
BRANCH   4   6
ATOM      6  C   UNL     1      70.356 -16.886  -8.841  1.00  0.00     0.091 CG0
ATOM      7  G   UNL     1      70.392 -17.043 -10.377  1.00  0.00     0.000 G0
ENDBRANCH   4   6
ENDBRANCH   2   4
BRANCH   3   8
ATOM      8  C   UNL     1      68.709 -18.938 -10.342  1.00  0.00    -0.003 C 
ATOM      9  C   UNL     1      69.183 -17.793 -10.850  1.00  0.00    -0.020 C 
BRANCH   9  10
ATOM     10  C   UNL     1      70.401 -17.036 -10.375  1.00  0.00    -0.010 CG0
ATOM     11  C   UNL     1      71.686 -17.739 -10.872  1.00  0.00     0.016 C 
ATOM     12  C   UNL     1      70.364 -15.620 -10.991  1.00  0.00     0.016 C 
ATOM     13  G   UNL     1      70.359 -16.893  -8.838  1.00  0.00     0.000 G0
ENDBRANCH   9  10
ENDBRANCH   3   8
TORSDOF 0
ENDMDL
MODEL 3
REMARK VINA RESULT:    -3.013      1.781      2.549
REMARK INTER + INTRA:          -2.963
REMARK INTER:                  -3.708
REMARK INTRA:                   0.746
REMARK UNBOUND:                 0.755
REMARK SMILES CC1=CC=CC(C)(C)CC1=O
REMARK SMILES IDX 1 1 2 2 3 3 10 4 11 5 9 6 4 8 5 9 6 10 7 11 8 12
REMARK H PARENT
REMARK Flexibility Score: 80.00
ROOT
ATOM      1  C   UNL     1      68.174 -20.101 -10.657  1.00  0.00     0.048 C 
ATOM      2  C   UNL     1      68.890 -18.875 -10.142  1.00  0.00    -0.008 C 
ATOM      3  C   UNL     1      68.884 -17.773 -10.922  1.00  0.00     0.007 C 
ENDROOT
BRANCH   2   4
ATOM      4  C   UNL     1      69.609 -19.005  -8.849  1.00  0.00     0.159 C 
ATOM      5  O   UNL     1      69.747 -20.153  -8.343  1.00  0.00    -0.295 OA
BRANCH   4   6
ATOM      6  C   UNL     1      70.172 -17.840  -8.096  1.00  0.00     0.091 CG0
ATOM      7  G   UNL     1      71.219 -17.041  -8.903  1.00  0.00     0.000 G0
ENDBRANCH   4   6
ENDBRANCH   2   4
BRANCH   3   8
ATOM      8  C   UNL     1      69.511 -16.449 -10.702  1.00  0.00    -0.003 C 
ATOM      9  C   UNL     1      70.501 -16.112  -9.865  1.00  0.00    -0.020 C 
BRANCH   9  10
ATOM     10  C   UNL     1      71.211 -17.030  -8.899  1.00  0.00    -0.010 CG0
ATOM     11  C   UNL     1      72.225 -17.915  -9.660  1.00  0.00     0.016 C 
ATOM     12  C   UNL     1      71.999 -16.161  -7.894  1.00  0.00     0.016 C 
ATOM     13  G   UNL     1      70.174 -17.858  -8.109  1.00  0.00     0.000 G0
ENDBRANCH   9  10
ENDBRANCH   3   8
TORSDOF 0
ENDMDL
MODEL 4
REMARK VINA RESULT:    -2.975      1.653      3.242
REMARK INTER + INTRA:          -2.915
REMARK INTER:                  -3.954
REMARK INTRA:                   1.038
REMARK UNBOUND:                 0.755
REMARK SMILES CC1=CC=CC(C)(C)CC1=O
REMARK SMILES IDX 1 1 2 2 3 3 10 4 11 5 9 6 4 8 5 9 6 10 7 11 8 12
REMARK H PARENT
REMARK Flexibility Score: 80.00
ROOT
ATOM      1  C   UNL     1      70.520 -20.496  -7.257  1.00  0.00     0.048 C 
ATOM      2  C   UNL     1      70.406 -19.177  -7.985  1.00  0.00    -0.008 C 
ATOM      3  C   UNL     1      71.144 -18.144  -7.526  1.00  0.00     0.007 C 
ENDROOT
BRANCH   2   4
ATOM      4  C   UNL     1      69.431 -19.104  -9.102  1.00  0.00     0.159 C 
ATOM      5  O   UNL     1      69.003 -20.179  -9.607  1.00  0.00    -0.295 OA
BRANCH   4   6
ATOM      6  C   UNL     1      68.934 -17.816  -9.681  1.00  0.00     0.091 CG0
ATOM      7  G   UNL     1      70.061 -16.935 -10.265  1.00  0.00     0.000 G0
ENDBRANCH   4   6
ENDBRANCH   2   4
BRANCH   3   8
ATOM      8  C   UNL     1      71.224 -16.745  -8.007  1.00  0.00    -0.003 C 
ATOM      9  C   UNL     1      70.767 -16.217  -9.150  1.00  0.00    -0.020 C 
BRANCH   9  10
ATOM     10  C   UNL     1      70.067 -16.959 -10.264  1.00  0.00    -0.010 CG0
ATOM     11  C   UNL     1      69.555 -15.958 -11.325  1.00  0.00     0.016 C 
ATOM     12  C   UNL     1      71.091 -17.893 -10.946  1.00  0.00     0.016 C 
ATOM     13  G   UNL     1      68.936 -17.833  -9.677  1.00  0.00     0.000 G0
ENDBRANCH   9  10
ENDBRANCH   3   8
TORSDOF 0
ENDMDL
MODEL 5
REMARK VINA RESULT:    -2.921      1.741      2.684
REMARK INTER + INTRA:          -2.849
REMARK INTER:                  -3.600
REMARK INTRA:                   0.751
REMARK UNBOUND:                 0.755
REMARK SMILES CC1=CC=CC(C)(C)CC1=O
REMARK SMILES IDX 1 1 2 2 3 3 10 4 11 5 9 6 4 8 5 9 6 10 7 11 8 12
REMARK H PARENT
REMARK Flexibility Score: 80.00
ROOT
ATOM      1  C   UNL     1      67.930 -20.022 -11.016  1.00  0.00     0.048 C 
ATOM      2  C   UNL     1      69.201 -19.631 -10.299  1.00  0.00    -0.008 C 
ATOM      3  C   UNL     1      69.375 -20.089  -9.040  1.00  0.00     0.007 C 
ENDROOT
BRANCH   2   4
ATOM      4  C   UNL     1      70.122 -18.709 -11.010  1.00  0.00     0.159 C 
ATOM      5  O   UNL     1      69.723 -18.147 -12.067  1.00  0.00    -0.295 OA
BRANCH   4   6
ATOM      6  C   UNL     1      71.516 -18.417 -10.549  1.00  0.00     0.091 CG0
ATOM      7  G   UNL     1      71.575 -17.819  -9.126  1.00  0.00     0.000 G0
ENDBRANCH   4   6
ENDBRANCH   2   4
BRANCH   3   8
ATOM      8  C   UNL     1      70.488 -19.857  -8.090  1.00  0.00    -0.003 C 
ATOM      9  C   UNL     1      71.421 -18.897  -8.100  1.00  0.00    -0.020 C 
BRANCH   9  10
ATOM     10  C   UNL     1      71.578 -17.808  -9.135  1.00  0.00    -0.010 CG0
ATOM     11  C   UNL     1      70.517 -16.706  -8.907  1.00  0.00     0.016 C 
ATOM     12  C   UNL     1      72.973 -17.169  -8.961  1.00  0.00     0.016 C 
ATOM     13  G   UNL     1      71.503 -18.421 -10.551  1.00  0.00     0.000 G0
ENDBRANCH   9  10
ENDBRANCH   3   8
TORSDOF 0
ENDMDL
MODEL 6
REMARK VINA RESULT:    -2.866     14.222     15.414
REMARK INTER + INTRA:          -2.782
REMARK INTER:                  -3.541
REMARK INTRA:                   0.760
REMARK UNBOUND:                 0.755
REMARK SMILES CC1=CC=CC(C)(C)CC1=O
REMARK SMILES IDX 1 1 2 2 3 3 10 4 11 5 9 6 4 8 5 9 6 10 7 11 8 12
REMARK H PARENT
REMARK Flexibility Score: 80.00
ROOT
ATOM      1  C   UNL     1      56.722 -14.528  -8.487  1.00  0.00     0.048 C 
ATOM      2  C   UNL     1      56.905 -14.564  -6.988  1.00  0.00    -0.008 C 
ATOM      3  C   UNL     1      57.767 -15.474  -6.485  1.00  0.00     0.007 C 
ENDROOT
BRANCH   2   4
ATOM      4  C   UNL     1      56.062 -13.646  -6.182  1.00  0.00     0.159 C 
ATOM      5  O   UNL     1      55.101 -13.051  -6.744  1.00  0.00    -0.295 OA
BRANCH   4   6
ATOM      6  C   UNL     1      56.299 -13.370  -4.729  1.00  0.00     0.091 CG0
ATOM      7  G   UNL     1      56.212 -14.635  -3.846  1.00  0.00     0.000 G0
ENDBRANCH   4   6
ENDBRANCH   2   4
BRANCH   3   8
ATOM      8  C   UNL     1      58.131 -15.763  -5.079  1.00  0.00    -0.003 C 
ATOM      9  C   UNL     1      57.484 -15.432  -3.954  1.00  0.00    -0.020 C 
BRANCH   9  10
ATOM     10  C   UNL     1      56.204 -14.636  -3.855  1.00  0.00    -0.010 CG0
ATOM     11  C   UNL     1      54.998 -15.528  -4.228  1.00  0.00     0.016 C 
ATOM     12  C   UNL     1      56.026 -14.183  -2.389  1.00  0.00     0.016 C 
ATOM     13  G   UNL     1      56.307 -13.374  -4.740  1.00  0.00     0.000 G0
ENDBRANCH   9  10
ENDBRANCH   3   8
TORSDOF 0
ENDMDL
MODEL 7
REMARK VINA RESULT:    -2.751     13.351     14.172
REMARK INTER + INTRA:          -2.639
REMARK INTER:                  -3.389
REMARK INTRA:                   0.750
REMARK UNBOUND:                 0.755
REMARK SMILES CC1=CC=CC(C)(C)CC1=O
REMARK SMILES IDX 1 1 2 2 3 3 10 4 11 5 9 6 4 8 5 9 6 10 7 11 8 12
REMARK H PARENT
REMARK Flexibility Score: 80.00
ROOT
ATOM      1  C   UNL     1      61.273 -19.859   1.508  1.00  0.00     0.048 C 
ATOM      2  C   UNL     1      60.655 -19.236   0.279  1.00  0.00    -0.008 C 
ATOM      3  C   UNL     1      61.487 -18.851  -0.713  1.00  0.00     0.007 C 
ENDROOT
BRANCH   2   4
ATOM      4  C   UNL     1      59.185 -19.028   0.293  1.00  0.00     0.159 C 
ATOM      5  O   UNL     1      58.557 -19.199   1.374  1.00  0.00    -0.295 OA
BRANCH   4   6
ATOM      6  C   UNL     1      58.395 -18.636  -0.918  1.00  0.00     0.091 CG0
ATOM      7  G   UNL     1      58.852 -17.297  -1.538  1.00  0.00     0.000 G0
ENDBRANCH   4   6
ENDBRANCH   2   4
BRANCH   3   8
ATOM      8  C   UNL     1      61.185 -18.198  -2.008  1.00  0.00    -0.003 C 
ATOM      9  C   UNL     1      60.086 -17.530  -2.381  1.00  0.00    -0.020 C 
BRANCH   9  10
ATOM     10  C   UNL     1      58.846 -17.305  -1.547  1.00  0.00    -0.010 CG0
ATOM     11  C   UNL     1      59.108 -16.198  -0.500  1.00  0.00     0.016 C 
ATOM     12  C   UNL     1      57.715 -16.819  -2.481  1.00  0.00     0.016 C 
ATOM     13  G   UNL     1      58.401 -18.638  -0.905  1.00  0.00     0.000 G0
ENDBRANCH   9  10
ENDBRANCH   3   8
TORSDOF 0
ENDMDL
MODEL 8
REMARK VINA RESULT:    -2.715     14.349     15.100
REMARK INTER + INTRA:          -2.594
REMARK INTER:                  -3.346
REMARK INTRA:                   0.751
REMARK UNBOUND:                 0.755
REMARK SMILES CC1=CC=CC(C)(C)CC1=O
REMARK SMILES IDX 1 1 2 2 3 3 10 4 11 5 9 6 4 8 5 9 6 10 7 11 8 12
REMARK H PARENT
REMARK Flexibility Score: 80.00
ROOT
ATOM      1  C   UNL     1      56.953 -20.591   1.556  1.00  0.00     0.048 C 
ATOM      2  C   UNL     1      57.830 -19.804   0.611  1.00  0.00    -0.008 C 
ATOM      3  C   UNL     1      59.152 -19.752   0.880  1.00  0.00     0.007 C 
ENDROOT
BRANCH   2   4
ATOM      4  C   UNL     1      57.154 -19.086  -0.499  1.00  0.00     0.159 C 
ATOM      5  O   UNL     1      55.896 -18.988  -0.482  1.00  0.00    -0.295 OA
BRANCH   4   6
ATOM      6  C   UNL     1      57.885 -18.479  -1.656  1.00  0.00     0.091 CG0
ATOM      7  G   UNL     1      58.905 -17.399  -1.234  1.00  0.00     0.000 G0
ENDBRANCH   4   6
ENDBRANCH   2   4
BRANCH   3   8
ATOM      8  C   UNL     1      60.242 -19.050   0.164  1.00  0.00    -0.003 C 
ATOM      9  C   UNL     1      60.162 -18.049  -0.722  1.00  0.00    -0.020 C 
BRANCH   9  10
ATOM     10  C   UNL     1      58.897 -17.402  -1.234  1.00  0.00    -0.010 CG0
ATOM     11  C   UNL     1      58.329 -16.438  -0.168  1.00  0.00     0.016 C 
ATOM     12  C   UNL     1      59.250 -16.571  -2.488  1.00  0.00     0.016 C 
ATOM     13  G   UNL     1      57.886 -18.493  -1.649  1.00  0.00     0.000 G0
ENDBRANCH   9  10
ENDBRANCH   3   8
TORSDOF 0
ENDMDL
MODEL 9
REMARK VINA RESULT:    -2.703     14.934     15.720
REMARK INTER + INTRA:          -2.580
REMARK INTER:                  -3.332
REMARK INTRA:                   0.752
REMARK UNBOUND:                 0.755
REMARK SMILES CC1=CC=CC(C)(C)CC1=O
REMARK SMILES IDX 1 1 2 2 3 3 10 4 11 5 9 6 4 8 5 9 6 10 7 11 8 12
REMARK H PARENT
REMARK Flexibility Score: 80.00
ROOT
ATOM      1  C   UNL     1      61.576 -19.377  -0.509  1.00  0.00     0.048 C 
ATOM      2  C   UNL     1      60.381 -19.181   0.393  1.00  0.00    -0.008 C 
ATOM      3  C   UNL     1      60.412 -19.766   1.609  1.00  0.00     0.007 C 
ENDROOT
BRANCH   2   4
ATOM      4  C   UNL     1      59.232 -18.422  -0.163  1.00  0.00     0.159 C 
ATOM      5  O   UNL     1      59.223 -18.148  -1.395  1.00  0.00    -0.295 OA
BRANCH   4   6
ATOM      6  C   UNL     1      58.079 -17.945   0.665  1.00  0.00     0.091 CG0
ATOM      7  G   UNL     1      57.330 -19.089   1.383  1.00  0.00     0.000 G0
ENDBRANCH   4   6
ENDBRANCH   2   4
BRANCH   3   8
ATOM      8  C   UNL     1      59.395 -19.775   2.687  1.00  0.00    -0.003 C 
ATOM      9  C   UNL     1      58.086 -19.503   2.615  1.00  0.00    -0.020 C 
BRANCH   9  10
ATOM     10  C   UNL     1      57.323 -19.081   1.381  1.00  0.00    -0.010 CG0
ATOM     11  C   UNL     1      57.072 -20.307   0.472  1.00  0.00     0.016 C 
ATOM     12  C   UNL     1      55.951 -18.527   1.824  1.00  0.00     0.016 C 
ATOM     13  G   UNL     1      58.088 -17.951   0.657  1.00  0.00     0.000 G0
ENDBRANCH   9  10
ENDBRANCH   3   8
TORSDOF 0
ENDMDL
