MODEL 1
REMARK VINA RESULT:    -4.376      0.000      0.000
REMARK INTER + INTRA:         -10.166
REMARK INTER:                  -7.701
REMARK INTRA:                  -2.465
REMARK UNBOUND:                -2.465
REMARK SMILES CCCCCCC=CCCCCCCCC(=O)[O-]
REMARK SMILES IDX 10 1 11 2 12 3 13 4 14 5 15 6 16 7 17 8 18 9 9 10 8 11 7 12
REMARK SMILES IDX 6 13 5 14 4 15 3 16 2 17 1 18
REMARK H PARENT
REMARK Flexibility Score: inf
ROOT
ATOM      1  C   UNL     1      -5.588  69.356  31.204  1.00  0.00     0.004 C 
ENDROOT
BRANCH   1   2
ATOM      2  C   UNL     1      -5.061  68.587  29.982  1.00  0.00     0.000 C 
BRANCH   2   3
ATOM      3  C   UNL     1      -6.184  67.901  29.186  1.00  0.00     0.000 C 
BRANCH   3   4
ATOM      4  C   UNL     1      -5.937  66.395  28.998  1.00  0.00     0.000 C 
BRANCH   4   5
ATOM      5  C   UNL     1      -4.898  65.835  29.986  1.00  0.00     0.006 C 
BRANCH   5   6
ATOM      6  C   UNL     1      -3.840  64.974  29.283  1.00  0.00     0.053 C 
BRANCH   6   7
ATOM      7  C   UNL     1      -2.519  65.675  29.198  1.00  0.00     0.041 C 
ATOM      8  O   UNL     1      -2.240  66.601  30.006  1.00  0.00    -0.550 OA
ATOM      9  O   UNL     1      -1.582  65.284  28.250  1.00  0.00    -0.550 OA
ENDBRANCH   6   7
ENDBRANCH   5   6
ENDBRANCH   4   5
ENDBRANCH   3   4
ENDBRANCH   2   3
ENDBRANCH   1   2
BRANCH   1  10
ATOM     10  C   UNL     1      -4.572  69.412  32.353  1.00  0.00     0.027 C 
BRANCH  10  11
ATOM     11  C   UNL     1      -4.106  68.023  32.714  1.00  0.00    -0.031 C 
ATOM     12  C   UNL     1      -4.654  67.262  33.680  1.00  0.00    -0.031 C 
BRANCH  12  13
ATOM     13  C   UNL     1      -5.762  67.713  34.601  1.00  0.00     0.027 C 
BRANCH  13  14
ATOM     14  C   UNL     1      -7.125  67.100  34.221  1.00  0.00     0.004 C 
BRANCH  14  15
ATOM     15  C   UNL     1      -7.053  66.094  33.060  1.00  0.00     0.000 C 
BRANCH  15  16
ATOM     16  C   UNL     1      -8.130  66.343  31.990  1.00  0.00    -0.000 C 
BRANCH  16  17
ATOM     17  C   UNL     1      -8.700  67.769  32.051  1.00  0.00    -0.003 C 
ATOM     18  C   UNL     1     -10.054  67.897  31.352  1.00  0.00     0.004 C 
ENDBRANCH  16  17
ENDBRANCH  15  16
ENDBRANCH  14  15
ENDBRANCH  13  14
ENDBRANCH  12  13
ENDBRANCH  10  11
ENDBRANCH   1  10
TORSDOF 13
ENDMDL
MODEL 2
REMARK VINA RESULT:    -4.329      3.369      5.108
REMARK INTER + INTRA:         -10.083
REMARK INTER:                  -7.977
REMARK INTRA:                  -2.106
REMARK UNBOUND:                -2.465
REMARK SMILES CCCCCCC=CCCCCCCCC(=O)[O-]
REMARK SMILES IDX 10 1 11 2 12 3 13 4 14 5 15 6 16 7 17 8 18 9 9 10 8 11 7 12
REMARK SMILES IDX 6 13 5 14 4 15 3 16 2 17 1 18
REMARK H PARENT
REMARK Flexibility Score: inf
ROOT
ATOM      1  C   UNL     1      -4.652  65.091  29.738  1.00  0.00     0.004 C 
ENDROOT
BRANCH   1   2
ATOM      2  C   UNL     1      -6.130  65.512  29.749  1.00  0.00     0.000 C 
BRANCH   2   3
ATOM      3  C   UNL     1      -6.364  66.866  29.058  1.00  0.00     0.000 C 
BRANCH   3   4
ATOM      4  C   UNL     1      -7.827  67.063  28.628  1.00  0.00     0.000 C 
BRANCH   4   5
ATOM      5  C   UNL     1      -8.743  65.917  29.093  1.00  0.00     0.006 C 
BRANCH   5   6
ATOM      6  C   UNL     1     -10.196  66.119  28.643  1.00  0.00     0.053 C 
BRANCH   6   7
ATOM      7  C   UNL     1     -10.739  67.439  29.096  1.00  0.00     0.041 C 
ATOM      8  O   UNL     1     -11.119  68.292  28.250  1.00  0.00    -0.550 OA
ATOM      9  O   UNL     1     -10.860  67.714  30.452  1.00  0.00    -0.550 OA
ENDBRANCH   6   7
ENDBRANCH   5   6
ENDBRANCH   4   5
ENDBRANCH   3   4
ENDBRANCH   2   3
ENDBRANCH   1   2
BRANCH   1  10
ATOM     10  C   UNL     1      -3.779  66.019  28.880  1.00  0.00     0.027 C 
BRANCH  10  11
ATOM     11  C   UNL     1      -2.414  66.182  29.502  1.00  0.00    -0.031 C 
ATOM     12  C   UNL     1      -2.114  67.079  30.460  1.00  0.00    -0.031 C 
BRANCH  12  13
ATOM     13  C   UNL     1      -3.076  68.110  30.997  1.00  0.00     0.027 C 
BRANCH  13  14
ATOM     14  C   UNL     1      -3.600  67.746  32.402  1.00  0.00     0.004 C 
BRANCH  14  15
ATOM     15  C   UNL     1      -5.130  67.822  32.534  1.00  0.00     0.000 C 
BRANCH  15  16
ATOM     16  C   UNL     1      -5.678  66.907  33.643  1.00  0.00    -0.000 C 
BRANCH  16  17
ATOM     17  C   UNL     1      -7.078  66.364  33.319  1.00  0.00    -0.003 C 
ATOM     18  C   UNL     1      -7.906  67.328  32.468  1.00  0.00     0.004 C 
ENDBRANCH  16  17
ENDBRANCH  15  16
ENDBRANCH  14  15
ENDBRANCH  13  14
ENDBRANCH  12  13
ENDBRANCH  10  11
ENDBRANCH   1  10
TORSDOF 13
ENDMDL
MODEL 3
REMARK VINA RESULT:    -4.317      4.405      6.465
REMARK INTER + INTRA:         -10.063
REMARK INTER:                  -7.581
REMARK INTRA:                  -2.482
REMARK UNBOUND:                -2.465
REMARK SMILES CCCCCCC=CCCCCCCCC(=O)[O-]
REMARK SMILES IDX 10 1 11 2 12 3 13 4 14 5 15 6 16 7 17 8 18 9 9 10 8 11 7 12
REMARK SMILES IDX 6 13 5 14 4 15 3 16 2 17 1 18
REMARK H PARENT
REMARK Flexibility Score: inf
ROOT
ATOM      1  C   UNL     1      -8.759  68.234  28.525  1.00  0.00     0.004 C 
ENDROOT
BRANCH   1   2
ATOM      2  C   UNL     1      -8.748  66.698  28.483  1.00  0.00     0.000 C 
BRANCH   2   3
ATOM      3  C   UNL     1     -10.147  66.092  28.685  1.00  0.00     0.000 C 
BRANCH   3   4
ATOM      4  C   UNL     1     -11.273  67.065  28.297  1.00  0.00     0.000 C 
BRANCH   4   5
ATOM      5  C   UNL     1     -12.532  66.895  29.166  1.00  0.00     0.006 C 
BRANCH   5   6
ATOM      6  C   UNL     1     -12.207  66.306  30.545  1.00  0.00     0.053 C 
BRANCH   6   7
ATOM      7  C   UNL     1     -12.984  65.054  30.811  1.00  0.00     0.041 C 
ATOM      8  O   UNL     1     -13.641  64.931  31.879  1.00  0.00    -0.550 OA
ATOM      9  O   UNL     1     -13.013  64.037  29.866  1.00  0.00    -0.550 OA
ENDBRANCH   6   7
ENDBRANCH   5   6
ENDBRANCH   4   5
ENDBRANCH   3   4
ENDBRANCH   2   3
ENDBRANCH   1   2
BRANCH   1  10
ATOM     10  C   UNL     1      -8.118  68.796  29.802  1.00  0.00     0.027 C 
BRANCH  10  11
ATOM     11  C   UNL     1      -9.167  69.026  30.861  1.00  0.00    -0.031 C 
ATOM     12  C   UNL     1      -9.425  68.180  31.877  1.00  0.00    -0.031 C 
BRANCH  12  13
ATOM     13  C   UNL     1      -8.762  66.837  32.061  1.00  0.00     0.027 C 
BRANCH  13  14
ATOM     14  C   UNL     1      -7.426  66.944  32.825  1.00  0.00     0.004 C 
BRANCH  14  15
ATOM     15  C   UNL     1      -6.335  65.992  32.308  1.00  0.00     0.000 C 
BRANCH  15  16
ATOM     16  C   UNL     1      -6.800  65.148  31.110  1.00  0.00    -0.000 C 
BRANCH  16  17
ATOM     17  C   UNL     1      -5.775  65.140  29.964  1.00  0.00    -0.003 C 
ATOM     18  C   UNL     1      -5.072  66.486  29.787  1.00  0.00     0.004 C 
ENDBRANCH  16  17
ENDBRANCH  15  16
ENDBRANCH  14  15
ENDBRANCH  13  14
ENDBRANCH  12  13
ENDBRANCH  10  11
ENDBRANCH   1  10
TORSDOF 13
ENDMDL
MODEL 4
REMARK VINA RESULT:    -4.283      3.792      6.022
REMARK INTER + INTRA:         -10.003
REMARK INTER:                  -8.138
REMARK INTRA:                  -1.865
REMARK UNBOUND:                -2.465
REMARK SMILES CCCCCCC=CCCCCCCCC(=O)[O-]
REMARK SMILES IDX 10 1 11 2 12 3 13 4 14 5 15 6 16 7 17 8 18 9 9 10 8 11 7 12
REMARK SMILES IDX 6 13 5 14 4 15 3 16 2 17 1 18
REMARK H PARENT
REMARK Flexibility Score: inf
ROOT
ATOM      1  C   UNL     1      -8.286  65.474  29.362  1.00  0.00     0.004 C 
ENDROOT
BRANCH   1   2
ATOM      2  C   UNL     1      -8.679  66.959  29.328  1.00  0.00     0.000 C 
BRANCH   2   3
ATOM      3  C   UNL     1      -8.922  67.538  30.733  1.00  0.00     0.000 C 
BRANCH   3   4
ATOM      4  C   UNL     1     -10.417  67.707  31.050  1.00  0.00     0.000 C 
BRANCH   4   5
ATOM      5  C   UNL     1     -11.053  66.426  31.617  1.00  0.00     0.006 C 
BRANCH   5   6
ATOM      6  C   UNL     1     -12.403  66.112  30.958  1.00  0.00     0.053 C 
BRANCH   6   7
ATOM      7  C   UNL     1     -12.252  65.806  29.500  1.00  0.00     0.041 C 
ATOM      8  O   UNL     1     -11.790  64.695  29.129  1.00  0.00    -0.550 OA
ATOM      9  O   UNL     1     -12.654  66.736  28.548  1.00  0.00    -0.550 OA
ENDBRANCH   6   7
ENDBRANCH   5   6
ENDBRANCH   4   5
ENDBRANCH   3   4
ENDBRANCH   2   3
ENDBRANCH   1   2
BRANCH   1  10
ATOM     10  C   UNL     1      -7.296  65.148  30.490  1.00  0.00     0.027 C 
BRANCH  10  11
ATOM     11  C   UNL     1      -5.881  65.161  29.969  1.00  0.00    -0.031 C 
ATOM     12  C   UNL     1      -4.974  66.118  30.247  1.00  0.00    -0.031 C 
BRANCH  12  13
ATOM     13  C   UNL     1      -5.262  67.361  31.053  1.00  0.00     0.027 C 
BRANCH  13  14
ATOM     14  C   UNL     1      -4.339  67.488  32.282  1.00  0.00     0.004 C 
BRANCH  14  15
ATOM     15  C   UNL     1      -4.967  66.973  33.588  1.00  0.00     0.000 C 
BRANCH  15  16
ATOM     16  C   UNL     1      -6.504  66.952  33.541  1.00  0.00    -0.000 C 
BRANCH  16  17
ATOM     17  C   UNL     1      -7.139  67.487  34.835  1.00  0.00    -0.003 C 
ATOM     18  C   UNL     1      -6.149  68.260  35.706  1.00  0.00     0.004 C 
ENDBRANCH  16  17
ENDBRANCH  15  16
ENDBRANCH  14  15
ENDBRANCH  13  14
ENDBRANCH  12  13
ENDBRANCH  10  11
ENDBRANCH   1  10
TORSDOF 13
ENDMDL
MODEL 5
REMARK VINA RESULT:    -4.275      3.364      5.618
REMARK INTER + INTRA:          -9.989
REMARK INTER:                  -7.496
REMARK INTRA:                  -2.493
REMARK UNBOUND:                -2.465
REMARK SMILES CCCCCCC=CCCCCCCCC(=O)[O-]
REMARK SMILES IDX 10 1 11 2 12 3 13 4 14 5 15 6 16 7 17 8 18 9 9 10 8 11 7 12
REMARK SMILES IDX 6 13 5 14 4 15 3 16 2 17 1 18
REMARK H PARENT
REMARK Flexibility Score: inf
ROOT
ATOM      1  C   UNL     1      -7.552  66.649  28.807  1.00  0.00     0.004 C 
ENDROOT
BRANCH   1   2
ATOM      2  C   UNL     1      -7.603  68.178  28.950  1.00  0.00     0.000 C 
BRANCH   2   3
ATOM      3  C   UNL     1      -7.743  68.631  30.413  1.00  0.00     0.000 C 
BRANCH   3   4
ATOM      4  C   UNL     1      -8.839  69.693  30.599  1.00  0.00     0.000 C 
BRANCH   4   5
ATOM      5  C   UNL     1     -10.202  69.083  30.972  1.00  0.00     0.006 C 
BRANCH   5   6
ATOM      6  C   UNL     1     -10.057  67.700  31.621  1.00  0.00     0.053 C 
BRANCH   6   7
ATOM      7  C   UNL     1     -11.000  66.703  31.020  1.00  0.00     0.041 C 
ATOM      8  O   UNL     1     -11.828  66.095  31.749  1.00  0.00    -0.550 OA
ATOM      9  O   UNL     1     -10.990  66.472  29.650  1.00  0.00    -0.550 OA
ENDBRANCH   6   7
ENDBRANCH   5   6
ENDBRANCH   4   5
ENDBRANCH   3   4
ENDBRANCH   2   3
ENDBRANCH   1   2
BRANCH   1  10
ATOM     10  C   UNL     1      -7.103  65.948  30.097  1.00  0.00     0.027 C 
BRANCH  10  11
ATOM     11  C   UNL     1      -5.923  65.049  29.826  1.00  0.00    -0.031 C 
ATOM     12  C   UNL     1      -4.642  65.461  29.791  1.00  0.00    -0.031 C 
BRANCH  12  13
ATOM     13  C   UNL     1      -4.201  66.897  29.935  1.00  0.00     0.027 C 
BRANCH  13  14
ATOM     14  C   UNL     1      -3.781  67.238  31.380  1.00  0.00     0.004 C 
BRANCH  14  15
ATOM     15  C   UNL     1      -4.370  68.558  31.904  1.00  0.00     0.000 C 
BRANCH  15  16
ATOM     16  C   UNL     1      -5.341  68.352  33.079  1.00  0.00    -0.000 C 
BRANCH  16  17
ATOM     17  C   UNL     1      -5.620  66.867  33.357  1.00  0.00    -0.003 C 
ATOM     18  C   UNL     1      -7.071  66.601  33.759  1.00  0.00     0.004 C 
ENDBRANCH  16  17
ENDBRANCH  15  16
ENDBRANCH  14  15
ENDBRANCH  13  14
ENDBRANCH  12  13
ENDBRANCH  10  11
ENDBRANCH   1  10
TORSDOF 13
ENDMDL
MODEL 6
REMARK VINA RESULT:    -4.221      3.360      5.246
REMARK INTER + INTRA:          -9.894
REMARK INTER:                  -7.313
REMARK INTRA:                  -2.581
REMARK UNBOUND:                -2.465
REMARK SMILES CCCCCCC=CCCCCCCCC(=O)[O-]
REMARK SMILES IDX 10 1 11 2 12 3 13 4 14 5 15 6 16 7 17 8 18 9 9 10 8 11 7 12
REMARK SMILES IDX 6 13 5 14 4 15 3 16 2 17 1 18
REMARK H PARENT
REMARK Flexibility Score: inf
ROOT
ATOM      1  C   UNL     1      -4.953  66.737  28.573  1.00  0.00     0.004 C 
ENDROOT
BRANCH   1   2
ATOM      2  C   UNL     1      -5.076  68.239  28.872  1.00  0.00     0.000 C 
BRANCH   2   3
ATOM      3  C   UNL     1      -6.465  68.799  28.523  1.00  0.00     0.000 C 
BRANCH   3   4
ATOM      4  C   UNL     1      -7.456  67.700  28.106  1.00  0.00     0.000 C 
BRANCH   4   5
ATOM      5  C   UNL     1      -8.823  67.837  28.800  1.00  0.00     0.006 C 
BRANCH   5   6
ATOM      6  C   UNL     1      -9.571  66.499  28.874  1.00  0.00     0.053 C 
BRANCH   6   7
ATOM      7  C   UNL     1     -10.737  66.565  29.812  1.00  0.00     0.041 C 
ATOM      8  O   UNL     1     -11.879  66.877  29.382  1.00  0.00    -0.550 OA
ATOM      9  O   UNL     1     -10.570  66.248  31.154  1.00  0.00    -0.550 OA
ENDBRANCH   6   7
ENDBRANCH   5   6
ENDBRANCH   4   5
ENDBRANCH   3   4
ENDBRANCH   2   3
ENDBRANCH   1   2
BRANCH   1  10
ATOM     10  C   UNL     1      -4.681  65.902  29.832  1.00  0.00     0.027 C 
BRANCH  10  11
ATOM     11  C   UNL     1      -5.800  64.918  30.065  1.00  0.00    -0.031 C 
ATOM     12  C   UNL     1      -6.858  65.141  30.867  1.00  0.00    -0.031 C 
BRANCH  12  13
ATOM     13  C   UNL     1      -7.042  66.375  31.717  1.00  0.00     0.027 C 
BRANCH  13  14
ATOM     14  C   UNL     1      -6.495  66.188  33.147  1.00  0.00     0.004 C 
BRANCH  14  15
ATOM     15  C   UNL     1      -5.264  67.055  33.461  1.00  0.00     0.000 C 
BRANCH  15  16
ATOM     16  C   UNL     1      -5.277  68.399  32.714  1.00  0.00    -0.000 C 
BRANCH  16  17
ATOM     17  C   UNL     1      -3.874  68.832  32.259  1.00  0.00    -0.003 C 
ATOM     18  C   UNL     1      -2.800  67.790  32.573  1.00  0.00     0.004 C 
ENDBRANCH  16  17
ENDBRANCH  15  16
ENDBRANCH  14  15
ENDBRANCH  13  14
ENDBRANCH  12  13
ENDBRANCH  10  11
ENDBRANCH   1  10
TORSDOF 13
ENDMDL
MODEL 7
REMARK VINA RESULT:    -4.208      2.868      4.827
REMARK INTER + INTRA:          -9.870
REMARK INTER:                  -7.599
REMARK INTRA:                  -2.271
REMARK UNBOUND:                -2.465
REMARK SMILES CCCCCCC=CCCCCCCCC(=O)[O-]
REMARK SMILES IDX 10 1 11 2 12 3 13 4 14 5 15 6 16 7 17 8 18 9 9 10 8 11 7 12
REMARK SMILES IDX 6 13 5 14 4 15 3 16 2 17 1 18
REMARK H PARENT
REMARK Flexibility Score: inf
ROOT
ATOM      1  C   UNL     1      -7.725  68.329  28.628  1.00  0.00     0.004 C 
ENDROOT
BRANCH   1   2
ATOM      2  C   UNL     1      -6.808  67.097  28.685  1.00  0.00     0.000 C 
BRANCH   2   3
ATOM      3  C   UNL     1      -7.453  65.915  29.428  1.00  0.00     0.000 C 
BRANCH   3   4
ATOM      4  C   UNL     1      -6.549  65.352  30.537  1.00  0.00     0.000 C 
BRANCH   4   5
ATOM      5  C   UNL     1      -6.825  65.991  31.910  1.00  0.00     0.006 C 
BRANCH   5   6
ATOM      6  C   UNL     1      -5.681  66.908  32.361  1.00  0.00     0.053 C 
BRANCH   6   7
ATOM      7  C   UNL     1      -5.645  67.062  33.850  1.00  0.00     0.041 C 
ATOM      8  O   UNL     1      -6.688  67.381  34.479  1.00  0.00    -0.550 OA
ATOM      9  O   UNL     1      -4.468  66.818  34.547  1.00  0.00    -0.550 OA
ENDBRANCH   6   7
ENDBRANCH   5   6
ENDBRANCH   4   5
ENDBRANCH   3   4
ENDBRANCH   2   3
ENDBRANCH   1   2
BRANCH   1  10
ATOM     10  C   UNL     1      -7.733  69.122  29.943  1.00  0.00     0.027 C 
BRANCH  10  11
ATOM     11  C   UNL     1      -9.107  69.685  30.212  1.00  0.00    -0.031 C 
ATOM     12  C   UNL     1     -10.035  69.094  30.988  1.00  0.00    -0.031 C 
BRANCH  12  13
ATOM     13  C   UNL     1      -9.872  67.743  31.639  1.00  0.00     0.027 C 
BRANCH  13  14
ATOM     14  C   UNL     1     -10.990  66.759  31.236  1.00  0.00     0.004 C 
BRANCH  14  15
ATOM     15  C   UNL     1     -11.083  66.509  29.722  1.00  0.00     0.000 C 
BRANCH  15  16
ATOM     16  C   UNL     1     -12.512  66.670  29.178  1.00  0.00    -0.000 C 
BRANCH  16  17
ATOM     17  C   UNL     1     -12.555  67.455  27.858  1.00  0.00    -0.003 C 
ATOM     18  C   UNL     1     -11.204  68.069  27.489  1.00  0.00     0.004 C 
ENDBRANCH  16  17
ENDBRANCH  15  16
ENDBRANCH  14  15
ENDBRANCH  13  14
ENDBRANCH  12  13
ENDBRANCH  10  11
ENDBRANCH   1  10
TORSDOF 13
ENDMDL
MODEL 8
REMARK VINA RESULT:    -4.201      4.283      6.430
REMARK INTER + INTRA:          -9.858
REMARK INTER:                  -7.771
REMARK INTRA:                  -2.087
REMARK UNBOUND:                -2.465
REMARK SMILES CCCCCCC=CCCCCCCCC(=O)[O-]
REMARK SMILES IDX 10 1 11 2 12 3 13 4 14 5 15 6 16 7 17 8 18 9 9 10 8 11 7 12
REMARK SMILES IDX 6 13 5 14 4 15 3 16 2 17 1 18
REMARK H PARENT
REMARK Flexibility Score: inf
ROOT
ATOM      1  C   UNL     1      -9.025  67.631  30.297  1.00  0.00     0.004 C 
ENDROOT
BRANCH   1   2
ATOM      2  C   UNL     1      -8.947  66.202  29.737  1.00  0.00     0.000 C 
BRANCH   2   3
ATOM      3  C   UNL     1      -9.905  65.978  28.554  1.00  0.00     0.000 C 
BRANCH   3   4
ATOM      4  C   UNL     1     -11.034  67.021  28.505  1.00  0.00     0.000 C 
BRANCH   4   5
ATOM      5  C   UNL     1     -12.400  66.439  28.909  1.00  0.00     0.006 C 
BRANCH   5   6
ATOM      6  C   UNL     1     -12.573  66.375  30.433  1.00  0.00     0.053 C 
BRANCH   6   7
ATOM      7  C   UNL     1     -12.936  64.997  30.893  1.00  0.00     0.041 C 
ATOM      8  O   UNL     1     -12.936  64.036  30.079  1.00  0.00    -0.550 OA
ATOM      9  O   UNL     1     -13.239  64.766  32.230  1.00  0.00    -0.550 OA
ENDBRANCH   6   7
ENDBRANCH   5   6
ENDBRANCH   4   5
ENDBRANCH   3   4
ENDBRANCH   2   3
ENDBRANCH   1   2
BRANCH   1  10
ATOM     10  C   UNL     1      -8.677  67.701  31.791  1.00  0.00     0.027 C 
BRANCH  10  11
ATOM     11  C   UNL     1      -8.035  66.414  32.245  1.00  0.00    -0.031 C 
ATOM     12  C   UNL     1      -6.730  66.277  32.549  1.00  0.00    -0.031 C 
BRANCH  12  13
ATOM     13  C   UNL     1      -5.699  67.369  32.402  1.00  0.00     0.027 C 
BRANCH  13  14
ATOM     14  C   UNL     1      -4.759  67.130  31.204  1.00  0.00     0.004 C 
BRANCH  14  15
ATOM     15  C   UNL     1      -5.173  65.945  30.315  1.00  0.00     0.000 C 
BRANCH  15  16
ATOM     16  C   UNL     1      -5.462  66.363  28.863  1.00  0.00    -0.000 C 
BRANCH  16  17
ATOM     17  C   UNL     1      -5.683  67.877  28.721  1.00  0.00    -0.003 C 
ATOM     18  C   UNL     1      -6.459  68.248  27.457  1.00  0.00     0.004 C 
ENDBRANCH  16  17
ENDBRANCH  15  16
ENDBRANCH  14  15
ENDBRANCH  13  14
ENDBRANCH  12  13
ENDBRANCH  10  11
ENDBRANCH   1  10
TORSDOF 13
ENDMDL
MODEL 9
REMARK VINA RESULT:    -4.171      3.112      5.157
REMARK INTER + INTRA:          -9.806
REMARK INTER:                  -7.182
REMARK INTRA:                  -2.624
REMARK UNBOUND:                -2.465
REMARK SMILES CCCCCCC=CCCCCCCCC(=O)[O-]
REMARK SMILES IDX 10 1 11 2 12 3 13 4 14 5 15 6 16 7 17 8 18 9 9 10 8 11 7 12
REMARK SMILES IDX 6 13 5 14 4 15 3 16 2 17 1 18
REMARK H PARENT
REMARK Flexibility Score: inf
ROOT
ATOM      1  C   UNL     1      -3.932  68.774  31.801  1.00  0.00     0.004 C 
ENDROOT
BRANCH   1   2
ATOM      2  C   UNL     1      -5.143  68.594  32.729  1.00  0.00     0.000 C 
BRANCH   2   3
ATOM      3  C   UNL     1      -5.186  67.201  33.380  1.00  0.00     0.000 C 
BRANCH   3   4
ATOM      4  C   UNL     1      -6.365  66.351  32.877  1.00  0.00     0.000 C 
BRANCH   4   5
ATOM      5  C   UNL     1      -7.664  67.163  32.729  1.00  0.00     0.006 C 
BRANCH   5   6
ATOM      6  C   UNL     1      -8.677  66.469  31.810  1.00  0.00     0.053 C 
BRANCH   6   7
ATOM      7  C   UNL     1      -9.718  67.423  31.310  1.00  0.00     0.041 C 
ATOM      8  O   UNL     1      -9.754  68.605  31.743  1.00  0.00    -0.550 OA
ATOM      9  O   UNL     1     -10.627  67.017  30.341  1.00  0.00    -0.550 OA
ENDBRANCH   6   7
ENDBRANCH   5   6
ENDBRANCH   4   5
ENDBRANCH   3   4
ENDBRANCH   2   3
ENDBRANCH   1   2
BRANCH   1  10
ATOM     10  C   UNL     1      -3.131  67.477  31.614  1.00  0.00     0.027 C 
BRANCH  10  11
ATOM     11  C   UNL     1      -2.765  67.287  30.163  1.00  0.00    -0.031 C 
ATOM     12  C   UNL     1      -3.365  66.413  29.334  1.00  0.00    -0.031 C 
BRANCH  12  13
ATOM     13  C   UNL     1      -4.436  65.435  29.750  1.00  0.00     0.027 C 
BRANCH  13  14
ATOM     14  C   UNL     1      -5.851  65.923  29.376  1.00  0.00     0.004 C 
BRANCH  14  15
ATOM     15  C   UNL     1      -5.863  67.067  28.348  1.00  0.00     0.000 C 
BRANCH  15  16
ATOM     16  C   UNL     1      -7.102  67.969  28.477  1.00  0.00    -0.000 C 
BRANCH  16  17
ATOM     17  C   UNL     1      -6.919  69.072  29.532  1.00  0.00    -0.003 C 
ATOM     18  C   UNL     1      -5.959  70.172  29.081  1.00  0.00     0.004 C 
ENDBRANCH  16  17
ENDBRANCH  15  16
ENDBRANCH  14  15
ENDBRANCH  13  14
ENDBRANCH  12  13
ENDBRANCH  10  11
ENDBRANCH   1  10
TORSDOF 13
ENDMDL
