MODEL 1
REMARK VINA RESULT:    -6.853      0.000      0.000
REMARK INTER + INTRA:          -8.317
REMARK INTER:                  -8.055
REMARK INTRA:                  -0.262
REMARK UNBOUND:                -0.262
REMARK SMILES O=c1c(O)c(-c2ccc(O)c(O)c2)oc2cc(O)ccc12
REMARK SMILES IDX 5 1 3 2 2 3 1 4 21 5 15 6 14 7 16 8 17 9 19 10 20 11 6 12
REMARK SMILES IDX 7 13 8 14 9 15 13 16 11 17 10 18 12 20 4 22 18 24
REMARK H PARENT 10 19 12 21 4 23 18 25
REMARK Flexibility Score: inf
ROOT
ATOM      1  C   UNL     1       6.987  -5.450   6.099  1.00  0.00     0.180 A 
ATOM      2  C   UNL     1       7.840  -5.187   7.190  1.00  0.00     0.208 A 
ATOM      3  C   UNL     1       8.947  -4.347   6.997  1.00  0.00     0.235 A 
ATOM      4  O   UNL     1       9.732  -4.106   7.955  1.00  0.00    -0.285 OA
ATOM      5  C   UNL     1       9.167  -3.775   5.734  1.00  0.00     0.069 A 
ATOM      6  C   UNL     1       8.254  -4.069   4.699  1.00  0.00     0.142 A 
ATOM      7  O   UNL     1       7.223  -4.876   4.922  1.00  0.00    -0.452 OA
ATOM      8  C   UNL     1       8.433  -3.510   3.428  1.00  0.00     0.094 A 
ATOM      9  C   UNL     1       9.516  -2.662   3.177  1.00  0.00     0.119 A 
ATOM     10  C   UNL     1      10.425  -2.369   4.202  1.00  0.00     0.047 A 
ATOM     11  C   UNL     1      10.255  -2.922   5.475  1.00  0.00     0.020 A 
ENDROOT
BRANCH   1  12
ATOM     12  C   UNL     1       5.809  -6.341   6.218  1.00  0.00     0.025 A 
ATOM     13  C   UNL     1       4.633  -5.918   6.861  1.00  0.00     0.016 A 
ATOM     14  C   UNL     1       3.544  -6.785   6.981  1.00  0.00     0.051 A 
ATOM     15  C   UNL     1       3.617  -8.088   6.471  1.00  0.00     0.157 A 
ATOM     16  C   UNL     1       5.886  -7.654   5.728  1.00  0.00     0.062 A 
ATOM     17  C   UNL     1       4.796  -8.525   5.845  1.00  0.00     0.158 A 
BRANCH  15  18
ATOM     18  O   UNL     1       2.527  -8.949   6.591  1.00  0.00    -0.504 OA
ATOM     19  H   UNL     1       2.445  -9.783   6.022  1.00  0.00     0.293 HD
ENDBRANCH  15  18
BRANCH  17  20
ATOM     20  O   UNL     1       4.904  -9.818   5.334  1.00  0.00    -0.504 OA
ATOM     21  H   UNL     1       4.497 -10.618   5.804  1.00  0.00     0.293 HD
ENDBRANCH  17  20
ENDBRANCH   1  12
BRANCH   2  22
ATOM     22  O   UNL     1       7.569  -5.732   8.448  1.00  0.00    -0.502 OA
ATOM     23  H   UNL     1       6.854  -5.356   9.059  1.00  0.00     0.293 HD
ENDBRANCH   2  22
BRANCH   9  24
ATOM     24  O   UNL     1       9.679  -2.115   1.906  1.00  0.00    -0.508 OA
ATOM     25  H   UNL     1       9.022  -2.305   1.159  1.00  0.00     0.293 HD
ENDBRANCH   9  24
TORSDOF 5
ENDMDL
MODEL 2
REMARK VINA RESULT:    -6.772      1.728      6.708
REMARK INTER + INTRA:          -8.221
REMARK INTER:                  -8.156
REMARK INTRA:                  -0.065
REMARK UNBOUND:                -0.262
REMARK SMILES O=c1c(O)c(-c2ccc(O)c(O)c2)oc2cc(O)ccc12
REMARK SMILES IDX 5 1 3 2 2 3 1 4 21 5 15 6 14 7 16 8 17 9 19 10 20 11 6 12
REMARK SMILES IDX 7 13 8 14 9 15 13 16 11 17 10 18 12 20 4 22 18 24
REMARK H PARENT 10 19 12 21 4 23 18 25
REMARK Flexibility Score: inf
ROOT
ATOM      1  C   UNL     1       7.313  -5.651   6.130  1.00  0.00     0.180 A 
ATOM      2  C   UNL     1       8.169  -6.587   6.746  1.00  0.00     0.208 A 
ATOM      3  C   UNL     1       7.621  -7.782   7.239  1.00  0.00     0.235 A 
ATOM      4  O   UNL     1       8.365  -8.630   7.804  1.00  0.00    -0.285 OA
ATOM      5  C   UNL     1       6.247  -8.024   7.090  1.00  0.00     0.069 A 
ATOM      6  C   UNL     1       5.462  -7.047   6.441  1.00  0.00     0.142 A 
ATOM      7  O   UNL     1       6.018  -5.926   5.996  1.00  0.00    -0.452 OA
ATOM      8  C   UNL     1       4.090  -7.256   6.265  1.00  0.00     0.094 A 
ATOM      9  C   UNL     1       3.489  -8.430   6.731  1.00  0.00     0.119 A 
ATOM     10  C   UNL     1       4.265  -9.401   7.378  1.00  0.00     0.047 A 
ATOM     11  C   UNL     1       5.637  -9.202   7.558  1.00  0.00     0.020 A 
ENDROOT
BRANCH   1  12
ATOM     12  C   UNL     1       7.810  -4.360   5.602  1.00  0.00     0.025 A 
ATOM     13  C   UNL     1       7.666  -4.018   4.246  1.00  0.00     0.016 A 
ATOM     14  C   UNL     1       8.164  -2.804   3.766  1.00  0.00     0.051 A 
ATOM     15  C   UNL     1       8.822  -1.919   4.629  1.00  0.00     0.157 A 
ATOM     16  C   UNL     1       8.490  -3.479   6.459  1.00  0.00     0.062 A 
ATOM     17  C   UNL     1       8.989  -2.261   5.982  1.00  0.00     0.158 A 
BRANCH  15  18
ATOM     18  O   UNL     1       9.316  -0.708   4.148  1.00  0.00    -0.504 OA
ATOM     19  H   UNL     1       8.712   0.093   4.005  1.00  0.00     0.293 HD
ENDBRANCH  15  18
BRANCH  17  20
ATOM     20  O   UNL     1       9.647  -1.406   6.866  1.00  0.00    -0.504 OA
ATOM     21  H   UNL     1      10.577  -1.051   6.679  1.00  0.00     0.293 HD
ENDBRANCH  17  20
ENDBRANCH   1  12
BRANCH   2  22
ATOM     22  O   UNL     1       9.541  -6.340   6.836  1.00  0.00    -0.502 OA
ATOM     23  H   UNL     1      10.064  -5.903   6.087  1.00  0.00     0.293 HD
ENDBRANCH   2  22
BRANCH   9  24
ATOM     24  O   UNL     1       2.121  -8.622   6.548  1.00  0.00    -0.508 OA
ATOM     25  H   UNL     1       1.766  -9.268   5.853  1.00  0.00     0.293 HD
ENDBRANCH   9  24
TORSDOF 5
ENDMDL
MODEL 3
REMARK VINA RESULT:    -6.701      1.896      3.646
REMARK INTER + INTRA:          -8.139
REMARK INTER:                  -8.155
REMARK INTRA:                   0.017
REMARK UNBOUND:                -0.262
REMARK SMILES O=c1c(O)c(-c2ccc(O)c(O)c2)oc2cc(O)ccc12
REMARK SMILES IDX 5 1 3 2 2 3 1 4 21 5 15 6 14 7 16 8 17 9 19 10 20 11 6 12
REMARK SMILES IDX 7 13 8 14 9 15 13 16 11 17 10 18 12 20 4 22 18 24
REMARK H PARENT 10 19 12 21 4 23 18 25
REMARK Flexibility Score: inf
ROOT
ATOM      1  C   UNL     1       8.081  -4.397   5.297  1.00  0.00     0.180 A 
ATOM      2  C   UNL     1       8.711  -3.999   4.101  1.00  0.00     0.208 A 
ATOM      3  C   UNL     1       9.639  -2.946   4.144  1.00  0.00     0.235 A 
ATOM      4  O   UNL     1      10.208  -2.564   3.084  1.00  0.00    -0.285 OA
ATOM      5  C   UNL     1       9.930  -2.332   5.371  1.00  0.00     0.069 A 
ATOM      6  C   UNL     1       9.273  -2.804   6.528  1.00  0.00     0.142 A 
ATOM      7  O   UNL     1       8.395  -3.798   6.443  1.00  0.00    -0.452 OA
ATOM      8  C   UNL     1       9.544  -2.225   7.772  1.00  0.00     0.094 A 
ATOM      9  C   UNL     1      10.462  -1.175   7.877  1.00  0.00     0.119 A 
ATOM     10  C   UNL     1      11.115  -0.702   6.731  1.00  0.00     0.047 A 
ATOM     11  C   UNL     1      10.852  -1.275   5.483  1.00  0.00     0.020 A 
ENDROOT
BRANCH   1  12
ATOM     12  C   UNL     1       7.077  -5.486   5.333  1.00  0.00     0.025 A 
ATOM     13  C   UNL     1       7.328  -6.733   4.736  1.00  0.00     0.016 A 
ATOM     14  C   UNL     1       6.356  -7.737   4.762  1.00  0.00     0.051 A 
ATOM     15  C   UNL     1       5.117  -7.506   5.373  1.00  0.00     0.157 A 
ATOM     16  C   UNL     1       5.825  -5.252   5.925  1.00  0.00     0.062 A 
ATOM     17  C   UNL     1       4.850  -6.256   5.954  1.00  0.00     0.158 A 
BRANCH  15  18
ATOM     18  O   UNL     1       4.151  -8.511   5.399  1.00  0.00    -0.504 OA
ATOM     19  H   UNL     1       4.339  -9.438   5.037  1.00  0.00     0.293 HD
ENDBRANCH  15  18
BRANCH  17  20
ATOM     20  O   UNL     1       3.624  -5.991   6.563  1.00  0.00    -0.504 OA
ATOM     21  H   UNL     1       2.895  -6.691   6.633  1.00  0.00     0.293 HD
ENDBRANCH  17  20
ENDBRANCH   1  12
BRANCH   2  22
ATOM     22  O   UNL     1       8.438  -4.661   2.902  1.00  0.00    -0.502 OA
ATOM     23  H   UNL     1       8.279  -4.165   2.033  1.00  0.00     0.293 HD
ENDBRANCH   2  22
BRANCH   9  24
ATOM     24  O   UNL     1      10.720  -0.609   9.124  1.00  0.00    -0.508 OA
ATOM     25  H   UNL     1      11.628  -0.222   9.353  1.00  0.00     0.293 HD
ENDBRANCH   9  24
TORSDOF 5
ENDMDL
MODEL 4
REMARK VINA RESULT:    -6.566      1.791      3.348
REMARK INTER + INTRA:          -7.979
REMARK INTER:                  -7.658
REMARK INTRA:                  -0.321
REMARK UNBOUND:                -0.262
REMARK SMILES O=c1c(O)c(-c2ccc(O)c(O)c2)oc2cc(O)ccc12
REMARK SMILES IDX 5 1 3 2 2 3 1 4 21 5 15 6 14 7 16 8 17 9 19 10 20 11 6 12
REMARK SMILES IDX 7 13 8 14 9 15 13 16 11 17 10 18 12 20 4 22 18 24
REMARK H PARENT 10 19 12 21 4 23 18 25
REMARK Flexibility Score: inf
ROOT
ATOM      1  C   UNL     1       7.968  -4.445   5.397  1.00  0.00     0.180 A 
ATOM      2  C   UNL     1       8.558  -4.050   4.179  1.00  0.00     0.208 A 
ATOM      3  C   UNL     1       9.490  -3.001   4.188  1.00  0.00     0.235 A 
ATOM      4  O   UNL     1      10.024  -2.622   3.109  1.00  0.00    -0.285 OA
ATOM      5  C   UNL     1       9.826  -2.386   5.404  1.00  0.00     0.069 A 
ATOM      6  C   UNL     1       9.208  -2.855   6.583  1.00  0.00     0.142 A 
ATOM      7  O   UNL     1       8.324  -3.845   6.530  1.00  0.00    -0.452 OA
ATOM      8  C   UNL     1       9.523  -2.274   7.817  1.00  0.00     0.094 A 
ATOM      9  C   UNL     1      10.448  -1.228   7.889  1.00  0.00     0.119 A 
ATOM     10  C   UNL     1      11.062  -0.759   6.720  1.00  0.00     0.047 A 
ATOM     11  C   UNL     1      10.754  -1.332   5.482  1.00  0.00     0.020 A 
ENDROOT
BRANCH   1  12
ATOM     12  C   UNL     1       6.962  -5.530   5.468  1.00  0.00     0.025 A 
ATOM     13  C   UNL     1       5.585  -5.259   5.387  1.00  0.00     0.016 A 
ATOM     14  C   UNL     1       4.655  -6.297   5.481  1.00  0.00     0.051 A 
ATOM     15  C   UNL     1       5.084  -7.618   5.668  1.00  0.00     0.157 A 
ATOM     16  C   UNL     1       7.387  -6.852   5.677  1.00  0.00     0.062 A 
ATOM     17  C   UNL     1       6.457  -7.895   5.771  1.00  0.00     0.158 A 
BRANCH  15  18
ATOM     18  O   UNL     1       4.153  -8.650   5.759  1.00  0.00    -0.504 OA
ATOM     19  H   UNL     1       3.259  -8.521   6.220  1.00  0.00     0.293 HD
ENDBRANCH  15  18
BRANCH  17  20
ATOM     20  O   UNL     1       6.917  -9.197   5.964  1.00  0.00    -0.504 OA
ATOM     21  H   UNL     1       7.790  -9.523   5.568  1.00  0.00     0.293 HD
ENDBRANCH  17  20
ENDBRANCH   1  12
BRANCH   2  22
ATOM     22  O   UNL     1       8.241  -4.713   2.991  1.00  0.00    -0.502 OA
ATOM     23  H   UNL     1       7.358  -4.580   2.515  1.00  0.00     0.293 HD
ENDBRANCH   2  22
BRANCH   9  24
ATOM     24  O   UNL     1      10.750  -0.661   9.125  1.00  0.00    -0.508 OA
ATOM     25  H   UNL     1      11.349   0.153   9.202  1.00  0.00     0.293 HD
ENDBRANCH   9  24
TORSDOF 5
ENDMDL
MODEL 5
REMARK VINA RESULT:    -6.314      1.905      6.587
REMARK INTER + INTRA:          -7.683
REMARK INTER:                  -7.436
REMARK INTRA:                  -0.247
REMARK UNBOUND:                -0.262
REMARK SMILES O=c1c(O)c(-c2ccc(O)c(O)c2)oc2cc(O)ccc12
REMARK SMILES IDX 5 1 3 2 2 3 1 4 21 5 15 6 14 7 16 8 17 9 19 10 20 11 6 12
REMARK SMILES IDX 7 13 8 14 9 15 13 16 11 17 10 18 12 20 4 22 18 24
REMARK H PARENT 10 19 12 21 4 23 18 25
REMARK Flexibility Score: inf
ROOT
ATOM      1  C   UNL     1       8.139  -5.283   6.255  1.00  0.00     0.180 A 
ATOM      2  C   UNL     1       7.784  -5.497   7.602  1.00  0.00     0.208 A 
ATOM      3  C   UNL     1       7.009  -6.620   7.927  1.00  0.00     0.235 A 
ATOM      4  O   UNL     1       6.669  -6.827   9.125  1.00  0.00    -0.285 OA
ATOM      5  C   UNL     1       6.624  -7.511   6.914  1.00  0.00     0.069 A 
ATOM      6  C   UNL     1       7.040  -7.240   5.592  1.00  0.00     0.142 A 
ATOM      7  O   UNL     1       7.766  -6.160   5.325  1.00  0.00    -0.452 OA
ATOM      8  C   UNL     1       6.685  -8.109   4.554  1.00  0.00     0.094 A 
ATOM      9  C   UNL     1       5.918  -9.248   4.819  1.00  0.00     0.119 A 
ATOM     10  C   UNL     1       5.502  -9.519   6.129  1.00  0.00     0.047 A 
ATOM     11  C   UNL     1       5.851  -8.657   7.173  1.00  0.00     0.020 A 
ENDROOT
BRANCH   1  12
ATOM     12  C   UNL     1       8.938  -4.112   5.828  1.00  0.00     0.025 A 
ATOM     13  C   UNL     1      10.315  -4.025   6.099  1.00  0.00     0.016 A 
ATOM     14  C   UNL     1      11.042  -2.899   5.707  1.00  0.00     0.051 A 
ATOM     15  C   UNL     1      10.406  -1.839   5.049  1.00  0.00     0.157 A 
ATOM     16  C   UNL     1       8.300  -3.037   5.187  1.00  0.00     0.062 A 
ATOM     17  C   UNL     1       9.027  -1.908   4.791  1.00  0.00     0.158 A 
BRANCH  15  18
ATOM     18  O   UNL     1      11.136  -0.718   4.657  1.00  0.00    -0.504 OA
ATOM     19  H   UNL     1      10.810   0.222   4.850  1.00  0.00     0.293 HD
ENDBRANCH  15  18
BRANCH  17  20
ATOM     20  O   UNL     1       8.361  -0.867   4.145  1.00  0.00    -0.504 OA
ATOM     21  H   UNL     1       8.352  -0.779   3.136  1.00  0.00     0.293 HD
ENDBRANCH  17  20
ENDBRANCH   1  12
BRANCH   2  22
ATOM     22  O   UNL     1       8.222  -4.619   8.597  1.00  0.00    -0.502 OA
ATOM     23  H   UNL     1       8.101  -3.617   8.527  1.00  0.00     0.293 HD
ENDBRANCH   2  22
BRANCH   9  24
ATOM     24  O   UNL     1       5.573 -10.102   3.774  1.00  0.00    -0.508 OA
ATOM     25  H   UNL     1       5.965 -11.034   3.701  1.00  0.00     0.293 HD
ENDBRANCH   9  24
TORSDOF 5
ENDMDL
MODEL 6
REMARK VINA RESULT:    -6.043      2.549      3.437
REMARK INTER + INTRA:          -7.365
REMARK INTER:                  -7.052
REMARK INTRA:                  -0.314
REMARK UNBOUND:                -0.262
REMARK SMILES O=c1c(O)c(-c2ccc(O)c(O)c2)oc2cc(O)ccc12
REMARK SMILES IDX 5 1 3 2 2 3 1 4 21 5 15 6 14 7 16 8 17 9 19 10 20 11 6 12
REMARK SMILES IDX 7 13 8 14 9 15 13 16 11 17 10 18 12 20 4 22 18 24
REMARK H PARENT 10 19 12 21 4 23 18 25
REMARK Flexibility Score: inf
ROOT
ATOM      1  C   UNL     1       8.397  -4.910   6.210  1.00  0.00     0.180 A 
ATOM      2  C   UNL     1       7.632  -4.382   5.150  1.00  0.00     0.208 A 
ATOM      3  C   UNL     1       8.087  -3.224   4.499  1.00  0.00     0.235 A 
ATOM      4  O   UNL     1       7.414  -2.726   3.555  1.00  0.00    -0.285 OA
ATOM      5  C   UNL     1       9.295  -2.635   4.902  1.00  0.00     0.069 A 
ATOM      6  C   UNL     1      10.014  -3.238   5.956  1.00  0.00     0.142 A 
ATOM      7  O   UNL     1       9.544  -4.329   6.552  1.00  0.00    -0.452 OA
ATOM      8  C   UNL     1      11.228  -2.687   6.381  1.00  0.00     0.094 A 
ATOM      9  C   UNL     1      11.734  -1.537   5.767  1.00  0.00     0.119 A 
ATOM     10  C   UNL     1      11.022  -0.934   4.721  1.00  0.00     0.047 A 
ATOM     11  C   UNL     1       9.808  -1.478   4.289  1.00  0.00     0.020 A 
ENDROOT
BRANCH   1  12
ATOM     12  C   UNL     1       7.975  -6.116   6.959  1.00  0.00     0.025 A 
ATOM     13  C   UNL     1       7.043  -6.038   8.008  1.00  0.00     0.016 A 
ATOM     14  C   UNL     1       6.678  -7.186   8.715  1.00  0.00     0.051 A 
ATOM     15  C   UNL     1       7.247  -8.426   8.395  1.00  0.00     0.157 A 
ATOM     16  C   UNL     1       8.559  -7.356   6.656  1.00  0.00     0.062 A 
ATOM     17  C   UNL     1       8.196  -8.509   7.363  1.00  0.00     0.158 A 
BRANCH  15  18
ATOM     18  O   UNL     1       6.880  -9.569   9.103  1.00  0.00    -0.504 OA
ATOM     19  H   UNL     1       6.870 -10.483   8.666  1.00  0.00     0.293 HD
ENDBRANCH  15  18
BRANCH  17  20
ATOM     20  O   UNL     1       8.787  -9.726   7.024  1.00  0.00    -0.504 OA
ATOM     21  H   UNL     1       9.084 -10.393   7.725  1.00  0.00     0.293 HD
ENDBRANCH  17  20
ENDBRANCH   1  12
BRANCH   2  22
ATOM     22  O   UNL     1       6.458  -5.017   4.738  1.00  0.00    -0.502 OA
ATOM     23  H   UNL     1       6.466  -5.843   4.153  1.00  0.00     0.293 HD
ENDBRANCH   2  22
BRANCH   9  24
ATOM     24  O   UNL     1      12.944  -1.001   6.202  1.00  0.00    -0.508 OA
ATOM     25  H   UNL     1      13.237  -0.069   5.934  1.00  0.00     0.293 HD
ENDBRANCH   9  24
TORSDOF 5
ENDMDL
MODEL 7
REMARK VINA RESULT:    -5.873      2.335      7.434
REMARK INTER + INTRA:          -7.165
REMARK INTER:                  -7.020
REMARK INTRA:                  -0.145
REMARK UNBOUND:                -0.262
REMARK SMILES O=c1c(O)c(-c2ccc(O)c(O)c2)oc2cc(O)ccc12
REMARK SMILES IDX 5 1 3 2 2 3 1 4 21 5 15 6 14 7 16 8 17 9 19 10 20 11 6 12
REMARK SMILES IDX 7 13 8 14 9 15 13 16 11 17 10 18 12 20 4 22 18 24
REMARK H PARENT 10 19 12 21 4 23 18 25
REMARK Flexibility Score: inf
ROOT
ATOM      1  C   UNL     1       9.063  -4.105   5.759  1.00  0.00     0.180 A 
ATOM      2  C   UNL     1       7.778  -4.061   5.182  1.00  0.00     0.208 A 
ATOM      3  C   UNL     1       6.859  -5.073   5.501  1.00  0.00     0.235 A 
ATOM      4  O   UNL     1       5.706  -5.062   4.988  1.00  0.00    -0.285 OA
ATOM      5  C   UNL     1       7.231  -6.088   6.396  1.00  0.00     0.069 A 
ATOM      6  C   UNL     1       8.529  -6.048   6.949  1.00  0.00     0.142 A 
ATOM      7  O   UNL     1       9.372  -5.076   6.615  1.00  0.00    -0.452 OA
ATOM      8  C   UNL     1       8.935  -7.035   7.853  1.00  0.00     0.094 A 
ATOM      9  C   UNL     1       8.061  -8.066   8.212  1.00  0.00     0.119 A 
ATOM     10  C   UNL     1       6.773  -8.110   7.663  1.00  0.00     0.047 A 
ATOM     11  C   UNL     1       6.357  -7.128   6.759  1.00  0.00     0.020 A 
ENDROOT
BRANCH   1  12
ATOM     12  C   UNL     1      10.095  -3.086   5.459  1.00  0.00     0.025 A 
ATOM     13  C   UNL     1      10.568  -2.885   4.151  1.00  0.00     0.016 A 
ATOM     14  C   UNL     1      11.559  -1.934   3.897  1.00  0.00     0.051 A 
ATOM     15  C   UNL     1      12.100  -1.178   4.944  1.00  0.00     0.157 A 
ATOM     16  C   UNL     1      10.655  -2.341   6.510  1.00  0.00     0.062 A 
ATOM     17  C   UNL     1      11.648  -1.386   6.258  1.00  0.00     0.158 A 
BRANCH  15  18
ATOM     18  O   UNL     1      13.087  -0.229   4.686  1.00  0.00    -0.504 OA
ATOM     19  H   UNL     1      13.968  -0.482   4.253  1.00  0.00     0.293 HD
ENDBRANCH  15  18
BRANCH  17  20
ATOM     20  O   UNL     1      12.171  -0.655   7.324  1.00  0.00    -0.504 OA
ATOM     21  H   UNL     1      12.780   0.141   7.183  1.00  0.00     0.293 HD
ENDBRANCH  17  20
ENDBRANCH   1  12
BRANCH   2  22
ATOM     22  O   UNL     1       7.418  -3.013   4.332  1.00  0.00    -0.502 OA
ATOM     23  H   UNL     1       7.163  -2.096   4.679  1.00  0.00     0.293 HD
ENDBRANCH   2  22
BRANCH   9  24
ATOM     24  O   UNL     1       8.482  -9.042   9.113  1.00  0.00    -0.508 OA
ATOM     25  H   UNL     1       8.231  -9.000  10.094  1.00  0.00     0.293 HD
ENDBRANCH   9  24
TORSDOF 5
ENDMDL
MODEL 8
REMARK VINA RESULT:    -5.784      1.724      6.654
REMARK INTER + INTRA:          -7.061
REMARK INTER:                  -6.741
REMARK INTRA:                  -0.320
REMARK UNBOUND:                -0.262
REMARK SMILES O=c1c(O)c(-c2ccc(O)c(O)c2)oc2cc(O)ccc12
REMARK SMILES IDX 5 1 3 2 2 3 1 4 21 5 15 6 14 7 16 8 17 9 19 10 20 11 6 12
REMARK SMILES IDX 7 13 8 14 9 15 13 16 11 17 10 18 12 20 4 22 18 24
REMARK H PARENT 10 19 12 21 4 23 18 25
REMARK Flexibility Score: inf
ROOT
ATOM      1  C   UNL     1       8.525  -4.658   6.685  1.00  0.00     0.180 A 
ATOM      2  C   UNL     1       8.927  -5.482   7.756  1.00  0.00     0.208 A 
ATOM      3  C   UNL     1       8.081  -6.526   8.161  1.00  0.00     0.235 A 
ATOM      4  O   UNL     1       8.414  -7.270   9.125  1.00  0.00    -0.285 OA
ATOM      5  C   UNL     1       6.871  -6.737   7.482  1.00  0.00     0.069 A 
ATOM      6  C   UNL     1       6.551  -5.883   6.405  1.00  0.00     0.142 A 
ATOM      7  O   UNL     1       7.376  -4.901   6.058  1.00  0.00    -0.452 OA
ATOM      8  C   UNL     1       5.359  -6.067   5.696  1.00  0.00     0.094 A 
ATOM      9  C   UNL     1       4.478  -7.094   6.051  1.00  0.00     0.119 A 
ATOM     10  C   UNL     1       4.792  -7.943   7.121  1.00  0.00     0.047 A 
ATOM     11  C   UNL     1       5.981  -7.767   7.835  1.00  0.00     0.020 A 
ENDROOT
BRANCH   1  12
ATOM     12  C   UNL     1       9.352  -3.525   6.211  1.00  0.00     0.025 A 
ATOM     13  C   UNL     1       9.263  -2.254   6.806  1.00  0.00     0.016 A 
ATOM     14  C   UNL     1      10.037  -1.195   6.325  1.00  0.00     0.051 A 
ATOM     15  C   UNL     1      10.900  -1.384   5.238  1.00  0.00     0.157 A 
ATOM     16  C   UNL     1      10.203  -3.705   5.108  1.00  0.00     0.062 A 
ATOM     17  C   UNL     1      10.980  -2.645   4.625  1.00  0.00     0.158 A 
BRANCH  15  18
ATOM     18  O   UNL     1      11.671  -0.324   4.763  1.00  0.00    -0.504 OA
ATOM     19  H   UNL     1      12.335  -0.448   4.008  1.00  0.00     0.293 HD
ENDBRANCH  15  18
BRANCH  17  20
ATOM     20  O   UNL     1      11.823  -2.865   3.536  1.00  0.00    -0.504 OA
ATOM     21  H   UNL     1      11.958  -2.171   2.811  1.00  0.00     0.293 HD
ENDBRANCH  17  20
ENDBRANCH   1  12
BRANCH   2  22
ATOM     22  O   UNL     1      10.159  -5.278   8.382  1.00  0.00    -0.502 OA
ATOM     23  H   UNL     1      10.613  -5.997   8.933  1.00  0.00     0.293 HD
ENDBRANCH   2  22
BRANCH   9  24
ATOM     24  O   UNL     1       3.296  -7.264   5.335  1.00  0.00    -0.508 OA
ATOM     25  H   UNL     1       2.914  -6.522   4.759  1.00  0.00     0.293 HD
ENDBRANCH   9  24
TORSDOF 5
ENDMDL
