MODEL 1
REMARK VINA RESULT:    -5.098      0.000      0.000
REMARK INTER + INTRA:          -5.396
REMARK INTER:                  -5.396
REMARK INTRA:                   0.000
REMARK UNBOUND:                 0.000
REMARK SMILES CC1(C)[C@H](O)CC[C@@]2(C)[C@H]3C=CC4=C(O)C(=O)C(=O)[C@@]4(C)[C@@]3(C)CC[C@@H]12
REMARK SMILES IDX 1 1 2 2 26 3 25 4 24 5 22 6 10 7 8 8 7 9 6 10 4 11 9 12
REMARK SMILES IDX 11 13 12 14 13 15 14 16 16 17 17 18 18 19 19 20 20 21 21 22
REMARK SMILES IDX 23 23 3 24 5 25 15 27
REMARK H PARENT 5 26 15 28
REMARK Flexibility Score: inf
ROOT
ATOM      1  C   UNL     1     141.548 134.064 116.018  1.00  0.00     0.014 C 
ATOM      2  C   UNL     1     142.824 133.941 116.908  1.00  0.00    -0.006 C 
ATOM      3  C   UNL     1     142.935 135.183 117.914  1.00  0.00     0.004 C 
ATOM      4  C   UNL     1     144.382 135.534 118.337  1.00  0.00     0.005 C 
ATOM      5  C   UNL     1     144.485 136.983 118.834  1.00  0.00     0.009 C 
ATOM      6  C   UNL     1     143.320 137.455 119.778  1.00  0.00    -0.009 C 
ATOM      7  C   UNL     1     142.529 136.195 120.353  1.00  0.00     0.025 C 
ATOM      8  C   UNL     1     142.037 135.126 119.230  1.00  0.00    -0.022 C 
ATOM      9  C   UNL     1     142.057 133.667 119.805  1.00  0.00     0.010 C 
ATOM     10  C   UNL     1     141.786 132.558 118.793  1.00  0.00     0.033 C 
ATOM     11  C   UNL     1     142.828 132.590 117.673  1.00  0.00     0.120 C 
ATOM     12  C   UNL     1     140.554 135.481 118.896  1.00  0.00     0.012 C 
ATOM     13  C   UNL     1     143.224 135.559 121.575  1.00  0.00    -0.022 C 
ATOM     14  C   UNL     1     144.247 136.103 122.236  1.00  0.00     0.005 C 
ATOM     15  C   UNL     1     144.757 137.408 121.839  1.00  0.00     0.012 C 
ATOM     16  C   UNL     1     146.002 137.855 122.031  1.00  0.00     0.171 C 
ATOM     17  C   UNL     1     146.190 139.077 121.286  1.00  0.00     0.264 C 
ATOM     18  O   UNL     1     147.247 139.761 121.233  1.00  0.00    -0.282 OA
ATOM     19  C   UNL     1     144.955 139.352 120.586  1.00  0.00     0.217 C 
ATOM     20  O   UNL     1     144.767 140.344 119.834  1.00  0.00    -0.289 OA
ATOM     21  C   UNL     1     143.920 138.317 120.973  1.00  0.00     0.069 C 
ATOM     22  C   UNL     1     142.854 139.003 121.862  1.00  0.00     0.026 C 
ATOM     23  C   UNL     1     142.343 138.367 118.972  1.00  0.00     0.013 C 
ATOM     24  C   UNL     1     144.009 133.912 115.899  1.00  0.00     0.014 C 
ENDROOT
BRANCH  11  25
ATOM     25  O   UNL     1     142.593 131.522 116.786  1.00  0.00    -0.393 OA
ATOM     26  H   UNL     1     142.522 131.912 115.875  1.00  0.00     0.210 HD
ENDBRANCH  11  25
BRANCH  16  27
ATOM     27  O   UNL     1     147.001 137.220 122.768  1.00  0.00    -0.504 OA
ATOM     28  H   UNL     1     147.905 137.000 122.372  1.00  0.00     0.293 HD
ENDBRANCH  16  27
TORSDOF 2
ENDMDL
MODEL 2
REMARK VINA RESULT:    -4.844      3.255      6.120
REMARK INTER + INTRA:          -5.127
REMARK INTER:                  -5.127
REMARK INTRA:                   0.000
REMARK UNBOUND:                 0.000
REMARK SMILES CC1(C)[C@H](O)CC[C@@]2(C)[C@H]3C=CC4=C(O)C(=O)C(=O)[C@@]4(C)[C@@]3(C)CC[C@@H]12
REMARK SMILES IDX 1 1 2 2 26 3 25 4 24 5 22 6 10 7 8 8 7 9 6 10 4 11 9 12
REMARK SMILES IDX 11 13 12 14 13 15 14 16 16 17 17 18 18 19 19 20 20 21 21 22
REMARK SMILES IDX 23 23 3 24 5 25 15 27
REMARK H PARENT 5 26 15 28
REMARK Flexibility Score: inf
ROOT
ATOM      1  C   UNL     1     137.273 137.415 115.103  1.00  0.00     0.014 C 
ATOM      2  C   UNL     1     137.709 137.315 116.598  1.00  0.00    -0.006 C 
ATOM      3  C   UNL     1     139.082 136.501 116.735  1.00  0.00     0.004 C 
ATOM      4  C   UNL     1     139.264 135.779 118.091  1.00  0.00     0.005 C 
ATOM      5  C   UNL     1     140.276 134.630 117.984  1.00  0.00     0.009 C 
ATOM      6  C   UNL     1     141.573 134.951 117.156  1.00  0.00    -0.009 C 
ATOM      7  C   UNL     1     141.742 136.527 116.982  1.00  0.00     0.025 C 
ATOM      8  C   UNL     1     140.427 137.298 116.417  1.00  0.00    -0.022 C 
ATOM      9  C   UNL     1     140.326 138.741 117.022  1.00  0.00     0.010 C 
ATOM     10  C   UNL     1     139.039 139.499 116.705  1.00  0.00     0.033 C 
ATOM     11  C   UNL     1     137.824 138.730 117.229  1.00  0.00     0.120 C 
ATOM     12  C   UNL     1     140.623 137.446 114.876  1.00  0.00     0.012 C 
ATOM     13  C   UNL     1     142.394 137.198 118.209  1.00  0.00    -0.022 C 
ATOM     14  C   UNL     1     142.963 136.541 119.222  1.00  0.00     0.005 C 
ATOM     15  C   UNL     1     143.034 135.087 119.195  1.00  0.00     0.012 C 
ATOM     16  C   UNL     1     143.099 134.285 120.263  1.00  0.00     0.171 C 
ATOM     17  C   UNL     1     142.904 132.918 119.846  1.00  0.00     0.264 C 
ATOM     18  O   UNL     1     142.895 131.905 120.595  1.00  0.00    -0.282 OA
ATOM     19  C   UNL     1     142.688 132.928 118.416  1.00  0.00     0.217 C 
ATOM     20  O   UNL     1     142.480 131.901 117.719  1.00  0.00    -0.289 OA
ATOM     21  C   UNL     1     142.841 134.342 117.897  1.00  0.00     0.069 C 
ATOM     22  C   UNL     1     144.156 134.422 117.082  1.00  0.00     0.026 C 
ATOM     23  C   UNL     1     141.467 134.275 115.752  1.00  0.00     0.013 C 
ATOM     24  C   UNL     1     136.533 136.580 117.305  1.00  0.00     0.014 C 
ENDROOT
BRANCH  11  25
ATOM     25  O   UNL     1     136.656 139.475 116.979  1.00  0.00    -0.393 OA
ATOM     26  H   UNL     1     136.898 140.183 116.325  1.00  0.00     0.210 HD
ENDBRANCH  11  25
BRANCH  16  27
ATOM     27  O   UNL     1     143.254 134.690 121.588  1.00  0.00    -0.504 OA
ATOM     28  H   UNL     1     142.972 134.107 122.366  1.00  0.00     0.293 HD
ENDBRANCH  16  27
TORSDOF 2
ENDMDL
MODEL 3
REMARK VINA RESULT:    -4.793      2.858      4.366
REMARK INTER + INTRA:          -5.073
REMARK INTER:                  -5.073
REMARK INTRA:                   0.000
REMARK UNBOUND:                 0.000
REMARK SMILES CC1(C)[C@H](O)CC[C@@]2(C)[C@H]3C=CC4=C(O)C(=O)C(=O)[C@@]4(C)[C@@]3(C)CC[C@@H]12
REMARK SMILES IDX 1 1 2 2 26 3 25 4 24 5 22 6 10 7 8 8 7 9 6 10 4 11 9 12
REMARK SMILES IDX 11 13 12 14 13 15 14 16 16 17 17 18 18 19 19 20 20 21 21 22
REMARK SMILES IDX 23 23 3 24 5 25 15 27
REMARK H PARENT 5 26 15 28
REMARK Flexibility Score: inf
ROOT
ATOM      1  C   UNL     1     144.639 134.311 116.476  1.00  0.00     0.014 C 
ATOM      2  C   UNL     1     143.380 133.813 117.251  1.00  0.00    -0.006 C 
ATOM      3  C   UNL     1     143.216 134.604 118.634  1.00  0.00     0.004 C 
ATOM      4  C   UNL     1     142.480 133.810 119.741  1.00  0.00     0.005 C 
ATOM      5  C   UNL     1     142.808 134.357 121.137  1.00  0.00     0.009 C 
ATOM      6  C   UNL     1     142.823 135.924 121.260  1.00  0.00    -0.009 C 
ATOM      7  C   UNL     1     142.070 136.582 120.017  1.00  0.00     0.025 C 
ATOM      8  C   UNL     1     142.568 136.060 118.560  1.00  0.00    -0.022 C 
ATOM      9  C   UNL     1     141.378 136.042 117.539  1.00  0.00     0.010 C 
ATOM     10  C   UNL     1     141.681 135.403 116.187  1.00  0.00     0.033 C 
ATOM     11  C   UNL     1     142.108 133.945 116.369  1.00  0.00     0.120 C 
ATOM     12  C   UNL     1     143.615 137.097 118.046  1.00  0.00     0.012 C 
ATOM     13  C   UNL     1     140.538 136.611 120.192  1.00  0.00    -0.022 C 
ATOM     14  C   UNL     1     139.898 136.330 121.329  1.00  0.00     0.005 C 
ATOM     15  C   UNL     1     140.656 136.005 122.528  1.00  0.00     0.012 C 
ATOM     16  C   UNL     1     140.227 135.254 123.548  1.00  0.00     0.171 C 
ATOM     17  C   UNL     1     141.336 134.954 124.420  1.00  0.00     0.264 C 
ATOM     18  O   UNL     1     141.290 134.262 125.471  1.00  0.00    -0.282 OA
ATOM     19  C   UNL     1     142.515 135.567 123.848  1.00  0.00     0.217 C 
ATOM     20  O   UNL     1     143.667 135.503 124.350  1.00  0.00    -0.289 OA
ATOM     21  C   UNL     1     142.120 136.357 122.618  1.00  0.00     0.069 C 
ATOM     22  C   UNL     1     142.245 137.865 122.948  1.00  0.00     0.026 C 
ATOM     23  C   UNL     1     144.302 136.422 121.304  1.00  0.00     0.013 C 
ATOM     24  C   UNL     1     143.633 132.295 117.484  1.00  0.00     0.014 C 
ENDROOT
BRANCH  11  25
ATOM     25  O   UNL     1     142.323 133.360 115.107  1.00  0.00    -0.393 OA
ATOM     26  H   UNL     1     141.441 133.320 114.651  1.00  0.00     0.210 HD
ENDBRANCH  11  25
BRANCH  16  27
ATOM     27  O   UNL     1     138.933 134.763 123.722  1.00  0.00    -0.504 OA
ATOM     28  H   UNL     1     138.434 134.287 122.982  1.00  0.00     0.293 HD
ENDBRANCH  16  27
TORSDOF 2
ENDMDL
MODEL 4
REMARK VINA RESULT:    -4.759      2.031      6.352
REMARK INTER + INTRA:          -5.037
REMARK INTER:                  -5.037
REMARK INTRA:                   0.000
REMARK UNBOUND:                 0.000
REMARK SMILES CC1(C)[C@H](O)CC[C@@]2(C)[C@H]3C=CC4=C(O)C(=O)C(=O)[C@@]4(C)[C@@]3(C)CC[C@@H]12
REMARK SMILES IDX 1 1 2 2 26 3 25 4 24 5 22 6 10 7 8 8 7 9 6 10 4 11 9 12
REMARK SMILES IDX 11 13 12 14 13 15 14 16 16 17 17 18 18 19 19 20 20 21 21 22
REMARK SMILES IDX 23 23 3 24 5 25 15 27
REMARK H PARENT 5 26 15 28
REMARK Flexibility Score: inf
ROOT
ATOM      1  C   UNL     1     144.263 136.506 124.352  1.00  0.00     0.014 C 
ATOM      2  C   UNL     1     144.383 137.257 122.989  1.00  0.00    -0.006 C 
ATOM      3  C   UNL     1     143.780 136.371 121.799  1.00  0.00     0.004 C 
ATOM      4  C   UNL     1     144.404 136.656 120.411  1.00  0.00     0.005 C 
ATOM      5  C   UNL     1     144.202 135.475 119.452  1.00  0.00     0.009 C 
ATOM      6  C   UNL     1     142.774 134.819 119.482  1.00  0.00    -0.009 C 
ATOM      7  C   UNL     1     141.730 135.801 120.183  1.00  0.00     0.025 C 
ATOM      8  C   UNL     1     142.193 136.369 121.635  1.00  0.00    -0.022 C 
ATOM      9  C   UNL     1     141.650 137.822 121.861  1.00  0.00     0.010 C 
ATOM     10  C   UNL     1     142.166 138.529 123.111  1.00  0.00     0.033 C 
ATOM     11  C   UNL     1     143.692 138.646 123.068  1.00  0.00     0.120 C 
ATOM     12  C   UNL     1     141.534 135.446 122.707  1.00  0.00     0.012 C 
ATOM     13  C   UNL     1     141.185 136.878 119.223  1.00  0.00    -0.022 C 
ATOM     14  C   UNL     1     141.372 136.883 117.901  1.00  0.00     0.005 C 
ATOM     15  C   UNL     1     142.103 135.796 117.267  1.00  0.00     0.012 C 
ATOM     16  C   UNL     1     142.784 135.875 116.119  1.00  0.00     0.171 C 
ATOM     17  C   UNL     1     143.572 134.678 115.949  1.00  0.00     0.264 C 
ATOM     18  O   UNL     1     144.339 134.423 114.982  1.00  0.00    -0.282 OA
ATOM     19  C   UNL     1     143.345 133.842 117.106  1.00  0.00     0.217 C 
ATOM     20  O   UNL     1     143.880 132.717 117.291  1.00  0.00    -0.289 OA
ATOM     21  C   UNL     1     142.307 134.492 117.997  1.00  0.00     0.069 C 
ATOM     22  C   UNL     1     141.001 133.666 117.907  1.00  0.00     0.026 C 
ATOM     23  C   UNL     1     142.842 133.473 120.271  1.00  0.00     0.013 C 
ATOM     24  C   UNL     1     145.909 137.503 122.805  1.00  0.00     0.014 C 
ENDROOT
BRANCH  11  25
ATOM     25  O   UNL     1     144.138 139.353 124.200  1.00  0.00    -0.393 OA
ATOM     26  H   UNL     1     144.529 138.687 124.823  1.00  0.00     0.210 HD
ENDBRANCH  11  25
BRANCH  16  27
ATOM     27  O   UNL     1     142.804 136.961 115.246  1.00  0.00    -0.504 OA
ATOM     28  H   UNL     1     143.146 137.872 115.526  1.00  0.00     0.293 HD
ENDBRANCH  16  27
TORSDOF 2
ENDMDL
MODEL 5
REMARK VINA RESULT:    -4.637      2.779      6.482
REMARK INTER + INTRA:          -4.908
REMARK INTER:                  -4.908
REMARK INTRA:                   0.000
REMARK UNBOUND:                 0.000
REMARK SMILES CC1(C)[C@H](O)CC[C@@]2(C)[C@H]3C=CC4=C(O)C(=O)C(=O)[C@@]4(C)[C@@]3(C)CC[C@@H]12
REMARK SMILES IDX 1 1 2 2 26 3 25 4 24 5 22 6 10 7 8 8 7 9 6 10 4 11 9 12
REMARK SMILES IDX 11 13 12 14 13 15 14 16 16 17 17 18 18 19 19 20 20 21 21 22
REMARK SMILES IDX 23 23 3 24 5 25 15 27
REMARK H PARENT 5 26 15 28
REMARK Flexibility Score: inf
ROOT
ATOM      1  C   UNL     1     140.346 141.112 117.271  1.00  0.00     0.014 C 
ATOM      2  C   UNL     1     140.391 140.048 118.411  1.00  0.00    -0.006 C 
ATOM      3  C   UNL     1     141.135 138.718 117.918  1.00  0.00     0.004 C 
ATOM      4  C   UNL     1     140.683 137.427 118.641  1.00  0.00     0.005 C 
ATOM      5  C   UNL     1     141.002 136.177 117.810  1.00  0.00     0.009 C 
ATOM      6  C   UNL     1     142.417 136.165 117.126  1.00  0.00    -0.009 C 
ATOM      7  C   UNL     1     143.367 137.254 117.804  1.00  0.00     0.025 C 
ATOM      8  C   UNL     1     142.730 138.746 117.910  1.00  0.00    -0.022 C 
ATOM      9  C   UNL     1     143.239 139.477 119.200  1.00  0.00     0.010 C 
ATOM     10  C   UNL     1     142.573 140.817 119.503  1.00  0.00     0.033 C 
ATOM     11  C   UNL     1     141.064 140.636 119.681  1.00  0.00     0.120 C 
ATOM     12  C   UNL     1     143.256 139.545 116.677  1.00  0.00     0.012 C 
ATOM     13  C   UNL     1     144.022 136.748 119.106  1.00  0.00    -0.022 C 
ATOM     14  C   UNL     1     143.996 135.482 119.528  1.00  0.00     0.005 C 
ATOM     15  C   UNL     1     143.349 134.460 118.719  1.00  0.00     0.012 C 
ATOM     16  C   UNL     1     142.812 133.323 119.174  1.00  0.00     0.171 C 
ATOM     17  C   UNL     1     142.053 132.698 118.119  1.00  0.00     0.264 C 
ATOM     18  O   UNL     1     141.409 131.618 118.204  1.00  0.00    -0.282 OA
ATOM     19  C   UNL     1     142.140 133.554 116.957  1.00  0.00     0.217 C 
ATOM     20  O   UNL     1     141.589 133.315 115.850  1.00  0.00    -0.289 OA
ATOM     21  C   UNL     1     143.061 134.718 117.261  1.00  0.00     0.069 C 
ATOM     22  C   UNL     1     144.370 134.525 116.458  1.00  0.00     0.026 C 
ATOM     23  C   UNL     1     142.257 136.481 115.606  1.00  0.00     0.013 C 
ATOM     24  C   UNL     1     138.897 139.776 118.757  1.00  0.00     0.014 C 
ENDROOT
BRANCH  11  25
ATOM     25  O   UNL     1     140.483 141.873 120.018  1.00  0.00    -0.393 OA
ATOM     26  H   UNL     1     139.572 141.883 119.623  1.00  0.00     0.210 HD
ENDBRANCH  11  25
BRANCH  16  27
ATOM     27  O   UNL     1     142.895 132.837 120.478  1.00  0.00    -0.504 OA
ATOM     28  H   UNL     1     142.102 132.841 121.107  1.00  0.00     0.293 HD
ENDBRANCH  16  27
TORSDOF 2
ENDMDL
MODEL 6
REMARK VINA RESULT:    -4.636      1.548      6.620
REMARK INTER + INTRA:          -4.907
REMARK INTER:                  -4.907
REMARK INTRA:                   0.000
REMARK UNBOUND:                 0.000
REMARK SMILES CC1(C)[C@H](O)CC[C@@]2(C)[C@H]3C=CC4=C(O)C(=O)C(=O)[C@@]4(C)[C@@]3(C)CC[C@@H]12
REMARK SMILES IDX 1 1 2 2 26 3 25 4 24 5 22 6 10 7 8 8 7 9 6 10 4 11 9 12
REMARK SMILES IDX 11 13 12 14 13 15 14 16 16 17 17 18 18 19 19 20 20 21 21 22
REMARK SMILES IDX 23 23 3 24 5 25 15 27
REMARK H PARENT 5 26 15 28
REMARK Flexibility Score: inf
ROOT
ATOM      1  C   UNL     1     144.571 139.378 122.639  1.00  0.00     0.014 C 
ATOM      2  C   UNL     1     145.199 138.742 121.360  1.00  0.00    -0.006 C 
ATOM      3  C   UNL     1     144.119 137.848 120.583  1.00  0.00     0.004 C 
ATOM      4  C   UNL     1     144.727 136.692 119.752  1.00  0.00     0.005 C 
ATOM      5  C   UNL     1     143.692 135.591 119.482  1.00  0.00     0.009 C 
ATOM      6  C   UNL     1     142.260 136.097 119.079  1.00  0.00    -0.009 C 
ATOM      7  C   UNL     1     142.323 137.623 118.619  1.00  0.00     0.025 C 
ATOM      8  C   UNL     1     143.073 138.621 119.660  1.00  0.00    -0.022 C 
ATOM      9  C   UNL     1     143.815 139.770 118.892  1.00  0.00     0.010 C 
ATOM     10  C   UNL     1     144.703 140.668 119.750  1.00  0.00     0.033 C 
ATOM     11  C   UNL     1     145.792 139.842 120.438  1.00  0.00     0.120 C 
ATOM     12  C   UNL     1     141.958 139.279 120.532  1.00  0.00     0.012 C 
ATOM     13  C   UNL     1     142.764 137.788 117.150  1.00  0.00    -0.022 C 
ATOM     14  C   UNL     1     142.875 136.788 116.273  1.00  0.00     0.005 C 
ATOM     15  C   UNL     1     142.529 135.431 116.671  1.00  0.00     0.012 C 
ATOM     16  C   UNL     1     143.021 134.308 116.138  1.00  0.00     0.171 C 
ATOM     17  C   UNL     1     142.634 133.183 116.955  1.00  0.00     0.264 C 
ATOM     18  O   UNL     1     142.934 131.977 116.750  1.00  0.00    -0.282 OA
ATOM     19  C   UNL     1     141.869 133.699 118.068  1.00  0.00     0.217 C 
ATOM     20  O   UNL     1     141.375 132.991 118.984  1.00  0.00    -0.289 OA
ATOM     21  C   UNL     1     141.689 135.193 117.901  1.00  0.00     0.069 C 
ATOM     22  C   UNL     1     140.206 135.469 117.548  1.00  0.00     0.026 C 
ATOM     23  C   UNL     1     141.300 135.955 120.302  1.00  0.00     0.013 C 
ATOM     24  C   UNL     1     146.384 137.881 121.886  1.00  0.00     0.014 C 
ENDROOT
BRANCH  11  25
ATOM     25  O   UNL     1     146.633 140.698 121.173  1.00  0.00    -0.393 OA
ATOM     26  H   UNL     1     147.527 140.267 121.208  1.00  0.00     0.210 HD
ENDBRANCH  11  25
BRANCH  16  27
ATOM     27  O   UNL     1     143.842 134.220 115.015  1.00  0.00    -0.504 OA
ATOM     28  H   UNL     1     143.668 133.557 114.270  1.00  0.00     0.293 HD
ENDBRANCH  16  27
TORSDOF 2
ENDMDL
MODEL 7
REMARK VINA RESULT:    -4.598      4.027      6.865
REMARK INTER + INTRA:          -4.867
REMARK INTER:                  -4.867
REMARK INTRA:                   0.000
REMARK UNBOUND:                 0.000
REMARK SMILES CC1(C)[C@H](O)CC[C@@]2(C)[C@H]3C=CC4=C(O)C(=O)C(=O)[C@@]4(C)[C@@]3(C)CC[C@@H]12
REMARK SMILES IDX 1 1 2 2 26 3 25 4 24 5 22 6 10 7 8 8 7 9 6 10 4 11 9 12
REMARK SMILES IDX 11 13 12 14 13 15 14 16 16 17 17 18 18 19 19 20 20 21 21 22
REMARK SMILES IDX 23 23 3 24 5 25 15 27
REMARK H PARENT 5 26 15 28
REMARK Flexibility Score: inf
ROOT
ATOM      1  C   UNL     1     143.025 132.637 118.308  1.00  0.00     0.014 C 
ATOM      2  C   UNL     1     142.516 133.567 117.163  1.00  0.00    -0.006 C 
ATOM      3  C   UNL     1     141.216 134.379 117.628  1.00  0.00     0.004 C 
ATOM      4  C   UNL     1     140.267 134.781 116.473  1.00  0.00     0.005 C 
ATOM      5  C   UNL     1     138.847 135.060 116.984  1.00  0.00     0.009 C 
ATOM      6  C   UNL     1     138.761 135.893 118.314  1.00  0.00    -0.009 C 
ATOM      7  C   UNL     1     140.148 136.630 118.594  1.00  0.00     0.025 C 
ATOM      8  C   UNL     1     141.458 135.667 118.537  1.00  0.00    -0.022 C 
ATOM      9  C   UNL     1     142.702 136.453 117.996  1.00  0.00     0.010 C 
ATOM     10  C   UNL     1     143.947 135.611 117.729  1.00  0.00     0.033 C 
ATOM     11  C   UNL     1     143.645 134.525 116.694  1.00  0.00     0.120 C 
ATOM     12  C   UNL     1     141.768 135.247 120.008  1.00  0.00     0.012 C 
ATOM     13  C   UNL     1     140.294 137.950 117.809  1.00  0.00    -0.022 C 
ATOM     14  C   UNL     1     139.309 138.547 117.137  1.00  0.00     0.005 C 
ATOM     15  C   UNL     1     137.971 137.973 117.147  1.00  0.00     0.012 C 
ATOM     16  C   UNL     1     137.044 138.127 116.195  1.00  0.00     0.171 C 
ATOM     17  C   UNL     1     135.954 137.214 116.438  1.00  0.00     0.264 C 
ATOM     18  O   UNL     1     134.919 137.086 115.732  1.00  0.00    -0.282 OA
ATOM     19  C   UNL     1     136.285 136.450 117.621  1.00  0.00     0.217 C 
ATOM     20  O   UNL     1     135.554 135.555 118.119  1.00  0.00    -0.289 OA
ATOM     21  C   UNL     1     137.588 136.961 118.198  1.00  0.00     0.069 C 
ATOM     22  C   UNL     1     137.276 137.712 119.516  1.00  0.00     0.026 C 
ATOM     23  C   UNL     1     138.424 134.937 119.500  1.00  0.00     0.013 C 
ATOM     24  C   UNL     1     142.199 132.603 115.982  1.00  0.00     0.014 C 
ENDROOT
BRANCH  11  25
ATOM     25  O   UNL     1     144.821 133.801 116.420  1.00  0.00    -0.393 OA
ATOM     26  H   UNL     1     144.654 132.861 116.694  1.00  0.00     0.210 HD
ENDBRANCH  11  25
BRANCH  16  27
ATOM     27  O   UNL     1     137.130 138.975 115.091  1.00  0.00    -0.504 OA
ATOM     28  H   UNL     1     137.073 138.631 114.142  1.00  0.00     0.293 HD
ENDBRANCH  16  27
TORSDOF 2
ENDMDL
MODEL 8
REMARK VINA RESULT:    -4.597      3.381      7.046
REMARK INTER + INTRA:          -4.865
REMARK INTER:                  -4.865
REMARK INTRA:                   0.000
REMARK UNBOUND:                 0.000
REMARK SMILES CC1(C)[C@H](O)CC[C@@]2(C)[C@H]3C=CC4=C(O)C(=O)C(=O)[C@@]4(C)[C@@]3(C)CC[C@@H]12
REMARK SMILES IDX 1 1 2 2 26 3 25 4 24 5 22 6 10 7 8 8 7 9 6 10 4 11 9 12
REMARK SMILES IDX 11 13 12 14 13 15 14 16 16 17 17 18 18 19 19 20 20 21 21 22
REMARK SMILES IDX 23 23 3 24 5 25 15 27
REMARK H PARENT 5 26 15 28
REMARK Flexibility Score: inf
ROOT
ATOM      1  C   UNL     1     143.259 141.514 117.175  1.00  0.00     0.014 C 
ATOM      2  C   UNL     1     142.266 140.642 116.344  1.00  0.00    -0.006 C 
ATOM      3  C   UNL     1     142.286 139.122 116.851  1.00  0.00     0.004 C 
ATOM      4  C   UNL     1     141.909 138.083 115.767  1.00  0.00     0.005 C 
ATOM      5  C   UNL     1     142.441 136.687 116.120  1.00  0.00     0.009 C 
ATOM      6  C   UNL     1     142.269 136.260 117.623  1.00  0.00    -0.009 C 
ATOM      7  C   UNL     1     141.193 137.193 118.342  1.00  0.00     0.025 C 
ATOM      8  C   UNL     1     141.446 138.790 118.165  1.00  0.00    -0.022 C 
ATOM      9  C   UNL     1     140.084 139.566 118.116  1.00  0.00     0.010 C 
ATOM     10  C   UNL     1     140.185 141.050 117.775  1.00  0.00     0.033 C 
ATOM     11  C   UNL     1     140.834 141.240 116.402  1.00  0.00     0.120 C 
ATOM     12  C   UNL     1     142.213 139.265 119.439  1.00  0.00     0.012 C 
ATOM     13  C   UNL     1     139.741 136.746 118.077  1.00  0.00    -0.022 C 
ATOM     14  C   UNL     1     139.393 135.593 117.503  1.00  0.00     0.005 C 
ATOM     15  C   UNL     1     140.420 134.636 117.115  1.00  0.00     0.012 C 
ATOM     16  C   UNL     1     140.316 133.726 116.141  1.00  0.00     0.171 C 
ATOM     17  C   UNL     1     141.612 133.142 115.894  1.00  0.00     0.264 C 
ATOM     18  O   UNL     1     141.879 132.258 115.037  1.00  0.00    -0.282 OA
ATOM     19  C   UNL     1     142.553 133.781 116.788  1.00  0.00     0.217 C 
ATOM     20  O   UNL     1     143.782 133.515 116.839  1.00  0.00    -0.289 OA
ATOM     21  C   UNL     1     141.809 134.739 117.694  1.00  0.00     0.069 C 
ATOM     22  C   UNL     1     141.794 134.144 119.124  1.00  0.00     0.026 C 
ATOM     23  C   UNL     1     143.643 136.381 118.353  1.00  0.00     0.013 C 
ATOM     24  C   UNL     1     142.766 140.763 114.875  1.00  0.00     0.014 C 
ENDROOT
BRANCH  11  25
ATOM     25  O   UNL     1     140.861 142.611 116.084  1.00  0.00    -0.393 OA
ATOM     26  H   UNL     1     141.389 143.063 116.793  1.00  0.00     0.210 HD
ENDBRANCH  11  25
BRANCH  16  27
ATOM     27  O   UNL     1     139.166 133.426 115.413  1.00  0.00    -0.504 OA
ATOM     28  H   UNL     1     138.826 134.025 114.672  1.00  0.00     0.293 HD
ENDBRANCH  16  27
TORSDOF 2
ENDMDL
