MODEL 1
REMARK VINA RESULT:    -1.842      0.000      0.000
REMARK INTER + INTRA:          -1.896
REMARK INTER:                  -1.896
REMARK INTRA:                   0.000
REMARK UNBOUND:                 0.000
REMARK SMILES CC1(C)[C@@H]2CC[C@@]1(C)[C@H](O)C2
REMARK SMILES IDX 1 1 2 2 4 3 5 4 6 5 7 6 9 7 11 8 8 9 3 10 10 11
REMARK H PARENT 10 12
REMARK Flexibility Score: inf
ROOT
ATOM      1  C   UNL     1     125.947 108.593 135.634  1.00  0.00     0.012 C 
ATOM      2  C   UNL     1     126.194 109.640 134.503  1.00  0.00    -0.025 C 
ATOM      3  C   UNL     1     126.739 110.986 135.008  1.00  0.00    -0.002 C 
ATOM      4  C   UNL     1     125.591 111.520 135.902  1.00  0.00     0.005 C 
ATOM      5  C   UNL     1     124.327 111.042 135.160  1.00  0.00     0.010 C 
ATOM      6  C   UNL     1     124.918 110.303 133.927  1.00  0.00    -0.001 C 
ATOM      7  C   UNL     1     125.465 111.424 132.992  1.00  0.00     0.121 C 
ATOM      8  C   UNL     1     126.745 111.874 133.737  1.00  0.00     0.036 C 
ATOM      9  C   UNL     1     123.909 109.356 133.259  1.00  0.00     0.015 C 
ATOM     10  C   UNL     1     127.125 108.933 133.470  1.00  0.00     0.012 C 
ENDROOT
BRANCH   7  11
ATOM     11  O   UNL     1     125.755 110.940 131.705  1.00  0.00    -0.393 OA
ATOM     12  H   UNL     1     126.654 110.521 131.758  1.00  0.00     0.210 HD
ENDBRANCH   7  11
TORSDOF 1
ENDMDL
MODEL 2
REMARK VINA RESULT:    -1.813      1.976      3.325
REMARK INTER + INTRA:          -1.866
REMARK INTER:                  -1.866
REMARK INTRA:                   0.000
REMARK UNBOUND:                 0.000
REMARK SMILES CC1(C)[C@@H]2CC[C@@]1(C)[C@H](O)C2
REMARK SMILES IDX 1 1 2 2 4 3 5 4 6 5 7 6 9 7 11 8 8 9 3 10 10 11
REMARK H PARENT 10 12
REMARK Flexibility Score: inf
ROOT
ATOM      1  C   UNL     1     124.313 109.334 132.675  1.00  0.00     0.012 C 
ATOM      2  C   UNL     1     124.767 109.799 134.094  1.00  0.00    -0.025 C 
ATOM      3  C   UNL     1     126.055 110.637 134.092  1.00  0.00    -0.002 C 
ATOM      4  C   UNL     1     127.121 109.648 133.557  1.00  0.00     0.005 C 
ATOM      5  C   UNL     1     126.674 108.302 134.160  1.00  0.00     0.010 C 
ATOM      6  C   UNL     1     125.411 108.699 134.974  1.00  0.00    -0.001 C 
ATOM      7  C   UNL     1     125.943 109.474 136.217  1.00  0.00     0.121 C 
ATOM      8  C   UNL     1     126.364 110.830 135.599  1.00  0.00     0.036 C 
ATOM      9  C   UNL     1     124.517 107.496 135.312  1.00  0.00     0.015 C 
ATOM     10  C   UNL     1     123.538 110.536 134.709  1.00  0.00     0.012 C 
ENDROOT
BRANCH   7  11
ATOM     11  O   UNL     1     124.953 109.635 137.201  1.00  0.00    -0.393 OA
ATOM     12  H   UNL     1     124.328 108.870 137.099  1.00  0.00     0.210 HD
ENDBRANCH   7  11
TORSDOF 1
ENDMDL
MODEL 3
REMARK VINA RESULT:    -1.805      1.827      3.193
REMARK INTER + INTRA:          -1.858
REMARK INTER:                  -1.858
REMARK INTRA:                   0.000
REMARK UNBOUND:                 0.000
REMARK SMILES CC1(C)[C@@H]2CC[C@@]1(C)[C@H](O)C2
REMARK SMILES IDX 1 1 2 2 4 3 5 4 6 5 7 6 9 7 11 8 8 9 3 10 10 11
REMARK H PARENT 10 12
REMARK Flexibility Score: inf
ROOT
ATOM      1  C   UNL     1     124.196 110.530 133.074  1.00  0.00     0.012 C 
ATOM      2  C   UNL     1     125.027 109.234 133.334  1.00  0.00    -0.025 C 
ATOM      3  C   UNL     1     125.447 109.047 134.800  1.00  0.00    -0.002 C 
ATOM      4  C   UNL     1     126.374 110.261 135.061  1.00  0.00     0.005 C 
ATOM      5  C   UNL     1     127.099 110.434 133.712  1.00  0.00     0.010 C 
ATOM      6  C   UNL     1     126.498 109.286 132.854  1.00  0.00    -0.001 C 
ATOM      7  C   UNL     1     127.125 107.974 133.417  1.00  0.00     0.121 C 
ATOM      8  C   UNL     1     126.369 107.801 134.757  1.00  0.00     0.036 C 
ATOM      9  C   UNL     1     126.710 109.494 131.347  1.00  0.00     0.015 C 
ATOM     10  C   UNL     1     124.164 108.061 132.773  1.00  0.00     0.012 C 
ENDROOT
BRANCH   7  11
ATOM     11  O   UNL     1     126.918 106.882 132.557  1.00  0.00    -0.393 OA
ATOM     12  H   UNL     1     126.405 106.209 133.076  1.00  0.00     0.210 HD
ENDBRANCH   7  11
TORSDOF 1
ENDMDL
MODEL 4
REMARK VINA RESULT:    -1.770      3.075      4.219
REMARK INTER + INTRA:          -1.822
REMARK INTER:                  -1.822
REMARK INTRA:                   0.000
REMARK UNBOUND:                 0.000
REMARK SMILES CC1(C)[C@@H]2CC[C@@]1(C)[C@H](O)C2
REMARK SMILES IDX 1 1 2 2 4 3 5 4 6 5 7 6 9 7 11 8 8 9 3 10 10 11
REMARK H PARENT 10 12
REMARK Flexibility Score: inf
ROOT
ATOM      1  C   UNL     1     125.993 109.898 136.112  1.00  0.00     0.012 C 
ATOM      2  C   UNL     1     126.281 111.263 136.813  1.00  0.00    -0.025 C 
ATOM      3  C   UNL     1     127.089 111.136 138.115  1.00  0.00    -0.002 C 
ATOM      4  C   UNL     1     126.149 110.321 139.038  1.00  0.00     0.005 C 
ATOM      5  C   UNL     1     124.750 110.837 138.645  1.00  0.00     0.010 C 
ATOM      6  C   UNL     1     125.073 111.893 137.552  1.00  0.00    -0.001 C 
ATOM      7  C   UNL     1     125.688 113.106 138.313  1.00  0.00     0.121 C 
ATOM      8  C   UNL     1     127.098 112.581 138.677  1.00  0.00     0.036 C 
ATOM      9  C   UNL     1     123.856 112.240 136.681  1.00  0.00     0.015 C 
ATOM     10  C   UNL     1     126.964 112.156 135.733  1.00  0.00     0.012 C 
ENDROOT
BRANCH   7  11
ATOM     11  O   UNL     1     125.752 114.255 137.506  1.00  0.00    -0.393 OA
ATOM     12  H   UNL     1     125.129 114.915 137.907  1.00  0.00     0.210 HD
ENDBRANCH   7  11
TORSDOF 1
ENDMDL
MODEL 5
REMARK VINA RESULT:    -1.754      1.234      2.571
REMARK INTER + INTRA:          -1.805
REMARK INTER:                  -1.805
REMARK INTRA:                   0.000
REMARK UNBOUND:                 0.000
REMARK SMILES CC1(C)[C@@H]2CC[C@@]1(C)[C@H](O)C2
REMARK SMILES IDX 1 1 2 2 4 3 5 4 6 5 7 6 9 7 11 8 8 9 3 10 10 11
REMARK H PARENT 10 12
REMARK Flexibility Score: inf
ROOT
ATOM      1  C   UNL     1     123.419 108.994 134.570  1.00  0.00     0.012 C 
ATOM      2  C   UNL     1     124.808 109.141 133.872  1.00  0.00    -0.025 C 
ATOM      3  C   UNL     1     125.812 108.037 134.243  1.00  0.00    -0.002 C 
ATOM      4  C   UNL     1     126.024 108.246 135.763  1.00  0.00     0.005 C 
ATOM      5  C   UNL     1     125.955 109.780 135.911  1.00  0.00     0.010 C 
ATOM      6  C   UNL     1     125.722 110.250 134.448  1.00  0.00    -0.001 C 
ATOM      7  C   UNL     1     127.083 110.034 133.719  1.00  0.00     0.121 C 
ATOM      8  C   UNL     1     127.124 108.495 133.557  1.00  0.00     0.036 C 
ATOM      9  C   UNL     1     125.178 111.684 134.363  1.00  0.00     0.015 C 
ATOM     10  C   UNL     1     124.505 109.227 132.344  1.00  0.00     0.012 C 
ENDROOT
BRANCH   7  11
ATOM     11  O   UNL     1     127.125 110.690 132.477  1.00  0.00    -0.393 OA
ATOM     12  H   UNL     1     126.233 111.107 132.349  1.00  0.00     0.210 HD
ENDBRANCH   7  11
TORSDOF 1
ENDMDL
MODEL 6
REMARK VINA RESULT:    -1.711      1.210      3.088
REMARK INTER + INTRA:          -1.761
REMARK INTER:                  -1.761
REMARK INTRA:                   0.000
REMARK UNBOUND:                 0.000
REMARK SMILES CC1(C)[C@@H]2CC[C@@]1(C)[C@H](O)C2
REMARK SMILES IDX 1 1 2 2 4 3 5 4 6 5 7 6 9 7 11 8 8 9 3 10 10 11
REMARK H PARENT 10 12
REMARK Flexibility Score: inf
ROOT
ATOM      1  C   UNL     1     126.002 108.735 136.386  1.00  0.00     0.012 C 
ATOM      2  C   UNL     1     125.234 109.153 135.093  1.00  0.00    -0.025 C 
ATOM      3  C   UNL     1     124.890 107.976 134.165  1.00  0.00    -0.002 C 
ATOM      4  C   UNL     1     126.281 107.444 133.737  1.00  0.00     0.005 C 
ATOM      5  C   UNL     1     127.123 108.731 133.632  1.00  0.00     0.010 C 
ATOM      6  C   UNL     1     126.098 109.838 134.005  1.00  0.00    -0.001 C 
ATOM      7  C   UNL     1     125.141 109.950 132.779  1.00  0.00     0.121 C 
ATOM      8  C   UNL     1     124.288 108.666 132.914  1.00  0.00     0.036 C 
ATOM      9  C   UNL     1     126.769 111.160 134.410  1.00  0.00     0.015 C 
ATOM     10  C   UNL     1     123.988 109.952 135.582  1.00  0.00     0.012 C 
ENDROOT
BRANCH   7  11
ATOM     11  O   UNL     1     124.350 111.110 132.835  1.00  0.00    -0.393 OA
ATOM     12  H   UNL     1     123.621 110.985 132.172  1.00  0.00     0.210 HD
ENDBRANCH   7  11
TORSDOF 1
ENDMDL
MODEL 7
REMARK VINA RESULT:    -1.700      1.785      3.023
REMARK INTER + INTRA:          -1.749
REMARK INTER:                  -1.749
REMARK INTRA:                   0.000
REMARK UNBOUND:                 0.000
REMARK SMILES CC1(C)[C@@H]2CC[C@@]1(C)[C@H](O)C2
REMARK SMILES IDX 1 1 2 2 4 3 5 4 6 5 7 6 9 7 11 8 8 9 3 10 10 11
REMARK H PARENT 10 12
REMARK Flexibility Score: inf
ROOT
ATOM      1  C   UNL     1     124.259 109.612 132.803  1.00  0.00     0.012 C 
ATOM      2  C   UNL     1     125.051 110.543 133.774  1.00  0.00    -0.025 C 
ATOM      3  C   UNL     1     126.522 110.752 133.376  1.00  0.00    -0.002 C 
ATOM      4  C   UNL     1     127.125 109.329 133.491  1.00  0.00     0.005 C 
ATOM      5  C   UNL     1     126.375 108.735 134.700  1.00  0.00     0.010 C 
ATOM      6  C   UNL     1     125.444 109.903 135.129  1.00  0.00    -0.001 C 
ATOM      7  C   UNL     1     126.380 110.961 135.788  1.00  0.00     0.121 C 
ATOM      8  C   UNL     1     127.105 111.564 134.561  1.00  0.00     0.036 C 
ATOM      9  C   UNL     1     124.280 109.442 136.019  1.00  0.00     0.015 C 
ATOM     10  C   UNL     1     124.229 111.866 133.854  1.00  0.00     0.012 C 
ENDROOT
BRANCH   7  11
ATOM     11  O   UNL     1     125.655 111.935 136.496  1.00  0.00    -0.393 OA
ATOM     12  H   UNL     1     125.651 111.648 137.446  1.00  0.00     0.210 HD
ENDBRANCH   7  11
TORSDOF 1
ENDMDL
MODEL 8
REMARK VINA RESULT:    -1.670      2.770      4.545
REMARK INTER + INTRA:          -1.719
REMARK INTER:                  -1.719
REMARK INTRA:                   0.000
REMARK UNBOUND:                 0.000
REMARK SMILES CC1(C)[C@@H]2CC[C@@]1(C)[C@H](O)C2
REMARK SMILES IDX 1 1 2 2 4 3 5 4 6 5 7 6 9 7 11 8 8 9 3 10 10 11
REMARK H PARENT 10 12
REMARK Flexibility Score: inf
ROOT
ATOM      1  C   UNL     1     124.216 111.917 138.960  1.00  0.00     0.012 C 
ATOM      2  C   UNL     1     125.036 111.963 137.632  1.00  0.00    -0.025 C 
ATOM      3  C   UNL     1     125.450 110.578 137.108  1.00  0.00    -0.002 C 
ATOM      4  C   UNL     1     126.385 110.042 138.222  1.00  0.00     0.005 C 
ATOM      5  C   UNL     1     127.116 111.314 138.697  1.00  0.00     0.010 C 
ATOM      6  C   UNL     1     126.510 112.415 137.782  1.00  0.00    -0.001 C 
ATOM      7  C   UNL     1     127.125 112.170 136.371  1.00  0.00     0.121 C 
ATOM      8  C   UNL     1     126.364 110.907 135.899  1.00  0.00     0.036 C 
ATOM      9  C   UNL     1     126.728 113.833 138.332  1.00  0.00     0.015 C 
ATOM     10  C   UNL     1     124.167 112.780 136.628  1.00  0.00     0.012 C 
ENDROOT
BRANCH   7  11
ATOM     11  O   UNL     1     126.913 113.259 135.508  1.00  0.00    -0.393 OA
ATOM     12  H   UNL     1     127.765 113.400 135.019  1.00  0.00     0.210 HD
ENDBRANCH   7  11
TORSDOF 1
ENDMDL
MODEL 9
REMARK VINA RESULT:    -1.315      1.862      3.212
REMARK INTER + INTRA:          -1.353
REMARK INTER:                  -1.353
REMARK INTRA:                   0.000
REMARK UNBOUND:                 0.000
REMARK SMILES CC1(C)[C@@H]2CC[C@@]1(C)[C@H](O)C2
REMARK SMILES IDX 1 1 2 2 4 3 5 4 6 5 7 6 9 7 11 8 8 9 3 10 10 11
REMARK H PARENT 10 12
REMARK Flexibility Score: inf
ROOT
ATOM      1  C   UNL     1     126.465 111.064 134.809  1.00  0.00     0.012 C 
ATOM      2  C   UNL     1     126.063 109.566 134.626  1.00  0.00    -0.025 C 
ATOM      3  C   UNL     1     127.104 108.731 133.863  1.00  0.00    -0.002 C 
ATOM      4  C   UNL     1     127.125 109.388 132.459  1.00  0.00     0.005 C 
ATOM      5  C   UNL     1     125.652 109.791 132.247  1.00  0.00     0.010 C 
ATOM      6  C   UNL     1     124.975 109.301 133.557  1.00  0.00    -0.001 C 
ATOM      7  C   UNL     1     124.927 107.747 133.445  1.00  0.00     0.121 C 
ATOM      8  C   UNL     1     126.406 107.358 133.685  1.00  0.00     0.036 C 
ATOM      9  C   UNL     1     123.610 109.961 133.806  1.00  0.00     0.015 C 
ATOM     10  C   UNL     1     125.760 109.033 136.060  1.00  0.00     0.012 C 
ENDROOT
BRANCH   7  11
ATOM     11  O   UNL     1     124.076 107.176 134.407  1.00  0.00    -0.393 OA
ATOM     12  H   UNL     1     124.129 106.193 134.281  1.00  0.00     0.210 HD
ENDBRANCH   7  11
TORSDOF 1
ENDMDL
