MODEL 1
REMARK VINA RESULT:    -7.488      0.000      0.000
REMARK INTER + INTRA:         -12.357
REMARK INTER:                 -10.990
REMARK INTRA:                  -1.367
REMARK UNBOUND:                -1.367
REMARK SMILES Cc1cc2c(C(C)C)c(O)c(O)c(C=O)c2c(O)c1-c1c(C)cc2c(C(C)C)c(O)c(O)c(C=O)c2c1O
REMARK SMILES IDX 1 1 2 2 3 3 4 4 16 5 13 6 11 7 9 8 5 9 17 10 19 11 20 12
REMARK SMILES IDX 37 13 21 14 36 15 23 16 22 17 24 18 33 19 25 20 31 21 29 22
REMARK SMILES IDX 38 23 34 25 35 26 26 27 27 28 28 29 32 30 30 32 18 34 6 36
REMARK SMILES IDX 7 37 8 38 14 39 15 40 10 41 12 43
REMARK H PARENT 38 24 32 31 30 33 18 35 10 42 12 44
REMARK Flexibility Score: inf
ROOT
ATOM      1  C   UNL     1      31.730  -2.345  75.537  1.00  0.00     0.045 C 
ATOM      2  C   UNL     1      32.240  -2.245  76.954  1.00  0.00    -0.039 A 
ATOM      3  C   UNL     1      31.391  -2.569  78.013  1.00  0.00     0.013 A 
ATOM      4  C   UNL     1      31.812  -2.486  79.358  1.00  0.00    -0.006 A 
ATOM      5  C   UNL     1      33.181  -2.186  79.631  1.00  0.00     0.039 A 
ATOM      6  C   UNL     1      33.658  -2.303  80.971  1.00  0.00     0.072 A 
ATOM      7  C   UNL     1      32.782  -2.724  81.993  1.00  0.00     0.169 A 
ATOM      8  C   UNL     1      31.424  -2.927  81.727  1.00  0.00     0.162 A 
ATOM      9  C   UNL     1      30.902  -2.723  80.432  1.00  0.00     0.008 A 
ATOM     10  C   UNL     1      34.019  -1.765  78.553  1.00  0.00     0.132 A 
ATOM     11  C   UNL     1      33.549  -1.813  77.223  1.00  0.00     0.031 A 
ENDROOT
BRANCH  11  12
ATOM     12  C   UNL     1      34.440  -1.423  76.099  1.00  0.00     0.031 A 
ATOM     13  C   UNL     1      35.302  -2.374  75.514  1.00  0.00     0.132 A 
ATOM     14  C   UNL     1      34.431  -0.102  75.625  1.00  0.00    -0.039 A 
ATOM     15  C   UNL     1      36.214  -1.985  74.489  1.00  0.00     0.039 A 
ATOM     16  C   UNL     1      35.231   0.244  74.535  1.00  0.00     0.013 A 
ATOM     17  C   UNL     1      33.532   0.940  76.245  1.00  0.00     0.045 C 
ATOM     18  C   UNL     1      36.095  -0.683  73.915  1.00  0.00    -0.006 A 
ATOM     19  C   UNL     1      37.222  -2.868  74.003  1.00  0.00     0.072 A 
ATOM     20  C   UNL     1      36.844  -0.344  72.742  1.00  0.00     0.008 A 
ATOM     21  C   UNL     1      37.998  -2.501  72.888  1.00  0.00     0.169 A 
ATOM     22  C   UNL     1      37.802  -1.266  72.261  1.00  0.00     0.162 A 
BRANCH  13  23
ATOM     23  O   UNL     1      35.221  -3.712  75.916  1.00  0.00    -0.507 OA
ATOM     24  H   UNL     1      35.347  -4.021  76.871  1.00  0.00     0.293 HD
ENDBRANCH  13  23
BRANCH  19  25
ATOM     25  C   UNL     1      37.570  -4.125  74.702  1.00  0.00     0.264 C 
ATOM     26  O   UNL     1      38.285  -4.102  75.739  1.00  0.00    -0.298 OA
ENDBRANCH  19  25
BRANCH  20  27
ATOM     27  C   UNL     1      36.663   0.970  71.957  1.00  0.00     0.017 C 
ATOM     28  C   UNL     1      37.074   2.198  72.784  1.00  0.00     0.012 C 
ATOM     29  C   UNL     1      35.282   1.126  71.285  1.00  0.00     0.012 C 
ENDBRANCH  20  27
BRANCH  21  30
ATOM     30  O   UNL     1      39.000  -3.341  72.385  1.00  0.00    -0.504 OA
ATOM     31  H   UNL     1      38.850  -4.303  72.112  1.00  0.00     0.293 HD
ENDBRANCH  21  30
BRANCH  22  32
ATOM     32  O   UNL     1      38.589  -0.936  71.152  1.00  0.00    -0.504 OA
ATOM     33  H   UNL     1      39.398  -1.475  70.867  1.00  0.00     0.293 HD
ENDBRANCH  22  32
ENDBRANCH  11  12
BRANCH  10  34
ATOM     34  O   UNL     1      35.306  -1.275  78.806  1.00  0.00    -0.507 OA
ATOM     35  H   UNL     1      35.586  -0.315  78.647  1.00  0.00     0.293 HD
ENDBRANCH  10  34
BRANCH   9  36
ATOM     36  C   UNL     1      29.380  -2.780  80.203  1.00  0.00     0.017 C 
ATOM     37  C   UNL     1      28.863  -1.453  79.638  1.00  0.00     0.012 C 
ATOM     38  C   UNL     1      28.923  -3.972  79.340  1.00  0.00     0.012 C 
ENDBRANCH   9  36
BRANCH   6  39
ATOM     39  C   UNL     1      35.078  -2.086  81.316  1.00  0.00     0.264 C 
ATOM     40  O   UNL     1      35.446  -1.015  81.870  1.00  0.00    -0.298 OA
ENDBRANCH   6  39
BRANCH   8  41
ATOM     41  O   UNL     1      30.584  -3.362  82.755  1.00  0.00    -0.504 OA
ATOM     42  H   UNL     1      30.573  -2.942  83.676  1.00  0.00     0.293 HD
ENDBRANCH   8  41
BRANCH   7  43
ATOM     43  O   UNL     1      33.239  -2.975  83.293  1.00  0.00    -0.504 OA
ATOM     44  H   UNL     1      34.092  -2.591  83.677  1.00  0.00     0.293 HD
ENDBRANCH   7  43
TORSDOF 11
ENDMDL
MODEL 2
REMARK VINA RESULT:    -7.443      0.363      8.720
REMARK INTER + INTRA:         -12.291
REMARK INTER:                 -10.826
REMARK INTRA:                  -1.465
REMARK UNBOUND:                -1.367
REMARK SMILES Cc1cc2c(C(C)C)c(O)c(O)c(C=O)c2c(O)c1-c1c(C)cc2c(C(C)C)c(O)c(O)c(C=O)c2c1O
REMARK SMILES IDX 1 1 2 2 3 3 4 4 16 5 13 6 11 7 9 8 5 9 17 10 19 11 20 12
REMARK SMILES IDX 37 13 21 14 36 15 23 16 22 17 24 18 33 19 25 20 31 21 29 22
REMARK SMILES IDX 38 23 34 25 35 26 26 27 27 28 28 29 32 30 30 32 18 34 6 36
REMARK SMILES IDX 7 37 8 38 14 39 15 40 10 41 12 43
REMARK H PARENT 38 24 32 31 30 33 18 35 10 42 12 44
REMARK Flexibility Score: inf
ROOT
ATOM      1  C   UNL     1      33.703   1.054  76.364  1.00  0.00     0.045 C 
ATOM      2  C   UNL     1      34.617   0.043  75.715  1.00  0.00    -0.039 A 
ATOM      3  C   UNL     1      35.412   0.431  74.635  1.00  0.00     0.013 A 
ATOM      4  C   UNL     1      36.279  -0.474  73.986  1.00  0.00    -0.006 A 
ATOM      5  C   UNL     1      36.438  -1.784  74.532  1.00  0.00     0.039 A 
ATOM      6  C   UNL     1      37.460  -2.630  74.007  1.00  0.00     0.072 A 
ATOM      7  C   UNL     1      38.300  -2.158  72.976  1.00  0.00     0.169 A 
ATOM      8  C   UNL     1      38.074  -0.908  72.390  1.00  0.00     0.162 A 
ATOM      9  C   UNL     1      37.009  -0.089  72.821  1.00  0.00     0.008 A 
ATOM     10  C   UNL     1      35.556  -2.204  75.575  1.00  0.00     0.132 A 
ATOM     11  C   UNL     1      34.665  -1.285  76.169  1.00  0.00     0.031 A 
ENDROOT
BRANCH  11  12
ATOM     12  C   UNL     1      33.786  -1.711  77.289  1.00  0.00     0.031 A 
ATOM     13  C   UNL     1      34.277  -1.729  78.610  1.00  0.00     0.132 A 
ATOM     14  C   UNL     1      32.465  -2.108  77.028  1.00  0.00    -0.039 A 
ATOM     15  C   UNL     1      33.462  -2.213  79.676  1.00  0.00     0.039 A 
ATOM     16  C   UNL     1      31.629  -2.456  78.090  1.00  0.00     0.013 A 
ATOM     17  C   UNL     1      31.918  -2.116  75.621  1.00  0.00     0.045 C 
ATOM     18  C   UNL     1      32.080  -2.472  79.426  1.00  0.00    -0.006 A 
ATOM     19  C   UNL     1      33.980  -2.418  80.987  1.00  0.00     0.072 A 
ATOM     20  C   UNL     1      31.192  -2.743  80.516  1.00  0.00     0.008 A 
ATOM     21  C   UNL     1      33.109  -2.746  82.043  1.00  0.00     0.169 A 
ATOM     22  C   UNL     1      31.737  -2.893  81.812  1.00  0.00     0.162 A 
BRANCH  13  23
ATOM     23  O   UNL     1      35.556  -1.225  78.874  1.00  0.00    -0.507 OA
ATOM     24  H   UNL     1      36.290  -1.758  79.322  1.00  0.00     0.293 HD
ENDBRANCH  13  23
BRANCH  19  25
ATOM     25  C   UNL     1      35.433  -2.411  81.269  1.00  0.00     0.264 C 
ATOM     26  O   UNL     1      35.950  -1.471  81.928  1.00  0.00    -0.298 OA
ENDBRANCH  19  25
BRANCH  20  27
ATOM     27  C   UNL     1      29.662  -2.873  80.368  1.00  0.00     0.017 C 
ATOM     28  C   UNL     1      29.265  -4.117  79.559  1.00  0.00     0.012 C 
ATOM     29  C   UNL     1      28.958  -1.587  79.887  1.00  0.00     0.012 C 
ENDBRANCH  20  27
BRANCH  21  30
ATOM     30  O   UNL     1      33.582  -2.959  83.344  1.00  0.00    -0.504 OA
ATOM     31  H   UNL     1      33.142  -3.575  84.014  1.00  0.00     0.293 HD
ENDBRANCH  21  30
BRANCH  22  32
ATOM     32  O   UNL     1      30.899  -3.216  82.886  1.00  0.00    -0.504 OA
ATOM     33  H   UNL     1      31.091  -2.938  83.841  1.00  0.00     0.293 HD
ENDBRANCH  22  32
ENDBRANCH  11  12
BRANCH  10  34
ATOM     34  O   UNL     1      35.548  -3.538  76.000  1.00  0.00    -0.507 OA
ATOM     35  H   UNL     1      35.470  -3.821  76.969  1.00  0.00     0.293 HD
ENDBRANCH  10  34
BRANCH   9  36
ATOM     36  C   UNL     1      36.672   1.198  72.046  1.00  0.00     0.017 C 
ATOM     37  C   UNL     1      35.265   1.123  71.445  1.00  0.00     0.012 C 
ATOM     38  C   UNL     1      36.862   2.488  72.867  1.00  0.00     0.012 C 
ENDBRANCH   9  36
BRANCH   6  39
ATOM     39  C   UNL     1      37.736  -3.967  74.572  1.00  0.00     0.264 C 
ATOM     40  O   UNL     1      38.646  -4.125  75.429  1.00  0.00    -0.298 OA
ENDBRANCH   6  39
BRANCH   8  41
ATOM     41  O   UNL     1      38.935  -0.460  71.385  1.00  0.00    -0.504 OA
ATOM     42  H   UNL     1      38.622  -0.236  70.448  1.00  0.00     0.293 HD
ENDBRANCH   8  41
BRANCH   7  43
ATOM     43  O   UNL     1      39.394  -2.905  72.522  1.00  0.00    -0.504 OA
ATOM     44  H   UNL     1      39.530  -3.888  72.720  1.00  0.00     0.293 HD
ENDBRANCH   7  43
TORSDOF 11
ENDMDL
MODEL 3
REMARK VINA RESULT:    -7.370      6.809     11.466
REMARK INTER + INTRA:         -12.184
REMARK INTER:                 -10.878
REMARK INTRA:                  -1.307
REMARK UNBOUND:                -1.367
REMARK SMILES Cc1cc2c(C(C)C)c(O)c(O)c(C=O)c2c(O)c1-c1c(C)cc2c(C(C)C)c(O)c(O)c(C=O)c2c1O
REMARK SMILES IDX 1 1 2 2 3 3 4 4 16 5 13 6 11 7 9 8 5 9 17 10 19 11 20 12
REMARK SMILES IDX 37 13 21 14 36 15 23 16 22 17 24 18 33 19 25 20 31 21 29 22
REMARK SMILES IDX 38 23 34 25 35 26 26 27 27 28 28 29 32 30 30 32 18 34 6 36
REMARK SMILES IDX 7 37 8 38 14 39 15 40 10 41 12 43
REMARK H PARENT 38 24 32 31 30 33 18 35 10 42 12 44
REMARK Flexibility Score: inf
ROOT
ATOM      1  C   UNL     1      26.226   0.986  83.244  1.00  0.00     0.045 C 
ATOM      2  C   UNL     1      25.196   0.018  83.775  1.00  0.00    -0.039 A 
ATOM      3  C   UNL     1      24.307   0.437  84.765  1.00  0.00     0.013 A 
ATOM      4  C   UNL     1      23.329  -0.428  85.303  1.00  0.00    -0.006 A 
ATOM      5  C   UNL     1      23.168  -1.723  84.726  1.00  0.00     0.039 A 
ATOM      6  C   UNL     1      22.052  -2.520  85.124  1.00  0.00     0.072 A 
ATOM      7  C   UNL     1      21.128  -2.014  86.061  1.00  0.00     0.169 A 
ATOM      8  C   UNL     1      21.349  -0.781  86.685  1.00  0.00     0.162 A 
ATOM      9  C   UNL     1      22.495  -0.015  86.386  1.00  0.00     0.008 A 
ATOM     10  C   UNL     1      24.137  -2.179  83.780  1.00  0.00     0.132 A 
ATOM     11  C   UNL     1      25.133  -1.303  83.301  1.00  0.00     0.031 A 
ENDROOT
BRANCH  11  12
ATOM     12  C   UNL     1      26.109  -1.764  82.279  1.00  0.00     0.031 A 
ATOM     13  C   UNL     1      25.760  -1.764  80.912  1.00  0.00     0.132 A 
ATOM     14  C   UNL     1      27.378  -2.214  82.677  1.00  0.00    -0.039 A 
ATOM     15  C   UNL     1      26.664  -2.280  79.938  1.00  0.00     0.039 A 
ATOM     16  C   UNL     1      28.307  -2.595  81.708  1.00  0.00     0.013 A 
ATOM     17  C   UNL     1      27.771  -2.242  84.134  1.00  0.00     0.045 C 
ATOM     18  C   UNL     1      28.000  -2.594  80.332  1.00  0.00    -0.006 A 
ATOM     19  C   UNL     1      26.280  -2.465  78.578  1.00  0.00     0.072 A 
ATOM     20  C   UNL     1      28.987  -2.901  79.341  1.00  0.00     0.008 A 
ATOM     21  C   UNL     1      27.244  -2.828  77.620  1.00  0.00     0.169 A 
ATOM     22  C   UNL     1      28.577  -3.030  77.994  1.00  0.00     0.162 A 
BRANCH  13  23
ATOM     23  O   UNL     1      24.537  -1.209  80.517  1.00  0.00    -0.507 OA
ATOM     24  H   UNL     1      24.446  -0.302  80.077  1.00  0.00     0.293 HD
ENDBRANCH  13  23
BRANCH  19  25
ATOM     25  C   UNL     1      24.867  -2.401  78.143  1.00  0.00     0.264 C 
ATOM     26  O   UNL     1      24.476  -1.479  77.379  1.00  0.00    -0.298 OA
ENDBRANCH  19  25
BRANCH  20  27
ATOM     27  C   UNL     1      30.486  -3.092  79.650  1.00  0.00     0.017 C 
ATOM     28  C   UNL     1      30.717  -4.121  80.767  1.00  0.00     0.012 C 
ATOM     29  C   UNL     1      31.264  -1.777  79.867  1.00  0.00     0.012 C 
ENDBRANCH  20  27
BRANCH  21  30
ATOM     30  O   UNL     1      26.904  -3.023  76.275  1.00  0.00    -0.504 OA
ATOM     31  H   UNL     1      26.455  -3.856  75.918  1.00  0.00     0.293 HD
ENDBRANCH  21  30
BRANCH  22  32
ATOM     32  O   UNL     1      29.510  -3.387  77.014  1.00  0.00    -0.504 OA
ATOM     33  H   UNL     1      30.016  -4.265  77.024  1.00  0.00     0.293 HD
ENDBRANCH  22  32
ENDBRANCH  11  12
BRANCH  10  34
ATOM     34  O   UNL     1      24.126  -3.508  83.341  1.00  0.00    -0.507 OA
ATOM     35  H   UNL     1      24.484  -3.809  82.443  1.00  0.00     0.293 HD
ENDBRANCH  10  34
BRANCH   9  36
ATOM     36  C   UNL     1      22.808   1.248  87.210  1.00  0.00     0.017 C 
ATOM     37  C   UNL     1      24.084   1.058  88.037  1.00  0.00     0.012 C 
ATOM     38  C   UNL     1      22.870   2.540  86.373  1.00  0.00     0.012 C 
ENDBRANCH   9  36
BRANCH   6  39
ATOM     39  C   UNL     1      21.774  -3.836  84.513  1.00  0.00     0.264 C 
ATOM     40  O   UNL     1      20.938  -3.946  83.577  1.00  0.00    -0.298 OA
ENDBRANCH   6  39
BRANCH   8  41
ATOM     41  O   UNL     1      20.407  -0.298  87.596  1.00  0.00    -0.504 OA
ATOM     42  H   UNL     1      19.453  -0.635  87.637  1.00  0.00     0.293 HD
ENDBRANCH   8  41
BRANCH   7  43
ATOM     43  O   UNL     1      19.955  -2.708  86.383  1.00  0.00    -0.504 OA
ATOM     44  H   UNL     1      19.090  -2.262  86.659  1.00  0.00     0.293 HD
ENDBRANCH   7  43
TORSDOF 11
ENDMDL
MODEL 4
REMARK VINA RESULT:    -7.370      6.684     13.818
REMARK INTER + INTRA:         -12.184
REMARK INTER:                 -10.912
REMARK INTRA:                  -1.272
REMARK UNBOUND:                -1.367
REMARK SMILES Cc1cc2c(C(C)C)c(O)c(O)c(C=O)c2c(O)c1-c1c(C)cc2c(C(C)C)c(O)c(O)c(C=O)c2c1O
REMARK SMILES IDX 1 1 2 2 3 3 4 4 16 5 13 6 11 7 9 8 5 9 17 10 19 11 20 12
REMARK SMILES IDX 37 13 21 14 36 15 23 16 22 17 24 18 33 19 25 20 31 21 29 22
REMARK SMILES IDX 38 23 34 25 35 26 26 27 27 28 28 29 32 30 30 32 18 34 6 36
REMARK SMILES IDX 7 37 8 38 14 39 15 40 10 41 12 43
REMARK H PARENT 38 24 32 31 30 33 18 35 10 42 12 44
REMARK Flexibility Score: inf
ROOT
ATOM      1  C   UNL     1      28.011  -2.406  84.104  1.00  0.00     0.045 C 
ATOM      2  C   UNL     1      27.593  -2.295  82.657  1.00  0.00    -0.039 A 
ATOM      3  C   UNL     1      28.501  -2.631  81.652  1.00  0.00     0.013 A 
ATOM      4  C   UNL     1      28.167  -2.539  80.284  1.00  0.00    -0.006 A 
ATOM      5  C   UNL     1      26.823  -2.214  79.927  1.00  0.00     0.039 A 
ATOM      6  C   UNL     1      26.429  -2.321  78.560  1.00  0.00     0.072 A 
ATOM      7  C   UNL     1      27.360  -2.755  77.593  1.00  0.00     0.169 A 
ATOM      8  C   UNL     1      28.695  -2.982  77.943  1.00  0.00     0.162 A 
ATOM      9  C   UNL     1      29.139  -2.789  79.269  1.00  0.00     0.008 A 
ATOM     10  C   UNL     1      25.926  -1.781  80.952  1.00  0.00     0.132 A 
ATOM     11  C   UNL     1      26.311  -1.839  82.308  1.00  0.00     0.031 A 
ENDROOT
BRANCH  11  12
ATOM     12  C   UNL     1      25.359  -1.436  83.376  1.00  0.00     0.031 A 
ATOM     13  C   UNL     1      24.466  -2.380  83.925  1.00  0.00     0.132 A 
ATOM     14  C   UNL     1      25.339  -0.108  83.831  1.00  0.00    -0.039 A 
ATOM     15  C   UNL     1      23.497  -1.980  84.891  1.00  0.00     0.039 A 
ATOM     16  C   UNL     1      24.479   0.250  84.870  1.00  0.00     0.013 A 
ATOM     17  C   UNL     1      26.270   0.927  83.248  1.00  0.00     0.045 C 
ATOM     18  C   UNL     1      23.583  -0.670  85.453  1.00  0.00    -0.006 A 
ATOM     19  C   UNL     1      22.465  -2.858  85.332  1.00  0.00     0.072 A 
ATOM     20  C   UNL     1      22.769  -0.317  86.578  1.00  0.00     0.008 A 
ATOM     21  C   UNL     1      21.628  -2.478  86.397  1.00  0.00     0.169 A 
ATOM     22  C   UNL     1      21.787  -1.234  87.017  1.00  0.00     0.162 A 
BRANCH  13  23
ATOM     23  O   UNL     1      24.571  -3.724  83.545  1.00  0.00    -0.507 OA
ATOM     24  H   UNL     1      23.779  -4.301  83.295  1.00  0.00     0.293 HD
ENDBRANCH  13  23
BRANCH  19  25
ATOM     25  C   UNL     1      22.158  -4.125  84.632  1.00  0.00     0.264 C 
ATOM     26  O   UNL     1      21.442  -4.124  83.595  1.00  0.00    -0.298 OA
ENDBRANCH  19  25
BRANCH  20  27
ATOM     27  C   UNL     1      22.904   1.008  87.354  1.00  0.00     0.017 C 
ATOM     28  C   UNL     1      22.742   2.232  86.440  1.00  0.00     0.012 C 
ATOM     29  C   UNL     1      24.149   1.090  88.263  1.00  0.00     0.012 C 
ENDBRANCH  20  27
BRANCH  21  30
ATOM     30  O   UNL     1      20.600  -3.312  86.854  1.00  0.00    -0.504 OA
ATOM     31  H   UNL     1      20.145  -4.016  86.287  1.00  0.00     0.293 HD
ENDBRANCH  21  30
BRANCH  22  32
ATOM     32  O   UNL     1      20.939  -0.890  88.075  1.00  0.00    -0.504 OA
ATOM     33  H   UNL     1      20.266  -0.135  88.023  1.00  0.00     0.293 HD
ENDBRANCH  22  32
ENDBRANCH  11  12
BRANCH  10  34
ATOM     34  O   UNL     1      24.667  -1.268  80.620  1.00  0.00    -0.507 OA
ATOM     35  H   UNL     1      24.322  -1.186  79.672  1.00  0.00     0.293 HD
ENDBRANCH  10  34
BRANCH   9  36
ATOM     36  C   UNL     1      30.642  -2.873  79.592  1.00  0.00     0.017 C 
ATOM     37  C   UNL     1      31.139  -1.567  80.221  1.00  0.00     0.012 C 
ATOM     38  C   UNL     1      31.027  -4.091  80.453  1.00  0.00     0.012 C 
ENDBRANCH   9  36
BRANCH   6  39
ATOM     39  C   UNL     1      25.037  -2.078  78.126  1.00  0.00     0.264 C 
ATOM     40  O   UNL     1      24.203  -3.022  78.089  1.00  0.00    -0.298 OA
ENDBRANCH   6  39
BRANCH   8  41
ATOM     41  O   UNL     1      29.590  -3.430  76.968  1.00  0.00    -0.504 OA
ATOM     42  H   UNL     1      30.545  -3.099  76.899  1.00  0.00     0.293 HD
ENDBRANCH   8  41
BRANCH   7  43
ATOM     43  O   UNL     1      26.981  -2.995  76.267  1.00  0.00    -0.504 OA
ATOM     44  H   UNL     1      26.055  -3.288  75.986  1.00  0.00     0.293 HD
ENDBRANCH   7  43
TORSDOF 11
ENDMDL
MODEL 5
REMARK VINA RESULT:    -6.413     14.357     17.400
REMARK INTER + INTRA:         -10.779
REMARK INTER:                  -9.820
REMARK INTRA:                  -0.959
REMARK UNBOUND:                -1.367
REMARK SMILES Cc1cc2c(C(C)C)c(O)c(O)c(C=O)c2c(O)c1-c1c(C)cc2c(C(C)C)c(O)c(O)c(C=O)c2c1O
REMARK SMILES IDX 1 1 2 2 3 3 4 4 16 5 13 6 11 7 9 8 5 9 17 10 19 11 20 12
REMARK SMILES IDX 37 13 21 14 36 15 23 16 22 17 24 18 33 19 25 20 31 21 29 22
REMARK SMILES IDX 38 23 34 25 35 26 26 27 27 28 28 29 32 30 30 32 18 34 6 36
REMARK SMILES IDX 7 37 8 38 14 39 15 40 10 41 12 43
REMARK H PARENT 38 24 32 31 30 33 18 35 10 42 12 44
REMARK Flexibility Score: inf
ROOT
ATOM      1  C   UNL     1      28.730  13.765  82.121  1.00  0.00     0.045 C 
ATOM      2  C   UNL     1      29.959  13.481  81.292  1.00  0.00    -0.039 A 
ATOM      3  C   UNL     1      31.210  13.442  81.911  1.00  0.00     0.013 A 
ATOM      4  C   UNL     1      32.393  13.188  81.184  1.00  0.00    -0.006 A 
ATOM      5  C   UNL     1      32.288  12.838  79.804  1.00  0.00     0.039 A 
ATOM      6  C   UNL     1      33.455  12.382  79.120  1.00  0.00     0.072 A 
ATOM      7  C   UNL     1      34.677  12.271  79.814  1.00  0.00     0.169 A 
ATOM      8  C   UNL     1      34.784  12.703  81.140  1.00  0.00     0.162 A 
ATOM      9  C   UNL     1      33.673  13.252  81.814  1.00  0.00     0.008 A 
ATOM     10  C   UNL     1      31.022  12.971  79.157  1.00  0.00     0.132 A 
ATOM     11  C   UNL     1      29.866  13.276  79.906  1.00  0.00     0.031 A 
ENDROOT
BRANCH  11  12
ATOM     12  C   UNL     1      28.541  13.363  79.238  1.00  0.00     0.031 A 
ATOM     13  C   UNL     1      27.633  12.287  79.319  1.00  0.00     0.132 A 
ATOM     14  C   UNL     1      28.197  14.515  78.514  1.00  0.00    -0.039 A 
ATOM     15  C   UNL     1      26.394  12.334  78.614  1.00  0.00     0.039 A 
ATOM     16  C   UNL     1      26.932  14.611  77.934  1.00  0.00     0.013 A 
ATOM     17  C   UNL     1      29.158  15.674  78.396  1.00  0.00     0.045 C 
ATOM     18  C   UNL     1      25.992  13.563  78.007  1.00  0.00    -0.006 A 
ATOM     19  C   UNL     1      25.536  11.201  78.522  1.00  0.00     0.072 A 
ATOM     20  C   UNL     1      24.665  13.705  77.487  1.00  0.00     0.008 A 
ATOM     21  C   UNL     1      24.256  11.334  77.952  1.00  0.00     0.169 A 
ATOM     22  C   UNL     1      23.824  12.569  77.455  1.00  0.00     0.162 A 
BRANCH  13  23
ATOM     23  O   UNL     1      27.938  11.192  80.135  1.00  0.00    -0.507 OA
ATOM     24  H   UNL     1      27.574  10.259  79.986  1.00  0.00     0.293 HD
ENDBRANCH  13  23
BRANCH  19  25
ATOM     25  C   UNL     1      25.982   9.843  78.903  1.00  0.00     0.264 C 
ATOM     26  O   UNL     1      25.434   9.237  79.862  1.00  0.00    -0.298 OA
ENDBRANCH  19  25
BRANCH  20  27
ATOM     27  C   UNL     1      24.085  15.034  76.963  1.00  0.00     0.017 C 
ATOM     28  C   UNL     1      23.069  15.646  77.939  1.00  0.00     0.012 C 
ATOM     29  C   UNL     1      23.568  14.975  75.509  1.00  0.00     0.012 C 
ENDBRANCH  20  27
BRANCH  21  30
ATOM     30  O   UNL     1      23.386  10.242  77.841  1.00  0.00    -0.504 OA
ATOM     31  H   UNL     1      22.381  10.321  77.770  1.00  0.00     0.293 HD
ENDBRANCH  21  30
BRANCH  22  32
ATOM     32  O   UNL     1      22.544  12.666  76.899  1.00  0.00    -0.504 OA
ATOM     33  H   UNL     1      21.769  12.080  77.186  1.00  0.00     0.293 HD
ENDBRANCH  22  32
ENDBRANCH  11  12
BRANCH  10  34
ATOM     34  O   UNL     1      30.919  12.828  77.768  1.00  0.00    -0.507 OA
ATOM     35  H   UNL     1      30.713  11.952  77.304  1.00  0.00     0.293 HD
ENDBRANCH  10  34
BRANCH   9  36
ATOM     36  C   UNL     1      33.857  13.882  83.207  1.00  0.00     0.017 C 
ATOM     37  C   UNL     1      34.059  12.800  84.274  1.00  0.00     0.012 C 
ATOM     38  C   UNL     1      34.973  14.943  83.268  1.00  0.00     0.012 C 
ENDBRANCH   9  36
BRANCH   6  39
ATOM     39  C   UNL     1      33.408  11.927  77.714  1.00  0.00     0.264 C 
ATOM     40  O   UNL     1      33.844  12.662  76.788  1.00  0.00    -0.298 OA
ENDBRANCH   6  39
BRANCH   8  41
ATOM     41  O   UNL     1      36.004  12.564  81.807  1.00  0.00    -0.504 OA
ATOM     42  H   UNL     1      36.185  11.829  82.481  1.00  0.00     0.293 HD
ENDBRANCH   8  41
BRANCH   7  43
ATOM     43  O   UNL     1      35.812  11.709  79.216  1.00  0.00    -0.504 OA
ATOM     44  H   UNL     1      36.181  10.796  79.448  1.00  0.00     0.293 HD
ENDBRANCH   7  43
TORSDOF 11
ENDMDL
MODEL 6
REMARK VINA RESULT:    -6.341      1.768      3.216
REMARK INTER + INTRA:         -10.674
REMARK INTER:                  -9.597
REMARK INTRA:                  -1.077
REMARK UNBOUND:                -1.367
REMARK SMILES Cc1cc2c(C(C)C)c(O)c(O)c(C=O)c2c(O)c1-c1c(C)cc2c(C(C)C)c(O)c(O)c(C=O)c2c1O
REMARK SMILES IDX 1 1 2 2 3 3 4 4 16 5 13 6 11 7 9 8 5 9 17 10 19 11 20 12
REMARK SMILES IDX 37 13 21 14 36 15 23 16 22 17 24 18 33 19 25 20 31 21 29 22
REMARK SMILES IDX 38 23 34 25 35 26 26 27 27 28 28 29 32 30 30 32 18 34 6 36
REMARK SMILES IDX 7 37 8 38 14 39 15 40 10 41 12 43
REMARK H PARENT 38 24 32 31 30 33 18 35 10 42 12 44
REMARK Flexibility Score: inf
ROOT
ATOM      1  C   UNL     1      36.485  -0.469  78.870  1.00  0.00     0.045 C 
ATOM      2  C   UNL     1      35.212  -1.256  78.675  1.00  0.00    -0.039 A 
ATOM      3  C   UNL     1      34.561  -1.795  79.785  1.00  0.00     0.013 A 
ATOM      4  C   UNL     1      33.372  -2.545  79.661  1.00  0.00    -0.006 A 
ATOM      5  C   UNL     1      32.756  -2.646  78.376  1.00  0.00     0.039 A 
ATOM      6  C   UNL     1      31.454  -3.224  78.281  1.00  0.00     0.072 A 
ATOM      7  C   UNL     1      30.797  -3.670  79.446  1.00  0.00     0.169 A 
ATOM      8  C   UNL     1      31.450  -3.648  80.683  1.00  0.00     0.162 A 
ATOM      9  C   UNL     1      32.774  -3.174  80.795  1.00  0.00     0.008 A 
ATOM     10  C   UNL     1      33.472  -2.175  77.233  1.00  0.00     0.132 A 
ATOM     11  C   UNL     1      34.685  -1.472  77.391  1.00  0.00     0.031 A 
ENDROOT
BRANCH  11  12
ATOM     12  C   UNL     1      35.402  -0.939  76.203  1.00  0.00     0.031 A 
ATOM     13  C   UNL     1      36.444  -1.681  75.610  1.00  0.00     0.132 A 
ATOM     14  C   UNL     1      35.048   0.314  75.677  1.00  0.00    -0.039 A 
ATOM     15  C   UNL     1      37.186  -1.137  74.521  1.00  0.00     0.039 A 
ATOM     16  C   UNL     1      35.690   0.785  74.531  1.00  0.00     0.013 A 
ATOM     17  C   UNL     1      33.949   1.138  76.304  1.00  0.00     0.045 C 
ATOM     18  C   UNL     1      36.725   0.064  73.901  1.00  0.00    -0.006 A 
ATOM     19  C   UNL     1      38.357  -1.774  74.015  1.00  0.00     0.072 A 
ATOM     20  C   UNL     1      37.316   0.512  72.676  1.00  0.00     0.008 A 
ATOM     21  C   UNL     1      38.969  -1.289  72.844  1.00  0.00     0.169 A 
ATOM     22  C   UNL     1      38.448  -0.174  72.180  1.00  0.00     0.162 A 
BRANCH  13  23
ATOM     23  O   UNL     1      36.712  -2.975  76.070  1.00  0.00    -0.507 OA
ATOM     24  H   UNL     1      37.643  -3.357  76.165  1.00  0.00     0.293 HD
ENDBRANCH  13  23
BRANCH  19  25
ATOM     25  C   UNL     1      39.034  -2.869  74.744  1.00  0.00     0.264 C 
ATOM     26  O   UNL     1      39.990  -2.621  75.525  1.00  0.00    -0.298 OA
ENDBRANCH  19  25
BRANCH  20  27
ATOM     27  C   UNL     1      36.783   1.699  71.848  1.00  0.00     0.017 C 
ATOM     28  C   UNL     1      36.713   2.992  72.675  1.00  0.00     0.012 C 
ATOM     29  C   UNL     1      35.482   1.403  71.073  1.00  0.00     0.012 C 
ENDBRANCH  20  27
BRANCH  21  30
ATOM     30  O   UNL     1      40.123  -1.886  72.321  1.00  0.00    -0.504 OA
ATOM     31  H   UNL     1      40.122  -2.726  71.757  1.00  0.00     0.293 HD
ENDBRANCH  21  30
BRANCH  22  32
ATOM     32  O   UNL     1      39.080   0.278  71.016  1.00  0.00    -0.504 OA
ATOM     33  H   UNL     1      39.305  -0.329  70.236  1.00  0.00     0.293 HD
ENDBRANCH  22  32
ENDBRANCH  11  12
BRANCH  10  34
ATOM     34  O   UNL     1      32.993  -2.432  75.943  1.00  0.00    -0.507 OA
ATOM     35  H   UNL     1      32.393  -3.213  75.708  1.00  0.00     0.293 HD
ENDBRANCH  10  34
BRANCH   9  36
ATOM     36  C   UNL     1      33.531  -3.324  82.127  1.00  0.00     0.017 C 
ATOM     37  C   UNL     1      34.832  -4.110  81.932  1.00  0.00     0.012 C 
ATOM     38  C   UNL     1      33.787  -1.988  82.852  1.00  0.00     0.012 C 
ENDBRANCH   9  36
BRANCH   6  39
ATOM     39  C   UNL     1      30.721  -3.291  76.999  1.00  0.00     0.264 C 
ATOM     40  O   UNL     1      29.492  -3.018  76.949  1.00  0.00    -0.298 OA
ENDBRANCH   6  39
BRANCH   8  41
ATOM     41  O   UNL     1      30.767  -4.079  81.823  1.00  0.00    -0.504 OA
ATOM     42  H   UNL     1      30.120  -4.858  81.820  1.00  0.00     0.293 HD
ENDBRANCH   8  41
BRANCH   7  43
ATOM     43  O   UNL     1      29.473  -4.125  79.413  1.00  0.00    -0.504 OA
ATOM     44  H   UNL     1      29.194  -5.031  79.060  1.00  0.00     0.293 HD
ENDBRANCH   7  43
TORSDOF 11
ENDMDL
MODEL 7
REMARK VINA RESULT:    -6.299     14.468     17.060
REMARK INTER + INTRA:         -10.611
REMARK INTER:                  -9.389
REMARK INTRA:                  -1.222
REMARK UNBOUND:                -1.367
REMARK SMILES Cc1cc2c(C(C)C)c(O)c(O)c(C=O)c2c(O)c1-c1c(C)cc2c(C(C)C)c(O)c(O)c(C=O)c2c1O
REMARK SMILES IDX 1 1 2 2 3 3 4 4 16 5 13 6 11 7 9 8 5 9 17 10 19 11 20 12
REMARK SMILES IDX 37 13 21 14 36 15 23 16 22 17 24 18 33 19 25 20 31 21 29 22
REMARK SMILES IDX 38 23 34 25 35 26 26 27 27 28 28 29 32 30 30 32 18 34 6 36
REMARK SMILES IDX 7 37 8 38 14 39 15 40 10 41 12 43
REMARK H PARENT 38 24 32 31 30 33 18 35 10 42 12 44
REMARK Flexibility Score: inf
ROOT
ATOM      1  C   UNL     1      27.981  15.804  79.266  1.00  0.00     0.045 C 
ATOM      2  C   UNL     1      27.154  14.542  79.307  1.00  0.00    -0.039 A 
ATOM      3  C   UNL     1      25.762  14.632  79.267  1.00  0.00     0.013 A 
ATOM      4  C   UNL     1      24.939  13.486  79.310  1.00  0.00    -0.006 A 
ATOM      5  C   UNL     1      25.555  12.198  79.266  1.00  0.00     0.039 A 
ATOM      6  C   UNL     1      24.729  11.046  79.101  1.00  0.00     0.072 A 
ATOM      7  C   UNL     1      23.333  11.196  78.972  1.00  0.00     0.169 A 
ATOM      8  C   UNL     1      22.737  12.455  79.109  1.00  0.00     0.162 A 
ATOM      9  C   UNL     1      23.518  13.600  79.371  1.00  0.00     0.008 A 
ATOM     10  C   UNL     1      26.974  12.111  79.400  1.00  0.00     0.132 A 
ATOM     11  C   UNL     1      27.764  13.281  79.405  1.00  0.00     0.031 A 
ENDROOT
BRANCH  11  12
ATOM     12  C   UNL     1      29.245  13.185  79.493  1.00  0.00     0.031 A 
ATOM     13  C   UNL     1      29.891  13.314  80.740  1.00  0.00     0.132 A 
ATOM     14  C   UNL     1      30.003  12.978  78.330  1.00  0.00    -0.039 A 
ATOM     15  C   UNL     1      31.315  13.304  80.818  1.00  0.00     0.039 A 
ATOM     16  C   UNL     1      31.388  12.837  78.428  1.00  0.00     0.013 A 
ATOM     17  C   UNL     1      29.338  12.855  76.980  1.00  0.00     0.045 C 
ATOM     18  C   UNL     1      32.068  12.945  79.658  1.00  0.00    -0.006 A 
ATOM     19  C   UNL     1      32.006  13.612  82.026  1.00  0.00     0.072 A 
ATOM     20  C   UNL     1      33.477  12.710  79.762  1.00  0.00     0.008 A 
ATOM     21  C   UNL     1      33.400  13.438  82.101  1.00  0.00     0.169 A 
ATOM     22  C   UNL     1      34.120  12.983  80.991  1.00  0.00     0.162 A 
BRANCH  13  23
ATOM     23  O   UNL     1      29.122  13.407  81.905  1.00  0.00    -0.507 OA
ATOM     24  H   UNL     1      29.475  13.756  82.787  1.00  0.00     0.293 HD
ENDBRANCH  13  23
BRANCH  19  25
ATOM     25  C   UNL     1      31.324  14.225  83.187  1.00  0.00     0.264 C 
ATOM     26  O   UNL     1      31.561  15.419  83.509  1.00  0.00    -0.298 OA
ENDBRANCH  19  25
BRANCH  20  27
ATOM     27  C   UNL     1      34.344  12.164  78.610  1.00  0.00     0.017 C 
ATOM     28  C   UNL     1      34.138  12.953  77.309  1.00  0.00     0.012 C 
ATOM     29  C   UNL     1      34.253  10.635  78.414  1.00  0.00     0.012 C 
ENDBRANCH  20  27
BRANCH  21  30
ATOM     30  O   UNL     1      34.113  13.735  83.269  1.00  0.00    -0.504 OA
ATOM     31  H   UNL     1      35.063  14.081  83.282  1.00  0.00     0.293 HD
ENDBRANCH  21  30
BRANCH  22  32
ATOM     32  O   UNL     1      35.505  12.818  81.103  1.00  0.00    -0.504 OA
ATOM     33  H   UNL     1      36.171  13.331  80.537  1.00  0.00     0.293 HD
ENDBRANCH  22  32
ENDBRANCH  11  12
BRANCH  10  34
ATOM     34  O   UNL     1      27.596  10.866  79.558  1.00  0.00    -0.507 OA
ATOM     35  H   UNL     1      27.709  10.193  78.811  1.00  0.00     0.293 HD
ENDBRANCH  10  34
BRANCH   9  36
ATOM     36  C   UNL     1      22.828  14.939  79.693  1.00  0.00     0.017 C 
ATOM     37  C   UNL     1      22.282  15.592  78.419  1.00  0.00     0.012 C 
ATOM     38  C   UNL     1      21.740  14.834  80.779  1.00  0.00     0.012 C 
ENDBRANCH   9  36
BRANCH   6  39
ATOM     39  C   UNL     1      25.299   9.689  78.967  1.00  0.00     0.264 C 
ATOM     40  O   UNL     1      25.223   8.865  79.917  1.00  0.00    -0.298 OA
ENDBRANCH   6  39
BRANCH   8  41
ATOM     41  O   UNL     1      21.353  12.575  78.958  1.00  0.00    -0.504 OA
ATOM     42  H   UNL     1      20.804  11.955  78.375  1.00  0.00     0.293 HD
ENDBRANCH   8  41
BRANCH   7  43
ATOM     43  O   UNL     1      22.502  10.107  78.683  1.00  0.00    -0.504 OA
ATOM     44  H   UNL     1      22.782   9.315  78.120  1.00  0.00     0.293 HD
ENDBRANCH   7  43
TORSDOF 11
ENDMDL
MODEL 8
REMARK VINA RESULT:    -6.236     14.554     17.010
REMARK INTER + INTRA:         -10.520
REMARK INTER:                  -9.301
REMARK INTRA:                  -1.219
REMARK UNBOUND:                -1.367
REMARK SMILES Cc1cc2c(C(C)C)c(O)c(O)c(C=O)c2c(O)c1-c1c(C)cc2c(C(C)C)c(O)c(O)c(C=O)c2c1O
REMARK SMILES IDX 1 1 2 2 3 3 4 4 16 5 13 6 11 7 9 8 5 9 17 10 19 11 20 12
REMARK SMILES IDX 37 13 21 14 36 15 23 16 22 17 24 18 33 19 25 20 31 21 29 22
REMARK SMILES IDX 38 23 34 25 35 26 26 27 27 28 28 29 32 30 30 32 18 34 6 36
REMARK SMILES IDX 7 37 8 38 14 39 15 40 10 41 12 43
REMARK H PARENT 38 24 32 31 30 33 18 35 10 42 12 44
REMARK Flexibility Score: inf
ROOT
ATOM      1  C   UNL     1      28.996  15.867  78.074  1.00  0.00     0.045 C 
ATOM      2  C   UNL     1      28.095  14.674  78.281  1.00  0.00    -0.039 A 
ATOM      3  C   UNL     1      26.815  14.674  77.725  1.00  0.00     0.013 A 
ATOM      4  C   UNL     1      25.929  13.589  77.893  1.00  0.00    -0.006 A 
ATOM      5  C   UNL     1      26.405  12.409  78.542  1.00  0.00     0.039 A 
ATOM      6  C   UNL     1      25.586  11.240  78.532  1.00  0.00     0.072 A 
ATOM      7  C   UNL     1      24.338  11.264  77.876  1.00  0.00     0.169 A 
ATOM      8  C   UNL     1      23.846  12.451  77.323  1.00  0.00     0.162 A 
ATOM      9  C   UNL     1      24.589  13.648  77.404  1.00  0.00     0.008 A 
ATOM     10  C   UNL     1      27.678  12.448  79.189  1.00  0.00     0.132 A 
ATOM     11  C   UNL     1      28.519  13.571  79.042  1.00  0.00     0.031 A 
ENDROOT
BRANCH  11  12
ATOM     12  C   UNL     1      29.865  13.588  79.673  1.00  0.00     0.031 A 
ATOM     13  C   UNL     1      31.014  13.311  78.904  1.00  0.00     0.132 A 
ATOM     14  C   UNL     1      29.990  13.868  81.043  1.00  0.00    -0.039 A 
ATOM     15  C   UNL     1      32.297  13.248  79.523  1.00  0.00     0.039 A 
ATOM     16  C   UNL     1      31.260  13.935  81.618  1.00  0.00     0.013 A 
ATOM     17  C   UNL     1      28.775  14.150  81.894  1.00  0.00     0.045 C 
ATOM     18  C   UNL     1      32.433  13.679  80.878  1.00  0.00    -0.006 A 
ATOM     19  C   UNL     1      33.451  12.794  78.820  1.00  0.00     0.072 A 
ATOM     20  C   UNL     1      33.735  13.837  81.453  1.00  0.00     0.008 A 
ATOM     21  C   UNL     1      34.721  12.895  79.417  1.00  0.00     0.169 A 
ATOM     22  C   UNL     1      34.860  13.419  80.706  1.00  0.00     0.162 A 
BRANCH  13  23
ATOM     23  O   UNL     1      30.889  13.145  77.520  1.00  0.00    -0.507 OA
ATOM     24  H   UNL     1      31.430  13.663  76.840  1.00  0.00     0.293 HD
ENDBRANCH  13  23
BRANCH  19  25
ATOM     25  C   UNL     1      33.356  12.107  77.513  1.00  0.00     0.264 C 
ATOM     26  O   UNL     1      33.743  12.681  76.461  1.00  0.00    -0.298 OA
ENDBRANCH  19  25
BRANCH  20  27
ATOM     27  C   UNL     1      33.991  14.449  82.845  1.00  0.00     0.017 C 
ATOM     28  C   UNL     1      33.516  13.525  83.977  1.00  0.00     0.012 C 
ATOM     29  C   UNL     1      33.499  15.903  83.002  1.00  0.00     0.012 C 
ENDBRANCH  20  27
BRANCH  21  30
ATOM     30  O   UNL     1      35.876  12.456  78.758  1.00  0.00    -0.504 OA
ATOM     31  H   UNL     1      36.375  12.997  78.065  1.00  0.00     0.293 HD
ENDBRANCH  21  30
BRANCH  22  32
ATOM     32  O   UNL     1      36.139  13.508  81.268  1.00  0.00    -0.504 OA
ATOM     33  H   UNL     1      36.708  12.697  81.480  1.00  0.00     0.293 HD
ENDBRANCH  22  32
ENDBRANCH  11  12
BRANCH  10  34
ATOM     34  O   UNL     1      28.093  11.384  79.999  1.00  0.00    -0.507 OA
ATOM     35  H   UNL     1      28.818  10.727  79.740  1.00  0.00     0.293 HD
ENDBRANCH  10  34
BRANCH   9  36
ATOM     36  C   UNL     1      23.953  14.975  76.949  1.00  0.00     0.017 C 
ATOM     37  C   UNL     1      23.625  14.939  75.452  1.00  0.00     0.012 C 
ATOM     38  C   UNL     1      22.727  15.397  77.781  1.00  0.00     0.012 C 
ENDBRANCH   9  36
BRANCH   6  39
ATOM     39  C   UNL     1      26.043   9.961  79.113  1.00  0.00     0.264 C 
ATOM     40  O   UNL     1      25.461   9.469  80.117  1.00  0.00    -0.298 OA
ENDBRANCH   6  39
BRANCH   8  41
ATOM     41  O   UNL     1      22.615  12.439  76.663  1.00  0.00    -0.504 OA
ATOM     42  H   UNL     1      22.088  11.592  76.491  1.00  0.00     0.293 HD
ENDBRANCH   8  41
BRANCH   7  43
ATOM     43  O   UNL     1      23.563  10.106  77.733  1.00  0.00    -0.504 OA
ATOM     44  H   UNL     1      22.640  10.090  77.318  1.00  0.00     0.293 HD
ENDBRANCH   7  43
TORSDOF 11
ENDMDL
MODEL 9
REMARK VINA RESULT:    -6.166     14.267     16.767
REMARK INTER + INTRA:         -10.417
REMARK INTER:                  -9.296
REMARK INTRA:                  -1.121
REMARK UNBOUND:                -1.367
REMARK SMILES Cc1cc2c(C(C)C)c(O)c(O)c(C=O)c2c(O)c1-c1c(C)cc2c(C(C)C)c(O)c(O)c(C=O)c2c1O
REMARK SMILES IDX 1 1 2 2 3 3 4 4 16 5 13 6 11 7 9 8 5 9 17 10 19 11 20 12
REMARK SMILES IDX 37 13 21 14 36 15 23 16 22 17 24 18 33 19 25 20 31 21 29 22
REMARK SMILES IDX 38 23 34 25 35 26 26 27 27 28 28 29 32 30 30 32 18 34 6 36
REMARK SMILES IDX 7 37 8 38 14 39 15 40 10 41 12 43
REMARK H PARENT 38 24 32 31 30 33 18 35 10 42 12 44
REMARK Flexibility Score: inf
ROOT
ATOM      1  C   UNL     1      30.711  14.154  77.410  1.00  0.00     0.045 C 
ATOM      2  C   UNL     1      29.479  13.738  78.177  1.00  0.00    -0.039 A 
ATOM      3  C   UNL     1      28.248  13.684  77.521  1.00  0.00     0.013 A 
ATOM      4  C   UNL     1      27.063  13.309  78.190  1.00  0.00    -0.006 A 
ATOM      5  C   UNL     1      27.153  12.853  79.540  1.00  0.00     0.039 A 
ATOM      6  C   UNL     1      25.997  12.281  80.152  1.00  0.00     0.072 A 
ATOM      7  C   UNL     1      24.800  12.163  79.416  1.00  0.00     0.169 A 
ATOM      8  C   UNL     1      24.701  12.697  78.126  1.00  0.00     0.162 A 
ATOM      9  C   UNL     1      25.797  13.357  77.531  1.00  0.00     0.008 A 
ATOM     10  C   UNL     1      28.394  12.999  80.232  1.00  0.00     0.132 A 
ATOM     11  C   UNL     1      29.550  13.424  79.544  1.00  0.00     0.031 A 
ENDROOT
BRANCH  11  12
ATOM     12  C   UNL     1      30.851  13.526  80.255  1.00  0.00     0.031 A 
ATOM     13  C   UNL     1      31.787  12.475  80.176  1.00  0.00     0.132 A 
ATOM     14  C   UNL     1      31.144  14.668  81.017  1.00  0.00    -0.039 A 
ATOM     15  C   UNL     1      33.002  12.534  80.921  1.00  0.00     0.039 A 
ATOM     16  C   UNL     1      32.388  14.780  81.638  1.00  0.00     0.013 A 
ATOM     17  C   UNL     1      30.152  15.800  81.134  1.00  0.00     0.045 C 
ATOM     18  C   UNL     1      33.356  13.756  81.569  1.00  0.00    -0.006 A 
ATOM     19  C   UNL     1      33.885  11.419  81.011  1.00  0.00     0.072 A 
ATOM     20  C   UNL     1      34.662  13.916  82.134  1.00  0.00     0.008 A 
ATOM     21  C   UNL     1      35.143  11.568  81.624  1.00  0.00     0.169 A 
ATOM     22  C   UNL     1      35.529  12.800  82.163  1.00  0.00     0.162 A 
BRANCH  13  23
ATOM     23  O   UNL     1      31.534  11.393  79.324  1.00  0.00    -0.507 OA
ATOM     24  H   UNL     1      32.228  10.702  79.071  1.00  0.00     0.293 HD
ENDBRANCH  13  23
BRANCH  19  25
ATOM     25  C   UNL     1      33.484  10.060  80.583  1.00  0.00     0.264 C 
ATOM     26  O   UNL     1      34.095   9.480  79.648  1.00  0.00    -0.298 OA
ENDBRANCH  19  25
BRANCH  20  27
ATOM     27  C   UNL     1      35.193  15.245  82.708  1.00  0.00     0.017 C 
ATOM     28  C   UNL     1      36.110  15.976  81.716  1.00  0.00     0.012 C 
ATOM     29  C   UNL     1      35.798  15.131  84.123  1.00  0.00     0.012 C 
ENDBRANCH  20  27
BRANCH  21  30
ATOM     30  O   UNL     1      36.035  10.494  81.735  1.00  0.00    -0.504 OA
ATOM     31  H   UNL     1      36.534  10.256  82.582  1.00  0.00     0.293 HD
ENDBRANCH  21  30
BRANCH  22  32
ATOM     32  O   UNL     1      36.789  12.913  82.762  1.00  0.00    -0.504 OA
ATOM     33  H   UNL     1      36.920  13.028  83.760  1.00  0.00     0.293 HD
ENDBRANCH  22  32
ENDBRANCH  11  12
BRANCH  10  34
ATOM     34  O   UNL     1      28.471  12.747  81.608  1.00  0.00    -0.507 OA
ATOM     35  H   UNL     1      27.832  12.142  82.108  1.00  0.00     0.293 HD
ENDBRANCH  10  34
BRANCH   9  36
ATOM     36  C   UNL     1      25.612  14.089  76.189  1.00  0.00     0.017 C 
ATOM     37  C   UNL     1      25.449  13.089  75.039  1.00  0.00     0.012 C 
ATOM     38  C   UNL     1      24.473  15.125  76.196  1.00  0.00     0.012 C 
ENDBRANCH   9  36
BRANCH   6  39
ATOM     39  C   UNL     1      26.034  11.715  81.516  1.00  0.00     0.264 C 
ATOM     40  O   UNL     1      25.450  12.299  82.468  1.00  0.00    -0.298 OA
ENDBRANCH   6  39
BRANCH   8  41
ATOM     41  O   UNL     1      23.508  12.548  77.415  1.00  0.00    -0.504 OA
ATOM     42  H   UNL     1      23.457  12.104  76.507  1.00  0.00     0.293 HD
ENDBRANCH   8  41
BRANCH   7  43
ATOM     43  O   UNL     1      23.684  11.494  79.933  1.00  0.00    -0.504 OA
ATOM     44  H   UNL     1      22.859  11.960  80.290  1.00  0.00     0.293 HD
ENDBRANCH   7  43
TORSDOF 11
ENDMDL
