MODEL 1
REMARK VINA RESULT:    -4.881      0.000      0.000
REMARK INTER + INTRA:          -5.643
REMARK INTER:                  -5.595
REMARK INTRA:                  -0.048
REMARK UNBOUND:                -0.048
REMARK SMILES O=C([O-])c1cc(O)c(O)c(O)c1
REMARK SMILES IDX 4 1 5 2 12 3 6 4 10 5 8 6 2 7 1 8 3 9 7 10 11 12 9 14
REMARK H PARENT 7 11 11 13 9 15
REMARK Flexibility Score: inf
ROOT
ATOM      1  C   UNL     1       8.102  -7.292  -7.078  1.00  0.00     0.005 A 
ATOM      2  C   UNL     1       7.590  -8.138  -6.080  1.00  0.00     0.060 A 
ATOM      3  C   UNL     1       8.525  -5.999  -6.726  1.00  0.00     0.060 A 
ATOM      4  C   UNL     1       7.503  -7.703  -4.750  1.00  0.00     0.162 A 
ATOM      5  C   UNL     1       8.440  -5.557  -5.401  1.00  0.00     0.162 A 
ATOM      6  C   UNL     1       7.929  -6.408  -4.407  1.00  0.00     0.200 A 
ENDROOT
BRANCH   1   7
ATOM      7  C   UNL     1       8.195  -7.751  -8.482  1.00  0.00     0.072 C 
ATOM      8  O   UNL     1       8.639  -8.898  -8.753  1.00  0.00    -0.545 OA
ATOM      9  O   UNL     1       7.794  -6.922  -9.523  1.00  0.00    -0.545 OA
ENDBRANCH   1   7
BRANCH   4  10
ATOM     10  O   UNL     1       6.994  -8.552  -3.769  1.00  0.00    -0.504 OA
ATOM     11  H   UNL     1       6.796  -9.527  -3.961  1.00  0.00     0.293 HD
ENDBRANCH   4  10
BRANCH   5  12
ATOM     12  O   UNL     1       8.871  -4.267  -5.092  1.00  0.00    -0.504 OA
ATOM     13  H   UNL     1       9.518  -3.758  -5.683  1.00  0.00     0.293 HD
ENDBRANCH   5  12
BRANCH   6  14
ATOM     14  O   UNL     1       7.848  -5.958  -3.089  1.00  0.00    -0.502 OA
ATOM     15  H   UNL     1       7.082  -6.213  -2.477  1.00  0.00     0.293 HD
ENDBRANCH   6  14
TORSDOF 4
ENDMDL
MODEL 2
REMARK VINA RESULT:    -4.869      0.064      2.602
REMARK INTER + INTRA:          -5.630
REMARK INTER:                  -5.582
REMARK INTRA:                  -0.048
REMARK UNBOUND:                -0.048
REMARK SMILES O=C([O-])c1cc(O)c(O)c(O)c1
REMARK SMILES IDX 4 1 5 2 12 3 6 4 10 5 8 6 2 7 1 8 3 9 7 10 11 12 9 14
REMARK H PARENT 7 11 11 13 9 15
REMARK Flexibility Score: inf
ROOT
ATOM      1  C   UNL     1       8.071  -7.249  -7.108  1.00  0.00     0.005 A 
ATOM      2  C   UNL     1       8.496  -5.959  -6.748  1.00  0.00     0.060 A 
ATOM      3  C   UNL     1       7.570  -8.105  -6.113  1.00  0.00     0.060 A 
ATOM      4  C   UNL     1       8.422  -5.528  -5.416  1.00  0.00     0.162 A 
ATOM      5  C   UNL     1       7.494  -7.683  -4.781  1.00  0.00     0.162 A 
ATOM      6  C   UNL     1       7.919  -6.391  -4.427  1.00  0.00     0.200 A 
ENDROOT
BRANCH   1   7
ATOM      7  C   UNL     1       8.148  -7.705  -8.514  1.00  0.00     0.072 C 
ATOM      8  O   UNL     1       7.715  -6.979  -9.447  1.00  0.00    -0.545 OA
ATOM      9  O   UNL     1       8.702  -8.942  -8.825  1.00  0.00    -0.545 OA
ENDBRANCH   1   7
BRANCH   4  10
ATOM     10  O   UNL     1       8.846  -4.246  -5.072  1.00  0.00    -0.504 OA
ATOM     11  H   UNL     1       9.451  -3.705  -5.680  1.00  0.00     0.293 HD
ENDBRANCH   4  10
BRANCH   5  12
ATOM     12  O   UNL     1       6.990  -8.562  -3.823  1.00  0.00    -0.504 OA
ATOM     13  H   UNL     1       6.853  -8.287  -2.857  1.00  0.00     0.293 HD
ENDBRANCH   5  12
BRANCH   6  14
ATOM     14  O   UNL     1       7.839  -5.979  -3.096  1.00  0.00    -0.502 OA
ATOM     15  H   UNL     1       7.503  -6.590  -2.361  1.00  0.00     0.293 HD
ENDBRANCH   6  14
TORSDOF 4
ENDMDL
MODEL 3
REMARK VINA RESULT:    -4.841      2.553      3.360
REMARK INTER + INTRA:          -5.597
REMARK INTER:                  -5.550
REMARK INTRA:                  -0.046
REMARK UNBOUND:                -0.048
REMARK SMILES O=C([O-])c1cc(O)c(O)c(O)c1
REMARK SMILES IDX 4 1 5 2 12 3 6 4 10 5 8 6 2 7 1 8 3 9 7 10 11 12 9 14
REMARK H PARENT 7 11 11 13 9 15
REMARK Flexibility Score: inf
ROOT
ATOM      1  C   UNL     1       8.433  -6.946  -9.444  1.00  0.00     0.005 A 
ATOM      2  C   UNL     1       7.704  -6.399  -8.375  1.00  0.00     0.060 A 
ATOM      3  C   UNL     1       9.833  -6.828  -9.446  1.00  0.00     0.060 A 
ATOM      4  C   UNL     1       8.360  -5.744  -7.323  1.00  0.00     0.162 A 
ATOM      5  C   UNL     1      10.496  -6.176  -8.400  1.00  0.00     0.162 A 
ATOM      6  C   UNL     1       9.761  -5.631  -7.334  1.00  0.00     0.200 A 
ENDROOT
BRANCH   1   7
ATOM      7  C   UNL     1       7.742  -7.639 -10.554  1.00  0.00     0.072 C 
ATOM      8  O   UNL     1       7.087  -8.693 -10.342  1.00  0.00    -0.545 OA
ATOM      9  O   UNL     1       7.805  -7.134 -11.848  1.00  0.00    -0.545 OA
ENDBRANCH   1   7
BRANCH   4  10
ATOM     10  O   UNL     1       7.624  -5.205  -6.269  1.00  0.00    -0.504 OA
ATOM     11  H   UNL     1       7.994  -4.463  -5.687  1.00  0.00     0.293 HD
ENDBRANCH   4  10
BRANCH   5  12
ATOM     12  O   UNL     1      11.886  -6.080  -8.439  1.00  0.00    -0.504 OA
ATOM     13  H   UNL     1      12.386  -5.309  -8.011  1.00  0.00     0.293 HD
ENDBRANCH   5  12
BRANCH   6  14
ATOM     14  O   UNL     1      10.430  -4.982  -6.296  1.00  0.00    -0.502 OA
ATOM     15  H   UNL     1       9.994  -4.805  -5.398  1.00  0.00     0.293 HD
ENDBRANCH   6  14
TORSDOF 4
ENDMDL
MODEL 4
REMARK VINA RESULT:    -4.794     18.695     20.332
REMARK INTER + INTRA:          -5.543
REMARK INTER:                  -5.495
REMARK INTRA:                  -0.048
REMARK UNBOUND:                -0.048
REMARK SMILES O=C([O-])c1cc(O)c(O)c(O)c1
REMARK SMILES IDX 4 1 5 2 12 3 6 4 10 5 8 6 2 7 1 8 3 9 7 10 11 12 9 14
REMARK H PARENT 7 11 11 13 9 15
REMARK Flexibility Score: inf
ROOT
ATOM      1  C   UNL     1      21.181   0.630 -20.816  1.00  0.00     0.005 A 
ATOM      2  C   UNL     1      21.749   1.091 -19.616  1.00  0.00     0.060 A 
ATOM      3  C   UNL     1      20.052  -0.204 -20.761  1.00  0.00     0.060 A 
ATOM      4  C   UNL     1      21.199   0.726 -18.379  1.00  0.00     0.162 A 
ATOM      5  C   UNL     1      19.497  -0.573 -19.531  1.00  0.00     0.162 A 
ATOM      6  C   UNL     1      20.069  -0.109 -18.334  1.00  0.00     0.200 A 
ENDROOT
BRANCH   1   7
ATOM      7  C   UNL     1      21.761   1.015 -22.123  1.00  0.00     0.072 C 
ATOM      8  O   UNL     1      22.011   2.222 -22.381  1.00  0.00    -0.545 OA
ATOM      9  O   UNL     1      22.038   0.050 -23.083  1.00  0.00    -0.545 OA
ENDBRANCH   1   7
BRANCH   4  10
ATOM     10  O   UNL     1      21.771   1.190 -17.196  1.00  0.00    -0.504 OA
ATOM     11  H   UNL     1      21.890   0.587 -16.391  1.00  0.00     0.293 HD
ENDBRANCH   4  10
BRANCH   5  12
ATOM     12  O   UNL     1      18.376  -1.402 -19.519  1.00  0.00    -0.504 OA
ATOM     13  H   UNL     1      18.108  -1.935 -18.699  1.00  0.00     0.293 HD
ENDBRANCH   5  12
BRANCH   6  14
ATOM     14  O   UNL     1      19.508  -0.483 -17.112  1.00  0.00    -0.502 OA
ATOM     15  H   UNL     1      19.485  -1.447 -16.801  1.00  0.00     0.293 HD
ENDBRANCH   6  14
TORSDOF 4
ENDMDL
MODEL 5
REMARK VINA RESULT:    -4.789     18.715     20.267
REMARK INTER + INTRA:          -5.537
REMARK INTER:                  -5.490
REMARK INTRA:                  -0.048
REMARK UNBOUND:                -0.048
REMARK SMILES O=C([O-])c1cc(O)c(O)c(O)c1
REMARK SMILES IDX 4 1 5 2 12 3 6 4 10 5 8 6 2 7 1 8 3 9 7 10 11 12 9 14
REMARK H PARENT 7 11 11 13 9 15
REMARK Flexibility Score: inf
ROOT
ATOM      1  C   UNL     1      21.180   0.630 -20.852  1.00  0.00     0.005 A 
ATOM      2  C   UNL     1      20.057  -0.212 -20.807  1.00  0.00     0.060 A 
ATOM      3  C   UNL     1      21.732   1.096 -19.647  1.00  0.00     0.060 A 
ATOM      4  C   UNL     1      19.492  -0.585 -19.578  1.00  0.00     0.162 A 
ATOM      5  C   UNL     1      21.175   0.729 -18.417  1.00  0.00     0.162 A 
ATOM      6  C   UNL     1      20.051  -0.114 -18.378  1.00  0.00     0.200 A 
ENDROOT
BRANCH   1   7
ATOM      7  C   UNL     1      21.778   1.024 -22.147  1.00  0.00     0.072 C 
ATOM      8  O   UNL     1      22.017   2.234 -22.401  1.00  0.00    -0.545 OA
ATOM      9  O   UNL     1      22.084   0.062 -23.104  1.00  0.00    -0.545 OA
ENDBRANCH   1   7
BRANCH   4  10
ATOM     10  O   UNL     1      18.378  -1.422 -19.548  1.00  0.00    -0.504 OA
ATOM     11  H   UNL     1      18.390  -2.306 -19.053  1.00  0.00     0.293 HD
ENDBRANCH   4  10
BRANCH   5  12
ATOM     12  O   UNL     1      21.752   1.213 -17.244  1.00  0.00    -0.504 OA
ATOM     13  H   UNL     1      21.572   2.148 -16.899  1.00  0.00     0.293 HD
ENDBRANCH   5  12
BRANCH   6  14
ATOM     14  O   UNL     1      19.502  -0.474 -17.147  1.00  0.00    -0.502 OA
ATOM     15  H   UNL     1      18.641  -0.068 -16.800  1.00  0.00     0.293 HD
ENDBRANCH   6  14
TORSDOF 4
ENDMDL
MODEL 6
REMARK VINA RESULT:    -4.749      2.314      3.625
REMARK INTER + INTRA:          -5.491
REMARK INTER:                  -5.443
REMARK INTRA:                  -0.048
REMARK UNBOUND:                -0.048
REMARK SMILES O=C([O-])c1cc(O)c(O)c(O)c1
REMARK SMILES IDX 4 1 5 2 12 3 6 4 10 5 8 6 2 7 1 8 3 9 7 10 11 12 9 14
REMARK H PARENT 7 11 11 13 9 15
REMARK Flexibility Score: inf
ROOT
ATOM      1  C   UNL     1       8.472  -7.207  -9.289  1.00  0.00     0.005 A 
ATOM      2  C   UNL     1       9.827  -6.876  -9.463  1.00  0.00     0.060 A 
ATOM      3  C   UNL     1       7.816  -6.799  -8.115  1.00  0.00     0.060 A 
ATOM      4  C   UNL     1      10.517  -6.149  -8.483  1.00  0.00     0.162 A 
ATOM      5  C   UNL     1       8.498  -6.073  -7.132  1.00  0.00     0.162 A 
ATOM      6  C   UNL     1       9.852  -5.746  -7.312  1.00  0.00     0.200 A 
ENDROOT
BRANCH   1   7
ATOM      7  C   UNL     1       7.742  -7.973 -10.323  1.00  0.00     0.072 C 
ATOM      8  O   UNL     1       7.063  -8.986 -10.009  1.00  0.00    -0.545 OA
ATOM      9  O   UNL     1       7.795  -7.585 -11.657  1.00  0.00    -0.545 OA
ENDBRANCH   1   7
BRANCH   4  10
ATOM     10  O   UNL     1      11.860  -5.828  -8.669  1.00  0.00    -0.504 OA
ATOM     11  H   UNL     1      12.580  -6.541  -8.685  1.00  0.00     0.293 HD
ENDBRANCH   4  10
BRANCH   5  12
ATOM     12  O   UNL     1       7.811  -5.687  -5.981  1.00  0.00    -0.504 OA
ATOM     13  H   UNL     1       7.096  -6.267  -5.559  1.00  0.00     0.293 HD
ENDBRANCH   5  12
BRANCH   6  14
ATOM     14  O   UNL     1      10.524  -5.022  -6.326  1.00  0.00    -0.502 OA
ATOM     15  H   UNL     1      10.783  -5.433  -5.436  1.00  0.00     0.293 HD
ENDBRANCH   6  14
TORSDOF 4
ENDMDL
MODEL 7
REMARK VINA RESULT:    -4.432      3.092      3.785
REMARK INTER + INTRA:          -5.128
REMARK INTER:                  -5.075
REMARK INTRA:                  -0.053
REMARK UNBOUND:                -0.048
REMARK SMILES O=C([O-])c1cc(O)c(O)c(O)c1
REMARK SMILES IDX 4 1 5 2 12 3 6 4 10 5 8 6 2 7 1 8 3 9 7 10 11 12 9 14
REMARK H PARENT 7 11 11 13 9 15
REMARK Flexibility Score: inf
ROOT
ATOM      1  C   UNL     1       8.728  -6.020 -10.146  1.00  0.00     0.005 A 
ATOM      2  C   UNL     1       7.522  -5.437  -9.720  1.00  0.00     0.060 A 
ATOM      3  C   UNL     1       9.787  -6.144  -9.231  1.00  0.00     0.060 A 
ATOM      4  C   UNL     1       7.374  -4.985  -8.401  1.00  0.00     0.162 A 
ATOM      5  C   UNL     1       9.647  -5.695  -7.913  1.00  0.00     0.162 A 
ATOM      6  C   UNL     1       8.439  -5.114  -7.493  1.00  0.00     0.200 A 
ENDROOT
BRANCH   1   7
ATOM      7  C   UNL     1       8.885  -6.497 -11.538  1.00  0.00     0.072 C 
ATOM      8  O   UNL     1       9.941  -7.080 -11.900  1.00  0.00    -0.545 OA
ATOM      9  O   UNL     1       7.867  -6.311 -12.467  1.00  0.00    -0.545 OA
ENDBRANCH   1   7
BRANCH   4  10
ATOM     10  O   UNL     1       6.173  -4.409  -7.991  1.00  0.00    -0.504 OA
ATOM     11  H   UNL     1       5.429  -4.964  -7.585  1.00  0.00     0.293 HD
ENDBRANCH   4  10
BRANCH   5  12
ATOM     12  O   UNL     1      10.721  -5.837  -7.036  1.00  0.00    -0.504 OA
ATOM     13  H   UNL     1      10.898  -6.699  -6.534  1.00  0.00     0.293 HD
ENDBRANCH   5  12
BRANCH   6  14
ATOM     14  O   UNL     1       8.309  -4.669  -6.176  1.00  0.00    -0.502 OA
ATOM     15  H   UNL     1       9.056  -4.182  -5.695  1.00  0.00     0.293 HD
ENDBRANCH   6  14
TORSDOF 4
ENDMDL
MODEL 8
REMARK VINA RESULT:    -4.385      3.452      6.586
REMARK INTER + INTRA:          -5.074
REMARK INTER:                  -5.028
REMARK INTRA:                  -0.046
REMARK UNBOUND:                -0.048
REMARK SMILES O=C([O-])c1cc(O)c(O)c(O)c1
REMARK SMILES IDX 4 1 5 2 12 3 6 4 10 5 8 6 2 7 1 8 3 9 7 10 11 12 9 14
REMARK H PARENT 7 11 11 13 9 15
REMARK Flexibility Score: inf
ROOT
ATOM      1  C   UNL     1       8.858  -6.243  -9.882  1.00  0.00     0.005 A 
ATOM      2  C   UNL     1       8.240  -5.013 -10.164  1.00  0.00     0.060 A 
ATOM      3  C   UNL     1       8.979  -7.196 -10.907  1.00  0.00     0.060 A 
ATOM      4  C   UNL     1       7.750  -4.737 -11.449  1.00  0.00     0.162 A 
ATOM      5  C   UNL     1       8.492  -6.929 -12.191  1.00  0.00     0.162 A 
ATOM      6  C   UNL     1       7.875  -5.697 -12.467  1.00  0.00     0.200 A 
ENDROOT
BRANCH   1   7
ATOM      7  C   UNL     1       9.377  -6.534  -8.527  1.00  0.00     0.072 C 
ATOM      8  O   UNL     1       8.894  -7.477  -7.846  1.00  0.00    -0.545 OA
ATOM      9  O   UNL     1      10.405  -5.772  -7.987  1.00  0.00    -0.545 OA
ENDBRANCH   1   7
BRANCH   4  10
ATOM     10  O   UNL     1       7.138  -3.513 -11.715  1.00  0.00    -0.504 OA
ATOM     11  H   UNL     1       7.144  -3.107 -12.643  1.00  0.00     0.293 HD
ENDBRANCH   4  10
BRANCH   5  12
ATOM     12  O   UNL     1       8.631  -7.902 -13.181  1.00  0.00    -0.504 OA
ATOM     13  H   UNL     1       7.867  -8.161 -13.794  1.00  0.00     0.293 HD
ENDBRANCH   5  12
BRANCH   6  14
ATOM     14  O   UNL     1       7.392  -5.440 -13.751  1.00  0.00    -0.502 OA
ATOM     15  H   UNL     1       7.513  -6.095 -14.515  1.00  0.00     0.293 HD
ENDBRANCH   6  14
TORSDOF 4
ENDMDL
MODEL 9
REMARK VINA RESULT:    -4.368      3.127      4.566
REMARK INTER + INTRA:          -5.055
REMARK INTER:                  -5.003
REMARK INTRA:                  -0.052
REMARK UNBOUND:                -0.048
REMARK SMILES O=C([O-])c1cc(O)c(O)c(O)c1
REMARK SMILES IDX 4 1 5 2 12 3 6 4 10 5 8 6 2 7 1 8 3 9 7 10 11 12 9 14
REMARK H PARENT 7 11 11 13 9 15
REMARK Flexibility Score: inf
ROOT
ATOM      1  C   UNL     1      10.877  -6.905  -9.906  1.00  0.00     0.005 A 
ATOM      2  C   UNL     1      11.210  -6.156  -8.765  1.00  0.00     0.060 A 
ATOM      3  C   UNL     1       9.592  -7.465 -10.003  1.00  0.00     0.060 A 
ATOM      4  C   UNL     1      10.277  -5.968  -7.736  1.00  0.00     0.162 A 
ATOM      5  C   UNL     1       8.655  -7.282  -8.980  1.00  0.00     0.162 A 
ATOM      6  C   UNL     1       8.994  -6.532  -7.842  1.00  0.00     0.200 A 
ENDROOT
BRANCH   1   7
ATOM      7  C   UNL     1      11.861  -7.105 -10.993  1.00  0.00     0.072 C 
ATOM      8  O   UNL     1      11.657  -7.962 -11.892  1.00  0.00    -0.545 OA
ATOM      9  O   UNL     1      13.026  -6.347 -11.037  1.00  0.00    -0.545 OA
ENDBRANCH   1   7
BRANCH   4  10
ATOM     10  O   UNL     1      10.620  -5.222  -6.609  1.00  0.00    -0.504 OA
ATOM     11  H   UNL     1       9.966  -4.583  -6.175  1.00  0.00     0.293 HD
ENDBRANCH   4  10
BRANCH   5  12
ATOM     12  O   UNL     1       7.390  -7.854  -9.114  1.00  0.00    -0.504 OA
ATOM     13  H   UNL     1       7.255  -8.780  -9.502  1.00  0.00     0.293 HD
ENDBRANCH   5  12
BRANCH   6  14
ATOM     14  O   UNL     1       8.052  -6.354  -6.827  1.00  0.00    -0.502 OA
ATOM     15  H   UNL     1       7.775  -5.435  -6.502  1.00  0.00     0.293 HD
ENDBRANCH   6  14
TORSDOF 4
ENDMDL
