MODEL 1
REMARK VINA RESULT:    -3.519      0.000      0.000
REMARK INTER + INTRA:          -5.133
REMARK INTER:                  -5.370
REMARK INTRA:                   0.237
REMARK UNBOUND:                 0.237
REMARK SMILES CC1=CCC[C@@H](C)C(=O)C[C@H](C(C)C)C(=O)C1
REMARK SMILES IDX 8 1 9 2 6 3 7 4 5 5 4 6 3 7 2 8 1 9 10 11 11 12 15 13 16 14
REMARK SMILES IDX 17 15 12 17 13 18 14 19
REMARK H PARENT
REMARK Flexibility Score: 70.00
ROOT
ATOM      1  C   UNL     1      -9.430   4.327 -17.934  1.00  0.00     0.136 C 
ATOM      2  O   UNL     1      -9.601   3.973 -16.775  1.00  0.00    -0.299 OA
ENDROOT
BRANCH   1   3
ATOM      3  C   UNL     1      -8.151   3.956 -18.663  1.00  0.00     0.053 C 
ATOM      4  C   UNL     1      -8.118   4.507 -20.098  1.00  0.00     0.016 C 
BRANCH   3   5
ATOM      5  C   UNL     1      -7.902   2.434 -18.630  1.00  0.00     0.015 C 
BRANCH   5   6
ATOM      6  C   UNL     1      -8.762   1.636 -19.632  1.00  0.00     0.028 C 
BRANCH   6   7
ATOM      7  C   UNL     1      -9.655   0.651 -18.922  1.00  0.00    -0.028 C 
ATOM      8  C   UNL     1     -11.008   0.696 -18.924  1.00  0.00    -0.070 CG0
ATOM      9  C   UNL     1     -11.752  -0.345 -18.126  1.00  0.00     0.039 C 
ATOM     10  G   UNL     1     -11.805   1.737 -19.696  1.00  0.00     0.000 G0
ENDBRANCH   6   7
ENDBRANCH   5   6
ENDBRANCH   3   5
ENDBRANCH   1   3
BRANCH   1  11
ATOM     11  C   UNL     1     -10.508   5.134 -18.618  1.00  0.00     0.087 C 
BRANCH  11  12
ATOM     12  C   UNL     1     -11.282   4.297 -19.672  1.00  0.00     0.066 C 
BRANCH  12  13
ATOM     13  C   UNL     1     -11.865   3.060 -19.007  1.00  0.00     0.140 C 
ATOM     14  O   UNL     1     -12.461   3.174 -17.943  1.00  0.00    -0.299 OA
BRANCH  13  15
ATOM     15  C   UNL     1     -11.812   1.720 -19.696  1.00  0.00     0.106 CG0
ATOM     16  G   UNL     1     -11.007   0.692 -18.914  1.00  0.00     0.000 G0
ENDBRANCH  13  15
ENDBRANCH  12  13
BRANCH  12  17
ATOM     17  C   UNL     1     -12.405   5.118 -20.385  1.00  0.00    -0.006 C 
ATOM     18  C   UNL     1     -12.062   5.361 -21.868  1.00  0.00     0.008 C 
ATOM     19  C   UNL     1     -12.658   6.479 -19.709  1.00  0.00     0.008 C 
ENDBRANCH  12  17
ENDBRANCH  11  12
ENDBRANCH   1  11
TORSDOF 1
ENDMDL
MODEL 2
REMARK VINA RESULT:    -3.127      1.889      4.020
REMARK INTER + INTRA:          -4.536
REMARK INTER:                  -5.334
REMARK INTRA:                   0.798
REMARK UNBOUND:                 0.237
REMARK SMILES CC1=CCC[C@@H](C)C(=O)C[C@H](C(C)C)C(=O)C1
REMARK SMILES IDX 8 1 9 2 6 3 7 4 5 5 4 6 3 7 2 8 1 9 10 11 11 12 15 13 16 14
REMARK SMILES IDX 17 15 12 17 13 18 14 19
REMARK H PARENT
REMARK Flexibility Score: 70.00
ROOT
ATOM      1  C   UNL     1      -8.702   1.588 -19.217  1.00  0.00     0.136 C 
ATOM      2  O   UNL     1      -7.849   0.878 -18.703  1.00  0.00    -0.299 OA
ENDROOT
BRANCH   1   3
ATOM      3  C   UNL     1      -8.697   3.087 -18.972  1.00  0.00     0.053 C 
ATOM      4  C   UNL     1      -7.803   3.837 -19.972  1.00  0.00     0.016 C 
BRANCH   3   5
ATOM      5  C   UNL     1      -8.326   3.420 -17.512  1.00  0.00     0.015 C 
BRANCH   5   6
ATOM      6  C   UNL     1      -9.536   3.778 -16.625  1.00  0.00     0.028 C 
BRANCH   6   7
ATOM      7  C   UNL     1     -10.417   4.804 -17.292  1.00  0.00    -0.028 C 
ATOM      8  C   UNL     1     -11.542   4.518 -17.989  1.00  0.00    -0.070 CG0
ATOM      9  C   UNL     1     -12.287   5.662 -18.630  1.00  0.00     0.039 C 
ATOM     10  G   UNL     1     -12.088   3.107 -18.146  1.00  0.00     0.000 G0
ENDBRANCH   6   7
ENDBRANCH   5   6
ENDBRANCH   3   5
ENDBRANCH   1   3
BRANCH   1  11
ATOM     11  C   UNL     1      -9.753   0.949 -20.094  1.00  0.00     0.087 C 
BRANCH  11  12
ATOM     12  C   UNL     1     -11.166   1.021 -19.457  1.00  0.00     0.066 C 
BRANCH  12  13
ATOM     13  C   UNL     1     -11.641   2.465 -19.442  1.00  0.00     0.140 C 
ATOM     14  O   UNL     1     -11.742   3.076 -20.498  1.00  0.00    -0.299 OA
BRANCH  13  15
ATOM     15  C   UNL     1     -12.093   3.114 -18.157  1.00  0.00     0.106 CG0
ATOM     16  G   UNL     1     -11.541   4.521 -17.988  1.00  0.00     0.000 G0
ENDBRANCH  13  15
ENDBRANCH  12  13
BRANCH  12  17
ATOM     17  C   UNL     1     -12.204   0.109 -20.188  1.00  0.00    -0.006 C 
ATOM     18  C   UNL     1     -13.353  -0.296 -19.244  1.00  0.00     0.008 C 
ATOM     19  C   UNL     1     -11.562  -1.170 -20.759  1.00  0.00     0.008 C 
ENDBRANCH  12  17
ENDBRANCH  11  12
ENDBRANCH   1  11
TORSDOF 1
ENDMDL
MODEL 3
REMARK VINA RESULT:    -2.936      1.815      3.431
REMARK INTER + INTRA:          -4.243
REMARK INTER:                  -6.099
REMARK INTRA:                   1.856
REMARK UNBOUND:                 0.237
REMARK SMILES CC1=CCC[C@@H](C)C(=O)C[C@H](C(C)C)C(=O)C1
REMARK SMILES IDX 8 1 9 2 6 3 7 4 5 5 4 6 3 7 2 8 1 9 10 11 11 12 15 13 16 14
REMARK SMILES IDX 17 15 12 17 13 18 14 19
REMARK H PARENT
REMARK Flexibility Score: 70.00
ROOT
ATOM      1  C   UNL     1     -11.495   4.618 -18.735  1.00  0.00     0.136 C 
ATOM      2  O   UNL     1     -11.842   5.778 -18.912  1.00  0.00    -0.299 OA
ENDROOT
BRANCH   1   3
ATOM      3  C   UNL     1     -11.711   3.954 -17.387  1.00  0.00     0.053 C 
ATOM      4  C   UNL     1     -10.399   3.780 -16.606  1.00  0.00     0.016 C 
BRANCH   3   5
ATOM      5  C   UNL     1     -12.472   2.620 -17.530  1.00  0.00     0.015 C 
BRANCH   5   6
ATOM      6  C   UNL     1     -11.582   1.370 -17.363  1.00  0.00     0.028 C 
BRANCH   6   7
ATOM      7  C   UNL     1     -12.165   0.184 -18.088  1.00  0.00    -0.028 C 
ATOM      8  C   UNL     1     -12.220   0.054 -19.435  1.00  0.00    -0.070 CG0
ATOM      9  C   UNL     1     -12.876  -1.181 -20.000  1.00  0.00     0.039 C 
ATOM     10  G   UNL     1     -11.647   1.085 -20.395  1.00  0.00     0.000 G0
ENDBRANCH   6   7
ENDBRANCH   5   6
ENDBRANCH   3   5
ENDBRANCH   1   3
BRANCH   1  11
ATOM     11  C   UNL     1     -10.850   3.866 -19.876  1.00  0.00     0.087 C 
BRANCH  11  12
ATOM     12  C   UNL     1      -9.884   2.761 -19.374  1.00  0.00     0.066 C 
BRANCH  12  13
ATOM     13  C   UNL     1     -10.209   1.449 -20.070  1.00  0.00     0.140 C 
ATOM     14  O   UNL     1      -9.311   0.647 -20.291  1.00  0.00    -0.299 OA
BRANCH  13  15
ATOM     15  C   UNL     1     -11.636   1.081 -20.390  1.00  0.00     0.106 CG0
ATOM     16  G   UNL     1     -12.208   0.060 -19.419  1.00  0.00     0.000 G0
ENDBRANCH  13  15
ENDBRANCH  12  13
BRANCH  12  17
ATOM     17  C   UNL     1      -8.380   3.135 -19.584  1.00  0.00    -0.006 C 
ATOM     18  C   UNL     1      -7.553   2.851 -18.314  1.00  0.00     0.008 C 
ATOM     19  C   UNL     1      -8.192   4.614 -19.972  1.00  0.00     0.008 C 
ENDBRANCH  12  17
ENDBRANCH  11  12
ENDBRANCH   1  11
TORSDOF 1
ENDMDL
MODEL 4
REMARK VINA RESULT:    -2.829      1.633      2.060
REMARK INTER + INTRA:          -4.080
REMARK INTER:                  -5.510
REMARK INTRA:                   1.430
REMARK UNBOUND:                 0.237
REMARK SMILES CC1=CCC[C@@H](C)C(=O)C[C@H](C(C)C)C(=O)C1
REMARK SMILES IDX 8 1 9 2 6 3 7 4 5 5 4 6 3 7 2 8 1 9 10 11 11 12 15 13 16 14
REMARK SMILES IDX 17 15 12 17 13 18 14 19
REMARK H PARENT
REMARK Flexibility Score: 70.00
ROOT
ATOM      1  C   UNL     1      -8.778   4.604 -19.330  1.00  0.00     0.136 C 
ATOM      2  O   UNL     1      -8.143   5.002 -20.297  1.00  0.00    -0.299 OA
ENDROOT
BRANCH   1   3
ATOM      3  C   UNL     1      -8.079   3.845 -18.217  1.00  0.00     0.053 C 
ATOM      4  C   UNL     1      -7.960   2.343 -18.521  1.00  0.00     0.016 C 
BRANCH   3   5
ATOM      5  C   UNL     1      -8.748   4.100 -16.851  1.00  0.00     0.015 C 
BRANCH   5   6
ATOM      6  C   UNL     1     -10.275   3.880 -16.851  1.00  0.00     0.028 C 
BRANCH   6   7
ATOM      7  C   UNL     1     -10.615   2.413 -16.781  1.00  0.00    -0.028 C 
ATOM      8  C   UNL     1     -11.500   1.786 -17.591  1.00  0.00    -0.070 CG0
ATOM      9  C   UNL     1     -11.756   0.318 -17.360  1.00  0.00     0.039 C 
ATOM     10  G   UNL     1     -12.236   2.490 -18.722  1.00  0.00     0.000 G0
ENDBRANCH   6   7
ENDBRANCH   5   6
ENDBRANCH   3   5
ENDBRANCH   1   3
BRANCH   1  11
ATOM     11  C   UNL     1     -10.262   4.881 -19.267  1.00  0.00     0.087 C 
BRANCH  11  12
ATOM     12  C   UNL     1     -11.042   4.139 -20.384  1.00  0.00     0.066 C 
BRANCH  12  13
ATOM     13  C   UNL     1     -11.363   2.726 -19.925  1.00  0.00     0.140 C 
ATOM     14  O   UNL     1     -10.839   1.775 -20.490  1.00  0.00    -0.299 OA
BRANCH  13  15
ATOM     15  C   UNL     1     -12.232   2.490 -18.714  1.00  0.00     0.106 CG0
ATOM     16  G   UNL     1     -11.493   1.767 -17.597  1.00  0.00     0.000 G0
ENDBRANCH  13  15
ENDBRANCH  12  13
BRANCH  12  17
ATOM     17  C   UNL     1     -12.347   4.888 -20.808  1.00  0.00    -0.006 C 
ATOM     18  C   UNL     1     -12.237   5.428 -22.248  1.00  0.00     0.008 C 
ATOM     19  C   UNL     1     -12.681   6.062 -19.868  1.00  0.00     0.008 C 
ENDBRANCH  12  17
ENDBRANCH  11  12
ENDBRANCH   1  11
TORSDOF 1
ENDMDL
MODEL 5
REMARK VINA RESULT:    -2.742      2.141      4.051
REMARK INTER + INTRA:          -3.948
REMARK INTER:                  -4.773
REMARK INTRA:                   0.825
REMARK UNBOUND:                 0.237
REMARK SMILES CC1=CCC[C@@H](C)C(=O)C[C@H](C(C)C)C(=O)C1
REMARK SMILES IDX 8 1 9 2 6 3 7 4 5 5 4 6 3 7 2 8 1 9 10 11 11 12 15 13 16 14
REMARK SMILES IDX 17 15 12 17 13 18 14 19
REMARK H PARENT
REMARK Flexibility Score: 70.00
ROOT
ATOM      1  C   UNL     1     -12.114   0.530 -18.251  1.00  0.00     0.136 C 
ATOM      2  O   UNL     1     -11.682  -0.247 -17.411  1.00  0.00    -0.299 OA
ENDROOT
BRANCH   1   3
ATOM      3  C   UNL     1     -12.439   0.038 -19.650  1.00  0.00     0.053 C 
ATOM      4  C   UNL     1     -13.658  -0.898 -19.670  1.00  0.00     0.016 C 
BRANCH   3   5
ATOM      5  C   UNL     1     -11.210  -0.610 -20.321  1.00  0.00     0.015 C 
BRANCH   5   6
ATOM      6  C   UNL     1     -10.151   0.405 -20.800  1.00  0.00     0.028 C 
BRANCH   6   7
ATOM      7  C   UNL     1      -9.065   0.588 -19.770  1.00  0.00    -0.028 C 
ATOM      8  C   UNL     1      -8.647   1.785 -19.295  1.00  0.00    -0.070 CG0
ATOM      9  C   UNL     1      -7.519   1.794 -18.294  1.00  0.00     0.039 C 
ATOM     10  G   UNL     1      -9.266   3.109 -19.715  1.00  0.00     0.000 G0
ENDBRANCH   6   7
ENDBRANCH   5   6
ENDBRANCH   3   5
ENDBRANCH   1   3
BRANCH   1  11
ATOM     11  C   UNL     1     -12.317   1.978 -17.871  1.00  0.00     0.087 C 
BRANCH  11  12
ATOM     12  C   UNL     1     -10.973   2.747 -17.767  1.00  0.00     0.066 C 
BRANCH  12  13
ATOM     13  C   UNL     1     -10.622   3.340 -19.122  1.00  0.00     0.140 C 
ATOM     14  O   UNL     1     -11.420   4.082 -19.678  1.00  0.00    -0.299 OA
BRANCH  13  15
ATOM     15  C   UNL     1      -9.262   3.111 -19.732  1.00  0.00     0.106 CG0
ATOM     16  G   UNL     1      -8.636   1.797 -19.290  1.00  0.00     0.000 G0
ENDBRANCH  13  15
ENDBRANCH  12  13
BRANCH  12  17
ATOM     17  C   UNL     1     -11.000   3.861 -16.670  1.00  0.00    -0.006 C 
ATOM     18  C   UNL     1     -12.127   4.878 -16.937  1.00  0.00     0.008 C 
ATOM     19  C   UNL     1      -9.664   4.622 -16.574  1.00  0.00     0.008 C 
ENDBRANCH  12  17
ENDBRANCH  11  12
ENDBRANCH   1  11
TORSDOF 1
ENDMDL
MODEL 6
REMARK VINA RESULT:    -2.615      1.925      4.541
REMARK INTER + INTRA:          -3.753
REMARK INTER:                  -5.891
REMARK INTRA:                   2.138
REMARK UNBOUND:                 0.237
REMARK SMILES CC1=CCC[C@@H](C)C(=O)C[C@H](C(C)C)C(=O)C1
REMARK SMILES IDX 8 1 9 2 6 3 7 4 5 5 4 6 3 7 2 8 1 9 10 11 11 12 15 13 16 14
REMARK SMILES IDX 17 15 12 17 13 18 14 19
REMARK H PARENT
REMARK Flexibility Score: 70.00
ROOT
ATOM      1  C   UNL     1     -11.704   0.498 -17.847  1.00  0.00     0.136 C 
ATOM      2  O   UNL     1     -11.402  -0.637 -17.506  1.00  0.00    -0.299 OA
ENDROOT
BRANCH   1   3
ATOM      3  C   UNL     1     -12.344   0.744 -19.201  1.00  0.00     0.053 C 
ATOM      4  C   UNL     1     -13.314  -0.380 -19.600  1.00  0.00     0.016 C 
BRANCH   3   5
ATOM      5  C   UNL     1     -11.282   0.995 -20.291  1.00  0.00     0.015 C 
BRANCH   5   6
ATOM      6  C   UNL     1     -10.621   2.387 -20.213  1.00  0.00     0.028 C 
BRANCH   6   7
ATOM      7  C   UNL     1     -11.524   3.453 -20.779  1.00  0.00    -0.028 C 
ATOM      8  C   UNL     1     -11.835   4.612 -20.153  1.00  0.00    -0.070 CG0
ATOM      9  C   UNL     1     -12.789   5.555 -20.844  1.00  0.00     0.039 C 
ATOM     10  G   UNL     1     -11.263   5.008 -18.800  1.00  0.00     0.000 G0
ENDBRANCH   6   7
ENDBRANCH   5   6
ENDBRANCH   3   5
ENDBRANCH   1   3
BRANCH   1  11
ATOM     11  C   UNL     1     -11.430   1.643 -16.899  1.00  0.00     0.087 C 
BRANCH  11  12
ATOM     12  C   UNL     1     -10.639   2.789 -17.583  1.00  0.00     0.066 C 
BRANCH  12  13
ATOM     13  C   UNL     1     -11.532   4.012 -17.716  1.00  0.00     0.140 C 
ATOM     14  O   UNL     1     -12.402   4.215 -16.879  1.00  0.00    -0.299 OA
BRANCH  13  15
ATOM     15  C   UNL     1     -11.285   5.031 -18.800  1.00  0.00     0.106 CG0
ATOM     16  G   UNL     1     -11.828   4.589 -20.151  1.00  0.00     0.000 G0
ENDBRANCH  13  15
ENDBRANCH  12  13
BRANCH  12  17
ATOM     17  C   UNL     1      -9.322   3.151 -16.821  1.00  0.00    -0.006 C 
ATOM     18  C   UNL     1      -9.375   4.590 -16.270  1.00  0.00     0.008 C 
ATOM     19  C   UNL     1      -8.072   3.010 -17.709  1.00  0.00     0.008 C 
ENDBRANCH  12  17
ENDBRANCH  11  12
ENDBRANCH   1  11
TORSDOF 1
ENDMDL
MODEL 7
REMARK VINA RESULT:    -2.595      2.052      4.280
REMARK INTER + INTRA:          -3.724
REMARK INTER:                  -4.875
REMARK INTRA:                   1.151
REMARK UNBOUND:                 0.237
REMARK SMILES CC1=CCC[C@@H](C)C(=O)C[C@H](C(C)C)C(=O)C1
REMARK SMILES IDX 8 1 9 2 6 3 7 4 5 5 4 6 3 7 2 8 1 9 10 11 11 12 15 13 16 14
REMARK SMILES IDX 17 15 12 17 13 18 14 19
REMARK H PARENT
REMARK Flexibility Score: 70.00
ROOT
ATOM      1  C   UNL     1     -11.646   2.309 -17.893  1.00  0.00     0.136 C 
ATOM      2  O   UNL     1     -11.494   1.370 -17.124  1.00  0.00    -0.299 OA
ENDROOT
BRANCH   1   3
ATOM      3  C   UNL     1     -11.266   3.715 -17.464  1.00  0.00     0.053 C 
ATOM      4  C   UNL     1     -12.084   4.197 -16.256  1.00  0.00     0.016 C 
BRANCH   3   5
ATOM      5  C   UNL     1     -11.349   4.707 -18.642  1.00  0.00     0.015 C 
BRANCH   5   6
ATOM      6  C   UNL     1      -9.995   4.971 -19.335  1.00  0.00     0.028 C 
BRANCH   6   7
ATOM      7  C   UNL     1      -8.875   4.239 -18.641  1.00  0.00    -0.028 C 
ATOM      8  C   UNL     1      -8.458   2.990 -18.955  1.00  0.00    -0.070 CG0
ATOM      9  C   UNL     1      -7.348   2.387 -18.131  1.00  0.00     0.039 C 
ATOM     10  G   UNL     1      -9.050   2.178 -20.097  1.00  0.00     0.000 G0
ENDBRANCH   6   7
ENDBRANCH   5   6
ENDBRANCH   3   5
ENDBRANCH   1   3
BRANCH   1  11
ATOM     11  C   UNL     1     -12.214   2.044 -19.267  1.00  0.00     0.087 C 
BRANCH  11  12
ATOM     12  C   UNL     1     -11.405   0.965 -20.035  1.00  0.00     0.066 C 
BRANCH  12  13
ATOM     13  C   UNL     1      -9.944   1.040 -19.622  1.00  0.00     0.140 C 
ATOM     14  O   UNL     1      -9.454   0.123 -18.974  1.00  0.00    -0.299 OA
BRANCH  13  15
ATOM     15  C   UNL     1      -9.068   2.173 -20.094  1.00  0.00     0.106 CG0
ATOM     16  G   UNL     1      -8.481   2.976 -18.943  1.00  0.00     0.000 G0
ENDBRANCH  13  15
ENDBRANCH  12  13
BRANCH  12  17
ATOM     17  C   UNL     1     -11.965  -0.478 -19.814  1.00  0.00    -0.006 C 
ATOM     18  C   UNL     1     -11.960  -1.284 -21.128  1.00  0.00     0.008 C 
ATOM     19  C   UNL     1     -13.396  -0.472 -19.246  1.00  0.00     0.008 C 
ENDBRANCH  12  17
ENDBRANCH  11  12
ENDBRANCH   1  11
TORSDOF 1
ENDMDL
MODEL 8
REMARK VINA RESULT:    -2.427      1.772      3.927
REMARK INTER + INTRA:          -3.467
REMARK INTER:                  -3.967
REMARK INTRA:                   0.500
REMARK UNBOUND:                 0.237
REMARK SMILES CC1=CCC[C@@H](C)C(=O)C[C@H](C(C)C)C(=O)C1
REMARK SMILES IDX 8 1 9 2 6 3 7 4 5 5 4 6 3 7 2 8 1 9 10 11 11 12 15 13 16 14
REMARK SMILES IDX 17 15 12 17 13 18 14 19
REMARK H PARENT
REMARK Flexibility Score: 70.00
ROOT
ATOM      1  C   UNL     1     -12.139   4.479 -18.579  1.00  0.00     0.136 C 
ATOM      2  O   UNL     1     -12.352   5.000 -17.493  1.00  0.00    -0.299 OA
ENDROOT
BRANCH   1   3
ATOM      3  C   UNL     1     -11.610   5.311 -19.733  1.00  0.00     0.053 C 
ATOM      4  C   UNL     1     -12.685   5.581 -20.797  1.00  0.00     0.016 C 
BRANCH   3   5
ATOM      5  C   UNL     1     -10.343   4.683 -20.349  1.00  0.00     0.015 C 
BRANCH   5   6
ATOM      6  C   UNL     1      -9.046   5.000 -19.575  1.00  0.00     0.028 C 
BRANCH   6   7
ATOM      7  C   UNL     1      -8.195   3.768 -19.407  1.00  0.00    -0.028 C 
ATOM      8  C   UNL     1      -8.236   2.942 -18.335  1.00  0.00    -0.070 CG0
ATOM      9  C   UNL     1      -7.285   1.772 -18.306  1.00  0.00     0.039 C 
ATOM     10  G   UNL     1      -9.197   3.136 -17.171  1.00  0.00     0.000 G0
ENDBRANCH   6   7
ENDBRANCH   5   6
ENDBRANCH   3   5
ENDBRANCH   1   3
BRANCH   1  11
ATOM     11  C   UNL     1     -12.411   3.003 -18.747  1.00  0.00     0.087 C 
BRANCH  11  12
ATOM     12  C   UNL     1     -11.113   2.157 -18.659  1.00  0.00     0.066 C 
BRANCH  12  13
ATOM     13  C   UNL     1     -10.473   2.353 -17.294  1.00  0.00     0.140 C 
ATOM     14  O   UNL     1     -10.956   1.795 -16.317  1.00  0.00    -0.299 OA
BRANCH  13  15
ATOM     15  C   UNL     1      -9.191   3.136 -17.151  1.00  0.00     0.106 CG0
ATOM     16  G   UNL     1      -8.249   2.934 -18.329  1.00  0.00     0.000 G0
ENDBRANCH  13  15
ENDBRANCH  12  13
BRANCH  12  17
ATOM     17  C   UNL     1     -11.364   0.638 -18.934  1.00  0.00    -0.006 C 
ATOM     18  C   UNL     1     -10.498   0.133 -20.105  1.00  0.00     0.008 C 
ATOM     19  C   UNL     1     -12.841   0.335 -19.250  1.00  0.00     0.008 C 
ENDBRANCH  12  17
ENDBRANCH  11  12
ENDBRANCH   1  11
TORSDOF 1
ENDMDL
MODEL 9
REMARK VINA RESULT:    -2.412      1.896      4.275
REMARK INTER + INTRA:          -3.444
REMARK INTER:                  -3.176
REMARK INTRA:                  -0.268
REMARK UNBOUND:                 0.237
REMARK SMILES CC1=CCC[C@@H](C)C(=O)C[C@H](C(C)C)C(=O)C1
REMARK SMILES IDX 8 1 9 2 6 3 7 4 5 5 4 6 3 7 2 8 1 9 10 11 11 12 15 13 16 14
REMARK SMILES IDX 17 15 12 17 13 18 14 19
REMARK H PARENT
REMARK Flexibility Score: 70.00
ROOT
ATOM      1  C   UNL     1      -9.297   1.226 -19.880  1.00  0.00     0.136 C 
ATOM      2  O   UNL     1      -9.139   0.093 -20.313  1.00  0.00    -0.299 OA
ENDROOT
BRANCH   1   3
ATOM      3  C   UNL     1      -8.095   2.112 -19.604  1.00  0.00     0.053 C 
ATOM      4  C   UNL     1      -7.724   2.144 -18.113  1.00  0.00     0.016 C 
BRANCH   3   5
ATOM      5  C   UNL     1      -8.297   3.532 -20.173  1.00  0.00     0.015 C 
BRANCH   5   6
ATOM      6  C   UNL     1      -8.505   4.615 -19.095  1.00  0.00     0.028 C 
BRANCH   6   7
ATOM      7  C   UNL     1      -9.842   5.293 -19.252  1.00  0.00    -0.028 C 
ATOM      8  C   UNL     1     -10.937   5.021 -18.503  1.00  0.00    -0.070 CG0
ATOM      9  C   UNL     1     -12.212   5.763 -18.819  1.00  0.00     0.039 C 
ATOM     10  G   UNL     1     -10.936   4.016 -17.361  1.00  0.00     0.000 G0
ENDBRANCH   6   7
ENDBRANCH   5   6
ENDBRANCH   3   5
ENDBRANCH   1   3
BRANCH   1  11
ATOM     11  C   UNL     1     -10.701   1.722 -19.625  1.00  0.00     0.087 C 
BRANCH  11  12
ATOM     12  C   UNL     1     -11.131   1.523 -18.148  1.00  0.00     0.066 C 
BRANCH  12  13
ATOM     13  C   UNL     1     -11.774   2.800 -17.631  1.00  0.00     0.140 C 
ATOM     14  O   UNL     1     -12.968   2.805 -17.360  1.00  0.00    -0.299 OA
BRANCH  13  15
ATOM     15  C   UNL     1     -10.937   4.022 -17.346  1.00  0.00     0.106 CG0
ATOM     16  G   UNL     1     -10.945   5.016 -18.497  1.00  0.00     0.000 G0
ENDBRANCH  13  15
ENDBRANCH  12  13
BRANCH  12  17
ATOM     17  C   UNL     1     -12.097   0.307 -17.960  1.00  0.00    -0.006 C 
ATOM     18  C   UNL     1     -11.361  -0.900 -17.346  1.00  0.00     0.008 C 
ATOM     19  C   UNL     1     -12.747  -0.136 -19.285  1.00  0.00     0.008 C 
ENDBRANCH  12  17
ENDBRANCH  11  12
ENDBRANCH   1  11
TORSDOF 1
ENDMDL
