MODEL 1
REMARK VINA RESULT:     1.768      0.000      0.000
REMARK INTER + INTRA:           2.447
REMARK INTER:                   1.923
REMARK INTRA:                   0.524
REMARK UNBOUND:                 0.524
REMARK SMILES C[C@H]1[C@H](C)CC[C@@]2(C(=O)[O-])CC[C@@]3(C)C(=CC[C@H]4[C@]5(C)CC[C@@H](O)C(C)(C)[C@@H]5CC[C@]43C)[C@H]12
REMARK SMILES IDX 7 1 6 2 11 3 33 4 5 5 12 6 15 7 2 8 3 9 13 10 16 11 1 12
REMARK SMILES IDX 4 13 14 14 31 15 17 16 18 17 30 18 32 19 19 20 29 21 28 22
REMARK SMILES IDX 21 23 20 24 25 25 22 26 23 27 26 28 27 29 8 30 9 31 10 32
REMARK SMILES IDX 24 33
REMARK H PARENT 24 34
REMARK Flexibility Score: inf
ROOT
ATOM      1  C   UNL     1     -10.398  21.964  -8.956  1.00  0.00     0.017 C 
ATOM      2  C   UNL     1     -10.339  23.490  -9.237  1.00  0.00     0.014 C 
ATOM      3  C   UNL     1     -11.838  21.623  -8.492  1.00  0.00     0.014 C 
ATOM      4  C   UNL     1     -10.130  21.193 -10.284  1.00  0.00     0.030 C 
ATOM      5  C   UNL     1      -8.979  23.905  -9.793  1.00  0.00     0.004 C 
ATOM      6  C   UNL     1     -12.060  20.121  -8.262  1.00  0.00     0.013 C 
ATOM      7  C   UNL     1     -10.347  19.672 -10.071  1.00  0.00    -0.063 C 
ATOM      8  C   UNL     1      -8.816  21.648 -11.021  1.00  0.00    -0.003 C 
ATOM      9  C   UNL     1      -8.690  23.197 -11.127  1.00  0.00    -0.011 C 
ATOM     10  C   UNL     1     -11.677  19.180  -9.473  1.00  0.00    -0.006 C 
ATOM     11  C   UNL     1      -9.442  18.769 -10.466  1.00  0.00    -0.027 C 
ATOM     12  C   UNL     1      -8.748  21.031 -12.452  1.00  0.00     0.008 C 
ATOM     13  C   UNL     1      -7.291  23.616 -11.619  1.00  0.00     0.008 C 
ATOM     14  C   UNL     1     -12.768  19.354 -10.565  1.00  0.00     0.017 C 
ATOM     15  C   UNL     1     -11.557  17.640  -8.978  1.00  0.00    -0.020 C 
ATOM     16  C   UNL     1      -9.806  17.368 -10.856  1.00  0.00     0.032 C 
ATOM     17  C   UNL     1     -11.049  16.717 -10.156  1.00  0.00     0.006 C 
ATOM     18  C   UNL     1     -10.565  17.502  -7.769  1.00  0.00     0.008 C 
ATOM     19  C   UNL     1     -12.964  17.175  -8.502  1.00  0.00     0.012 C 
ATOM     20  C   UNL     1     -10.855  15.156  -9.772  1.00  0.00    -0.025 C 
ATOM     21  C   UNL     1      -9.630  16.279  -7.773  1.00  0.00     0.005 C 
ATOM     22  C   UNL     1     -10.266  14.970  -8.293  1.00  0.00     0.003 C 
ATOM     23  C   UNL     1     -12.191  14.378 -10.012  1.00  0.00     0.010 C 
ATOM     24  C   UNL     1      -9.863  14.475 -10.793  1.00  0.00     0.012 C 
ATOM     25  C   UNL     1     -11.058  14.089  -7.181  1.00  0.00    -0.006 C 
ATOM     26  C   UNL     1     -12.276  13.082  -9.213  1.00  0.00     0.033 C 
ATOM     27  C   UNL     1     -12.368  13.407  -7.731  1.00  0.00     0.120 C 
ATOM     28  C   UNL     1     -11.458  14.876  -5.892  1.00  0.00     0.014 C 
ATOM     29  C   UNL     1     -10.085  12.977  -6.685  1.00  0.00     0.014 C 
ENDROOT
BRANCH   1  30
ATOM     30  C   UNL     1      -9.419  21.609  -7.842  1.00  0.00     0.048 C 
ATOM     31  O   UNL     1      -8.840  20.483  -7.842  1.00  0.00    -0.550 OA
ATOM     32  O   UNL     1      -9.162  22.483  -6.784  1.00  0.00    -0.550 OA
ENDBRANCH   1  30
BRANCH  27  33
ATOM     33  O   UNL     1     -12.672  12.217  -7.037  1.00  0.00    -0.393 OA
ATOM     34  H   UNL     1     -12.771  11.492  -7.709  1.00  0.00     0.210 HD
ENDBRANCH  27  33
TORSDOF 2
ENDMDL
MODEL 2
REMARK VINA RESULT:     3.873      0.919      1.143
REMARK INTER + INTRA:           4.738
REMARK INTER:                   3.901
REMARK INTRA:                   0.836
REMARK UNBOUND:                 0.524
REMARK SMILES C[C@H]1[C@H](C)CC[C@@]2(C(=O)[O-])CC[C@@]3(C)C(=CC[C@H]4[C@]5(C)CC[C@@H](O)C(C)(C)[C@@H]5CC[C@]43C)[C@H]12
REMARK SMILES IDX 7 1 6 2 11 3 33 4 5 5 12 6 15 7 2 8 3 9 13 10 16 11 1 12
REMARK SMILES IDX 4 13 14 14 31 15 17 16 18 17 30 18 32 19 19 20 29 21 28 22
REMARK SMILES IDX 21 23 20 24 25 25 22 26 23 27 26 28 27 29 8 30 9 31 10 32
REMARK SMILES IDX 24 33
REMARK H PARENT 24 34
REMARK Flexibility Score: inf
ROOT
ATOM      1  C   UNL     1     -10.486  21.138  -9.670  1.00  0.00     0.017 C 
ATOM      2  C   UNL     1     -10.405  22.616 -10.140  1.00  0.00     0.014 C 
ATOM      3  C   UNL     1     -11.929  20.880  -9.164  1.00  0.00     0.014 C 
ATOM      4  C   UNL     1     -10.235  20.202 -10.892  1.00  0.00     0.030 C 
ATOM      5  C   UNL     1      -9.041  22.937 -10.747  1.00  0.00     0.004 C 
ATOM      6  C   UNL     1     -12.172  19.422  -8.746  1.00  0.00     0.013 C 
ATOM      7  C   UNL     1     -10.473  18.724 -10.489  1.00  0.00    -0.063 C 
ATOM      8  C   UNL     1      -8.918  20.541 -11.683  1.00  0.00    -0.003 C 
ATOM      9  C   UNL     1      -8.769  22.062 -11.982  1.00  0.00    -0.011 C 
ATOM     10  C   UNL     1     -11.809  18.332  -9.831  1.00  0.00    -0.006 C 
ATOM     11  C   UNL     1      -9.584  17.764 -10.770  1.00  0.00    -0.027 C 
ATOM     12  C   UNL     1      -8.865  19.749 -13.026  1.00  0.00     0.008 C 
ATOM     13  C   UNL     1      -7.365  22.395 -12.526  1.00  0.00     0.008 C 
ATOM     14  C   UNL     1     -12.902  18.384 -10.934  1.00  0.00     0.017 C 
ATOM     15  C   UNL     1     -11.710  16.864  -9.147  1.00  0.00    -0.020 C 
ATOM     16  C   UNL     1      -9.971  16.331 -10.980  1.00  0.00     0.032 C 
ATOM     17  C   UNL     1     -11.220  15.792 -10.201  1.00  0.00     0.006 C 
ATOM     18  C   UNL     1     -10.715  16.863  -7.932  1.00  0.00     0.008 C 
ATOM     19  C   UNL     1     -13.121  16.484  -8.613  1.00  0.00     0.012 C 
ATOM     20  C   UNL     1     -11.048  14.289  -9.624  1.00  0.00    -0.025 C 
ATOM     21  C   UNL     1      -9.798  15.635  -7.785  1.00  0.00     0.005 C 
ATOM     22  C   UNL     1     -10.456  14.282  -8.135  1.00  0.00     0.003 C 
ATOM     23  C   UNL     1     -12.397  13.508  -9.762  1.00  0.00     0.010 C 
ATOM     24  C   UNL     1     -10.072  13.470 -10.554  1.00  0.00     0.012 C 
ATOM     25  C   UNL     1     -11.257  13.559  -6.920  1.00  0.00    -0.006 C 
ATOM     26  C   UNL     1     -12.498  12.324  -8.806  1.00  0.00     0.033 C 
ATOM     27  C   UNL     1     -12.578  12.834  -7.376  1.00  0.00     0.120 C 
ATOM     28  C   UNL     1     -11.639  14.508  -5.738  1.00  0.00     0.014 C 
ATOM     29  C   UNL     1     -10.298  12.503  -6.290  1.00  0.00     0.014 C 
ENDROOT
BRANCH   1  30
ATOM     30  C   UNL     1      -9.507  20.911  -8.523  1.00  0.00     0.048 C 
ATOM     31  O   UNL     1      -9.000  21.901  -7.917  1.00  0.00    -0.550 OA
ATOM     32  O   UNL     1      -9.114  19.629  -8.135  1.00  0.00    -0.550 OA
ENDBRANCH   1  30
BRANCH  27  33
ATOM     33  O   UNL     1     -12.897  11.745  -6.538  1.00  0.00    -0.393 OA
ATOM     34  H   UNL     1     -13.883  11.736  -6.416  1.00  0.00     0.210 HD
ENDBRANCH  27  33
TORSDOF 2
ENDMDL
