MODEL 1
REMARK VINA RESULT:    -4.029      0.000      0.000
REMARK INTER + INTRA:         -12.070
REMARK INTER:                  -8.739
REMARK INTRA:                  -3.330
REMARK UNBOUND:                -3.330
REMARK SMILES CCCCCCCCCCCCCCCCCCCCCC(=O)[O-]
REMARK SMILES IDX 12 1 11 2 10 3 9 4 8 5 7 6 6 7 5 8 4 9 3 10 2 11 1 12 13 13
REMARK SMILES IDX 14 14 15 15 16 16 17 17 18 18 19 19 20 20 21 21 22 22 23 23
REMARK SMILES IDX 24 24
REMARK H PARENT
REMARK Flexibility Score: inf
ROOT
ATOM      1  C   UNL     1      -5.611   7.051  -5.355  1.00  0.00     0.000 C 
ENDROOT
BRANCH   1   2
ATOM      2  C   UNL     1      -6.136   8.400  -4.839  1.00  0.00     0.000 C 
BRANCH   2   3
ATOM      3  C   UNL     1      -5.049   9.488  -4.800  1.00  0.00     0.000 C 
BRANCH   3   4
ATOM      4  C   UNL     1      -4.554   9.816  -3.374  1.00  0.00    -0.000 C 
BRANCH   4   5
ATOM      5  C   UNL     1      -3.133   9.290  -3.121  1.00  0.00    -0.000 C 
BRANCH   5   6
ATOM      6  C   UNL     1      -2.157   9.799  -4.192  1.00  0.00    -0.000 C 
BRANCH   6   7
ATOM      7  C   UNL     1      -1.323   8.673  -4.829  1.00  0.00    -0.000 C 
BRANCH   7   8
ATOM      8  C   UNL     1      -0.105   9.148  -5.642  1.00  0.00    -0.000 C 
BRANCH   8   9
ATOM      9  C   UNL     1      -0.257   8.897  -7.150  1.00  0.00    -0.000 C 
BRANCH   9  10
ATOM     10  C   UNL     1       1.069   9.148  -7.884  1.00  0.00    -0.000 C 
BRANCH  10  11
ATOM     11  C   UNL     1       2.103   8.038  -7.638  1.00  0.00    -0.003 C 
ATOM     12  C   UNL     1       2.968   7.755  -8.865  1.00  0.00     0.004 C 
ENDBRANCH  10  11
ENDBRANCH   9  10
ENDBRANCH   8   9
ENDBRANCH   7   8
ENDBRANCH   6   7
ENDBRANCH   5   6
ENDBRANCH   4   5
ENDBRANCH   3   4
ENDBRANCH   2   3
ENDBRANCH   1   2
BRANCH   1  13
ATOM     13  C   UNL     1      -4.209   7.164  -5.973  1.00  0.00     0.000 C 
BRANCH  13  14
ATOM     14  C   UNL     1      -4.146   6.609  -7.409  1.00  0.00     0.000 C 
BRANCH  14  15
ATOM     15  C   UNL     1      -3.478   7.585  -8.394  1.00  0.00     0.000 C 
BRANCH  15  16
ATOM     16  C   UNL     1      -3.981   9.038  -8.307  1.00  0.00     0.000 C 
BRANCH  16  17
ATOM     17  C   UNL     1      -5.291   9.264  -9.083  1.00  0.00     0.000 C 
BRANCH  17  18
ATOM     18  C   UNL     1      -6.366   9.970  -8.233  1.00  0.00     0.000 C 
BRANCH  18  19
ATOM     19  C   UNL     1      -7.683   9.180  -8.099  1.00  0.00     0.000 C 
BRANCH  19  20
ATOM     20  C   UNL     1      -7.628   7.760  -8.697  1.00  0.00     0.006 C 
BRANCH  20  21
ATOM     21  C   UNL     1      -8.181   6.699  -7.737  1.00  0.00     0.053 C 
BRANCH  21  22
ATOM     22  C   UNL     1      -7.875   5.322  -8.236  1.00  0.00     0.041 C 
ATOM     23  O   UNL     1      -8.532   4.333  -7.811  1.00  0.00    -0.550 OA
ATOM     24  O   UNL     1      -6.857   5.125  -9.161  1.00  0.00    -0.550 OA
ENDBRANCH  21  22
ENDBRANCH  20  21
ENDBRANCH  19  20
ENDBRANCH  18  19
ENDBRANCH  17  18
ENDBRANCH  16  17
ENDBRANCH  15  16
ENDBRANCH  14  15
ENDBRANCH  13  14
ENDBRANCH   1  13
TORSDOF 20
ENDMDL
MODEL 2
REMARK VINA RESULT:    -3.829      1.788      2.348
REMARK INTER + INTRA:         -11.637
REMARK INTER:                  -8.975
REMARK INTRA:                  -2.662
REMARK UNBOUND:                -3.330
REMARK SMILES CCCCCCCCCCCCCCCCCCCCCC(=O)[O-]
REMARK SMILES IDX 12 1 11 2 10 3 9 4 8 5 7 6 6 7 5 8 4 9 3 10 2 11 1 12 13 13
REMARK SMILES IDX 14 14 15 15 16 16 17 17 18 18 19 19 20 20 21 21 22 22 23 23
REMARK SMILES IDX 24 24
REMARK H PARENT
REMARK Flexibility Score: inf
ROOT
ATOM      1  C   UNL     1      -5.065   7.097  -5.457  1.00  0.00     0.000 C 
ENDROOT
BRANCH   1   2
ATOM      2  C   UNL     1      -5.746   8.454  -5.217  1.00  0.00     0.000 C 
BRANCH   2   3
ATOM      3  C   UNL     1      -4.742   9.580  -4.915  1.00  0.00     0.000 C 
BRANCH   3   4
ATOM      4  C   UNL     1      -4.294   9.630  -3.438  1.00  0.00    -0.000 C 
BRANCH   4   5
ATOM      5  C   UNL     1      -2.780   9.420  -3.286  1.00  0.00    -0.000 C 
BRANCH   5   6
ATOM      6  C   UNL     1      -2.026   9.929  -4.524  1.00  0.00    -0.000 C 
BRANCH   6   7
ATOM      7  C   UNL     1      -0.820   9.048  -4.895  1.00  0.00    -0.000 C 
BRANCH   7   8
ATOM      8  C   UNL     1      -0.099   9.450  -6.196  1.00  0.00    -0.000 C 
BRANCH   8   9
ATOM      9  C   UNL     1       0.743   8.311  -6.791  1.00  0.00    -0.000 C 
BRANCH   9  10
ATOM     10  C   UNL     1       1.510   8.788  -8.034  1.00  0.00    -0.000 C 
BRANCH  10  11
ATOM     11  C   UNL     1       2.785   7.971  -8.293  1.00  0.00    -0.003 C 
ATOM     12  C   UNL     1       2.912   6.766  -7.362  1.00  0.00     0.004 C 
ENDBRANCH  10  11
ENDBRANCH   9  10
ENDBRANCH   8   9
ENDBRANCH   7   8
ENDBRANCH   6   7
ENDBRANCH   5   6
ENDBRANCH   4   5
ENDBRANCH   3   4
ENDBRANCH   2   3
ENDBRANCH   1   2
BRANCH   1  13
ATOM     13  C   UNL     1      -3.733   7.233  -6.210  1.00  0.00     0.000 C 
BRANCH  13  14
ATOM     14  C   UNL     1      -3.894   7.084  -7.735  1.00  0.00     0.000 C 
BRANCH  14  15
ATOM     15  C   UNL     1      -4.148   8.428  -8.441  1.00  0.00     0.000 C 
BRANCH  15  16
ATOM     16  C   UNL     1      -5.520   8.548  -9.129  1.00  0.00     0.000 C 
BRANCH  16  17
ATOM     17  C   UNL     1      -6.221   7.189  -9.305  1.00  0.00     0.000 C 
BRANCH  17  18
ATOM     18  C   UNL     1      -7.502   7.070  -8.454  1.00  0.00     0.000 C 
BRANCH  18  19
ATOM     19  C   UNL     1      -7.621   5.746  -7.674  1.00  0.00     0.000 C 
BRANCH  19  20
ATOM     20  C   UNL     1      -8.321   5.883  -6.307  1.00  0.00     0.006 C 
BRANCH  20  21
ATOM     21  C   UNL     1      -9.730   6.477  -6.430  1.00  0.00     0.053 C 
BRANCH  21  22
ATOM     22  C   UNL     1      -9.797   7.822  -5.777  1.00  0.00     0.041 C 
ATOM     23  O   UNL     1     -10.019   8.852  -6.469  1.00  0.00    -0.550 OA
ATOM     24  O   UNL     1      -9.603   7.943  -4.406  1.00  0.00    -0.550 OA
ENDBRANCH  21  22
ENDBRANCH  20  21
ENDBRANCH  19  20
ENDBRANCH  18  19
ENDBRANCH  17  18
ENDBRANCH  16  17
ENDBRANCH  15  16
ENDBRANCH  14  15
ENDBRANCH  13  14
ENDBRANCH   1  13
TORSDOF 20
ENDMDL
MODEL 3
REMARK VINA RESULT:    -3.724      3.596      7.567
REMARK INTER + INTRA:         -11.408
REMARK INTER:                  -9.197
REMARK INTRA:                  -2.212
REMARK UNBOUND:                -3.330
REMARK SMILES CCCCCCCCCCCCCCCCCCCCCC(=O)[O-]
REMARK SMILES IDX 12 1 11 2 10 3 9 4 8 5 7 6 6 7 5 8 4 9 3 10 2 11 1 12 13 13
REMARK SMILES IDX 14 14 15 15 16 16 17 17 18 18 19 19 20 20 21 21 22 22 23 23
REMARK SMILES IDX 24 24
REMARK H PARENT
REMARK Flexibility Score: inf
ROOT
ATOM      1  C   UNL     1      -4.371   9.520  -3.635  1.00  0.00     0.000 C 
ENDROOT
BRANCH   1   2
ATOM      2  C   UNL     1      -5.098   9.602  -4.987  1.00  0.00     0.000 C 
BRANCH   2   3
ATOM      3  C   UNL     1      -6.569   9.159  -4.900  1.00  0.00     0.000 C 
BRANCH   3   4
ATOM      4  C   UNL     1      -7.457   9.737  -6.024  1.00  0.00    -0.000 C 
BRANCH   4   5
ATOM      5  C   UNL     1      -8.910   9.249  -5.920  1.00  0.00    -0.000 C 
BRANCH   5   6
ATOM      6  C   UNL     1      -9.038   8.112  -4.895  1.00  0.00    -0.000 C 
BRANCH   6   7
ATOM      7  C   UNL     1      -9.317   6.746  -5.547  1.00  0.00    -0.000 C 
BRANCH   7   8
ATOM      8  C   UNL     1      -8.073   5.866  -5.767  1.00  0.00    -0.000 C 
BRANCH   8   9
ATOM      9  C   UNL     1      -7.768   5.621  -7.253  1.00  0.00    -0.000 C 
BRANCH   9  10
ATOM     10  C   UNL     1      -6.360   6.122  -7.613  1.00  0.00    -0.000 C 
BRANCH  10  11
ATOM     11  C   UNL     1      -5.444   6.250  -6.385  1.00  0.00    -0.003 C 
ATOM     12  C   UNL     1      -3.984   5.933  -6.703  1.00  0.00     0.004 C 
ENDBRANCH  10  11
ENDBRANCH   9  10
ENDBRANCH   8   9
ENDBRANCH   7   8
ENDBRANCH   6   7
ENDBRANCH   5   6
ENDBRANCH   4   5
ENDBRANCH   3   4
ENDBRANCH   2   3
ENDBRANCH   1   2
BRANCH   1  13
ATOM     13  C   UNL     1      -2.860   9.766  -3.765  1.00  0.00     0.000 C 
BRANCH  13  14
ATOM     14  C   UNL     1      -2.366   9.670  -5.221  1.00  0.00     0.000 C 
BRANCH  14  15
ATOM     15  C   UNL     1      -1.557   8.389  -5.492  1.00  0.00     0.000 C 
BRANCH  15  16
ATOM     16  C   UNL     1      -0.125   8.625  -6.006  1.00  0.00     0.000 C 
BRANCH  16  17
ATOM     17  C   UNL     1      -0.017   9.847  -6.935  1.00  0.00     0.000 C 
BRANCH  17  18
ATOM     18  C   UNL     1       0.274   9.453  -8.397  1.00  0.00     0.000 C 
BRANCH  18  19
ATOM     19  C   UNL     1       1.643   9.932  -8.919  1.00  0.00     0.000 C 
BRANCH  19  20
ATOM     20  C   UNL     1       2.480   8.828  -9.593  1.00  0.00     0.006 C 
BRANCH  20  21
ATOM     21  C   UNL     1       2.231   7.446  -8.975  1.00  0.00     0.053 C 
BRANCH  21  22
ATOM     22  C   UNL     1       3.357   7.062  -8.065  1.00  0.00     0.041 C 
ATOM     23  O   UNL     1       4.551   7.216  -8.435  1.00  0.00    -0.550 OA
ATOM     24  O   UNL     1       3.089   6.523  -6.812  1.00  0.00    -0.550 OA
ENDBRANCH  21  22
ENDBRANCH  20  21
ENDBRANCH  19  20
ENDBRANCH  18  19
ENDBRANCH  17  18
ENDBRANCH  16  17
ENDBRANCH  15  16
ENDBRANCH  14  15
ENDBRANCH  13  14
ENDBRANCH   1  13
TORSDOF 20
ENDMDL
MODEL 4
REMARK VINA RESULT:    -3.721      1.442      2.697
REMARK INTER + INTRA:         -11.401
REMARK INTER:                  -8.745
REMARK INTRA:                  -2.656
REMARK UNBOUND:                -3.330
REMARK SMILES CCCCCCCCCCCCCCCCCCCCCC(=O)[O-]
REMARK SMILES IDX 12 1 11 2 10 3 9 4 8 5 7 6 6 7 5 8 4 9 3 10 2 11 1 12 13 13
REMARK SMILES IDX 14 14 15 15 16 16 17 17 18 18 19 19 20 20 21 21 22 22 23 23
REMARK SMILES IDX 24 24
REMARK H PARENT
REMARK Flexibility Score: inf
ROOT
ATOM      1  C   UNL     1      -4.676   6.039  -7.994  1.00  0.00     0.000 C 
ENDROOT
BRANCH   1   2
ATOM      2  C   UNL     1      -4.020   6.347  -6.638  1.00  0.00     0.000 C 
BRANCH   2   3
ATOM      3  C   UNL     1      -2.973   7.471  -6.724  1.00  0.00     0.000 C 
BRANCH   3   4
ATOM      4  C   UNL     1      -2.786   8.246  -5.401  1.00  0.00    -0.000 C 
BRANCH   4   5
ATOM      5  C   UNL     1      -1.304   8.413  -5.034  1.00  0.00    -0.000 C 
BRANCH   5   6
ATOM      6  C   UNL     1      -0.839   9.859  -5.263  1.00  0.00    -0.000 C 
BRANCH   6   7
ATOM      7  C   UNL     1      -0.384  10.121  -6.710  1.00  0.00    -0.000 C 
BRANCH   7   8
ATOM      8  C   UNL     1       0.732   9.189  -7.218  1.00  0.00    -0.000 C 
BRANCH   8   9
ATOM      9  C   UNL     1       1.092   9.433  -8.691  1.00  0.00    -0.000 C 
BRANCH   9  10
ATOM     10  C   UNL     1       2.104   8.389  -9.188  1.00  0.00    -0.000 C 
BRANCH  10  11
ATOM     11  C   UNL     1       2.605   7.468  -8.065  1.00  0.00    -0.003 C 
ATOM     12  C   UNL     1       4.042   6.996  -8.287  1.00  0.00     0.004 C 
ENDBRANCH  10  11
ENDBRANCH   9  10
ENDBRANCH   8   9
ENDBRANCH   7   8
ENDBRANCH   6   7
ENDBRANCH   5   6
ENDBRANCH   4   5
ENDBRANCH   3   4
ENDBRANCH   2   3
ENDBRANCH   1   2
BRANCH   1  13
ATOM     13  C   UNL     1      -4.808   7.287  -8.880  1.00  0.00     0.000 C 
BRANCH  13  14
ATOM     14  C   UNL     1      -6.274   7.697  -9.115  1.00  0.00     0.000 C 
BRANCH  14  15
ATOM     15  C   UNL     1      -6.605   9.082  -8.532  1.00  0.00     0.000 C 
BRANCH  15  16
ATOM     16  C   UNL     1      -5.932   9.393  -7.182  1.00  0.00     0.000 C 
BRANCH  16  17
ATOM     17  C   UNL     1      -6.943   9.538  -6.030  1.00  0.00     0.000 C 
BRANCH  17  18
ATOM     18  C   UNL     1      -6.724   8.493  -4.918  1.00  0.00     0.000 C 
BRANCH  18  19
ATOM     19  C   UNL     1      -7.125   7.057  -5.312  1.00  0.00     0.000 C 
BRANCH  19  20
ATOM     20  C   UNL     1      -8.630   6.883  -5.602  1.00  0.00     0.006 C 
BRANCH  20  21
ATOM     21  C   UNL     1      -8.900   6.458  -7.051  1.00  0.00     0.053 C 
BRANCH  21  22
ATOM     22  C   UNL     1      -8.658   4.992  -7.228  1.00  0.00     0.041 C 
ATOM     23  O   UNL     1      -8.362   4.530  -8.363  1.00  0.00    -0.550 OA
ATOM     24  O   UNL     1      -8.770   4.130  -6.143  1.00  0.00    -0.550 OA
ENDBRANCH  21  22
ENDBRANCH  20  21
ENDBRANCH  19  20
ENDBRANCH  18  19
ENDBRANCH  17  18
ENDBRANCH  16  17
ENDBRANCH  15  16
ENDBRANCH  14  15
ENDBRANCH  13  14
ENDBRANCH   1  13
TORSDOF 20
ENDMDL
MODEL 5
REMARK VINA RESULT:    -3.707      1.270      3.887
REMARK INTER + INTRA:         -11.372
REMARK INTER:                  -9.044
REMARK INTRA:                  -2.328
REMARK UNBOUND:                -3.330
REMARK SMILES CCCCCCCCCCCCCCCCCCCCCC(=O)[O-]
REMARK SMILES IDX 12 1 11 2 10 3 9 4 8 5 7 6 6 7 5 8 4 9 3 10 2 11 1 12 13 13
REMARK SMILES IDX 14 14 15 15 16 16 17 17 18 18 19 19 20 20 21 21 22 22 23 23
REMARK SMILES IDX 24 24
REMARK H PARENT
REMARK Flexibility Score: inf
ROOT
ATOM      1  C   UNL     1      -0.955   8.587  -5.230  1.00  0.00     0.000 C 
ENDROOT
BRANCH   1   2
ATOM      2  C   UNL     1      -2.097   8.091  -6.131  1.00  0.00     0.000 C 
BRANCH   2   3
ATOM      3  C   UNL     1      -2.609   9.174  -7.096  1.00  0.00     0.000 C 
BRANCH   3   4
ATOM      4  C   UNL     1      -3.467   8.617  -8.253  1.00  0.00    -0.000 C 
BRANCH   4   5
ATOM      5  C   UNL     1      -2.653   8.444  -9.544  1.00  0.00    -0.000 C 
BRANCH   5   6
ATOM      6  C   UNL     1      -1.657   9.598  -9.726  1.00  0.00    -0.000 C 
BRANCH   6   7
ATOM      7  C   UNL     1      -0.209   9.114  -9.923  1.00  0.00    -0.000 C 
BRANCH   7   8
ATOM      8  C   UNL     1       0.689   9.231  -8.677  1.00  0.00    -0.000 C 
BRANCH   8   9
ATOM      9  C   UNL     1       2.187   9.185  -9.012  1.00  0.00    -0.000 C 
BRANCH   9  10
ATOM     10  C   UNL     1       2.643   7.743  -9.289  1.00  0.00    -0.000 C 
BRANCH  10  11
ATOM     11  C   UNL     1       3.684   7.245  -8.275  1.00  0.00    -0.003 C 
ATOM     12  C   UNL     1       3.068   6.385  -7.173  1.00  0.00     0.004 C 
ENDBRANCH  10  11
ENDBRANCH   9  10
ENDBRANCH   8   9
ENDBRANCH   7   8
ENDBRANCH   6   7
ENDBRANCH   5   6
ENDBRANCH   4   5
ENDBRANCH   3   4
ENDBRANCH   2   3
ENDBRANCH   1   2
BRANCH   1  13
ATOM     13  C   UNL     1      -1.443   9.550  -4.138  1.00  0.00     0.000 C 
BRANCH  13  14
ATOM     14  C   UNL     1      -2.744   9.075  -3.464  1.00  0.00     0.000 C 
BRANCH  14  15
ATOM     15  C   UNL     1      -3.867  10.125  -3.530  1.00  0.00     0.000 C 
BRANCH  15  16
ATOM     16  C   UNL     1      -5.288   9.545  -3.663  1.00  0.00     0.000 C 
BRANCH  16  17
ATOM     17  C   UNL     1      -5.625   9.117  -5.102  1.00  0.00     0.000 C 
BRANCH  17  18
ATOM     18  C   UNL     1      -5.515   7.592  -5.306  1.00  0.00     0.000 C 
BRANCH  18  19
ATOM     19  C   UNL     1      -6.744   6.956  -5.985  1.00  0.00     0.000 C 
BRANCH  19  20
ATOM     20  C   UNL     1      -7.104   7.584  -7.346  1.00  0.00     0.006 C 
BRANCH  20  21
ATOM     21  C   UNL     1      -8.191   6.792  -8.085  1.00  0.00     0.053 C 
BRANCH  21  22
ATOM     22  C   UNL     1      -7.730   5.395  -8.365  1.00  0.00     0.041 C 
ATOM     23  O   UNL     1      -6.664   5.196  -9.007  1.00  0.00    -0.550 OA
ATOM     24  O   UNL     1      -8.482   4.311  -7.927  1.00  0.00    -0.550 OA
ENDBRANCH  21  22
ENDBRANCH  20  21
ENDBRANCH  19  20
ENDBRANCH  18  19
ENDBRANCH  17  18
ENDBRANCH  16  17
ENDBRANCH  15  16
ENDBRANCH  14  15
ENDBRANCH  13  14
ENDBRANCH   1  13
TORSDOF 20
ENDMDL
MODEL 6
REMARK VINA RESULT:    -3.587      1.607      3.159
REMARK INTER + INTRA:         -11.112
REMARK INTER:                  -7.507
REMARK INTRA:                  -3.605
REMARK UNBOUND:                -3.330
REMARK SMILES CCCCCCCCCCCCCCCCCCCCCC(=O)[O-]
REMARK SMILES IDX 12 1 11 2 10 3 9 4 8 5 7 6 6 7 5 8 4 9 3 10 2 11 1 12 13 13
REMARK SMILES IDX 14 14 15 15 16 16 17 17 18 18 19 19 20 20 21 21 22 22 23 23
REMARK SMILES IDX 24 24
REMARK H PARENT
REMARK Flexibility Score: inf
ROOT
ATOM      1  C   UNL     1      -4.613   5.780  -8.294  1.00  0.00     0.000 C 
ENDROOT
BRANCH   1   2
ATOM      2  C   UNL     1      -5.533   6.029  -7.088  1.00  0.00     0.000 C 
BRANCH   2   3
ATOM      3  C   UNL     1      -4.869   6.890  -5.999  1.00  0.00     0.000 C 
BRANCH   3   4
ATOM      4  C   UNL     1      -5.839   7.326  -4.879  1.00  0.00    -0.000 C 
BRANCH   4   5
ATOM      5  C   UNL     1      -6.503   8.677  -5.185  1.00  0.00    -0.000 C 
BRANCH   5   6
ATOM      6  C   UNL     1      -5.509   9.834  -5.006  1.00  0.00    -0.000 C 
BRANCH   6   7
ATOM      7  C   UNL     1      -4.700   9.732  -3.700  1.00  0.00    -0.000 C 
BRANCH   7   8
ATOM      8  C   UNL     1      -3.216  10.125  -3.825  1.00  0.00    -0.000 C 
BRANCH   8   9
ATOM      9  C   UNL     1      -2.260   8.976  -3.469  1.00  0.00    -0.000 C 
BRANCH   9  10
ATOM     10  C   UNL     1      -1.156   8.833  -4.527  1.00  0.00    -0.000 C 
BRANCH  10  11
ATOM     11  C   UNL     1      -1.673   8.244  -5.849  1.00  0.00    -0.003 C 
ATOM     12  C   UNL     1      -1.346   9.123  -7.055  1.00  0.00     0.004 C 
ENDBRANCH  10  11
ENDBRANCH   9  10
ENDBRANCH   8   9
ENDBRANCH   7   8
ENDBRANCH   6   7
ENDBRANCH   5   6
ENDBRANCH   4   5
ENDBRANCH   3   4
ENDBRANCH   2   3
ENDBRANCH   1   2
BRANCH   1  13
ATOM     13  C   UNL     1      -3.888   7.054  -8.753  1.00  0.00     0.000 C 
BRANCH  13  14
ATOM     14  C   UNL     1      -4.812   8.020  -9.519  1.00  0.00     0.000 C 
BRANCH  14  15
ATOM     15  C   UNL     1      -5.049   9.340  -8.764  1.00  0.00     0.000 C 
BRANCH  15  16
ATOM     16  C   UNL     1      -6.512   9.823  -8.751  1.00  0.00     0.000 C 
BRANCH  16  17
ATOM     17  C   UNL     1      -7.519   8.673  -8.574  1.00  0.00     0.000 C 
BRANCH  17  18
ATOM     18  C   UNL     1      -8.917   9.172  -8.154  1.00  0.00     0.000 C 
BRANCH  18  19
ATOM     19  C   UNL     1      -9.610   8.289  -7.098  1.00  0.00     0.000 C 
BRANCH  19  20
ATOM     20  C   UNL     1      -9.077   6.843  -7.039  1.00  0.00     0.006 C 
BRANCH  20  21
ATOM     21  C   UNL     1      -9.768   5.924  -8.055  1.00  0.00     0.053 C 
BRANCH  21  22
ATOM     22  C   UNL     1      -8.883   4.771  -8.414  1.00  0.00     0.041 C 
ATOM     23  O   UNL     1      -8.062   4.874  -9.364  1.00  0.00    -0.550 OA
ATOM     24  O   UNL     1      -8.973   3.577  -7.708  1.00  0.00    -0.550 OA
ENDBRANCH  21  22
ENDBRANCH  20  21
ENDBRANCH  19  20
ENDBRANCH  18  19
ENDBRANCH  17  18
ENDBRANCH  16  17
ENDBRANCH  15  16
ENDBRANCH  14  15
ENDBRANCH  13  14
ENDBRANCH   1  13
TORSDOF 20
ENDMDL
MODEL 7
REMARK VINA RESULT:    -3.494      1.804      3.420
REMARK INTER + INTRA:         -10.910
REMARK INTER:                  -8.505
REMARK INTRA:                  -2.406
REMARK UNBOUND:                -3.330
REMARK SMILES CCCCCCCCCCCCCCCCCCCCCC(=O)[O-]
REMARK SMILES IDX 12 1 11 2 10 3 9 4 8 5 7 6 6 7 5 8 4 9 3 10 2 11 1 12 13 13
REMARK SMILES IDX 14 14 15 15 16 16 17 17 18 18 19 19 20 20 21 21 22 22 23 23
REMARK SMILES IDX 24 24
REMARK H PARENT
REMARK Flexibility Score: inf
ROOT
ATOM      1  C   UNL     1      -4.012   7.238  -7.656  1.00  0.00     0.000 C 
ENDROOT
BRANCH   1   2
ATOM      2  C   UNL     1      -3.143   7.351  -6.393  1.00  0.00     0.000 C 
BRANCH   2   3
ATOM      3  C   UNL     1      -2.145   8.520  -6.458  1.00  0.00     0.000 C 
BRANCH   3   4
ATOM      4  C   UNL     1      -0.885   8.307  -5.589  1.00  0.00    -0.000 C 
BRANCH   4   5
ATOM      5  C   UNL     1       0.409   8.553  -6.380  1.00  0.00    -0.000 C 
BRANCH   5   6
ATOM      6  C   UNL     1       0.152   9.467  -7.588  1.00  0.00    -0.000 C 
BRANCH   6   7
ATOM      7  C   UNL     1       1.351   9.538  -8.551  1.00  0.00    -0.000 C 
BRANCH   7   8
ATOM      8  C   UNL     1       1.652   8.231  -9.308  1.00  0.00    -0.000 C 
BRANCH   8   9
ATOM      9  C   UNL     1       3.147   8.046  -9.612  1.00  0.00    -0.000 C 
BRANCH   9  10
ATOM     10  C   UNL     1       3.865   7.365  -8.437  1.00  0.00    -0.000 C 
BRANCH  10  11
ATOM     11  C   UNL     1       3.002   6.290  -7.758  1.00  0.00    -0.003 C 
ATOM     12  C   UNL     1       3.017   6.398  -6.234  1.00  0.00     0.004 C 
ENDBRANCH  10  11
ENDBRANCH   9  10
ENDBRANCH   8   9
ENDBRANCH   7   8
ENDBRANCH   6   7
ENDBRANCH   5   6
ENDBRANCH   4   5
ENDBRANCH   3   4
ENDBRANCH   2   3
ENDBRANCH   1   2
BRANCH   1  13
ATOM     13  C   UNL     1      -4.184   5.785  -8.123  1.00  0.00     0.000 C 
BRANCH  13  14
ATOM     14  C   UNL     1      -5.358   5.612  -9.106  1.00  0.00     0.000 C 
BRANCH  14  15
ATOM     15  C   UNL     1      -5.918   6.956  -9.606  1.00  0.00     0.000 C 
BRANCH  15  16
ATOM     16  C   UNL     1      -7.443   7.114  -9.464  1.00  0.00     0.000 C 
BRANCH  16  17
ATOM     17  C   UNL     1      -7.860   8.540  -9.062  1.00  0.00     0.000 C 
BRANCH  17  18
ATOM     18  C   UNL     1      -6.776   9.261  -8.236  1.00  0.00     0.000 C 
BRANCH  18  19
ATOM     19  C   UNL     1      -7.258   9.754  -6.857  1.00  0.00     0.000 C 
BRANCH  19  20
ATOM     20  C   UNL     1      -6.556   9.073  -5.665  1.00  0.00     0.006 C 
BRANCH  20  21
ATOM     21  C   UNL     1      -7.446   8.028  -4.982  1.00  0.00     0.053 C 
BRANCH  21  22
ATOM     22  C   UNL     1      -7.044   6.644  -5.385  1.00  0.00     0.041 C 
ATOM     23  O   UNL     1      -7.745   5.994  -6.207  1.00  0.00    -0.550 OA
ATOM     24  O   UNL     1      -5.901   6.064  -4.847  1.00  0.00    -0.550 OA
ENDBRANCH  21  22
ENDBRANCH  20  21
ENDBRANCH  19  20
ENDBRANCH  18  19
ENDBRANCH  17  18
ENDBRANCH  16  17
ENDBRANCH  15  16
ENDBRANCH  14  15
ENDBRANCH  13  14
ENDBRANCH   1  13
TORSDOF 20
ENDMDL
MODEL 8
REMARK VINA RESULT:    -1.788      3.272      7.582
REMARK INTER + INTRA:          -7.210
REMARK INTER:                  -4.013
REMARK INTRA:                  -3.197
REMARK UNBOUND:                -3.330
REMARK SMILES CCCCCCCCCCCCCCCCCCCCCC(=O)[O-]
REMARK SMILES IDX 12 1 11 2 10 3 9 4 8 5 7 6 6 7 5 8 4 9 3 10 2 11 1 12 13 13
REMARK SMILES IDX 14 14 15 15 16 16 17 17 18 18 19 19 20 20 21 21 22 22 23 23
REMARK SMILES IDX 24 24
REMARK H PARENT
REMARK Flexibility Score: inf
ROOT
ATOM      1  C   UNL     1      -4.453   5.988  -8.924  1.00  0.00     0.000 C 
ENDROOT
BRANCH   1   2
ATOM      2  C   UNL     1      -5.285   6.939  -9.799  1.00  0.00     0.000 C 
BRANCH   2   3
ATOM      3  C   UNL     1      -6.795   6.835  -9.523  1.00  0.00     0.000 C 
BRANCH   3   4
ATOM      4  C   UNL     1      -7.180   5.632  -8.634  1.00  0.00    -0.000 C 
BRANCH   4   5
ATOM      5  C   UNL     1      -8.701   5.513  -8.451  1.00  0.00    -0.000 C 
BRANCH   5   6
ATOM      6  C   UNL     1      -9.043   4.750  -7.162  1.00  0.00    -0.000 C 
BRANCH   6   7
ATOM      7  C   UNL     1      -9.724   5.636  -6.104  1.00  0.00    -0.000 C 
BRANCH   7   8
ATOM      8  C   UNL     1      -8.895   6.850  -5.645  1.00  0.00    -0.000 C 
BRANCH   8   9
ATOM      9  C   UNL     1      -9.763   7.993  -5.096  1.00  0.00    -0.000 C 
BRANCH   9  10
ATOM     10  C   UNL     1     -10.125   8.989  -6.208  1.00  0.00    -0.000 C 
BRANCH  10  11
ATOM     11  C   UNL     1      -8.946   9.893  -6.602  1.00  0.00    -0.003 C 
ATOM     12  C   UNL     1      -8.664   9.872  -8.104  1.00  0.00     0.004 C 
ENDBRANCH  10  11
ENDBRANCH   9  10
ENDBRANCH   8   9
ENDBRANCH   7   8
ENDBRANCH   6   7
ENDBRANCH   5   6
ENDBRANCH   4   5
ENDBRANCH   3   4
ENDBRANCH   2   3
ENDBRANCH   1   2
BRANCH   1  13
ATOM     13  C   UNL     1      -3.879   6.685  -7.681  1.00  0.00     0.000 C 
BRANCH  13  14
ATOM     14  C   UNL     1      -4.375   6.056  -6.365  1.00  0.00     0.000 C 
BRANCH  14  15
ATOM     15  C   UNL     1      -5.380   6.951  -5.619  1.00  0.00     0.000 C 
BRANCH  15  16
ATOM     16  C   UNL     1      -5.650   8.314  -6.285  1.00  0.00     0.000 C 
BRANCH  16  17
ATOM     17  C   UNL     1      -5.651   9.479  -5.280  1.00  0.00     0.000 C 
BRANCH  17  18
ATOM     18  C   UNL     1      -4.898   9.137  -3.978  1.00  0.00     0.000 C 
BRANCH  18  19
ATOM     19  C   UNL     1      -3.747  10.106  -3.642  1.00  0.00     0.000 C 
BRANCH  19  20
ATOM     20  C   UNL     1      -2.355   9.444  -3.617  1.00  0.00     0.006 C 
BRANCH  20  21
ATOM     21  C   UNL     1      -2.102   8.568  -4.851  1.00  0.00     0.053 C 
BRANCH  21  22
ATOM     22  C   UNL     1      -0.669   8.651  -5.275  1.00  0.00     0.041 C 
ATOM     23  O   UNL     1       0.162   7.795  -4.871  1.00  0.00    -0.550 OA
ATOM     24  O   UNL     1      -0.246   9.681  -6.108  1.00  0.00    -0.550 OA
ENDBRANCH  21  22
ENDBRANCH  20  21
ENDBRANCH  19  20
ENDBRANCH  18  19
ENDBRANCH  17  18
ENDBRANCH  16  17
ENDBRANCH  15  16
ENDBRANCH  14  15
ENDBRANCH  13  14
ENDBRANCH   1  13
TORSDOF 20
ENDMDL
