MODEL 1
REMARK VINA RESULT:     2.373      0.000      0.000
REMARK INTER + INTRA:           2.631
REMARK INTER:                   2.651
REMARK INTRA:                  -0.020
REMARK UNBOUND:                -0.020
REMARK SMILES CCCC(=O)[O-]
REMARK SMILES IDX 3 1 4 2 5 3 6 4 2 5 1 6
REMARK H PARENT
REMARK Flexibility Score: inf
ROOT
ATOM      1  C   UNL     1      -0.548   9.501 -25.669  1.00  0.00     0.052 C 
ENDROOT
BRANCH   1   2
ATOM      2  C   UNL     1       0.621   8.848 -26.338  1.00  0.00     0.041 C 
ATOM      3  O   UNL     1       1.349   9.507 -27.125  1.00  0.00    -0.550 OA
ATOM      4  O   UNL     1       0.934   7.525 -26.055  1.00  0.00    -0.550 OA
ENDBRANCH   1   2
BRANCH   1   5
ATOM      5  C   UNL     1      -0.887   8.780 -24.362  1.00  0.00     0.003 C 
ATOM      6  C   UNL     1      -2.394   8.755 -24.122  1.00  0.00     0.004 C 
ENDBRANCH   1   5
TORSDOF 2
ENDMDL
MODEL 2
REMARK VINA RESULT:     2.431      9.795     10.316
REMARK INTER + INTRA:           2.696
REMARK INTER:                   2.708
REMARK INTRA:                  -0.012
REMARK UNBOUND:                -0.020
REMARK SMILES CCCC(=O)[O-]
REMARK SMILES IDX 3 1 4 2 5 3 6 4 2 5 1 6
REMARK H PARENT
REMARK Flexibility Score: inf
ROOT
ATOM      1  C   UNL     1      -5.282  17.476 -25.826  1.00  0.00     0.052 C 
ENDROOT
BRANCH   1   2
ATOM      2  C   UNL     1      -5.405  18.216 -24.531  1.00  0.00     0.041 C 
ATOM      3  O   UNL     1      -6.032  19.306 -24.481  1.00  0.00    -0.550 OA
ATOM      4  O   UNL     1      -4.870  17.675 -23.369  1.00  0.00    -0.550 OA
ENDBRANCH   1   2
BRANCH   1   5
ATOM      5  C   UNL     1      -4.688  16.084 -25.594  1.00  0.00     0.003 C 
ATOM      6  C   UNL     1      -5.107  15.116 -26.696  1.00  0.00     0.004 C 
ENDBRANCH   1   5
TORSDOF 2
ENDMDL
MODEL 3
REMARK VINA RESULT:     4.403      2.034      3.100
REMARK INTER + INTRA:           4.898
REMARK INTER:                   4.077
REMARK INTRA:                   0.821
REMARK UNBOUND:                -0.020
REMARK SMILES CCCC(=O)[O-]
REMARK SMILES IDX 3 1 4 2 5 3 6 4 2 5 1 6
REMARK H PARENT
REMARK Flexibility Score: inf
ROOT
ATOM      1  C   UNL     1       0.426   7.961 -25.185  1.00  0.00     0.052 C 
ENDROOT
BRANCH   1   2
ATOM      2  C   UNL     1      -0.741   8.821 -24.811  1.00  0.00     0.041 C 
ATOM      3  O   UNL     1      -0.898   9.946 -25.352  1.00  0.00    -0.550 OA
ATOM      4  O   UNL     1      -1.683   8.357 -23.902  1.00  0.00    -0.550 OA
ENDBRANCH   1   2
BRANCH   1   5
ATOM      5  C   UNL     1       0.719   8.078 -26.683  1.00  0.00     0.003 C 
ATOM      6  C   UNL     1       1.009   9.524 -27.075  1.00  0.00     0.004 C 
ENDBRANCH   1   5
TORSDOF 2
ENDMDL
MODEL 4
REMARK VINA RESULT:     4.845      9.209      9.717
REMARK INTER + INTRA:           5.392
REMARK INTER:                   5.409
REMARK INTRA:                  -0.017
REMARK UNBOUND:                -0.020
REMARK SMILES CCCC(=O)[O-]
REMARK SMILES IDX 3 1 4 2 5 3 6 4 2 5 1 6
REMARK H PARENT
REMARK Flexibility Score: inf
ROOT
ATOM      1  C   UNL     1      -4.625  17.019 -25.012  1.00  0.00     0.052 C 
ENDROOT
BRANCH   1   2
ATOM      2  C   UNL     1      -5.001  15.947 -25.986  1.00  0.00     0.041 C 
ATOM      3  O   UNL     1      -4.664  14.753 -25.776  1.00  0.00    -0.550 OA
ATOM      4  O   UNL     1      -5.766  16.260 -27.102  1.00  0.00    -0.550 OA
ENDBRANCH   1   2
BRANCH   1   5
ATOM      5  C   UNL     1      -5.570  18.215 -25.141  1.00  0.00     0.003 C 
ATOM      6  C   UNL     1      -6.130  18.624 -23.781  1.00  0.00     0.004 C 
ENDBRANCH   1   5
TORSDOF 2
ENDMDL
MODEL 5
REMARK VINA RESULT:     4.929     12.815     13.810
REMARK INTER + INTRA:           5.485
REMARK INTER:                   5.493
REMARK INTRA:                  -0.008
REMARK UNBOUND:                -0.020
REMARK SMILES CCCC(=O)[O-]
REMARK SMILES IDX 3 1 4 2 5 3 6 4 2 5 1 6
REMARK H PARENT
REMARK Flexibility Score: inf
ROOT
ATOM      1  C   UNL     1      -9.295  15.596 -17.461  1.00  0.00     0.052 C 
ENDROOT
BRANCH   1   2
ATOM      2  C   UNL     1      -9.198  14.341 -18.270  1.00  0.00     0.041 C 
ATOM      3  O   UNL     1      -9.588  13.245 -17.790  1.00  0.00    -0.550 OA
ATOM      4  O   UNL     1      -8.723  14.391 -19.575  1.00  0.00    -0.550 OA
ENDBRANCH   1   2
BRANCH   1   5
ATOM      5  C   UNL     1     -10.003  16.694 -18.257  1.00  0.00     0.003 C 
ATOM      6  C   UNL     1      -9.881  18.046 -17.561  1.00  0.00     0.004 C 
ENDBRANCH   1   5
TORSDOF 2
ENDMDL
MODEL 6
REMARK VINA RESULT:     5.329     14.859     15.502
REMARK INTER + INTRA:           5.933
REMARK INTER:                   5.820
REMARK INTRA:                   0.112
REMARK UNBOUND:                -0.020
REMARK SMILES CCCC(=O)[O-]
REMARK SMILES IDX 3 1 4 2 5 3 6 4 2 5 1 6
REMARK H PARENT
REMARK Flexibility Score: inf
ROOT
ATOM      1  C   UNL     1     -13.257  15.846 -23.517  1.00  0.00     0.052 C 
ENDROOT
BRANCH   1   2
ATOM      2  C   UNL     1     -14.043  14.678 -23.009  1.00  0.00     0.041 C 
ATOM      3  O   UNL     1     -15.125  14.863 -22.392  1.00  0.00    -0.550 OA
ATOM      4  O   UNL     1     -13.606  13.384 -23.259  1.00  0.00    -0.550 OA
ENDBRANCH   1   2
BRANCH   1   5
ATOM      5  C   UNL     1     -13.251  15.860 -25.048  1.00  0.00     0.003 C 
ATOM      6  C   UNL     1     -14.604  15.432 -25.608  1.00  0.00     0.004 C 
ENDBRANCH   1   5
TORSDOF 2
ENDMDL
MODEL 7
REMARK VINA RESULT:     5.343      2.930      3.716
REMARK INTER + INTRA:           5.948
REMARK INTER:                   5.968
REMARK INTRA:                  -0.020
REMARK UNBOUND:                -0.020
REMARK SMILES CCCC(=O)[O-]
REMARK SMILES IDX 3 1 4 2 5 3 6 4 2 5 1 6
REMARK H PARENT
REMARK Flexibility Score: inf
ROOT
ATOM      1  C   UNL     1      -1.695   8.030 -22.952  1.00  0.00     0.052 C 
ENDROOT
BRANCH   1   2
ATOM      2  C   UNL     1      -2.047   8.798 -24.187  1.00  0.00     0.041 C 
ATOM      3  O   UNL     1      -3.251   8.926 -24.533  1.00  0.00    -0.550 OA
ATOM      4  O   UNL     1      -1.049   9.415 -24.930  1.00  0.00    -0.550 OA
ENDBRANCH   1   2
BRANCH   1   5
ATOM      5  C   UNL     1      -2.923   7.290 -22.414  1.00  0.00     0.003 C 
ATOM      6  C   UNL     1      -2.891   7.207 -20.891  1.00  0.00     0.004 C 
ENDBRANCH   1   5
TORSDOF 2
ENDMDL
