MODEL 1
REMARK VINA RESULT:    -5.418      0.000      0.000
REMARK INTER + INTRA:          -6.865
REMARK INTER:                  -7.635
REMARK INTRA:                   0.771
REMARK UNBOUND:                 0.771
REMARK SMILES CC1=CCC(=C(C)C)C(=O)CC(C)=CCC1
REMARK SMILES IDX 12 1 14 2 13 3 15 4 16 5 2 6 1 7 3 8 11 10 9 11 10 12 5 13
REMARK SMILES IDX 6 14 7 15 8 16 4 17
REMARK H PARENT
REMARK Flexibility Score: 60.00
ROOT
ATOM      1  C   UNL     1     -13.532 -32.711  29.040  1.00  0.00    -0.070 C 
ATOM      2  C   UNL     1     -14.175 -32.753  30.235  1.00  0.00    -0.027 C 
ATOM      3  C   UNL     1     -14.370 -32.438  27.814  1.00  0.00     0.039 C 
ENDROOT
BRANCH   2   4
ATOM      4  C   UNL     1     -13.526 -32.909  31.590  1.00  0.00     0.032 C 
BRANCH   4   5
ATOM      5  C   UNL     1     -12.901 -34.293  31.809  1.00  0.00     0.034 C 
BRANCH   5   6
ATOM      6  C   UNL     1     -11.396 -34.173  31.942  1.00  0.00    -0.077 C 
ATOM      7  C   UNL     1     -10.842 -33.125  32.872  1.00  0.00     0.039 C 
ATOM      8  C   UNL     1     -10.522 -34.906  31.211  1.00  0.00    -0.023 CG0
ATOM      9  G   UNL     1     -10.888 -36.007  30.245  1.00  0.00     0.000 G0
ENDBRANCH   5   6
ENDBRANCH   4   5
ENDBRANCH   2   4
BRANCH   1  10
ATOM     10  C   UNL     1     -12.046 -32.999  28.847  1.00  0.00     0.111 C 
BRANCH  10  11
ATOM     11  C   UNL     1     -11.748 -34.406  28.391  1.00  0.00     0.163 C 
ATOM     12  O   UNL     1     -11.339 -34.562  27.208  1.00  0.00    -0.294 OA
BRANCH  11  13
ATOM     13  C   UNL     1     -11.975 -35.607  29.263  1.00  0.00    -0.002 C 
ATOM     14  C   UNL     1     -13.115 -36.354  29.141  1.00  0.00    -0.069 C 
ATOM     15  C   UNL     1     -13.324 -37.624  29.938  1.00  0.00     0.039 C 
ATOM     16  C   UNL     1     -14.255 -35.928  28.240  1.00  0.00     0.039 C 
BRANCH  13  17
ATOM     17  C   UNL     1     -10.882 -36.014  30.250  1.00  0.00     0.066 CG0
ATOM     18  G   UNL     1     -10.521 -34.893  31.196  1.00  0.00     0.000 G0
ENDBRANCH  13  17
ENDBRANCH  11  13
ENDBRANCH  10  11
ENDBRANCH   1  10
TORSDOF 0
ENDMDL
MODEL 2
REMARK VINA RESULT:    -5.359      2.255      4.178
REMARK INTER + INTRA:          -6.781
REMARK INTER:                  -7.350
REMARK INTRA:                   0.569
REMARK UNBOUND:                 0.771
REMARK SMILES CC1=CCC(=C(C)C)C(=O)CC(C)=CCC1
REMARK SMILES IDX 12 1 14 2 13 3 15 4 16 5 2 6 1 7 3 8 11 10 9 11 10 12 5 13
REMARK SMILES IDX 6 14 7 15 8 16 4 17
REMARK H PARENT
REMARK Flexibility Score: 60.00
ROOT
ATOM      1  C   UNL     1     -10.448 -33.786  31.489  1.00  0.00    -0.070 C 
ATOM      2  C   UNL     1      -9.889 -33.219  30.389  1.00  0.00    -0.027 C 
ATOM      3  C   UNL     1     -10.161 -33.137  32.822  1.00  0.00     0.039 C 
ENDROOT
BRANCH   2   4
ATOM      4  C   UNL     1     -10.122 -33.637  28.956  1.00  0.00     0.032 C 
BRANCH   4   5
ATOM      5  C   UNL     1     -11.434 -33.097  28.372  1.00  0.00     0.034 C 
BRANCH   5   6
ATOM      6  C   UNL     1     -12.016 -34.089  27.385  1.00  0.00    -0.077 C 
ATOM      7  C   UNL     1     -11.321 -34.270  26.060  1.00  0.00     0.039 C 
ATOM      8  C   UNL     1     -13.171 -34.764  27.599  1.00  0.00    -0.023 CG0
ATOM      9  G   UNL     1     -13.994 -34.722  28.865  1.00  0.00     0.000 G0
ENDBRANCH   5   6
ENDBRANCH   4   5
ENDBRANCH   2   4
BRANCH   1  10
ATOM     10  C   UNL     1     -11.274 -35.069  31.475  1.00  0.00     0.111 C 
BRANCH  10  11
ATOM     11  C   UNL     1     -12.726 -34.859  31.126  1.00  0.00     0.163 C 
ATOM     12  O   UNL     1     -13.401 -34.095  31.870  1.00  0.00    -0.294 OA
BRANCH  11  13
ATOM     13  C   UNL     1     -13.395 -35.561  29.980  1.00  0.00    -0.002 C 
ATOM     14  C   UNL     1     -13.507 -36.925  29.966  1.00  0.00    -0.069 C 
ATOM     15  C   UNL     1     -14.262 -37.650  28.872  1.00  0.00     0.039 C 
ATOM     16  C   UNL     1     -12.841 -37.791  31.013  1.00  0.00     0.039 C 
BRANCH  13  17
ATOM     17  C   UNL     1     -14.001 -34.720  28.857  1.00  0.00     0.066 CG0
ATOM     18  G   UNL     1     -13.164 -34.759  27.601  1.00  0.00     0.000 G0
ENDBRANCH  13  17
ENDBRANCH  11  13
ENDBRANCH  10  11
ENDBRANCH   1  10
TORSDOF 0
ENDMDL
MODEL 3
REMARK VINA RESULT:    -5.315      1.758      3.802
REMARK INTER + INTRA:          -6.720
REMARK INTER:                  -7.348
REMARK INTRA:                   0.628
REMARK UNBOUND:                 0.771
REMARK SMILES CC1=CCC(=C(C)C)C(=O)CC(C)=CCC1
REMARK SMILES IDX 12 1 14 2 13 3 15 4 16 5 2 6 1 7 3 8 11 10 9 11 10 12 5 13
REMARK SMILES IDX 6 14 7 15 8 16 4 17
REMARK H PARENT
REMARK Flexibility Score: 60.00
ROOT
ATOM      1  C   UNL     1     -13.138 -34.020  31.410  1.00  0.00    -0.070 C 
ATOM      2  C   UNL     1     -13.618 -35.281  31.569  1.00  0.00    -0.027 C 
ATOM      3  C   UNL     1     -14.119 -32.883  31.569  1.00  0.00     0.039 C 
ENDROOT
BRANCH   2   4
ATOM      4  C   UNL     1     -12.803 -36.552  31.556  1.00  0.00     0.032 C 
BRANCH   4   5
ATOM      5  C   UNL     1     -12.156 -36.846  30.196  1.00  0.00     0.034 C 
BRANCH   5   6
ATOM      6  C   UNL     1     -13.204 -36.825  29.102  1.00  0.00    -0.077 C 
ATOM      7  C   UNL     1     -14.334 -37.820  29.175  1.00  0.00     0.039 C 
ATOM      8  C   UNL     1     -13.137 -36.012  28.020  1.00  0.00    -0.023 CG0
ATOM      9  G   UNL     1     -12.094 -34.947  27.782  1.00  0.00     0.000 G0
ENDBRANCH   5   6
ENDBRANCH   4   5
ENDBRANCH   2   4
BRANCH   1  10
ATOM     10  C   UNL     1     -11.705 -33.686  31.009  1.00  0.00     0.111 C 
BRANCH  10  11
ATOM     11  C   UNL     1     -11.571 -33.151  29.605  1.00  0.00     0.163 C 
ATOM     12  O   UNL     1     -10.722 -32.239  29.405  1.00  0.00    -0.294 OA
BRANCH  11  13
ATOM     13  C   UNL     1     -12.439 -33.618  28.472  1.00  0.00    -0.002 C 
ATOM     14  C   UNL     1     -13.486 -32.854  28.033  1.00  0.00    -0.069 C 
ATOM     15  C   UNL     1     -14.315 -33.255  26.831  1.00  0.00     0.039 C 
ATOM     16  C   UNL     1     -13.907 -31.591  28.752  1.00  0.00     0.039 C 
BRANCH  13  17
ATOM     17  C   UNL     1     -12.095 -34.937  27.780  1.00  0.00     0.066 CG0
ATOM     18  G   UNL     1     -13.144 -35.996  28.019  1.00  0.00     0.000 G0
ENDBRANCH  13  17
ENDBRANCH  11  13
ENDBRANCH  10  11
ENDBRANCH   1  10
TORSDOF 0
ENDMDL
MODEL 4
REMARK VINA RESULT:    -5.271      1.861      3.791
REMARK INTER + INTRA:          -6.657
REMARK INTER:                  -7.504
REMARK INTRA:                   0.847
REMARK UNBOUND:                 0.771
REMARK SMILES CC1=CCC(=C(C)C)C(=O)CC(C)=CCC1
REMARK SMILES IDX 12 1 14 2 13 3 15 4 16 5 2 6 1 7 3 8 11 10 9 11 10 12 5 13
REMARK SMILES IDX 6 14 7 15 8 16 4 17
REMARK H PARENT
REMARK Flexibility Score: 60.00
ROOT
ATOM      1  C   UNL     1     -11.528 -34.041  27.927  1.00  0.00    -0.070 C 
ATOM      2  C   UNL     1     -10.677 -34.642  28.797  1.00  0.00    -0.027 C 
ATOM      3  C   UNL     1     -11.489 -34.506  26.491  1.00  0.00     0.039 C 
ENDROOT
BRANCH   2   4
ATOM      4  C   UNL     1     -10.615 -34.409  30.288  1.00  0.00     0.032 C 
BRANCH   4   5
ATOM      5  C   UNL     1     -10.825 -35.687  31.112  1.00  0.00     0.034 C 
BRANCH   5   6
ATOM      6  C   UNL     1     -12.255 -36.169  30.976  1.00  0.00    -0.077 C 
ATOM      7  C   UNL     1     -12.491 -37.605  30.582  1.00  0.00     0.039 C 
ATOM      8  C   UNL     1     -13.333 -35.359  31.115  1.00  0.00    -0.023 CG0
ATOM      9  G   UNL     1     -13.295 -33.905  31.520  1.00  0.00     0.000 G0
ENDBRANCH   5   6
ENDBRANCH   4   5
ENDBRANCH   2   4
BRANCH   1  10
ATOM     10  C   UNL     1     -12.455 -32.884  28.286  1.00  0.00     0.111 C 
BRANCH  10  11
ATOM     11  C   UNL     1     -13.707 -33.305  29.015  1.00  0.00     0.163 C 
ATOM     12  O   UNL     1     -14.606 -33.885  28.346  1.00  0.00    -0.294 OA
BRANCH  11  13
ATOM     13  C   UNL     1     -13.937 -33.010  30.469  1.00  0.00    -0.002 C 
ATOM     14  C   UNL     1     -14.752 -31.979  30.852  1.00  0.00    -0.069 C 
ATOM     15  C   UNL     1     -15.078 -31.722  32.308  1.00  0.00     0.039 C 
ATOM     16  C   UNL     1     -15.333 -31.007  29.849  1.00  0.00     0.039 C 
BRANCH  13  17
ATOM     17  C   UNL     1     -13.291 -33.919  31.514  1.00  0.00     0.066 CG0
ATOM     18  G   UNL     1     -13.343 -35.374  31.114  1.00  0.00     0.000 G0
ENDBRANCH  13  17
ENDBRANCH  11  13
ENDBRANCH  10  11
ENDBRANCH   1  10
TORSDOF 0
ENDMDL
MODEL 5
REMARK VINA RESULT:    -5.262      1.916      3.510
REMARK INTER + INTRA:          -6.645
REMARK INTER:                  -6.978
REMARK INTRA:                   0.334
REMARK UNBOUND:                 0.771
REMARK SMILES CC1=CCC(=C(C)C)C(=O)CC(C)=CCC1
REMARK SMILES IDX 12 1 14 2 13 3 15 4 16 5 2 6 1 7 3 8 11 10 9 11 10 12 5 13
REMARK SMILES IDX 6 14 7 15 8 16 4 17
REMARK H PARENT
REMARK Flexibility Score: 60.00
ROOT
ATOM      1  C   UNL     1     -13.365 -36.876  29.401  1.00  0.00    -0.070 C 
ATOM      2  C   UNL     1     -13.963 -36.782  30.617  1.00  0.00    -0.027 C 
ATOM      3  C   UNL     1     -14.107 -37.632  28.324  1.00  0.00     0.039 C 
ENDROOT
BRANCH   2   4
ATOM      4  C   UNL     1     -13.455 -35.993  31.800  1.00  0.00     0.032 C 
BRANCH   4   5
ATOM      5  C   UNL     1     -14.315 -34.765  32.126  1.00  0.00     0.034 C 
BRANCH   5   6
ATOM      6  C   UNL     1     -13.531 -33.493  31.874  1.00  0.00    -0.077 C 
ATOM      7  C   UNL     1     -12.872 -32.815  33.047  1.00  0.00     0.039 C 
ATOM      8  C   UNL     1     -13.455 -32.891  30.662  1.00  0.00    -0.023 CG0
ATOM      9  G   UNL     1     -14.035 -33.427  29.375  1.00  0.00     0.000 G0
ENDBRANCH   5   6
ENDBRANCH   4   5
ENDBRANCH   2   4
BRANCH   1  10
ATOM     10  C   UNL     1     -11.973 -36.343  29.080  1.00  0.00     0.111 C 
BRANCH  10  11
ATOM     11  C   UNL     1     -11.895 -34.838  29.008  1.00  0.00     0.163 C 
ATOM     12  O   UNL     1     -10.876 -34.281  29.501  1.00  0.00    -0.294 OA
BRANCH  11  13
ATOM     13  C   UNL     1     -12.996 -33.995  28.432  1.00  0.00    -0.002 C 
ATOM     14  C   UNL     1     -13.087 -33.791  27.081  1.00  0.00    -0.069 C 
ATOM     15  C   UNL     1     -14.241 -33.027  26.468  1.00  0.00     0.039 C 
ATOM     16  C   UNL     1     -12.015 -34.273  26.128  1.00  0.00     0.039 C 
BRANCH  13  17
ATOM     17  C   UNL     1     -14.047 -33.415  29.378  1.00  0.00     0.066 CG0
ATOM     18  G   UNL     1     -13.438 -32.893  30.657  1.00  0.00     0.000 G0
ENDBRANCH  13  17
ENDBRANCH  11  13
ENDBRANCH  10  11
ENDBRANCH   1  10
TORSDOF 0
ENDMDL
MODEL 6
REMARK VINA RESULT:    -5.125      1.802      3.537
REMARK INTER + INTRA:          -6.452
REMARK INTER:                  -7.165
REMARK INTRA:                   0.712
REMARK UNBOUND:                 0.771
REMARK SMILES CC1=CCC(=C(C)C)C(=O)CC(C)=CCC1
REMARK SMILES IDX 12 1 14 2 13 3 15 4 16 5 2 6 1 7 3 8 11 10 9 11 10 12 5 13
REMARK SMILES IDX 6 14 7 15 8 16 4 17
REMARK H PARENT
REMARK Flexibility Score: 60.00
ROOT
ATOM      1  C   UNL     1     -13.588 -33.356  31.086  1.00  0.00    -0.070 C 
ATOM      2  C   UNL     1     -14.393 -32.564  30.331  1.00  0.00    -0.027 C 
ATOM      3  C   UNL     1     -14.249 -34.192  32.155  1.00  0.00     0.039 C 
ENDROOT
BRANCH   2   4
ATOM      4  C   UNL     1     -13.966 -31.728  29.149  1.00  0.00     0.032 C 
BRANCH   4   5
ATOM      5  C   UNL     1     -12.897 -32.405  28.281  1.00  0.00     0.034 C 
BRANCH   5   6
ATOM      6  C   UNL     1     -13.516 -33.519  27.460  1.00  0.00    -0.077 C 
ATOM      7  C   UNL     1     -14.766 -33.217  26.673  1.00  0.00     0.039 C 
ATOM      8  C   UNL     1     -13.051 -34.791  27.458  1.00  0.00    -0.023 CG0
ATOM      9  G   UNL     1     -11.811 -35.277  28.170  1.00  0.00     0.000 G0
ENDBRANCH   5   6
ENDBRANCH   4   5
ENDBRANCH   2   4
BRANCH   1  10
ATOM     10  C   UNL     1     -12.068 -33.395  30.976  1.00  0.00     0.111 C 
BRANCH  10  11
ATOM     11  C   UNL     1     -11.508 -34.769  30.698  1.00  0.00     0.163 C 
ATOM     12  O   UNL     1     -10.512 -35.142  31.378  1.00  0.00    -0.294 OA
BRANCH  11  13
ATOM     13  C   UNL     1     -12.051 -35.663  29.622  1.00  0.00    -0.002 C 
ATOM     14  C   UNL     1     -12.793 -36.769  29.940  1.00  0.00    -0.069 C 
ATOM     15  C   UNL     1     -13.432 -37.631  28.873  1.00  0.00     0.039 C 
ATOM     16  C   UNL     1     -12.976 -37.221  31.373  1.00  0.00     0.039 C 
BRANCH  13  17
ATOM     17  C   UNL     1     -11.807 -35.286  28.161  1.00  0.00     0.066 CG0
ATOM     18  G   UNL     1     -13.061 -34.789  27.483  1.00  0.00     0.000 G0
ENDBRANCH  13  17
ENDBRANCH  11  13
ENDBRANCH  10  11
ENDBRANCH   1  10
TORSDOF 0
ENDMDL
MODEL 7
REMARK VINA RESULT:    -5.084      1.419      2.171
REMARK INTER + INTRA:          -6.394
REMARK INTER:                  -6.663
REMARK INTRA:                   0.269
REMARK UNBOUND:                 0.771
REMARK SMILES CC1=CCC(=C(C)C)C(=O)CC(C)=CCC1
REMARK SMILES IDX 12 1 14 2 13 3 15 4 16 5 2 6 1 7 3 8 11 10 9 11 10 12 5 13
REMARK SMILES IDX 6 14 7 15 8 16 4 17
REMARK H PARENT
REMARK Flexibility Score: 60.00
ROOT
ATOM      1  C   UNL     1     -14.283 -33.219  27.605  1.00  0.00    -0.070 C 
ATOM      2  C   UNL     1     -14.500 -32.072  28.299  1.00  0.00    -0.027 C 
ATOM      3  C   UNL     1     -14.063 -33.095  26.117  1.00  0.00     0.039 C 
ENDROOT
BRANCH   2   4
ATOM      4  C   UNL     1     -14.642 -31.949  29.797  1.00  0.00     0.032 C 
BRANCH   4   5
ATOM      5  C   UNL     1     -13.375 -32.355  30.562  1.00  0.00     0.034 C 
BRANCH   5   6
ATOM      6  C   UNL     1     -13.728 -33.288  31.703  1.00  0.00    -0.077 C 
ATOM      7  C   UNL     1     -14.754 -32.831  32.708  1.00  0.00     0.039 C 
ATOM      8  C   UNL     1     -13.113 -34.477  31.912  1.00  0.00    -0.023 CG0
ATOM      9  G   UNL     1     -12.077 -35.103  31.010  1.00  0.00     0.000 G0
ENDBRANCH   5   6
ENDBRANCH   4   5
ENDBRANCH   2   4
BRANCH   1  10
ATOM     10  C   UNL     1     -14.325 -34.617  28.214  1.00  0.00     0.111 C 
BRANCH  10  11
ATOM     11  C   UNL     1     -12.967 -35.174  28.563  1.00  0.00     0.163 C 
ATOM     12  O   UNL     1     -12.051 -35.063  27.702  1.00  0.00    -0.294 OA
BRANCH  11  13
ATOM     13  C   UNL     1     -12.692 -35.895  29.851  1.00  0.00    -0.002 C 
ATOM     14  C   UNL     1     -12.947 -37.234  29.971  1.00  0.00    -0.069 C 
ATOM     15  C   UNL     1     -12.588 -38.003  31.224  1.00  0.00     0.039 C 
ATOM     16  C   UNL     1     -13.646 -38.014  28.879  1.00  0.00     0.039 C 
BRANCH  13  17
ATOM     17  C   UNL     1     -12.068 -35.116  31.009  1.00  0.00     0.066 CG0
ATOM     18  G   UNL     1     -13.110 -34.474  31.892  1.00  0.00     0.000 G0
ENDBRANCH  13  17
ENDBRANCH  11  13
ENDBRANCH  10  11
ENDBRANCH   1  10
TORSDOF 0
ENDMDL
MODEL 8
REMARK VINA RESULT:    -4.987      1.689      3.380
REMARK INTER + INTRA:          -6.258
REMARK INTER:                  -6.631
REMARK INTRA:                   0.374
REMARK UNBOUND:                 0.771
REMARK SMILES CC1=CCC(=C(C)C)C(=O)CC(C)=CCC1
REMARK SMILES IDX 12 1 14 2 13 3 15 4 16 5 2 6 1 7 3 8 11 10 9 11 10 12 5 13
REMARK SMILES IDX 6 14 7 15 8 16 4 17
REMARK H PARENT
REMARK Flexibility Score: 60.00
ROOT
ATOM      1  C   UNL     1     -11.307 -34.859  28.222  1.00  0.00    -0.070 C 
ATOM      2  C   UNL     1     -10.247 -34.670  29.051  1.00  0.00    -0.027 C 
ATOM      3  C   UNL     1     -11.389 -33.980  26.997  1.00  0.00     0.039 C 
ENDROOT
BRANCH   2   4
ATOM      4  C   UNL     1      -9.912 -35.497  30.269  1.00  0.00     0.032 C 
BRANCH   4   5
ATOM      5  C   UNL     1     -11.002 -35.461  31.348  1.00  0.00     0.034 C 
BRANCH   5   6
ATOM      6  C   UNL     1     -11.322 -34.028  31.722  1.00  0.00    -0.077 C 
ATOM      7  C   UNL     1     -10.216 -33.170  32.281  1.00  0.00     0.039 C 
ATOM      8  C   UNL     1     -12.568 -33.499  31.653  1.00  0.00    -0.023 CG0
ATOM      9  G   UNL     1     -13.792 -34.196  31.109  1.00  0.00     0.000 G0
ENDBRANCH   5   6
ENDBRANCH   4   5
ENDBRANCH   2   4
BRANCH   1  10
ATOM     10  C   UNL     1     -12.447 -35.836  28.487  1.00  0.00     0.111 C 
BRANCH  10  11
ATOM     11  C   UNL     1     -13.788 -35.174  28.687  1.00  0.00     0.163 C 
ATOM     12  O   UNL     1     -14.761 -35.609  28.012  1.00  0.00    -0.294 OA
BRANCH  11  13
ATOM     13  C   UNL     1     -13.984 -33.999  29.602  1.00  0.00    -0.002 C 
ATOM     14  C   UNL     1     -14.364 -32.782  29.104  1.00  0.00    -0.069 C 
ATOM     15  C   UNL     1     -14.663 -31.609  30.013  1.00  0.00     0.039 C 
ATOM     16  C   UNL     1     -14.458 -32.523  27.616  1.00  0.00     0.039 C 
BRANCH  13  17
ATOM     17  C   UNL     1     -13.808 -34.203  31.106  1.00  0.00     0.066 CG0
ATOM     18  G   UNL     1     -12.574 -33.512  31.635  1.00  0.00     0.000 G0
ENDBRANCH  13  17
ENDBRANCH  11  13
ENDBRANCH  10  11
ENDBRANCH   1  10
TORSDOF 0
ENDMDL
MODEL 9
REMARK VINA RESULT:    -4.788      1.641      3.123
REMARK INTER + INTRA:          -5.977
REMARK INTER:                  -6.508
REMARK INTRA:                   0.531
REMARK UNBOUND:                 0.771
REMARK SMILES CC1=CCC(=C(C)C)C(=O)CC(C)=CCC1
REMARK SMILES IDX 12 1 14 2 13 3 15 4 16 5 2 6 1 7 3 8 11 10 9 11 10 12 5 13
REMARK SMILES IDX 6 14 7 15 8 16 4 17
REMARK H PARENT
REMARK Flexibility Score: 60.00
ROOT
ATOM      1  C   UNL     1     -13.497 -33.162  31.379  1.00  0.00    -0.070 C 
ATOM      2  C   UNL     1     -12.412 -33.693  32.001  1.00  0.00    -0.027 C 
ATOM      3  C   UNL     1     -14.758 -33.016  32.196  1.00  0.00     0.039 C 
ENDROOT
BRANCH   2   4
ATOM      4  C   UNL     1     -11.029 -33.837  31.412  1.00  0.00     0.032 C 
BRANCH   4   5
ATOM      5  C   UNL     1     -10.506 -35.279  31.434  1.00  0.00     0.034 C 
BRANCH   5   6
ATOM      6  C   UNL     1     -11.540 -36.221  30.852  1.00  0.00    -0.077 C 
ATOM      7  C   UNL     1     -12.127 -37.280  31.750  1.00  0.00     0.039 C 
ATOM      8  C   UNL     1     -11.908 -36.213  29.548  1.00  0.00    -0.023 CG0
ATOM      9  G   UNL     1     -11.441 -35.223  28.508  1.00  0.00     0.000 G0
ENDBRANCH   5   6
ENDBRANCH   4   5
ENDBRANCH   2   4
BRANCH   1  10
ATOM     10  C   UNL     1     -13.546 -32.783  29.902  1.00  0.00     0.111 C 
BRANCH  10  11
ATOM     11  C   UNL     1     -13.692 -33.960  28.971  1.00  0.00     0.163 C 
ATOM     12  O   UNL     1     -14.745 -34.650  29.063  1.00  0.00    -0.294 OA
BRANCH  11  13
ATOM     13  C   UNL     1     -12.622 -34.365  28.000  1.00  0.00    -0.002 C 
ATOM     14  C   UNL     1     -12.657 -33.933  26.701  1.00  0.00    -0.069 C 
ATOM     15  C   UNL     1     -11.540 -34.246  25.728  1.00  0.00     0.039 C 
ATOM     16  C   UNL     1     -13.836 -33.161  26.149  1.00  0.00     0.039 C 
BRANCH  13  17
ATOM     17  C   UNL     1     -11.461 -35.222  28.502  1.00  0.00     0.066 CG0
ATOM     18  G   UNL     1     -11.897 -36.217  29.551  1.00  0.00     0.000 G0
ENDBRANCH  13  17
ENDBRANCH  11  13
ENDBRANCH  10  11
ENDBRANCH   1  10
TORSDOF 0
ENDMDL
