MODEL 1
REMARK VINA RESULT:    -3.170      0.000      0.000
REMARK INTER + INTRA:          -4.468
REMARK INTER:                  -4.097
REMARK INTRA:                  -0.371
REMARK UNBOUND:                -0.371
REMARK SMILES CCO[C@H]1O[C@H](CO)[C@@H](O)[C@H](O)[C@H]1O
REMARK SMILES IDX 4 1 13 2 11 3 9 4 6 5 5 6 3 7 2 8 1 9 14 10 12 12 7 14 8 15
REMARK SMILES IDX 10 17
REMARK H PARENT 14 11 12 13 8 16 10 18
REMARK Flexibility Score: inf
ROOT
ATOM      1  C   UNL     1      14.799  -6.638   3.112  1.00  0.00     0.281 C 
ATOM      2  C   UNL     1      15.164  -8.138   3.234  1.00  0.00     0.202 C 
ATOM      3  C   UNL     1      16.604  -8.330   3.777  1.00  0.00     0.179 C 
ATOM      4  C   UNL     1      17.472  -7.108   3.448  1.00  0.00     0.177 C 
ATOM      5  C   UNL     1      16.809  -5.822   4.038  1.00  0.00     0.178 C 
ATOM      6  O   UNL     1      15.393  -5.914   4.178  1.00  0.00    -0.341 OA
ENDROOT
BRANCH   1   7
ATOM      7  O   UNL     1      13.392  -6.489   3.158  1.00  0.00    -0.350 OA
BRANCH   7   8
ATOM      8  C   UNL     1      13.000  -5.627   4.212  1.00  0.00     0.160 C 
ATOM      9  C   UNL     1      11.993  -6.344   5.099  1.00  0.00     0.035 C 
ENDBRANCH   7   8
ENDBRANCH   1   7
BRANCH   2  10
ATOM     10  O   UNL     1      14.245  -8.830   4.045  1.00  0.00    -0.385 OA
ATOM     11  H   UNL     1      13.638  -9.337   3.443  1.00  0.00     0.211 HD
ENDBRANCH   2  10
BRANCH   3  12
ATOM     12  O   UNL     1      17.183  -9.482   3.220  1.00  0.00    -0.387 OA
ATOM     13  H   UNL     1      16.489 -10.190   3.248  1.00  0.00     0.211 HD
ENDBRANCH   3  12
BRANCH   5  14
ATOM     14  C   UNL     1      17.177  -4.553   3.247  1.00  0.00     0.191 C 
BRANCH  14  15
ATOM     15  O   UNL     1      18.464  -4.106   3.579  1.00  0.00    -0.394 OA
ATOM     16  H   UNL     1      18.909  -3.862   2.725  1.00  0.00     0.210 HD
ENDBRANCH  14  15
ENDBRANCH   5  14
BRANCH   4  17
ATOM     17  O   UNL     1      18.752  -7.290   3.997  1.00  0.00    -0.387 OA
ATOM     18  H   UNL     1      19.376  -7.434   3.240  1.00  0.00     0.211 HD
ENDBRANCH   4  17
TORSDOF 7
ENDMDL
MODEL 2
REMARK VINA RESULT:    -3.093      1.503      3.282
REMARK INTER + INTRA:          -4.368
REMARK INTER:                  -4.012
REMARK INTRA:                  -0.356
REMARK UNBOUND:                -0.371
REMARK SMILES CCO[C@H]1O[C@H](CO)[C@@H](O)[C@H](O)[C@H]1O
REMARK SMILES IDX 4 1 13 2 11 3 9 4 6 5 5 6 3 7 2 8 1 9 14 10 12 12 7 14 8 15
REMARK SMILES IDX 10 17
REMARK H PARENT 14 11 12 13 8 16 10 18
REMARK Flexibility Score: inf
ROOT
ATOM      1  C   UNL     1      14.487  -7.147   3.642  1.00  0.00     0.281 C 
ATOM      2  C   UNL     1      15.242  -5.840   3.990  1.00  0.00     0.202 C 
ATOM      3  C   UNL     1      16.742  -6.110   4.278  1.00  0.00     0.179 C 
ATOM      4  C   UNL     1      16.946  -7.549   4.768  1.00  0.00     0.177 C 
ATOM      5  C   UNL     1      16.382  -8.548   3.706  1.00  0.00     0.178 C 
ATOM      6  O   UNL     1      15.338  -8.007   2.901  1.00  0.00    -0.341 OA
ENDROOT
BRANCH   1   7
ATOM      7  O   UNL     1      13.336  -6.838   2.878  1.00  0.00    -0.350 OA
BRANCH   7   8
ATOM      8  C   UNL     1      12.262  -6.428   3.706  1.00  0.00     0.160 C 
ATOM      9  C   UNL     1      11.470  -5.339   2.998  1.00  0.00     0.035 C 
ENDBRANCH   7   8
ENDBRANCH   1   7
BRANCH   2  10
ATOM     10  O   UNL     1      15.110  -4.879   2.970  1.00  0.00    -0.385 OA
ATOM     11  H   UNL     1      14.206  -4.986   2.574  1.00  0.00     0.211 HD
ENDBRANCH   2  10
BRANCH   3  12
ATOM     12  O   UNL     1      17.219  -5.211   5.247  1.00  0.00    -0.387 OA
ATOM     13  H   UNL     1      16.960  -4.303   4.941  1.00  0.00     0.211 HD
ENDBRANCH   3  12
BRANCH   5  14
ATOM     14  C   UNL     1      15.927  -9.879   4.332  1.00  0.00     0.191 C 
BRANCH  14  15
ATOM     15  O   UNL     1      16.465 -10.045   5.616  1.00  0.00    -0.394 OA
ATOM     16  H   UNL     1      15.705  -9.984   6.253  1.00  0.00     0.210 HD
ENDBRANCH  14  15
ENDBRANCH   5  14
BRANCH   4  17
ATOM     17  O   UNL     1      18.318  -7.778   4.970  1.00  0.00    -0.387 OA
ATOM     18  H   UNL     1      18.445  -8.760   5.020  1.00  0.00     0.211 HD
ENDBRANCH   4  17
TORSDOF 7
ENDMDL
MODEL 3
REMARK VINA RESULT:    -3.056      1.426      3.384
REMARK INTER + INTRA:          -4.321
REMARK INTER:                  -3.915
REMARK INTRA:                  -0.406
REMARK UNBOUND:                -0.371
REMARK SMILES CCO[C@H]1O[C@H](CO)[C@@H](O)[C@H](O)[C@H]1O
REMARK SMILES IDX 4 1 13 2 11 3 9 4 6 5 5 6 3 7 2 8 1 9 14 10 12 12 7 14 8 15
REMARK SMILES IDX 10 17
REMARK H PARENT 14 11 12 13 8 16 10 18
REMARK Flexibility Score: inf
ROOT
ATOM      1  C   UNL     1      15.159  -6.333   4.091  1.00  0.00     0.281 C 
ATOM      2  C   UNL     1      16.478  -6.281   4.902  1.00  0.00     0.202 C 
ATOM      3  C   UNL     1      17.301  -7.585   4.731  1.00  0.00     0.179 C 
ATOM      4  C   UNL     1      16.380  -8.762   4.383  1.00  0.00     0.177 C 
ATOM      5  C   UNL     1      15.571  -8.428   3.089  1.00  0.00     0.178 C 
ATOM      6  O   UNL     1      15.373  -7.032   2.875  1.00  0.00    -0.341 OA
ENDROOT
BRANCH   1   7
ATOM      7  O   UNL     1      14.723  -5.015   3.814  1.00  0.00    -0.350 OA
BRANCH   7   8
ATOM      8  C   UNL     1      13.311  -4.948   3.722  1.00  0.00     0.160 C 
ATOM      9  C   UNL     1      12.697  -6.003   4.630  1.00  0.00     0.035 C 
ENDBRANCH   7   8
ENDBRANCH   1   7
BRANCH   2  10
ATOM     10  O   UNL     1      17.260  -5.165   4.548  1.00  0.00    -0.385 OA
ATOM     11  H   UNL     1      16.743  -4.637   3.884  1.00  0.00     0.211 HD
ENDBRANCH   2  10
BRANCH   3  12
ATOM     12  O   UNL     1      18.006  -7.872   5.912  1.00  0.00    -0.387 OA
ATOM     13  H   UNL     1      18.935  -8.088   5.642  1.00  0.00     0.211 HD
ENDBRANCH   3  12
BRANCH   5  14
ATOM     14  C   UNL     1      14.219  -9.164   3.032  1.00  0.00     0.191 C 
BRANCH  14  15
ATOM     15  O   UNL     1      13.949  -9.818   4.242  1.00  0.00    -0.394 OA
ATOM     16  H   UNL     1      14.707  -9.615   4.852  1.00  0.00     0.210 HD
ENDBRANCH  14  15
ENDBRANCH   5  14
BRANCH   4  17
ATOM     17  O   UNL     1      17.160  -9.914   4.184  1.00  0.00    -0.387 OA
ATOM     18  H   UNL     1      17.661 -10.075   5.025  1.00  0.00     0.211 HD
ENDBRANCH   4  17
TORSDOF 7
ENDMDL
MODEL 4
REMARK VINA RESULT:    -3.044      8.384     11.770
REMARK INTER + INTRA:          -4.305
REMARK INTER:                  -3.891
REMARK INTRA:                  -0.414
REMARK UNBOUND:                -0.371
REMARK SMILES CCO[C@H]1O[C@H](CO)[C@@H](O)[C@H](O)[C@H]1O
REMARK SMILES IDX 4 1 13 2 11 3 9 4 6 5 5 6 3 7 2 8 1 9 14 10 12 12 7 14 8 15
REMARK SMILES IDX 10 17
REMARK H PARENT 14 11 12 13 8 16 10 18
REMARK Flexibility Score: inf
ROOT
ATOM      1  C   UNL     1       5.567  -6.896   5.180  1.00  0.00     0.281 C 
ATOM      2  C   UNL     1       5.211  -8.090   6.100  1.00  0.00     0.202 C 
ATOM      3  C   UNL     1       3.988  -8.878   5.561  1.00  0.00     0.179 C 
ATOM      4  C   UNL     1       3.098  -7.970   4.703  1.00  0.00     0.177 C 
ATOM      5  C   UNL     1       3.941  -7.362   3.537  1.00  0.00     0.178 C 
ATOM      6  O   UNL     1       5.332  -7.250   3.826  1.00  0.00    -0.341 OA
ENDROOT
BRANCH   1   7
ATOM      7  O   UNL     1       6.929  -6.554   5.356  1.00  0.00    -0.350 OA
BRANCH   7   8
ATOM      8  C   UNL     1       7.571  -6.340   4.111  1.00  0.00     0.160 C 
ATOM      9  C   UNL     1       8.908  -5.652   4.347  1.00  0.00     0.035 C 
ENDBRANCH   7   8
ENDBRANCH   1   7
BRANCH   2  10
ATOM     10  O   UNL     1       6.307  -8.956   6.272  1.00  0.00    -0.385 OA
ATOM     11  H   UNL     1       7.068  -8.581   5.755  1.00  0.00     0.211 HD
ENDBRANCH   2  10
BRANCH   3  12
ATOM     12  O   UNL     1       3.239  -9.399   6.629  1.00  0.00    -0.387 OA
ATOM     13  H   UNL     1       3.832  -9.385   7.425  1.00  0.00     0.211 HD
ENDBRANCH   3  12
BRANCH   5  14
ATOM     14  C   UNL     1       3.394  -6.004   3.059  1.00  0.00     0.191 C 
BRANCH  14  15
ATOM     15  O   UNL     1       2.271  -5.620   3.805  1.00  0.00    -0.394 OA
ATOM     16  H   UNL     1       2.442  -4.694   4.121  1.00  0.00     0.210 HD
ENDBRANCH  14  15
ENDBRANCH   5  14
BRANCH   4  17
ATOM     17  O   UNL     1       2.030  -8.725   4.189  1.00  0.00    -0.387 OA
ATOM     18  H   UNL     1       1.440  -8.953   4.953  1.00  0.00     0.211 HD
ENDBRANCH   4  17
TORSDOF 7
ENDMDL
MODEL 5
REMARK VINA RESULT:    -2.951     10.091     12.111
REMARK INTER + INTRA:          -4.184
REMARK INTER:                  -4.046
REMARK INTRA:                  -0.139
REMARK UNBOUND:                -0.371
REMARK SMILES CCO[C@H]1O[C@H](CO)[C@@H](O)[C@H](O)[C@H]1O
REMARK SMILES IDX 4 1 13 2 11 3 9 4 6 5 5 6 3 7 2 8 1 9 14 10 12 12 7 14 8 15
REMARK SMILES IDX 10 17
REMARK H PARENT 14 11 12 13 8 16 10 18
REMARK Flexibility Score: inf
ROOT
ATOM      1  C   UNL     1       5.091  -7.149   4.659  1.00  0.00     0.281 C 
ATOM      2  C   UNL     1       5.496  -7.612   6.080  1.00  0.00     0.202 C 
ATOM      3  C   UNL     1       4.705  -8.875   6.513  1.00  0.00     0.179 C 
ATOM      4  C   UNL     1       3.361  -8.947   5.778  1.00  0.00     0.177 C 
ATOM      5  C   UNL     1       3.608  -8.932   4.235  1.00  0.00     0.178 C 
ATOM      6  O   UNL     1       4.815  -8.281   3.848  1.00  0.00    -0.341 OA
ENDROOT
BRANCH   1   7
ATOM      7  O   UNL     1       6.147  -6.398   4.088  1.00  0.00    -0.350 OA
BRANCH   7   8
ATOM      8  C   UNL     1       5.653  -5.293   3.351  1.00  0.00     0.160 C 
ATOM      9  C   UNL     1       4.487  -4.668   4.103  1.00  0.00     0.035 C 
ENDBRANCH   7   8
ENDBRANCH   1   7
BRANCH   2  10
ATOM     10  O   UNL     1       6.880  -7.853   6.171  1.00  0.00    -0.385 OA
ATOM     11  H   UNL     1       7.094  -8.006   7.129  1.00  0.00     0.211 HD
ENDBRANCH   2  10
BRANCH   3  12
ATOM     12  O   UNL     1       4.482  -8.855   7.900  1.00  0.00    -0.387 OA
ATOM     13  H   UNL     1       4.868  -8.005   8.237  1.00  0.00     0.211 HD
ENDBRANCH   3  12
BRANCH   5  14
ATOM     14  C   UNL     1       2.419  -8.343   3.453  1.00  0.00     0.191 C 
BRANCH  14  15
ATOM     15  O   UNL     1       1.974  -7.147   4.034  1.00  0.00    -0.394 OA
ATOM     16  H   UNL     1       2.737  -6.784   4.557  1.00  0.00     0.210 HD
ENDBRANCH  14  15
ENDBRANCH   5  14
BRANCH   4  17
ATOM     17  O   UNL     1       2.693 -10.125   6.152  1.00  0.00    -0.387 OA
ATOM     18  H   UNL     1       2.816 -10.776   5.415  1.00  0.00     0.211 HD
ENDBRANCH   4  17
TORSDOF 7
ENDMDL
MODEL 6
REMARK VINA RESULT:    -2.938      1.739      3.876
REMARK INTER + INTRA:          -4.168
REMARK INTER:                  -3.785
REMARK INTRA:                  -0.383
REMARK UNBOUND:                -0.371
REMARK SMILES CCO[C@H]1O[C@H](CO)[C@@H](O)[C@H](O)[C@H]1O
REMARK SMILES IDX 4 1 13 2 11 3 9 4 6 5 5 6 3 7 2 8 1 9 14 10 12 12 7 14 8 15
REMARK SMILES IDX 10 17
REMARK H PARENT 14 11 12 13 8 16 10 18
REMARK Flexibility Score: inf
ROOT
ATOM      1  C   UNL     1      12.767  -6.468   4.372  1.00  0.00     0.281 C 
ATOM      2  C   UNL     1      13.912  -5.424   4.395  1.00  0.00     0.202 C 
ATOM      3  C   UNL     1      15.161  -5.934   3.628  1.00  0.00     0.179 C 
ATOM      4  C   UNL     1      15.199  -7.467   3.619  1.00  0.00     0.177 C 
ATOM      5  C   UNL     1      13.880  -8.019   2.988  1.00  0.00     0.178 C 
ATOM      6  O   UNL     1      12.763  -7.144   3.125  1.00  0.00    -0.341 OA
ENDROOT
BRANCH   1   7
ATOM      7  O   UNL     1      11.528  -5.813   4.564  1.00  0.00    -0.350 OA
BRANCH   7   8
ATOM      8  C   UNL     1      10.665  -6.007   3.457  1.00  0.00     0.160 C 
ATOM      9  C   UNL     1       9.344  -5.299   3.720  1.00  0.00     0.035 C 
ENDBRANCH   7   8
ENDBRANCH   1   7
BRANCH   2  10
ATOM     10  O   UNL     1      13.494  -4.186   3.871  1.00  0.00    -0.385 OA
ATOM     11  H   UNL     1      12.725  -3.875   4.417  1.00  0.00     0.211 HD
ENDBRANCH   2  10
BRANCH   3  12
ATOM     12  O   UNL     1      16.332  -5.437   4.225  1.00  0.00    -0.387 OA
ATOM     13  H   UNL     1      17.067  -6.046   3.955  1.00  0.00     0.211 HD
ENDBRANCH   3  12
BRANCH   5  14
ATOM     14  C   UNL     1      13.516  -9.420   3.513  1.00  0.00     0.191 C 
BRANCH  14  15
ATOM     15  O   UNL     1      14.510  -9.913   4.371  1.00  0.00    -0.394 OA
ATOM     16  H   UNL     1      14.059 -10.147   5.225  1.00  0.00     0.210 HD
ENDBRANCH  14  15
ENDBRANCH   5  14
BRANCH   4  17
ATOM     17  O   UNL     1      16.311  -7.896   2.875  1.00  0.00    -0.387 OA
ATOM     18  H   UNL     1      16.571  -7.146   2.282  1.00  0.00     0.211 HD
ENDBRANCH   4  17
TORSDOF 7
ENDMDL
MODEL 7
REMARK VINA RESULT:    -2.787     10.725     12.295
REMARK INTER + INTRA:          -3.973
REMARK INTER:                  -3.575
REMARK INTRA:                  -0.398
REMARK UNBOUND:                -0.371
REMARK SMILES CCO[C@H]1O[C@H](CO)[C@@H](O)[C@H](O)[C@H]1O
REMARK SMILES IDX 4 1 13 2 11 3 9 4 6 5 5 6 3 7 2 8 1 9 14 10 12 12 7 14 8 15
REMARK SMILES IDX 10 17
REMARK H PARENT 14 11 12 13 8 16 10 18
REMARK Flexibility Score: inf
ROOT
ATOM      1  C   UNL     1       3.524  -6.549   3.993  1.00  0.00     0.281 C 
ATOM      2  C   UNL     1       4.487  -5.705   4.866  1.00  0.00     0.202 C 
ATOM      3  C   UNL     1       5.445  -6.606   5.688  1.00  0.00     0.179 C 
ATOM      4  C   UNL     1       4.814  -7.983   5.931  1.00  0.00     0.177 C 
ATOM      5  C   UNL     1       4.452  -8.641   4.561  1.00  0.00     0.178 C 
ATOM      6  O   UNL     1       4.199  -7.703   3.518  1.00  0.00    -0.341 OA
ENDROOT
BRANCH   1   7
ATOM      7  O   UNL     1       3.077  -5.772   2.898  1.00  0.00    -0.350 OA
BRANCH   7   8
ATOM      8  C   UNL     1       1.903  -5.049   3.224  1.00  0.00     0.160 C 
ATOM      9  C   UNL     1       2.104  -3.581   2.876  1.00  0.00     0.035 C 
ENDBRANCH   7   8
ENDBRANCH   1   7
BRANCH   2  10
ATOM     10  O   UNL     1       5.226  -4.794   4.088  1.00  0.00    -0.385 OA
ATOM     11  H   UNL     1       5.332  -3.963   4.622  1.00  0.00     0.211 HD
ENDBRANCH   2  10
BRANCH   3  12
ATOM     12  O   UNL     1       5.741  -6.000   6.921  1.00  0.00    -0.387 OA
ATOM     13  H   UNL     1       5.765  -6.727   7.595  1.00  0.00     0.211 HD
ENDBRANCH   3  12
BRANCH   5  14
ATOM     14  C   UNL     1       3.277  -9.630   4.674  1.00  0.00     0.191 C 
BRANCH  14  15
ATOM     15  O   UNL     1       2.840  -9.747   6.001  1.00  0.00    -0.394 OA
ATOM     16  H   UNL     1       2.322  -8.924   6.204  1.00  0.00     0.210 HD
ENDBRANCH  14  15
ENDBRANCH   5  14
BRANCH   4  17
ATOM     17  O   UNL     1       5.726  -8.790   6.632  1.00  0.00    -0.387 OA
ATOM     18  H   UNL     1       5.194  -9.400   7.206  1.00  0.00     0.211 HD
ENDBRANCH   4  17
TORSDOF 7
ENDMDL
