MODEL 1
REMARK VINA RESULT:    -4.013      0.000      0.000
REMARK INTER + INTRA:          -5.327
REMARK INTER:                  -5.185
REMARK INTRA:                  -0.141
REMARK UNBOUND:                -0.141
REMARK SMILES CCCCCCC(=O)[O-]
REMARK SMILES IDX 5 1 6 2 7 3 8 4 9 5 4 6 3 7 2 8 1 9
REMARK H PARENT
REMARK Flexibility Score: inf
ROOT
ATOM      1  C   UNL     1       9.534  -3.628   9.379  1.00  0.00     0.006 C 
ENDROOT
BRANCH   1   2
ATOM      2  C   UNL     1       8.798  -2.817  10.458  1.00  0.00     0.053 C 
BRANCH   2   3
ATOM      3  C   UNL     1       7.317  -3.037  10.410  1.00  0.00     0.041 C 
ATOM      4  O   UNL     1       6.852  -4.200  10.291  1.00  0.00    -0.550 OA
ATOM      5  O   UNL     1       6.451  -1.952  10.465  1.00  0.00    -0.550 OA
ENDBRANCH   2   3
ENDBRANCH   1   2
BRANCH   1   6
ATOM      6  C   UNL     1      10.310  -2.771   8.361  1.00  0.00     0.000 C 
BRANCH   6   7
ATOM      7  C   UNL     1      10.981  -3.563   7.222  1.00  0.00    -0.000 C 
BRANCH   7   8
ATOM      8  C   UNL     1      12.397  -3.063   6.866  1.00  0.00    -0.003 C 
ATOM      9  C   UNL     1      12.921  -2.028   7.862  1.00  0.00     0.004 C 
ENDBRANCH   7   8
ENDBRANCH   6   7
ENDBRANCH   1   6
TORSDOF 5
ENDMDL
MODEL 2
REMARK VINA RESULT:    -3.935     13.057     14.154
REMARK INTER + INTRA:          -5.226
REMARK INTER:                  -4.839
REMARK INTRA:                  -0.387
REMARK UNBOUND:                -0.141
REMARK SMILES CCCCCCC(=O)[O-]
REMARK SMILES IDX 5 1 6 2 7 3 8 4 9 5 4 6 3 7 2 8 1 9
REMARK H PARENT
REMARK Flexibility Score: inf
ROOT
ATOM      1  C   UNL     1       7.924   3.466  20.482  1.00  0.00     0.006 C 
ENDROOT
BRANCH   1   2
ATOM      2  C   UNL     1       8.529   4.624  21.292  1.00  0.00     0.053 C 
BRANCH   2   3
ATOM      3  C   UNL     1       7.484   5.380  22.053  1.00  0.00     0.041 C 
ATOM      4  O   UNL     1       6.956   6.408  21.556  1.00  0.00    -0.550 OA
ATOM      5  O   UNL     1       7.116   4.966  23.328  1.00  0.00    -0.550 OA
ENDBRANCH   2   3
ENDBRANCH   1   2
BRANCH   1   6
ATOM      6  C   UNL     1       8.025   3.638  18.955  1.00  0.00     0.000 C 
BRANCH   6   7
ATOM      7  C   UNL     1       6.683   3.880  18.238  1.00  0.00    -0.000 C 
BRANCH   7   8
ATOM      8  C   UNL     1       6.217   5.352  18.270  1.00  0.00    -0.003 C 
ATOM      9  C   UNL     1       7.331   6.328  17.892  1.00  0.00     0.004 C 
ENDBRANCH   7   8
ENDBRANCH   6   7
ENDBRANCH   1   6
TORSDOF 5
ENDMDL
MODEL 3
REMARK VINA RESULT:    -3.930     12.714     14.237
REMARK INTER + INTRA:          -5.220
REMARK INTER:                  -4.916
REMARK INTRA:                  -0.304
REMARK UNBOUND:                -0.141
REMARK SMILES CCCCCCC(=O)[O-]
REMARK SMILES IDX 5 1 6 2 7 3 8 4 9 5 4 6 3 7 2 8 1 9
REMARK H PARENT
REMARK Flexibility Score: inf
ROOT
ATOM      1  C   UNL     1       6.845   4.237  18.916  1.00  0.00     0.006 C 
ENDROOT
BRANCH   1   2
ATOM      2  C   UNL     1       7.452   5.103  17.801  1.00  0.00     0.053 C 
BRANCH   2   3
ATOM      3  C   UNL     1       6.827   6.463  17.746  1.00  0.00     0.041 C 
ATOM      4  O   UNL     1       5.733   6.683  18.328  1.00  0.00    -0.550 OA
ATOM      5  O   UNL     1       7.437   7.480  17.022  1.00  0.00    -0.550 OA
ENDBRANCH   2   3
ENDBRANCH   1   2
BRANCH   1   6
ATOM      6  C   UNL     1       7.841   3.834  20.020  1.00  0.00     0.000 C 
BRANCH   6   7
ATOM      7  C   UNL     1       8.450   5.009  20.808  1.00  0.00    -0.000 C 
BRANCH   7   8
ATOM      8  C   UNL     1       7.406   5.858  21.565  1.00  0.00    -0.003 C 
ATOM      9  C   UNL     1       6.973   5.217  22.883  1.00  0.00     0.004 C 
ENDBRANCH   7   8
ENDBRANCH   6   7
ENDBRANCH   1   6
TORSDOF 5
ENDMDL
MODEL 4
REMARK VINA RESULT:    -3.921      5.421      6.987
REMARK INTER + INTRA:          -5.209
REMARK INTER:                  -5.011
REMARK INTRA:                  -0.198
REMARK UNBOUND:                -0.141
REMARK SMILES CCCCCCC(=O)[O-]
REMARK SMILES IDX 5 1 6 2 7 3 8 4 9 5 4 6 3 7 2 8 1 9
REMARK H PARENT
REMARK Flexibility Score: inf
ROOT
ATOM      1  C   UNL     1      14.578  -2.362   7.710  1.00  0.00     0.006 C 
ENDROOT
BRANCH   1   2
ATOM      2  C   UNL     1      14.928  -3.787   7.252  1.00  0.00     0.053 C 
BRANCH   2   3
ATOM      3  C   UNL     1      16.403  -3.967   7.062  1.00  0.00     0.041 C 
ATOM      4  O   UNL     1      16.865  -4.264   5.929  1.00  0.00    -0.550 OA
ATOM      5  O   UNL     1      17.264  -3.840   8.144  1.00  0.00    -0.550 OA
ENDBRANCH   2   3
ENDBRANCH   1   2
BRANCH   1   6
ATOM      6  C   UNL     1      13.089  -1.997   7.568  1.00  0.00     0.000 C 
BRANCH   6   7
ATOM      7  C   UNL     1      12.319  -2.808   6.508  1.00  0.00    -0.000 C 
BRANCH   7   8
ATOM      8  C   UNL     1      11.107  -3.580   7.074  1.00  0.00    -0.003 C 
ATOM      9  C   UNL     1      10.376  -2.802   8.169  1.00  0.00     0.004 C 
ENDBRANCH   7   8
ENDBRANCH   6   7
ENDBRANCH   1   6
TORSDOF 5
ENDMDL
MODEL 5
REMARK VINA RESULT:    -3.860     12.487     13.812
REMARK INTER + INTRA:          -5.129
REMARK INTER:                  -4.825
REMARK INTRA:                  -0.304
REMARK UNBOUND:                -0.141
REMARK SMILES CCCCCCC(=O)[O-]
REMARK SMILES IDX 5 1 6 2 7 3 8 4 9 5 4 6 3 7 2 8 1 9
REMARK H PARENT
REMARK Flexibility Score: inf
ROOT
ATOM      1  C   UNL     1       6.710   4.206  18.764  1.00  0.00     0.006 C 
ENDROOT
BRANCH   1   2
ATOM      2  C   UNL     1       6.775   5.734  18.608  1.00  0.00     0.053 C 
BRANCH   2   3
ATOM      3  C   UNL     1       7.438   6.137  17.327  1.00  0.00     0.041 C 
ATOM      4  O   UNL     1       7.780   5.265  16.487  1.00  0.00    -0.550 OA
ATOM      5  O   UNL     1       7.709   7.477  17.077  1.00  0.00    -0.550 OA
ENDBRANCH   2   3
ENDBRANCH   1   2
BRANCH   1   6
ATOM      6  C   UNL     1       7.272   3.679  20.098  1.00  0.00     0.000 C 
BRANCH   6   7
ATOM      7  C   UNL     1       8.696   4.157  20.438  1.00  0.00    -0.000 C 
BRANCH   7   8
ATOM      8  C   UNL     1       8.801   4.887  21.795  1.00  0.00    -0.003 C 
ATOM      9  C   UNL     1       7.433   5.256  22.369  1.00  0.00     0.004 C 
ENDBRANCH   7   8
ENDBRANCH   6   7
ENDBRANCH   1   6
TORSDOF 5
ENDMDL
MODEL 6
REMARK VINA RESULT:    -3.858      5.455      7.265
REMARK INTER + INTRA:          -5.127
REMARK INTER:                  -4.904
REMARK INTRA:                  -0.223
REMARK UNBOUND:                -0.141
REMARK SMILES CCCCCCC(=O)[O-]
REMARK SMILES IDX 5 1 6 2 7 3 8 4 9 5 4 6 3 7 2 8 1 9
REMARK H PARENT
REMARK Flexibility Score: inf
ROOT
ATOM      1  C   UNL     1      15.926  -2.267   8.145  1.00  0.00     0.006 C 
ENDROOT
BRANCH   1   2
ATOM      2  C   UNL     1      16.147  -3.780   7.986  1.00  0.00     0.053 C 
BRANCH   2   3
ATOM      3  C   UNL     1      16.293  -4.175   6.548  1.00  0.00     0.041 C 
ATOM      4  O   UNL     1      15.286  -4.534   5.883  1.00  0.00    -0.550 OA
ATOM      5  O   UNL     1      17.548  -4.178   5.952  1.00  0.00    -0.550 OA
ENDBRANCH   2   3
ENDBRANCH   1   2
BRANCH   1   6
ATOM      6  C   UNL     1      14.484  -1.872   8.515  1.00  0.00     0.000 C 
BRANCH   6   7
ATOM      7  C   UNL     1      13.492  -1.853   7.337  1.00  0.00    -0.000 C 
BRANCH   7   8
ATOM      8  C   UNL     1      12.051  -2.247   7.729  1.00  0.00    -0.003 C 
ATOM      9  C   UNL     1      11.538  -3.453   6.943  1.00  0.00     0.004 C 
ENDBRANCH   7   8
ENDBRANCH   6   7
ENDBRANCH   1   6
TORSDOF 5
ENDMDL
MODEL 7
REMARK VINA RESULT:    -3.855      4.503      6.226
REMARK INTER + INTRA:          -5.123
REMARK INTER:                  -4.955
REMARK INTRA:                  -0.167
REMARK UNBOUND:                -0.141
REMARK SMILES CCCCCCC(=O)[O-]
REMARK SMILES IDX 5 1 6 2 7 3 8 4 9 5 4 6 3 7 2 8 1 9
REMARK H PARENT
REMARK Flexibility Score: inf
ROOT
ATOM      1  C   UNL     1      13.044  -2.385   7.720  1.00  0.00     0.006 C 
ENDROOT
BRANCH   1   2
ATOM      2  C   UNL     1      14.420  -2.354   7.035  1.00  0.00     0.053 C 
BRANCH   2   3
ATOM      3  C   UNL     1      15.118  -3.677   7.124  1.00  0.00     0.041 C 
ATOM      4  O   UNL     1      15.586  -4.074   8.222  1.00  0.00    -0.550 OA
ATOM      5  O   UNL     1      15.281  -4.455   5.984  1.00  0.00    -0.550 OA
ENDBRANCH   2   3
ENDBRANCH   1   2
BRANCH   1   6
ATOM      6  C   UNL     1      11.916  -2.978   6.854  1.00  0.00     0.000 C 
BRANCH   6   7
ATOM      7  C   UNL     1      10.695  -3.492   7.640  1.00  0.00    -0.000 C 
BRANCH   7   8
ATOM      8  C   UNL     1      10.051  -2.428   8.554  1.00  0.00    -0.003 C 
ATOM      9  C   UNL     1       9.269  -3.046   9.714  1.00  0.00     0.004 C 
ENDBRANCH   7   8
ENDBRANCH   6   7
ENDBRANCH   1   6
TORSDOF 5
ENDMDL
MODEL 8
REMARK VINA RESULT:    -3.829     12.167     13.508
REMARK INTER + INTRA:          -5.090
REMARK INTER:                  -4.900
REMARK INTRA:                  -0.189
REMARK UNBOUND:                -0.141
REMARK SMILES CCCCCCC(=O)[O-]
REMARK SMILES IDX 5 1 6 2 7 3 8 4 9 5 4 6 3 7 2 8 1 9
REMARK H PARENT
REMARK Flexibility Score: inf
ROOT
ATOM      1  C   UNL     1       7.405   6.069  19.366  1.00  0.00     0.006 C 
ENDROOT
BRANCH   1   2
ATOM      2  C   UNL     1       7.711   4.639  19.840  1.00  0.00     0.053 C 
BRANCH   2   3
ATOM      3  C   UNL     1       7.884   4.568  21.326  1.00  0.00     0.041 C 
ATOM      4  O   UNL     1       8.291   3.507  21.867  1.00  0.00    -0.550 OA
ATOM      5  O   UNL     1       7.562   5.664  22.117  1.00  0.00    -0.550 OA
ENDBRANCH   2   3
ENDBRANCH   1   2
BRANCH   1   6
ATOM      6  C   UNL     1       7.010   6.175  17.881  1.00  0.00     0.000 C 
BRANCH   6   7
ATOM      7  C   UNL     1       7.778   7.243  17.078  1.00  0.00    -0.000 C 
BRANCH   7   8
ATOM      8  C   UNL     1       8.334   6.730  15.733  1.00  0.00    -0.003 C 
ATOM      9  C   UNL     1       8.191   5.217  15.578  1.00  0.00     0.004 C 
ENDBRANCH   7   8
ENDBRANCH   6   7
ENDBRANCH   1   6
TORSDOF 5
ENDMDL
MODEL 9
REMARK VINA RESULT:    -3.744     12.719     14.323
REMARK INTER + INTRA:          -4.979
REMARK INTER:                  -4.671
REMARK INTRA:                  -0.308
REMARK UNBOUND:                -0.141
REMARK SMILES CCCCCCC(=O)[O-]
REMARK SMILES IDX 5 1 6 2 7 3 8 4 9 5 4 6 3 7 2 8 1 9
REMARK H PARENT
REMARK Flexibility Score: inf
ROOT
ATOM      1  C   UNL     1       7.957   5.491  20.333  1.00  0.00     0.006 C 
ENDROOT
BRANCH   1   2
ATOM      2  C   UNL     1       7.296   5.849  21.674  1.00  0.00     0.053 C 
BRANCH   2   3
ATOM      3  C   UNL     1       7.442   4.748  22.680  1.00  0.00     0.041 C 
ATOM      4  O   UNL     1       6.921   4.858  23.821  1.00  0.00    -0.550 OA
ATOM      5  O   UNL     1       8.182   3.614  22.368  1.00  0.00    -0.550 OA
ENDBRANCH   2   3
ENDBRANCH   1   2
BRANCH   1   6
ATOM      6  C   UNL     1       7.017   5.584  19.117  1.00  0.00     0.000 C 
BRANCH   6   7
ATOM      7  C   UNL     1       6.846   4.274  18.325  1.00  0.00    -0.000 C 
BRANCH   7   8
ATOM      8  C   UNL     1       6.732   3.018  19.216  1.00  0.00    -0.003 C 
ATOM      9  C   UNL     1       7.881   2.035  18.993  1.00  0.00     0.004 C 
ENDBRANCH   7   8
ENDBRANCH   6   7
ENDBRANCH   1   6
TORSDOF 5
ENDMDL
