MODEL 1
REMARK VINA RESULT:    -4.482      0.000      0.000
REMARK INTER + INTRA:          -7.429
REMARK INTER:                  -6.579
REMARK INTRA:                  -0.850
REMARK UNBOUND:                -0.850
REMARK SMILES O=c1c(O[C@H]2O[C@H](CO)[C@H](O)[C@@H](O)[C@@H]2O)c(-c2ccc(O)c(O)c2)oc2cc(O)cc(O)c12
REMARK SMILES IDX 4 1 3 2 16 3 25 4 2 5 26 6 1 7 33 8 27 9 31 10 28 11 30 12
REMARK SMILES IDX 17 13 18 14 19 15 20 16 24 17 22 18 21 19 23 21 32 23 29 25
REMARK SMILES IDX 5 27 14 28 6 29 12 30 7 31 10 32 15 33 13 35 8 37 9 38 11 40
REMARK H PARENT 21 20 23 22 32 24 29 26 15 34 13 36 9 39 11 41
REMARK Flexibility Score: inf
ROOT
ATOM      1  O   UNL     1     -20.433  27.132  19.770  1.00  0.00    -0.454 OA
ENDROOT
BRANCH   1   2
ATOM      2  C   UNL     1     -19.561  26.226  20.390  1.00  0.00     0.214 A 
ATOM      3  C   UNL     1     -19.459  24.894  19.941  1.00  0.00     0.180 A 
ATOM      4  O   UNL     1     -18.596  24.066  20.525  1.00  0.00    -0.452 OA
ATOM      5  C   UNL     1     -18.793  26.631  21.490  1.00  0.00     0.239 A 
ATOM      6  C   UNL     1     -17.827  24.416  21.550  1.00  0.00     0.146 A 
ATOM      7  O   UNL     1     -18.926  27.801  21.940  1.00  0.00    -0.285 OA
ATOM      8  C   UNL     1     -17.894  25.724  22.086  1.00  0.00     0.111 A 
ATOM      9  C   UNL     1     -16.954  23.472  22.099  1.00  0.00     0.094 A 
ATOM     10  C   UNL     1     -17.070  26.061  23.187  1.00  0.00     0.134 A 
ATOM     11  C   UNL     1     -16.143  23.811  23.188  1.00  0.00     0.123 A 
ATOM     12  C   UNL     1     -16.205  25.097  23.728  1.00  0.00     0.093 A 
BRANCH   3  13
ATOM     13  C   UNL     1     -20.269  24.371  18.816  1.00  0.00     0.025 A 
ATOM     14  C   UNL     1     -19.628  23.997  17.624  1.00  0.00     0.016 A 
ATOM     15  C   UNL     1     -20.367  23.501  16.548  1.00  0.00     0.051 A 
ATOM     16  C   UNL     1     -21.754  23.358  16.649  1.00  0.00     0.157 A 
ATOM     17  C   UNL     1     -21.660  24.199  18.925  1.00  0.00     0.062 A 
ATOM     18  C   UNL     1     -22.406  23.710  17.842  1.00  0.00     0.158 A 
BRANCH  16  19
ATOM     19  O   UNL     1     -22.468  22.875  15.552  1.00  0.00    -0.504 OA
ATOM     20  H   UNL     1     -23.224  23.400  15.130  1.00  0.00     0.293 HD
ENDBRANCH  16  19
BRANCH  18  21
ATOM     21  O   UNL     1     -23.789  23.576  17.948  1.00  0.00    -0.504 OA
ATOM     22  H   UNL     1     -24.419  24.108  17.359  1.00  0.00     0.293 HD
ENDBRANCH  18  21
ENDBRANCH   3  13
BRANCH  10  23
ATOM     23  O   UNL     1     -17.103  27.340  23.744  1.00  0.00    -0.507 OA
ATOM     24  H   UNL     1     -17.381  27.494  24.706  1.00  0.00     0.293 HD
ENDBRANCH  10  23
BRANCH  11  25
ATOM     25  O   UNL     1     -15.273  22.875  23.743  1.00  0.00    -0.508 OA
ATOM     26  H   UNL     1     -15.564  21.920  23.921  1.00  0.00     0.293 HD
ENDBRANCH  11  25
ENDBRANCH   1   2
BRANCH   1  27
ATOM     27  C   UNL     1     -21.366  27.956  20.475  1.00  0.00     0.339 C 
ATOM     28  C   UNL     1     -22.810  27.615  20.037  1.00  0.00     0.214 C 
ATOM     29  O   UNL     1     -21.098  29.328  20.243  1.00  0.00    -0.332 OA
ATOM     30  C   UNL     1     -23.804  28.752  20.397  1.00  0.00     0.180 C 
ATOM     31  C   UNL     1     -21.833  30.181  21.119  1.00  0.00     0.179 C 
ATOM     32  C   UNL     1     -23.241  29.641  21.527  1.00  0.00     0.177 C 
BRANCH  28  33
ATOM     33  O   UNL     1     -23.211  26.390  20.598  1.00  0.00    -0.384 OA
ATOM     34  H   UNL     1     -23.038  25.677  19.929  1.00  0.00     0.211 HD
ENDBRANCH  28  33
BRANCH  30  35
ATOM     35  O   UNL     1     -24.041  29.538  19.256  1.00  0.00    -0.387 OA
ATOM     36  H   UNL     1     -24.688  30.244  19.520  1.00  0.00     0.211 HD
ENDBRANCH  30  35
BRANCH  31  37
ATOM     37  C   UNL     1     -20.968  30.580  22.322  1.00  0.00     0.191 C 
BRANCH  37  38
ATOM     38  O   UNL     1     -19.615  30.535  21.964  1.00  0.00    -0.394 OA
ATOM     39  H   UNL     1     -19.587  30.204  21.028  1.00  0.00     0.210 HD
ENDBRANCH  37  38
ENDBRANCH  31  37
BRANCH  32  40
ATOM     40  O   UNL     1     -23.166  28.911  22.726  1.00  0.00    -0.387 OA
ATOM     41  H   UNL     1     -24.080  28.893  23.115  1.00  0.00     0.211 HD
ENDBRANCH  32  40
ENDBRANCH   1  27
TORSDOF 12
ENDMDL
MODEL 2
REMARK VINA RESULT:    -4.042      1.905      6.844
REMARK INTER + INTRA:          -6.782
REMARK INTER:                  -5.198
REMARK INTRA:                  -1.584
REMARK UNBOUND:                -0.850
REMARK SMILES O=c1c(O[C@H]2O[C@H](CO)[C@H](O)[C@@H](O)[C@@H]2O)c(-c2ccc(O)c(O)c2)oc2cc(O)cc(O)c12
REMARK SMILES IDX 4 1 3 2 16 3 25 4 2 5 26 6 1 7 33 8 27 9 31 10 28 11 30 12
REMARK SMILES IDX 17 13 18 14 19 15 20 16 24 17 22 18 21 19 23 21 32 23 29 25
REMARK SMILES IDX 5 27 14 28 6 29 12 30 7 31 10 32 15 33 13 35 8 37 9 38 11 40
REMARK H PARENT 21 20 23 22 32 24 29 26 15 34 13 36 9 39 11 41
REMARK Flexibility Score: inf
ROOT
ATOM      1  O   UNL     1     -22.305  26.135  21.385  1.00  0.00    -0.454 OA
ENDROOT
BRANCH   1   2
ATOM      2  C   UNL     1     -21.846  27.423  21.690  1.00  0.00     0.214 A 
ATOM      3  C   UNL     1     -20.619  27.618  22.356  1.00  0.00     0.180 A 
ATOM      4  O   UNL     1     -20.191  28.854  22.600  1.00  0.00    -0.452 OA
ATOM      5  C   UNL     1     -22.622  28.542  21.356  1.00  0.00     0.239 A 
ATOM      6  C   UNL     1     -20.879  29.944  22.275  1.00  0.00     0.146 A 
ATOM      7  O   UNL     1     -23.750  28.375  20.820  1.00  0.00    -0.285 OA
ATOM      8  C   UNL     1     -22.137  29.836  21.636  1.00  0.00     0.111 A 
ATOM      9  C   UNL     1     -20.346  31.200  22.577  1.00  0.00     0.094 A 
ATOM     10  C   UNL     1     -22.850  31.016  21.314  1.00  0.00     0.134 A 
ATOM     11  C   UNL     1     -21.056  32.363  22.258  1.00  0.00     0.123 A 
ATOM     12  C   UNL     1     -22.301  32.268  21.633  1.00  0.00     0.093 A 
BRANCH   3  13
ATOM     13  C   UNL     1     -19.761  26.489  22.785  1.00  0.00     0.025 A 
ATOM     14  C   UNL     1     -20.265  25.555  23.704  1.00  0.00     0.016 A 
ATOM     15  C   UNL     1     -19.479  24.480  24.125  1.00  0.00     0.051 A 
ATOM     16  C   UNL     1     -18.182  24.315  23.627  1.00  0.00     0.157 A 
ATOM     17  C   UNL     1     -18.468  26.304  22.265  1.00  0.00     0.062 A 
ATOM     18  C   UNL     1     -17.672  25.232  22.693  1.00  0.00     0.158 A 
BRANCH  16  19
ATOM     19  O   UNL     1     -17.414  23.242  24.079  1.00  0.00    -0.504 OA
ATOM     20  H   UNL     1     -17.326  22.384  23.548  1.00  0.00     0.293 HD
ENDBRANCH  16  19
BRANCH  18  21
ATOM     21  O   UNL     1     -16.379  25.078  22.197  1.00  0.00    -0.504 OA
ATOM     22  H   UNL     1     -15.817  24.267  22.428  1.00  0.00     0.293 HD
ENDBRANCH  18  21
ENDBRANCH   3  13
BRANCH  10  23
ATOM     23  O   UNL     1     -24.093  30.955  20.683  1.00  0.00    -0.507 OA
ATOM     24  H   UNL     1     -24.218  30.472  19.801  1.00  0.00     0.293 HD
ENDBRANCH  10  23
BRANCH  11  25
ATOM     25  O   UNL     1     -20.534  33.619  22.560  1.00  0.00    -0.508 OA
ATOM     26  H   UNL     1     -20.014  33.787  23.414  1.00  0.00     0.293 HD
ENDBRANCH  11  25
ENDBRANCH   1   2
BRANCH   1  27
ATOM     27  C   UNL     1     -21.812  25.345  20.299  1.00  0.00     0.339 C 
ATOM     28  C   UNL     1     -22.883  25.247  19.186  1.00  0.00     0.214 C 
ATOM     29  O   UNL     1     -21.453  24.048  20.744  1.00  0.00    -0.332 OA
ATOM     30  C   UNL     1     -22.607  24.060  18.224  1.00  0.00     0.180 C 
ATOM     31  C   UNL     1     -20.724  23.318  19.759  1.00  0.00     0.179 C 
ATOM     32  C   UNL     1     -21.123  23.636  18.282  1.00  0.00     0.177 C 
BRANCH  28  33
ATOM     33  O   UNL     1     -22.967  26.463  18.485  1.00  0.00    -0.384 OA
ATOM     34  H   UNL     1     -23.755  26.414  17.883  1.00  0.00     0.211 HD
ENDBRANCH  28  33
BRANCH  30  35
ATOM     35  O   UNL     1     -23.420  22.972  18.586  1.00  0.00    -0.387 OA
ATOM     36  H   UNL     1     -23.063  22.175  18.114  1.00  0.00     0.211 HD
ENDBRANCH  30  35
BRANCH  31  37
ATOM     37  C   UNL     1     -19.216  23.438  20.015  1.00  0.00     0.191 C 
BRANCH  37  38
ATOM     38  O   UNL     1     -18.511  22.946  18.909  1.00  0.00    -0.394 OA
ATOM     39  H   UNL     1     -18.451  23.698  18.263  1.00  0.00     0.210 HD
ENDBRANCH  37  38
ENDBRANCH  31  37
BRANCH  32  40
ATOM     40  O   UNL     1     -20.308  24.652  17.753  1.00  0.00    -0.387 OA
ATOM     41  H   UNL     1     -19.421  24.248  17.566  1.00  0.00     0.211 HD
ENDBRANCH  32  40
ENDBRANCH   1  27
TORSDOF 12
ENDMDL
MODEL 3
REMARK VINA RESULT:    -4.041      2.340      5.480
REMARK INTER + INTRA:          -6.781
REMARK INTER:                  -6.380
REMARK INTRA:                  -0.401
REMARK UNBOUND:                -0.850
REMARK SMILES O=c1c(O[C@H]2O[C@H](CO)[C@H](O)[C@@H](O)[C@@H]2O)c(-c2ccc(O)c(O)c2)oc2cc(O)cc(O)c12
REMARK SMILES IDX 4 1 3 2 16 3 25 4 2 5 26 6 1 7 33 8 27 9 31 10 28 11 30 12
REMARK SMILES IDX 17 13 18 14 19 15 20 16 24 17 22 18 21 19 23 21 32 23 29 25
REMARK SMILES IDX 5 27 14 28 6 29 12 30 7 31 10 32 15 33 13 35 8 37 9 38 11 40
REMARK H PARENT 21 20 23 22 32 24 29 26 15 34 13 36 9 39 11 41
REMARK Flexibility Score: inf
ROOT
ATOM      1  O   UNL     1     -20.066  27.561  20.429  1.00  0.00    -0.454 OA
ENDROOT
BRANCH   1   2
ATOM      2  C   UNL     1     -19.058  26.913  21.155  1.00  0.00     0.214 A 
ATOM      3  C   UNL     1     -18.385  27.568  22.207  1.00  0.00     0.180 A 
ATOM      4  O   UNL     1     -17.457  26.916  22.903  1.00  0.00    -0.452 OA
ATOM      5  C   UNL     1     -18.685  25.603  20.825  1.00  0.00     0.239 A 
ATOM      6  C   UNL     1     -17.094  25.664  22.643  1.00  0.00     0.146 A 
ATOM      7  O   UNL     1     -19.235  25.033  19.844  1.00  0.00    -0.285 OA
ATOM      8  C   UNL     1     -17.694  24.947  21.582  1.00  0.00     0.111 A 
ATOM      9  C   UNL     1     -16.106  25.067  23.430  1.00  0.00     0.094 A 
ATOM     10  C   UNL     1     -17.275  23.619  21.324  1.00  0.00     0.134 A 
ATOM     11  C   UNL     1     -15.694  23.754  23.169  1.00  0.00     0.123 A 
ATOM     12  C   UNL     1     -16.276  23.039  22.120  1.00  0.00     0.093 A 
BRANCH   3  13
ATOM     13  C   UNL     1     -18.685  28.967  22.591  1.00  0.00     0.025 A 
ATOM     14  C   UNL     1     -17.827  29.634  23.481  1.00  0.00     0.016 A 
ATOM     15  C   UNL     1     -18.085  30.953  23.859  1.00  0.00     0.051 A 
ATOM     16  C   UNL     1     -19.195  31.632  23.345  1.00  0.00     0.157 A 
ATOM     17  C   UNL     1     -19.783  29.662  22.054  1.00  0.00     0.062 A 
ATOM     18  C   UNL     1     -20.051  30.983  22.439  1.00  0.00     0.158 A 
BRANCH  16  19
ATOM     19  O   UNL     1     -19.437  32.943  23.753  1.00  0.00    -0.504 OA
ATOM     20  H   UNL     1     -18.689  33.560  24.048  1.00  0.00     0.293 HD
ENDBRANCH  16  19
BRANCH  18  21
ATOM     21  O   UNL     1     -21.162  31.651  21.928  1.00  0.00    -0.504 OA
ATOM     22  H   UNL     1     -21.325  32.633  22.121  1.00  0.00     0.293 HD
ENDBRANCH  18  21
ENDBRANCH   3  13
BRANCH  10  23
ATOM     23  O   UNL     1     -17.841  22.875  20.288  1.00  0.00    -0.507 OA
ATOM     24  H   UNL     1     -17.897  21.865  20.328  1.00  0.00     0.293 HD
ENDBRANCH  10  23
BRANCH  11  25
ATOM     25  O   UNL     1     -14.707  23.152  23.946  1.00  0.00    -0.508 OA
ATOM     26  H   UNL     1     -14.046  22.494  23.548  1.00  0.00     0.293 HD
ENDBRANCH  11  25
ENDBRANCH   1   2
BRANCH   1  27
ATOM     27  C   UNL     1     -21.448  27.191  20.471  1.00  0.00     0.339 C 
ATOM     28  C   UNL     1     -22.328  28.379  20.016  1.00  0.00     0.214 C 
ATOM     29  O   UNL     1     -21.819  26.781  21.775  1.00  0.00    -0.332 OA
ATOM     30  C   UNL     1     -23.803  28.209  20.471  1.00  0.00     0.180 C 
ATOM     31  C   UNL     1     -23.105  26.165  21.807  1.00  0.00     0.179 C 
ATOM     32  C   UNL     1     -24.124  26.728  20.764  1.00  0.00     0.177 C 
BRANCH  28  33
ATOM     33  O   UNL     1     -22.240  28.543  18.622  1.00  0.00    -0.384 OA
ATOM     34  H   UNL     1     -22.293  29.515  18.426  1.00  0.00     0.211 HD
ENDBRANCH  28  33
BRANCH  30  35
ATOM     35  O   UNL     1     -24.021  28.974  21.630  1.00  0.00    -0.387 OA
ATOM     36  H   UNL     1     -25.000  28.976  21.795  1.00  0.00     0.211 HD
ENDBRANCH  30  35
BRANCH  31  37
ATOM     37  C   UNL     1     -22.965  24.638  21.751  1.00  0.00     0.191 C 
BRANCH  37  38
ATOM     38  O   UNL     1     -21.839  24.297  20.990  1.00  0.00    -0.394 OA
ATOM     39  H   UNL     1     -21.514  25.142  20.583  1.00  0.00     0.210 HD
ENDBRANCH  37  38
ENDBRANCH  31  37
BRANCH  32  40
ATOM     40  O   UNL     1     -24.084  25.978  19.575  1.00  0.00    -0.387 OA
ATOM     41  H   UNL     1     -23.148  26.002  19.246  1.00  0.00     0.211 HD
ENDBRANCH  32  40
ENDBRANCH   1  27
TORSDOF 12
ENDMDL
MODEL 4
REMARK VINA RESULT:    -3.776      1.881      5.166
REMARK INTER + INTRA:          -6.391
REMARK INTER:                  -4.746
REMARK INTRA:                  -1.646
REMARK UNBOUND:                -0.850
REMARK SMILES O=c1c(O[C@H]2O[C@H](CO)[C@H](O)[C@@H](O)[C@@H]2O)c(-c2ccc(O)c(O)c2)oc2cc(O)cc(O)c12
REMARK SMILES IDX 4 1 3 2 16 3 25 4 2 5 26 6 1 7 33 8 27 9 31 10 28 11 30 12
REMARK SMILES IDX 17 13 18 14 19 15 20 16 24 17 22 18 21 19 23 21 32 23 29 25
REMARK SMILES IDX 5 27 14 28 6 29 12 30 7 31 10 32 15 33 13 35 8 37 9 38 11 40
REMARK H PARENT 21 20 23 22 32 24 29 26 15 34 13 36 9 39 11 41
REMARK Flexibility Score: inf
ROOT
ATOM      1  O   UNL     1     -20.517  26.355  19.830  1.00  0.00    -0.454 OA
ENDROOT
BRANCH   1   2
ATOM      2  C   UNL     1     -19.437  26.133  20.695  1.00  0.00     0.214 A 
ATOM      3  C   UNL     1     -19.201  26.984  21.795  1.00  0.00     0.180 A 
ATOM      4  O   UNL     1     -18.189  26.727  22.620  1.00  0.00    -0.452 OA
ATOM      5  C   UNL     1     -18.556  25.068  20.461  1.00  0.00     0.239 A 
ATOM      6  C   UNL     1     -17.348  25.712  22.453  1.00  0.00     0.146 A 
ATOM      7  O   UNL     1     -18.721  24.342  19.443  1.00  0.00    -0.285 OA
ATOM      8  C   UNL     1     -17.493  24.832  21.355  1.00  0.00     0.111 A 
ATOM      9  C   UNL     1     -16.313  25.528  23.374  1.00  0.00     0.094 A 
ATOM     10  C   UNL     1     -16.572  23.768  21.199  1.00  0.00     0.134 A 
ATOM     11  C   UNL     1     -15.405  24.475  23.214  1.00  0.00     0.123 A 
ATOM     12  C   UNL     1     -15.536  23.604  22.131  1.00  0.00     0.093 A 
BRANCH   3  13
ATOM     13  C   UNL     1     -20.055  28.158  22.087  1.00  0.00     0.025 A 
ATOM     14  C   UNL     1     -19.725  29.403  21.528  1.00  0.00     0.016 A 
ATOM     15  C   UNL     1     -20.514  30.527  21.786  1.00  0.00     0.051 A 
ATOM     16  C   UNL     1     -21.649  30.423  22.596  1.00  0.00     0.157 A 
ATOM     17  C   UNL     1     -21.214  28.051  22.876  1.00  0.00     0.062 A 
ATOM     18  C   UNL     1     -22.002  29.179  23.146  1.00  0.00     0.158 A 
BRANCH  16  19
ATOM     19  O   UNL     1     -22.408  31.565  22.849  1.00  0.00    -0.504 OA
ATOM     20  H   UNL     1     -22.043  32.497  22.693  1.00  0.00     0.293 HD
ENDBRANCH  16  19
BRANCH  18  21
ATOM     21  O   UNL     1     -23.128  29.069  23.959  1.00  0.00    -0.504 OA
ATOM     22  H   UNL     1     -23.203  28.346  24.665  1.00  0.00     0.293 HD
ENDBRANCH  18  21
ENDBRANCH   3  13
BRANCH  10  23
ATOM     23  O   UNL     1     -16.679  22.875  20.132  1.00  0.00    -0.507 OA
ATOM     24  H   UNL     1     -16.337  21.924  20.197  1.00  0.00     0.293 HD
ENDBRANCH  10  23
BRANCH  11  25
ATOM     25  O   UNL     1     -14.368  24.287  24.125  1.00  0.00    -0.508 OA
ATOM     26  H   UNL     1     -14.526  24.328  25.126  1.00  0.00     0.293 HD
ENDBRANCH  11  25
ENDBRANCH   1   2
BRANCH   1  27
ATOM     27  C   UNL     1     -21.716  25.575  19.829  1.00  0.00     0.339 C 
ATOM     28  C   UNL     1     -21.954  24.971  18.425  1.00  0.00     0.214 C 
ATOM     29  O   UNL     1     -22.828  26.364  20.215  1.00  0.00    -0.332 OA
ATOM     30  C   UNL     1     -23.428  24.521  18.234  1.00  0.00     0.180 C 
ATOM     31  C   UNL     1     -23.990  25.578  20.474  1.00  0.00     0.179 C 
ATOM     32  C   UNL     1     -24.116  24.291  19.597  1.00  0.00     0.177 C 
BRANCH  28  33
ATOM     33  O   UNL     1     -21.063  23.908  18.195  1.00  0.00    -0.384 OA
ATOM     34  H   UNL     1     -21.440  23.344  17.471  1.00  0.00     0.211 HD
ENDBRANCH  28  33
BRANCH  30  35
ATOM     35  O   UNL     1     -24.125  25.511  17.518  1.00  0.00    -0.387 OA
ATOM     36  H   UNL     1     -23.819  25.454  16.575  1.00  0.00     0.211 HD
ENDBRANCH  30  35
BRANCH  31  37
ATOM     37  C   UNL     1     -24.117  25.297  21.978  1.00  0.00     0.191 C 
BRANCH  37  38
ATOM     38  O   UNL     1     -24.123  26.508  22.683  1.00  0.00    -0.394 OA
ATOM     39  H   UNL     1     -23.464  27.096  22.229  1.00  0.00     0.210 HD
ENDBRANCH  37  38
ENDBRANCH  31  37
BRANCH  32  40
ATOM     40  O   UNL     1     -23.542  23.185  20.249  1.00  0.00    -0.387 OA
ATOM     41  H   UNL     1     -23.310  23.476  21.169  1.00  0.00     0.211 HD
ENDBRANCH  32  40
ENDBRANCH   1  27
TORSDOF 12
ENDMDL
MODEL 5
REMARK VINA RESULT:    -3.584      1.813      6.920
REMARK INTER + INTRA:          -6.111
REMARK INTER:                  -5.185
REMARK INTRA:                  -0.926
REMARK UNBOUND:                -0.850
REMARK SMILES O=c1c(O[C@H]2O[C@H](CO)[C@H](O)[C@@H](O)[C@@H]2O)c(-c2ccc(O)c(O)c2)oc2cc(O)cc(O)c12
REMARK SMILES IDX 4 1 3 2 16 3 25 4 2 5 26 6 1 7 33 8 27 9 31 10 28 11 30 12
REMARK SMILES IDX 17 13 18 14 19 15 20 16 24 17 22 18 21 19 23 21 32 23 29 25
REMARK SMILES IDX 5 27 14 28 6 29 12 30 7 31 10 32 15 33 13 35 8 37 9 38 11 40
REMARK H PARENT 21 20 23 22 32 24 29 26 15 34 13 36 9 39 11 41
REMARK Flexibility Score: inf
ROOT
ATOM      1  O   UNL     1     -20.004  26.951  19.619  1.00  0.00    -0.454 OA
ENDROOT
BRANCH   1   2
ATOM      2  C   UNL     1     -20.671  27.742  20.563  1.00  0.00     0.214 A 
ATOM      3  C   UNL     1     -20.379  27.633  21.939  1.00  0.00     0.180 A 
ATOM      4  O   UNL     1     -21.003  28.423  22.809  1.00  0.00    -0.452 OA
ATOM      5  C   UNL     1     -21.665  28.641  20.151  1.00  0.00     0.239 A 
ATOM      6  C   UNL     1     -21.928  29.310  22.459  1.00  0.00     0.146 A 
ATOM      7  O   UNL     1     -21.979  28.697  18.931  1.00  0.00    -0.285 OA
ATOM      8  C   UNL     1     -22.307  29.457  21.103  1.00  0.00     0.111 A 
ATOM      9  C   UNL     1     -22.529  30.092  23.449  1.00  0.00     0.094 A 
ATOM     10  C   UNL     1     -23.306  30.402  20.766  1.00  0.00     0.134 A 
ATOM     11  C   UNL     1     -23.518  31.023  23.109  1.00  0.00     0.123 A 
ATOM     12  C   UNL     1     -23.902  31.173  21.775  1.00  0.00     0.093 A 
BRANCH   3  13
ATOM     13  C   UNL     1     -19.377  26.676  22.464  1.00  0.00     0.025 A 
ATOM     14  C   UNL     1     -18.014  27.001  22.391  1.00  0.00     0.016 A 
ATOM     15  C   UNL     1     -17.048  26.118  22.880  1.00  0.00     0.051 A 
ATOM     16  C   UNL     1     -17.429  24.903  23.459  1.00  0.00     0.157 A 
ATOM     17  C   UNL     1     -19.759  25.468  23.073  1.00  0.00     0.062 A 
ATOM     18  C   UNL     1     -18.792  24.574  23.555  1.00  0.00     0.158 A 
BRANCH  16  19
ATOM     19  O   UNL     1     -16.443  24.034  23.923  1.00  0.00    -0.504 OA
ATOM     20  H   UNL     1     -15.469  24.140  23.664  1.00  0.00     0.293 HD
ENDBRANCH  16  19
BRANCH  18  21
ATOM     21  O   UNL     1     -19.179  23.363  24.125  1.00  0.00    -0.504 OA
ATOM     22  H   UNL     1     -18.869  22.476  23.745  1.00  0.00     0.293 HD
ENDBRANCH  18  21
ENDBRANCH   3  13
BRANCH  10  23
ATOM     23  O   UNL     1     -23.707  30.581  19.441  1.00  0.00    -0.507 OA
ATOM     24  H   UNL     1     -23.093  30.996  18.751  1.00  0.00     0.293 HD
ENDBRANCH  10  23
BRANCH  11  25
ATOM     25  O   UNL     1     -24.125  31.804  24.090  1.00  0.00    -0.508 OA
ATOM     26  H   UNL     1     -24.492  31.395  24.942  1.00  0.00     0.293 HD
ENDBRANCH  11  25
ENDBRANCH   1   2
BRANCH   1  27
ATOM     27  C   UNL     1     -20.351  25.595  19.320  1.00  0.00     0.339 C 
ATOM     28  C   UNL     1     -21.808  25.313  19.757  1.00  0.00     0.214 C 
ATOM     29  O   UNL     1     -19.466  24.696  19.966  1.00  0.00    -0.332 OA
ATOM     30  C   UNL     1     -22.084  23.791  19.890  1.00  0.00     0.180 C 
ATOM     31  C   UNL     1     -19.612  23.358  19.496  1.00  0.00     0.179 C 
ATOM     32  C   UNL     1     -21.065  22.970  19.070  1.00  0.00     0.177 C 
BRANCH  28  33
ATOM     33  O   UNL     1     -22.709  25.918  18.863  1.00  0.00    -0.384 OA
ATOM     34  H   UNL     1     -22.616  25.467  17.984  1.00  0.00     0.211 HD
ENDBRANCH  28  33
BRANCH  30  35
ATOM     35  O   UNL     1     -22.000  23.423  21.244  1.00  0.00    -0.387 OA
ATOM     36  H   UNL     1     -22.561  24.065  21.754  1.00  0.00     0.211 HD
ENDBRANCH  30  35
BRANCH  31  37
ATOM     37  C   UNL     1     -18.565  23.055  18.415  1.00  0.00     0.191 C 
BRANCH  37  38
ATOM     38  O   UNL     1     -17.280  23.225  18.946  1.00  0.00    -0.394 OA
ATOM     39  H   UNL     1     -16.676  22.664  18.392  1.00  0.00     0.210 HD
ENDBRANCH  37  38
ENDBRANCH  31  37
BRANCH  32  40
ATOM     40  O   UNL     1     -21.257  23.195  17.695  1.00  0.00    -0.387 OA
ATOM     41  H   UNL     1     -21.525  22.329  17.292  1.00  0.00     0.211 HD
ENDBRANCH  32  40
ENDBRANCH   1  27
TORSDOF 12
ENDMDL
MODEL 6
REMARK VINA RESULT:    -3.551      1.932      6.999
REMARK INTER + INTRA:          -6.062
REMARK INTER:                  -4.816
REMARK INTRA:                  -1.246
REMARK UNBOUND:                -0.850
REMARK SMILES O=c1c(O[C@H]2O[C@H](CO)[C@H](O)[C@@H](O)[C@@H]2O)c(-c2ccc(O)c(O)c2)oc2cc(O)cc(O)c12
REMARK SMILES IDX 4 1 3 2 16 3 25 4 2 5 26 6 1 7 33 8 27 9 31 10 28 11 30 12
REMARK SMILES IDX 17 13 18 14 19 15 20 16 24 17 22 18 21 19 23 21 32 23 29 25
REMARK SMILES IDX 5 27 14 28 6 29 12 30 7 31 10 32 15 33 13 35 8 37 9 38 11 40
REMARK H PARENT 21 20 23 22 32 24 29 26 15 34 13 36 9 39 11 41
REMARK Flexibility Score: inf
ROOT
ATOM      1  O   UNL     1     -20.562  27.145  19.867  1.00  0.00    -0.454 OA
ENDROOT
BRANCH   1   2
ATOM      2  C   UNL     1     -21.019  28.125  20.757  1.00  0.00     0.214 A 
ATOM      3  C   UNL     1     -20.532  28.190  22.079  1.00  0.00     0.180 A 
ATOM      4  O   UNL     1     -20.958  29.155  22.891  1.00  0.00    -0.452 OA
ATOM      5  C   UNL     1     -21.994  29.046  20.348  1.00  0.00     0.239 A 
ATOM      6  C   UNL     1     -21.857  30.066  22.535  1.00  0.00     0.146 A 
ATOM      7  O   UNL     1     -22.483  28.955  19.189  1.00  0.00    -0.285 OA
ATOM      8  C   UNL     1     -22.423  30.051  21.239  1.00  0.00     0.111 A 
ATOM      9  C   UNL     1     -22.243  31.038  23.462  1.00  0.00     0.094 A 
ATOM     10  C   UNL     1     -23.388  31.028  20.896  1.00  0.00     0.134 A 
ATOM     11  C   UNL     1     -23.199  32.001  23.118  1.00  0.00     0.123 A 
ATOM     12  C   UNL     1     -23.768  31.991  21.843  1.00  0.00     0.093 A 
BRANCH   3  13
ATOM     13  C   UNL     1     -19.537  27.228  22.606  1.00  0.00     0.025 A 
ATOM     14  C   UNL     1     -18.178  27.579  22.611  1.00  0.00     0.016 A 
ATOM     15  C   UNL     1     -17.219  26.691  23.103  1.00  0.00     0.051 A 
ATOM     16  C   UNL     1     -17.602  25.445  23.609  1.00  0.00     0.157 A 
ATOM     17  C   UNL     1     -19.923  25.986  23.142  1.00  0.00     0.062 A 
ATOM     18  C   UNL     1     -18.961  25.089  23.628  1.00  0.00     0.158 A 
BRANCH  16  19
ATOM     19  O   UNL     1     -16.621  24.573  24.079  1.00  0.00    -0.504 OA
ATOM     20  H   UNL     1     -15.902  24.872  24.727  1.00  0.00     0.293 HD
ENDBRANCH  16  19
BRANCH  18  21
ATOM     21  O   UNL     1     -19.350  23.846  24.125  1.00  0.00    -0.504 OA
ATOM     22  H   UNL     1     -18.791  23.015  23.970  1.00  0.00     0.293 HD
ENDBRANCH  18  21
ENDBRANCH   3  13
BRANCH  10  23
ATOM     23  O   UNL     1     -23.970  31.050  19.628  1.00  0.00    -0.507 OA
ATOM     24  H   UNL     1     -24.150  31.920  19.140  1.00  0.00     0.293 HD
ENDBRANCH  10  23
BRANCH  11  25
ATOM     25  O   UNL     1     -23.592  32.971  24.038  1.00  0.00    -0.508 OA
ATOM     26  H   UNL     1     -23.468  32.839  25.035  1.00  0.00     0.293 HD
ENDBRANCH  11  25
ENDBRANCH   1   2
BRANCH   1  27
ATOM     27  C   UNL     1     -21.054  25.802  19.831  1.00  0.00     0.339 C 
ATOM     28  C   UNL     1     -20.031  24.881  19.124  1.00  0.00     0.214 C 
ATOM     29  O   UNL     1     -22.304  25.743  19.166  1.00  0.00    -0.332 OA
ATOM     30  C   UNL     1     -20.684  23.555  18.648  1.00  0.00     0.180 C 
ATOM     31  C   UNL     1     -22.948  24.481  19.330  1.00  0.00     0.179 C 
ATOM     32  C   UNL     1     -21.978  23.261  19.438  1.00  0.00     0.177 C 
BRANCH  28  33
ATOM     33  O   UNL     1     -18.934  24.636  19.968  1.00  0.00    -0.384 OA
ATOM     34  H   UNL     1     -19.272  24.183  20.784  1.00  0.00     0.211 HD
ENDBRANCH  28  33
BRANCH  30  35
ATOM     35  O   UNL     1     -20.983  23.652  17.278  1.00  0.00    -0.387 OA
ATOM     36  H   UNL     1     -21.622  22.921  17.069  1.00  0.00     0.211 HD
ENDBRANCH  30  35
BRANCH  31  37
ATOM     37  C   UNL     1     -23.964  24.547  20.479  1.00  0.00     0.191 C 
BRANCH  37  38
ATOM     38  O   UNL     1     -24.124  25.878  20.888  1.00  0.00    -0.394 OA
ATOM     39  H   UNL     1     -24.465  26.371  20.096  1.00  0.00     0.210 HD
ENDBRANCH  37  38
ENDBRANCH  31  37
BRANCH  32  40
ATOM     40  O   UNL     1     -21.672  22.985  20.783  1.00  0.00    -0.387 OA
ATOM     41  H   UNL     1     -22.228  22.209  21.055  1.00  0.00     0.211 HD
ENDBRANCH  32  40
ENDBRANCH   1  27
TORSDOF 12
ENDMDL
MODEL 7
REMARK VINA RESULT:    -3.545      2.811      7.495
REMARK INTER + INTRA:          -6.054
REMARK INTER:                  -5.250
REMARK INTRA:                  -0.803
REMARK UNBOUND:                -0.850
REMARK SMILES O=c1c(O[C@H]2O[C@H](CO)[C@H](O)[C@@H](O)[C@@H]2O)c(-c2ccc(O)c(O)c2)oc2cc(O)cc(O)c12
REMARK SMILES IDX 4 1 3 2 16 3 25 4 2 5 26 6 1 7 33 8 27 9 31 10 28 11 30 12
REMARK SMILES IDX 17 13 18 14 19 15 20 16 24 17 22 18 21 19 23 21 32 23 29 25
REMARK SMILES IDX 5 27 14 28 6 29 12 30 7 31 10 32 15 33 13 35 8 37 9 38 11 40
REMARK H PARENT 21 20 23 22 32 24 29 26 15 34 13 36 9 39 11 41
REMARK Flexibility Score: inf
ROOT
ATOM      1  O   UNL     1     -21.558  29.329  20.339  1.00  0.00    -0.454 OA
ENDROOT
BRANCH   1   2
ATOM      2  C   UNL     1     -21.517  30.486  21.128  1.00  0.00     0.214 A 
ATOM      3  C   UNL     1     -20.614  30.598  22.206  1.00  0.00     0.180 A 
ATOM      4  O   UNL     1     -20.572  31.723  22.915  1.00  0.00    -0.452 OA
ATOM      5  C   UNL     1     -22.398  31.545  20.869  1.00  0.00     0.239 A 
ATOM      6  C   UNL     1     -21.367  32.763  22.686  1.00  0.00     0.146 A 
ATOM      7  O   UNL     1     -23.253  31.427  19.950  1.00  0.00    -0.285 OA
ATOM      8  C   UNL     1     -22.326  32.719  21.646  1.00  0.00     0.111 A 
ATOM      9  C   UNL     1     -21.249  33.900  23.489  1.00  0.00     0.094 A 
ATOM     10  C   UNL     1     -23.167  33.838  21.437  1.00  0.00     0.134 A 
ATOM     11  C   UNL     1     -22.084  35.003  23.278  1.00  0.00     0.123 A 
ATOM     12  C   UNL     1     -23.037  34.968  22.259  1.00  0.00     0.093 A 
BRANCH   3  13
ATOM     13  C   UNL     1     -19.681  29.508  22.576  1.00  0.00     0.025 A 
ATOM     14  C   UNL     1     -18.301  29.764  22.597  1.00  0.00     0.016 A 
ATOM     15  C   UNL     1     -17.400  28.755  22.944  1.00  0.00     0.051 A 
ATOM     16  C   UNL     1     -17.862  27.480  23.288  1.00  0.00     0.157 A 
ATOM     17  C   UNL     1     -20.145  28.235  22.950  1.00  0.00     0.062 A 
ATOM     18  C   UNL     1     -19.242  27.217  23.290  1.00  0.00     0.158 A 
BRANCH  16  19
ATOM     19  O   UNL     1     -16.938  26.488  23.614  1.00  0.00    -0.504 OA
ATOM     20  H   UNL     1     -16.026  26.709  23.995  1.00  0.00     0.293 HD
ENDBRANCH  16  19
BRANCH  18  21
ATOM     21  O   UNL     1     -19.710  25.948  23.624  1.00  0.00    -0.504 OA
ATOM     22  H   UNL     1     -19.447  25.128  23.090  1.00  0.00     0.293 HD
ENDBRANCH  18  21
ENDBRANCH   3  13
BRANCH  10  23
ATOM     23  O   UNL     1     -24.125  33.838  20.422  1.00  0.00    -0.507 OA
ATOM     24  H   UNL     1     -24.442  32.978  19.990  1.00  0.00     0.293 HD
ENDBRANCH  10  23
BRANCH  11  25
ATOM     25  O   UNL     1     -21.975  36.139  24.077  1.00  0.00    -0.508 OA
ATOM     26  H   UNL     1     -21.151  36.316  24.640  1.00  0.00     0.293 HD
ENDBRANCH  11  25
ENDBRANCH   1   2
BRANCH   1  27
ATOM     27  C   UNL     1     -22.170  28.102  20.747  1.00  0.00     0.339 C 
ATOM     28  C   UNL     1     -22.018  27.039  19.633  1.00  0.00     0.214 C 
ATOM     29  O   UNL     1     -23.540  28.300  21.048  1.00  0.00    -0.332 OA
ATOM     30  C   UNL     1     -23.031  25.875  19.806  1.00  0.00     0.180 C 
ATOM     31  C   UNL     1     -24.123  27.172  21.698  1.00  0.00     0.179 C 
ATOM     32  C   UNL     1     -23.533  25.792  21.265  1.00  0.00     0.177 C 
BRANCH  28  33
ATOM     33  O   UNL     1     -20.696  26.562  19.593  1.00  0.00    -0.384 OA
ATOM     34  H   UNL     1     -20.379  26.463  20.528  1.00  0.00     0.211 HD
ENDBRANCH  28  33
BRANCH  30  35
ATOM     35  O   UNL     1     -24.124  26.081  18.947  1.00  0.00    -0.387 OA
ATOM     36  H   UNL     1     -24.885  26.379  19.512  1.00  0.00     0.211 HD
ENDBRANCH  30  35
BRANCH  31  37
ATOM     37  C   UNL     1     -24.124  27.377  23.219  1.00  0.00     0.191 C 
BRANCH  37  38
ATOM     38  O   UNL     1     -24.108  28.747  23.509  1.00  0.00    -0.394 OA
ATOM     39  H   UNL     1     -23.903  29.209  22.654  1.00  0.00     0.210 HD
ENDBRANCH  37  38
ENDBRANCH  31  37
BRANCH  32  40
ATOM     40  O   UNL     1     -22.481  25.410  22.117  1.00  0.00    -0.387 OA
ATOM     41  H   UNL     1     -22.503  26.020  22.900  1.00  0.00     0.211 HD
ENDBRANCH  32  40
ENDBRANCH   1  27
TORSDOF 12
ENDMDL
MODEL 8
REMARK VINA RESULT:    -3.532      2.226      6.518
REMARK INTER + INTRA:          -6.034
REMARK INTER:                  -4.723
REMARK INTRA:                  -1.312
REMARK UNBOUND:                -0.850
REMARK SMILES O=c1c(O[C@H]2O[C@H](CO)[C@H](O)[C@@H](O)[C@@H]2O)c(-c2ccc(O)c(O)c2)oc2cc(O)cc(O)c12
REMARK SMILES IDX 4 1 3 2 16 3 25 4 2 5 26 6 1 7 33 8 27 9 31 10 28 11 30 12
REMARK SMILES IDX 17 13 18 14 19 15 20 16 24 17 22 18 21 19 23 21 32 23 29 25
REMARK SMILES IDX 5 27 14 28 6 29 12 30 7 31 10 32 15 33 13 35 8 37 9 38 11 40
REMARK H PARENT 21 20 23 22 32 24 29 26 15 34 13 36 9 39 11 41
REMARK Flexibility Score: inf
ROOT
ATOM      1  O   UNL     1     -19.375  27.637  21.230  1.00  0.00    -0.454 OA
ENDROOT
BRANCH   1   2
ATOM      2  C   UNL     1     -20.251  28.627  21.693  1.00  0.00     0.214 A 
ATOM      3  C   UNL     1     -21.649  28.451  21.623  1.00  0.00     0.180 A 
ATOM      4  O   UNL     1     -22.456  29.394  22.103  1.00  0.00    -0.452 OA
ATOM      5  C   UNL     1     -19.744  29.827  22.212  1.00  0.00     0.239 A 
ATOM      6  C   UNL     1     -22.019  30.532  22.631  1.00  0.00     0.146 A 
ATOM      7  O   UNL     1     -18.499  30.020  22.218  1.00  0.00    -0.285 OA
ATOM      8  C   UNL     1     -20.632  30.804  22.706  1.00  0.00     0.111 A 
ATOM      9  C   UNL     1     -22.947  31.463  23.105  1.00  0.00     0.094 A 
ATOM     10  C   UNL     1     -20.200  32.032  23.263  1.00  0.00     0.134 A 
ATOM     11  C   UNL     1     -22.514  32.676  23.653  1.00  0.00     0.123 A 
ATOM     12  C   UNL     1     -21.148  32.956  23.727  1.00  0.00     0.093 A 
BRANCH   3  13
ATOM     13  C   UNL     1     -22.267  27.235  21.046  1.00  0.00     0.025 A 
ATOM     14  C   UNL     1     -22.616  26.174  21.896  1.00  0.00     0.016 A 
ATOM     15  C   UNL     1     -23.202  25.016  21.379  1.00  0.00     0.051 A 
ATOM     16  C   UNL     1     -23.460  24.904  20.009  1.00  0.00     0.157 A 
ATOM     17  C   UNL     1     -22.554  27.132  19.673  1.00  0.00     0.062 A 
ATOM     18  C   UNL     1     -23.133  25.967  19.150  1.00  0.00     0.158 A 
BRANCH  16  19
ATOM     19  O   UNL     1     -24.030  23.730  19.519  1.00  0.00    -0.504 OA
ATOM     20  H   UNL     1     -24.584  23.715  18.672  1.00  0.00     0.293 HD
ENDBRANCH  16  19
BRANCH  18  21
ATOM     21  O   UNL     1     -23.381  25.861  17.783  1.00  0.00    -0.504 OA
ATOM     22  H   UNL     1     -24.199  26.282  17.358  1.00  0.00     0.293 HD
ENDBRANCH  18  21
ENDBRANCH   3  13
BRANCH  10  23
ATOM     23  O   UNL     1     -18.842  32.339  23.358  1.00  0.00    -0.507 OA
ATOM     24  H   UNL     1     -18.210  32.205  22.578  1.00  0.00     0.293 HD
ENDBRANCH  10  23
BRANCH  11  25
ATOM     25  O   UNL     1     -23.433  33.610  24.124  1.00  0.00    -0.508 OA
ATOM     26  H   UNL     1     -24.176  33.349  24.762  1.00  0.00     0.293 HD
ENDBRANCH  11  25
ENDBRANCH   1   2
BRANCH   1  27
ATOM     27  C   UNL     1     -19.058  26.445  21.956  1.00  0.00     0.339 C 
ATOM     28  C   UNL     1     -17.842  26.696  22.879  1.00  0.00     0.214 C 
ATOM     29  O   UNL     1     -18.783  25.375  21.068  1.00  0.00    -0.332 OA
ATOM     30  C   UNL     1     -17.174  25.366  23.325  1.00  0.00     0.180 C 
ATOM     31  C   UNL     1     -18.715  24.117  21.738  1.00  0.00     0.179 C 
ATOM     32  C   UNL     1     -18.159  24.183  23.196  1.00  0.00     0.177 C 
BRANCH  28  33
ATOM     33  O   UNL     1     -18.225  27.470  23.988  1.00  0.00    -0.384 OA
ATOM     34  H   UNL     1     -18.199  28.425  23.717  1.00  0.00     0.211 HD
ENDBRANCH  28  33
BRANCH  30  35
ATOM     35  O   UNL     1     -16.045  25.125  22.524  1.00  0.00    -0.387 OA
ATOM     36  H   UNL     1     -15.314  24.837  23.132  1.00  0.00     0.211 HD
ENDBRANCH  30  35
BRANCH  31  37
ATOM     37  C   UNL     1     -20.061  23.387  21.638  1.00  0.00     0.191 C 
BRANCH  37  38
ATOM     38  O   UNL     1     -20.392  23.196  20.290  1.00  0.00    -0.394 OA
ATOM     39  H   UNL     1     -19.579  23.427  19.769  1.00  0.00     0.210 HD
ENDBRANCH  37  38
ENDBRANCH  31  37
BRANCH  32  40
ATOM     40  O   UNL     1     -19.207  24.323  24.123  1.00  0.00    -0.387 OA
ATOM     41  H   UNL     1     -19.400  23.419  24.485  1.00  0.00     0.211 HD
ENDBRANCH  32  40
ENDBRANCH   1  27
TORSDOF 12
ENDMDL
MODEL 9
REMARK VINA RESULT:    -3.196      2.023      6.053
REMARK INTER + INTRA:          -5.541
REMARK INTER:                  -4.099
REMARK INTRA:                  -1.442
REMARK UNBOUND:                -0.850
REMARK SMILES O=c1c(O[C@H]2O[C@H](CO)[C@H](O)[C@@H](O)[C@@H]2O)c(-c2ccc(O)c(O)c2)oc2cc(O)cc(O)c12
REMARK SMILES IDX 4 1 3 2 16 3 25 4 2 5 26 6 1 7 33 8 27 9 31 10 28 11 30 12
REMARK SMILES IDX 17 13 18 14 19 15 20 16 24 17 22 18 21 19 23 21 32 23 29 25
REMARK SMILES IDX 5 27 14 28 6 29 12 30 7 31 10 32 15 33 13 35 8 37 9 38 11 40
REMARK H PARENT 21 20 23 22 32 24 29 26 15 34 13 36 9 39 11 41
REMARK Flexibility Score: inf
ROOT
ATOM      1  O   UNL     1     -19.631  27.278  20.737  1.00  0.00    -0.454 OA
ENDROOT
BRANCH   1   2
ATOM      2  C   UNL     1     -20.541  28.192  21.285  1.00  0.00     0.214 A 
ATOM      3  C   UNL     1     -21.928  27.940  21.261  1.00  0.00     0.180 A 
ATOM      4  O   UNL     1     -22.765  28.810  21.822  1.00  0.00    -0.452 OA
ATOM      5  C   UNL     1     -20.080  29.392  21.846  1.00  0.00     0.239 A 
ATOM      6  C   UNL     1     -22.369  29.943  22.391  1.00  0.00     0.146 A 
ATOM      7  O   UNL     1     -18.847  29.656  21.813  1.00  0.00    -0.285 OA
ATOM      8  C   UNL     1     -20.998  30.290  22.426  1.00  0.00     0.111 A 
ATOM      9  C   UNL     1     -23.327  30.793  22.950  1.00  0.00     0.094 A 
ATOM     10  C   UNL     1     -20.611  31.511  23.028  1.00  0.00     0.134 A 
ATOM     11  C   UNL     1     -22.939  32.000  23.543  1.00  0.00     0.123 A 
ATOM     12  C   UNL     1     -21.589  32.355  23.578  1.00  0.00     0.093 A 
BRANCH   3  13
ATOM     13  C   UNL     1     -22.502  26.721  20.647  1.00  0.00     0.025 A 
ATOM     14  C   UNL     1     -22.694  25.578  21.439  1.00  0.00     0.016 A 
ATOM     15  C   UNL     1     -23.234  24.415  20.885  1.00  0.00     0.051 A 
ATOM     16  C   UNL     1     -23.603  24.379  19.537  1.00  0.00     0.157 A 
ATOM     17  C   UNL     1     -22.901  26.691  19.299  1.00  0.00     0.062 A 
ATOM     18  C   UNL     1     -23.435  25.522  18.738  1.00  0.00     0.158 A 
BRANCH  16  19
ATOM     19  O   UNL     1     -24.125  23.199  19.008  1.00  0.00    -0.504 OA
ATOM     20  H   UNL     1     -23.557  22.554  18.472  1.00  0.00     0.293 HD
ENDBRANCH  16  19
BRANCH  18  21
ATOM     21  O   UNL     1     -23.795  25.492  17.391  1.00  0.00    -0.504 OA
ATOM     22  H   UNL     1     -24.626  25.964  17.054  1.00  0.00     0.293 HD
ENDBRANCH  18  21
ENDBRANCH   3  13
BRANCH  10  23
ATOM     23  O   UNL     1     -19.270  31.891  23.086  1.00  0.00    -0.507 OA
ATOM     24  H   UNL     1     -18.780  32.238  22.270  1.00  0.00     0.293 HD
ENDBRANCH  10  23
BRANCH  11  25
ATOM     25  O   UNL     1     -23.887  32.856  24.099  1.00  0.00    -0.508 OA
ATOM     26  H   UNL     1     -24.671  33.203  23.558  1.00  0.00     0.293 HD
ENDBRANCH  11  25
ENDBRANCH   1   2
BRANCH   1  27
ATOM     27  C   UNL     1     -18.882  26.334  21.507  1.00  0.00     0.339 C 
ATOM     28  C   UNL     1     -19.271  24.892  21.101  1.00  0.00     0.214 C 
ATOM     29  O   UNL     1     -19.105  26.527  22.893  1.00  0.00    -0.332 OA
ATOM     30  C   UNL     1     -18.859  23.859  22.184  1.00  0.00     0.180 C 
ATOM     31  C   UNL     1     -18.191  25.785  23.699  1.00  0.00     0.179 C 
ATOM     32  C   UNL     1     -17.739  24.421  23.087  1.00  0.00     0.177 C 
BRANCH  28  33
ATOM     33  O   UNL     1     -18.713  24.572  19.852  1.00  0.00    -0.384 OA
ATOM     34  H   UNL     1     -17.801  24.210  20.009  1.00  0.00     0.211 HD
ENDBRANCH  28  33
BRANCH  30  35
ATOM     35  O   UNL     1     -19.980  23.542  22.972  1.00  0.00    -0.387 OA
ATOM     36  H   UNL     1     -19.801  23.892  23.884  1.00  0.00     0.211 HD
ENDBRANCH  30  35
BRANCH  31  37
ATOM     37  C   UNL     1     -17.014  26.674  24.125  1.00  0.00     0.191 C 
BRANCH  37  38
ATOM     38  O   UNL     1     -17.340  28.019  23.908  1.00  0.00    -0.394 OA
ATOM     39  H   UNL     1     -16.479  28.514  23.898  1.00  0.00     0.210 HD
ENDBRANCH  37  38
ENDBRANCH  31  37
BRANCH  32  40
ATOM     40  O   UNL     1     -16.553  24.575  22.346  1.00  0.00    -0.387 OA
ATOM     41  H   UNL     1     -15.809  24.240  22.913  1.00  0.00     0.211 HD
ENDBRANCH  32  40
ENDBRANCH   1  27
TORSDOF 12
ENDMDL
