MODEL 1
REMARK VINA RESULT:    -3.920      0.000      0.000
REMARK INTER + INTRA:          -8.275
REMARK INTER:                  -5.867
REMARK INTRA:                  -2.407
REMARK UNBOUND:                -2.407
REMARK SMILES C=C(CC[C@@H](C(=O)[O-])[C@H]1[C@H](O)C[C@@]2(C)C3=C(CC[C@@]12C)[C@]1(C)CC[C@@H](OC(C)=O)C(C)(C)[C@@H]1CC3)C(C)C
REMARK SMILES IDX 4 1 5 2 6 3 7 4 8 5 9 6 10 7 19 8 12 9 13 10 18 11 20 12
REMARK SMILES IDX 14 13 15 14 17 15 16 16 35 17 21 18 34 19 33 20 23 21 22 22
REMARK SMILES IDX 30 23 24 24 25 25 31 26 32 27 11 28 26 30 27 31 29 32 28 33
REMARK SMILES IDX 3 34 2 35 1 36 36 37 37 38 38 39
REMARK H PARENT 11 29
REMARK Flexibility Score: inf
ROOT
ATOM      1  C   UNL     1     138.653 135.782 117.962  1.00  0.00     0.014 C 
ENDROOT
BRANCH   1   2
ATOM      2  C   UNL     1     137.199 135.529 117.502  1.00  0.00     0.042 C 
BRANCH   2   3
ATOM      3  C   UNL     1     136.922 134.050 117.503  1.00  0.00     0.045 C 
ATOM      4  O   UNL     1     137.051 133.381 118.560  1.00  0.00    -0.550 OA
ATOM      5  O   UNL     1     136.502 133.417 116.334  1.00  0.00    -0.550 OA
ENDBRANCH   2   3
BRANCH   2   6
ATOM      6  C   UNL     1     136.174 136.281 118.423  1.00  0.00     0.033 C 
ATOM      7  C   UNL     1     136.767 136.747 119.782  1.00  0.00     0.119 C 
ATOM      8  C   UNL     1     135.484 137.577 117.867  1.00  0.00    -0.017 C 
ATOM      9  C   UNL     1     136.030 138.038 120.193  1.00  0.00     0.043 C 
ATOM     10  C   UNL     1     134.896 138.241 119.173  1.00  0.00    -0.003 C 
ATOM     11  C   UNL     1     136.554 138.499 117.174  1.00  0.00     0.012 C 
ATOM     12  C   UNL     1     134.358 137.266 116.844  1.00  0.00     0.013 C 
ATOM     13  C   UNL     1     133.626 137.474 119.671  1.00  0.00     0.017 C 
ATOM     14  C   UNL     1     134.544 139.737 118.971  1.00  0.00    -0.064 C 
ATOM     15  C   UNL     1     136.452 139.996 117.462  1.00  0.00     0.032 C 
ATOM     16  C   UNL     1     135.105 140.452 117.963  1.00  0.00    -0.064 C 
ATOM     17  C   UNL     1     133.499 140.424 119.814  1.00  0.00     0.032 C 
ATOM     18  C   UNL     1     134.508 141.795 117.439  1.00  0.00    -0.008 C 
ATOM     19  C   UNL     1     132.461 141.001 118.879  1.00  0.00     0.009 C 
ATOM     20  C   UNL     1     133.054 142.151 118.020  1.00  0.00     0.009 C 
ATOM     21  C   UNL     1     135.536 142.923 117.745  1.00  0.00     0.015 C 
ATOM     22  C   UNL     1     134.378 141.670 115.900  1.00  0.00     0.016 C 
ATOM     23  C   UNL     1     132.913 143.623 118.628  1.00  0.00     0.005 C 
ATOM     24  C   UNL     1     135.468 143.397 119.192  1.00  0.00     0.047 C 
ATOM     25  C   UNL     1     134.087 143.951 119.615  1.00  0.00     0.182 C 
ATOM     26  C   UNL     1     131.569 143.781 119.394  1.00  0.00     0.015 C 
ATOM     27  C   UNL     1     132.867 144.675 117.462  1.00  0.00     0.015 C 
BRANCH   7  28
ATOM     28  O   UNL     1     136.643 135.761 120.779  1.00  0.00    -0.393 OA
ATOM     29  H   UNL     1     137.395 135.881 121.418  1.00  0.00     0.210 HD
ENDBRANCH   7  28
BRANCH  25  30
ATOM     30  O   UNL     1     134.216 145.367 119.791  1.00  0.00    -0.462 OA
BRANCH  30  31
ATOM     31  C   UNL     1     134.488 145.997 121.011  1.00  0.00     0.302 C 
ATOM     32  O   UNL     1     133.819 145.729 122.046  1.00  0.00    -0.253 OA
ATOM     33  C   UNL     1     135.571 147.018 121.071  1.00  0.00     0.139 C 
ENDBRANCH  30  31
ENDBRANCH  25  30
ENDBRANCH   2   6
ENDBRANCH   1   2
BRANCH   1  34
ATOM     34  C   UNL     1     139.496 136.534 116.912  1.00  0.00     0.031 C 
BRANCH  34  35
ATOM     35  C   UNL     1     140.142 137.758 117.530  1.00  0.00    -0.075 C 
ATOM     36  C   UNL     1     140.581 138.748 116.731  1.00  0.00     0.008 C 
BRANCH  35  37
ATOM     37  C   UNL     1     140.332 137.825 119.041  1.00  0.00     0.008 C 
ATOM     38  C   UNL     1     139.619 139.037 119.654  1.00  0.00     0.012 C 
ATOM     39  C   UNL     1     141.823 137.815 119.398  1.00  0.00     0.012 C 
ENDBRANCH  35  37
ENDBRANCH  34  35
ENDBRANCH   1  34
TORSDOF 9
ENDMDL
MODEL 2
REMARK VINA RESULT:    -3.896      2.736      5.711
REMARK INTER + INTRA:          -8.239
REMARK INTER:                  -6.233
REMARK INTRA:                  -2.006
REMARK UNBOUND:                -2.407
REMARK SMILES C=C(CC[C@@H](C(=O)[O-])[C@H]1[C@H](O)C[C@@]2(C)C3=C(CC[C@@]12C)[C@]1(C)CC[C@@H](OC(C)=O)C(C)(C)[C@@H]1CC3)C(C)C
REMARK SMILES IDX 4 1 5 2 6 3 7 4 8 5 9 6 10 7 19 8 12 9 13 10 18 11 20 12
REMARK SMILES IDX 14 13 15 14 17 15 16 16 35 17 21 18 34 19 33 20 23 21 22 22
REMARK SMILES IDX 30 23 24 24 25 25 31 26 32 27 11 28 26 30 27 31 29 32 28 33
REMARK SMILES IDX 3 34 2 35 1 36 36 37 37 38 38 39
REMARK H PARENT 11 29
REMARK Flexibility Score: inf
ROOT
ATOM      1  C   UNL     1     137.393 132.214 116.320  1.00  0.00     0.014 C 
ENDROOT
BRANCH   1   2
ATOM      2  C   UNL     1     137.868 132.425 117.776  1.00  0.00     0.042 C 
BRANCH   2   3
ATOM      3  C   UNL     1     138.760 131.283 118.184  1.00  0.00     0.045 C 
ATOM      4  O   UNL     1     138.280 130.286 118.783  1.00  0.00    -0.550 OA
ATOM      5  O   UNL     1     140.120 131.316 117.883  1.00  0.00    -0.550 OA
ENDBRANCH   2   3
BRANCH   2   6
ATOM      6  C   UNL     1     138.620 133.794 117.934  1.00  0.00     0.033 C 
ATOM      7  C   UNL     1     139.111 134.405 116.592  1.00  0.00     0.119 C 
ATOM      8  C   UNL     1     137.861 134.986 118.617  1.00  0.00    -0.017 C 
ATOM      9  C   UNL     1     139.085 135.940 116.743  1.00  0.00     0.043 C 
ATOM     10  C   UNL     1     138.744 136.231 118.215  1.00  0.00    -0.003 C 
ATOM     11  C   UNL     1     136.402 135.094 118.040  1.00  0.00     0.012 C 
ATOM     12  C   UNL     1     137.776 134.838 120.160  1.00  0.00     0.013 C 
ATOM     13  C   UNL     1     140.071 136.271 119.042  1.00  0.00     0.017 C 
ATOM     14  C   UNL     1     137.990 137.574 118.391  1.00  0.00    -0.064 C 
ATOM     15  C   UNL     1     135.894 136.500 117.729  1.00  0.00     0.032 C 
ATOM     16  C   UNL     1     136.634 137.609 118.434  1.00  0.00    -0.064 C 
ATOM     17  C   UNL     1     138.728 138.870 118.621  1.00  0.00     0.032 C 
ATOM     18  C   UNL     1     135.833 138.813 119.018  1.00  0.00    -0.008 C 
ATOM     19  C   UNL     1     138.213 139.468 119.911  1.00  0.00     0.009 C 
ATOM     20  C   UNL     1     136.731 139.908 119.777  1.00  0.00     0.009 C 
ATOM     21  C   UNL     1     135.019 139.451 117.854  1.00  0.00     0.015 C 
ATOM     22  C   UNL     1     134.827 138.240 120.048  1.00  0.00     0.016 C 
ATOM     23  C   UNL     1     136.488 141.418 119.312  1.00  0.00     0.005 C 
ATOM     24  C   UNL     1     135.868 140.370 116.984  1.00  0.00     0.047 C 
ATOM     25  C   UNL     1     136.516 141.549 117.748  1.00  0.00     0.182 C 
ATOM     26  C   UNL     1     137.573 142.362 119.903  1.00  0.00     0.015 C 
ATOM     27  C   UNL     1     135.117 141.933 119.879  1.00  0.00     0.015 C 
BRANCH   7  28
ATOM     28  O   UNL     1     140.402 133.958 116.248  1.00  0.00    -0.393 OA
ATOM     29  H   UNL     1     140.789 133.510 117.047  1.00  0.00     0.210 HD
ENDBRANCH   7  28
BRANCH  25  30
ATOM     30  O   UNL     1     135.865 142.755 117.332  1.00  0.00    -0.462 OA
BRANCH  30  31
ATOM     31  C   UNL     1     136.451 143.742 116.531  1.00  0.00     0.302 C 
ATOM     32  O   UNL     1     135.742 144.580 115.910  1.00  0.00    -0.253 OA
ATOM     33  C   UNL     1     137.934 143.777 116.396  1.00  0.00     0.139 C 
ENDBRANCH  30  31
ENDBRANCH  25  30
ENDBRANCH   2   6
ENDBRANCH   1   2
BRANCH   1  34
ATOM     34  C   UNL     1     135.862 132.073 116.198  1.00  0.00     0.031 C 
BRANCH  34  35
ATOM     35  C   UNL     1     135.424 130.684 116.618  1.00  0.00    -0.075 C 
ATOM     36  C   UNL     1     136.010 129.609 116.058  1.00  0.00     0.008 C 
BRANCH  35  37
ATOM     37  C   UNL     1     134.292 130.526 117.626  1.00  0.00     0.008 C 
ATOM     38  C   UNL     1     134.772 130.750 119.066  1.00  0.00     0.012 C 
ATOM     39  C   UNL     1     133.618 129.158 117.470  1.00  0.00     0.012 C 
ENDBRANCH  35  37
ENDBRANCH  34  35
ENDBRANCH   1  34
TORSDOF 9
ENDMDL
MODEL 3
REMARK VINA RESULT:    -3.782      3.302      6.573
REMARK INTER + INTRA:          -8.068
REMARK INTER:                  -5.738
REMARK INTRA:                  -2.330
REMARK UNBOUND:                -2.407
REMARK SMILES C=C(CC[C@@H](C(=O)[O-])[C@H]1[C@H](O)C[C@@]2(C)C3=C(CC[C@@]12C)[C@]1(C)CC[C@@H](OC(C)=O)C(C)(C)[C@@H]1CC3)C(C)C
REMARK SMILES IDX 4 1 5 2 6 3 7 4 8 5 9 6 10 7 19 8 12 9 13 10 18 11 20 12
REMARK SMILES IDX 14 13 15 14 17 15 16 16 35 17 21 18 34 19 33 20 23 21 22 22
REMARK SMILES IDX 30 23 24 24 25 25 31 26 32 27 11 28 26 30 27 31 29 32 28 33
REMARK SMILES IDX 3 34 2 35 1 36 36 37 37 38 38 39
REMARK H PARENT 11 29
REMARK Flexibility Score: inf
ROOT
ATOM      1  C   UNL     1     138.159 130.686 116.258  1.00  0.00     0.014 C 
ENDROOT
BRANCH   1   2
ATOM      2  C   UNL     1     138.637 130.893 117.713  1.00  0.00     0.042 C 
BRANCH   2   3
ATOM      3  C   UNL     1     139.602 129.800 118.085  1.00  0.00     0.045 C 
ATOM      4  O   UNL     1     140.580 129.536 117.339  1.00  0.00    -0.550 OA
ATOM      5  O   UNL     1     139.427 129.085 119.269  1.00  0.00    -0.550 OA
ENDBRANCH   2   3
BRANCH   2   6
ATOM      6  C   UNL     1     139.305 132.302 117.895  1.00  0.00     0.033 C 
ATOM      7  C   UNL     1     139.778 132.955 116.567  1.00  0.00     0.119 C 
ATOM      8  C   UNL     1     138.468 133.440 118.579  1.00  0.00    -0.017 C 
ATOM      9  C   UNL     1     139.659 134.484 116.732  1.00  0.00     0.043 C 
ATOM     10  C   UNL     1     139.280 134.740 118.202  1.00  0.00    -0.003 C 
ATOM     11  C   UNL     1     137.012 133.468 117.982  1.00  0.00     0.012 C 
ATOM     12  C   UNL     1     138.370 133.271 120.120  1.00  0.00     0.013 C 
ATOM     13  C   UNL     1     140.592 134.849 119.049  1.00  0.00     0.017 C 
ATOM     14  C   UNL     1     138.446 136.034 118.380  1.00  0.00    -0.064 C 
ATOM     15  C   UNL     1     136.427 134.846 117.677  1.00  0.00     0.032 C 
ATOM     16  C   UNL     1     137.091 135.988 118.404  1.00  0.00    -0.064 C 
ATOM     17  C   UNL     1     139.103 137.368 118.633  1.00  0.00     0.032 C 
ATOM     18  C   UNL     1     136.212 137.137 118.988  1.00  0.00    -0.008 C 
ATOM     19  C   UNL     1     138.537 137.921 119.922  1.00  0.00     0.009 C 
ATOM     20  C   UNL     1     137.032 138.275 119.770  1.00  0.00     0.009 C 
ATOM     21  C   UNL     1     135.378 137.738 117.818  1.00  0.00     0.015 C 
ATOM     22  C   UNL     1     135.227 136.495 119.998  1.00  0.00     0.016 C 
ATOM     23  C   UNL     1     136.708 139.773 119.316  1.00  0.00     0.005 C 
ATOM     24  C   UNL     1     136.183 138.715 116.970  1.00  0.00     0.047 C 
ATOM     25  C   UNL     1     136.750 139.922 117.754  1.00  0.00     0.182 C 
ATOM     26  C   UNL     1     137.727 140.773 119.932  1.00  0.00     0.015 C 
ATOM     27  C   UNL     1     135.301 140.201 119.868  1.00  0.00     0.015 C 
BRANCH   7  28
ATOM     28  O   UNL     1     141.097 132.588 116.238  1.00  0.00    -0.393 OA
ATOM     29  H   UNL     1     141.080 132.175 115.334  1.00  0.00     0.210 HD
ENDBRANCH   7  28
BRANCH  25  30
ATOM     30  O   UNL     1     136.035 141.092 117.340  1.00  0.00    -0.462 OA
BRANCH  30  31
ATOM     31  C   UNL     1     136.539 142.071 116.477  1.00  0.00     0.302 C 
ATOM     32  O   UNL     1     135.768 142.867 115.875  1.00  0.00    -0.253 OA
ATOM     33  C   UNL     1     138.010 142.148 116.252  1.00  0.00     0.139 C 
ENDBRANCH  30  31
ENDBRANCH  25  30
ENDBRANCH   2   6
ENDBRANCH   1   2
BRANCH   1  34
ATOM     34  C   UNL     1     137.048 129.624 116.133  1.00  0.00     0.031 C 
BRANCH  34  35
ATOM     35  C   UNL     1     135.726 130.181 116.623  1.00  0.00    -0.075 C 
ATOM     36  C   UNL     1     135.167 131.222 115.977  1.00  0.00     0.008 C 
BRANCH  35  37
ATOM     37  C   UNL     1     135.077 129.588 117.869  1.00  0.00     0.008 C 
ATOM     38  C   UNL     1     134.753 130.665 118.912  1.00  0.00     0.012 C 
ATOM     39  C   UNL     1     135.960 128.485 118.463  1.00  0.00     0.012 C 
ENDBRANCH  35  37
ENDBRANCH  34  35
ENDBRANCH   1  34
TORSDOF 9
ENDMDL
MODEL 4
REMARK VINA RESULT:    -3.628      4.305      8.560
REMARK INTER + INTRA:          -7.838
REMARK INTER:                  -5.524
REMARK INTRA:                  -2.314
REMARK UNBOUND:                -2.407
REMARK SMILES C=C(CC[C@@H](C(=O)[O-])[C@H]1[C@H](O)C[C@@]2(C)C3=C(CC[C@@]12C)[C@]1(C)CC[C@@H](OC(C)=O)C(C)(C)[C@@H]1CC3)C(C)C
REMARK SMILES IDX 4 1 5 2 6 3 7 4 8 5 9 6 10 7 19 8 12 9 13 10 18 11 20 12
REMARK SMILES IDX 14 13 15 14 17 15 16 16 35 17 21 18 34 19 33 20 23 21 22 22
REMARK SMILES IDX 30 23 24 24 25 25 31 26 32 27 11 28 26 30 27 31 29 32 28 33
REMARK SMILES IDX 3 34 2 35 1 36 36 37 37 38 38 39
REMARK H PARENT 11 29
REMARK Flexibility Score: inf
ROOT
ATOM      1  C   UNL     1     128.394 136.174 121.383  1.00  0.00     0.014 C 
ENDROOT
BRANCH   1   2
ATOM      2  C   UNL     1     128.854 137.386 122.224  1.00  0.00     0.042 C 
BRANCH   2   3
ATOM      3  C   UNL     1     128.067 137.435 123.506  1.00  0.00     0.045 C 
ATOM      4  O   UNL     1     127.278 138.388 123.730  1.00  0.00    -0.550 OA
ATOM      5  O   UNL     1     128.196 136.413 124.445  1.00  0.00    -0.550 OA
ENDBRANCH   2   3
BRANCH   2   6
ATOM      6  C   UNL     1     130.393 137.316 122.525  1.00  0.00     0.033 C 
ATOM      7  C   UNL     1     131.002 135.894 122.380  1.00  0.00     0.119 C 
ATOM      8  C   UNL     1     131.360 138.212 121.673  1.00  0.00    -0.017 C 
ATOM      9  C   UNL     1     132.467 136.059 121.925  1.00  0.00     0.043 C 
ATOM     10  C   UNL     1     132.772 137.568 121.964  1.00  0.00    -0.003 C 
ATOM     11  C   UNL     1     130.977 138.117 120.150  1.00  0.00     0.012 C 
ATOM     12  C   UNL     1     131.329 139.704 122.101  1.00  0.00     0.013 C 
ATOM     13  C   UNL     1     133.277 137.943 123.396  1.00  0.00     0.017 C 
ATOM     14  C   UNL     1     133.839 137.981 120.919  1.00  0.00    -0.064 C 
ATOM     15  C   UNL     1     132.136 137.991 119.163  1.00  0.00     0.032 C 
ATOM     16  C   UNL     1     133.471 138.442 119.697  1.00  0.00    -0.064 C 
ATOM     17  C   UNL     1     135.310 137.983 121.251  1.00  0.00     0.032 C 
ATOM     18  C   UNL     1     134.429 139.257 118.773  1.00  0.00    -0.008 C 
ATOM     19  C   UNL     1     135.839 139.375 120.985  1.00  0.00     0.009 C 
ATOM     20  C   UNL     1     135.804 139.711 119.470  1.00  0.00     0.009 C 
ATOM     21  C   UNL     1     134.690 138.409 117.494  1.00  0.00     0.015 C 
ATOM     22  C   UNL     1     133.675 140.543 118.349  1.00  0.00     0.016 C 
ATOM     23  C   UNL     1     137.126 139.358 118.643  1.00  0.00     0.005 C 
ATOM     24  C   UNL     1     135.741 137.327 117.717  1.00  0.00     0.047 C 
ATOM     25  C   UNL     1     137.122 137.864 118.163  1.00  0.00     0.182 C 
ATOM     26  C   UNL     1     138.399 139.592 119.505  1.00  0.00     0.015 C 
ATOM     27  C   UNL     1     137.257 140.327 117.414  1.00  0.00     0.015 C 
BRANCH   7  28
ATOM     28  O   UNL     1     130.931 135.163 123.582  1.00  0.00    -0.393 OA
ATOM     29  H   UNL     1     131.766 134.630 123.661  1.00  0.00     0.210 HD
ENDBRANCH   7  28
BRANCH  25  30
ATOM     30  O   UNL     1     138.038 137.681 117.077  1.00  0.00    -0.462 OA
BRANCH  30  31
ATOM     31  C   UNL     1     139.282 137.050 117.181  1.00  0.00     0.302 C 
ATOM     32  O   UNL     1     140.350 137.672 116.929  1.00  0.00    -0.253 OA
ATOM     33  C   UNL     1     139.334 135.613 117.572  1.00  0.00     0.139 C 
ENDBRANCH  30  31
ENDBRANCH  25  30
ENDBRANCH   2   6
ENDBRANCH   1   2
BRANCH   1  34
ATOM     34  C   UNL     1     127.150 136.473 120.523  1.00  0.00     0.031 C 
BRANCH  34  35
ATOM     35  C   UNL     1     127.561 137.001 119.163  1.00  0.00    -0.075 C 
ATOM     36  C   UNL     1     128.330 136.239 118.362  1.00  0.00     0.008 C 
BRANCH  35  37
ATOM     37  C   UNL     1     127.142 138.406 118.745  1.00  0.00     0.008 C 
ATOM     38  C   UNL     1     128.173 139.056 117.813  1.00  0.00     0.012 C 
ATOM     39  C   UNL     1     126.877 139.278 119.977  1.00  0.00     0.012 C 
ENDBRANCH  35  37
ENDBRANCH  34  35
ENDBRANCH   1  34
TORSDOF 9
ENDMDL
MODEL 5
REMARK VINA RESULT:    -3.561      3.474      7.655
REMARK INTER + INTRA:          -7.738
REMARK INTER:                  -5.411
REMARK INTRA:                  -2.326
REMARK UNBOUND:                -2.407
REMARK SMILES C=C(CC[C@@H](C(=O)[O-])[C@H]1[C@H](O)C[C@@]2(C)C3=C(CC[C@@]12C)[C@]1(C)CC[C@@H](OC(C)=O)C(C)(C)[C@@H]1CC3)C(C)C
REMARK SMILES IDX 4 1 5 2 6 3 7 4 8 5 9 6 10 7 19 8 12 9 13 10 18 11 20 12
REMARK SMILES IDX 14 13 15 14 17 15 16 16 35 17 21 18 34 19 33 20 23 21 22 22
REMARK SMILES IDX 30 23 24 24 25 25 31 26 32 27 11 28 26 30 27 31 29 32 28 33
REMARK SMILES IDX 3 34 2 35 1 36 36 37 37 38 38 39
REMARK H PARENT 11 29
REMARK Flexibility Score: inf
ROOT
ATOM      1  C   UNL     1     138.234 139.739 117.371  1.00  0.00     0.014 C 
ENDROOT
BRANCH   1   2
ATOM      2  C   UNL     1     137.320 140.743 118.110  1.00  0.00     0.042 C 
BRANCH   2   3
ATOM      3  C   UNL     1     137.266 142.035 117.339  1.00  0.00     0.045 C 
ATOM      4  O   UNL     1     136.793 142.059 116.174  1.00  0.00    -0.550 OA
ATOM      5  O   UNL     1     137.724 143.216 117.921  1.00  0.00    -0.550 OA
ENDBRANCH   2   3
BRANCH   2   6
ATOM      6  C   UNL     1     135.877 140.158 118.306  1.00  0.00     0.033 C 
ATOM      7  C   UNL     1     135.527 138.997 117.334  1.00  0.00     0.119 C 
ATOM      8  C   UNL     1     135.492 139.580 119.713  1.00  0.00    -0.017 C 
ATOM      9  C   UNL     1     134.550 138.055 118.067  1.00  0.00     0.043 C 
ATOM     10  C   UNL     1     134.192 138.742 119.398  1.00  0.00    -0.003 C 
ATOM     11  C   UNL     1     136.655 138.670 120.255  1.00  0.00     0.012 C 
ATOM     12  C   UNL     1     135.200 140.689 120.759  1.00  0.00     0.013 C 
ATOM     13  C   UNL     1     132.961 139.679 119.166  1.00  0.00     0.017 C 
ATOM     14  C   UNL     1     133.857 137.722 120.516  1.00  0.00    -0.064 C 
ATOM     15  C   UNL     1     136.242 137.356 120.916  1.00  0.00     0.032 C 
ATOM     16  C   UNL     1     134.811 137.310 121.388  1.00  0.00    -0.064 C 
ATOM     17  C   UNL     1     132.448 137.231 120.740  1.00  0.00     0.032 C 
ATOM     18  C   UNL     1     134.478 136.644 122.759  1.00  0.00    -0.008 C 
ATOM     19  C   UNL     1     132.079 137.535 122.174  1.00  0.00     0.009 C 
ATOM     20  C   UNL     1     132.925 136.692 123.166  1.00  0.00     0.009 C 
ATOM     21  C   UNL     1     135.012 135.182 122.718  1.00  0.00     0.015 C 
ATOM     22  C   UNL     1     135.269 137.412 123.848  1.00  0.00     0.016 C 
ATOM     23  C   UNL     1     132.299 135.286 123.601  1.00  0.00     0.005 C 
ATOM     24  C   UNL     1     134.074 134.240 121.972  1.00  0.00     0.047 C 
ATOM     25  C   UNL     1     132.649 134.157 122.569  1.00  0.00     0.182 C 
ATOM     26  C   UNL     1     130.751 135.381 123.719  1.00  0.00     0.015 C 
ATOM     27  C   UNL     1     132.814 134.898 125.033  1.00  0.00     0.015 C 
BRANCH   7  28
ATOM     28  O   UNL     1     134.964 139.465 116.131  1.00  0.00    -0.393 OA
ATOM     29  H   UNL     1     134.404 138.735 115.755  1.00  0.00     0.210 HD
ENDBRANCH   7  28
BRANCH  25  30
ATOM     30  O   UNL     1     132.495 132.864 123.166  1.00  0.00    -0.462 OA
BRANCH  30  31
ATOM     31  C   UNL     1     133.195 131.717 122.775  1.00  0.00     0.302 C 
ATOM     32  O   UNL     1     134.214 131.329 123.411  1.00  0.00    -0.253 OA
ATOM     33  C   UNL     1     132.738 130.965 121.574  1.00  0.00     0.139 C 
ENDBRANCH  30  31
ENDBRANCH  25  30
ENDBRANCH   2   6
ENDBRANCH   1   2
BRANCH   1  34
ATOM     34  C   UNL     1     139.386 139.211 118.249  1.00  0.00     0.031 C 
BRANCH  34  35
ATOM     35  C   UNL     1     139.365 137.696 118.294  1.00  0.00    -0.075 C 
ATOM     36  C   UNL     1     140.031 137.054 119.273  1.00  0.00     0.008 C 
BRANCH  35  37
ATOM     37  C   UNL     1     138.635 136.922 117.202  1.00  0.00     0.008 C 
ATOM     38  C   UNL     1     137.623 135.927 117.785  1.00  0.00     0.012 C 
ATOM     39  C   UNL     1     139.637 136.221 116.278  1.00  0.00     0.012 C 
ENDBRANCH  35  37
ENDBRANCH  34  35
ENDBRANCH   1  34
TORSDOF 9
ENDMDL
MODEL 6
REMARK VINA RESULT:    -3.515      3.755     10.192
REMARK INTER + INTRA:          -7.669
REMARK INTER:                  -5.883
REMARK INTRA:                  -1.786
REMARK UNBOUND:                -2.407
REMARK SMILES C=C(CC[C@@H](C(=O)[O-])[C@H]1[C@H](O)C[C@@]2(C)C3=C(CC[C@@]12C)[C@]1(C)CC[C@@H](OC(C)=O)C(C)(C)[C@@H]1CC3)C(C)C
REMARK SMILES IDX 4 1 5 2 6 3 7 4 8 5 9 6 10 7 19 8 12 9 13 10 18 11 20 12
REMARK SMILES IDX 14 13 15 14 17 15 16 16 35 17 21 18 34 19 33 20 23 21 22 22
REMARK SMILES IDX 30 23 24 24 25 25 31 26 32 27 11 28 26 30 27 31 29 32 28 33
REMARK SMILES IDX 3 34 2 35 1 36 36 37 37 38 38 39
REMARK H PARENT 11 29
REMARK Flexibility Score: inf
ROOT
ATOM      1  C   UNL     1     137.574 138.894 118.173  1.00  0.00     0.014 C 
ENDROOT
BRANCH   1   2
ATOM      2  C   UNL     1     138.584 137.803 117.747  1.00  0.00     0.042 C 
BRANCH   2   3
ATOM      3  C   UNL     1     139.958 138.406 117.639  1.00  0.00     0.045 C 
ATOM      4  O   UNL     1     140.870 138.053 118.431  1.00  0.00    -0.550 OA
ATOM      5  O   UNL     1     140.233 139.347 116.649  1.00  0.00    -0.550 OA
ENDBRANCH   2   3
BRANCH   2   6
ATOM      6  C   UNL     1     138.586 136.606 118.762  1.00  0.00     0.033 C 
ATOM      7  C   UNL     1     137.408 136.632 119.775  1.00  0.00     0.119 C 
ATOM      8  C   UNL     1     138.538 135.145 118.190  1.00  0.00    -0.017 C 
ATOM      9  C   UNL     1     137.063 135.169 120.125  1.00  0.00     0.043 C 
ATOM     10  C   UNL     1     138.136 134.292 119.456  1.00  0.00    -0.003 C 
ATOM     11  C   UNL     1     137.455 135.049 117.053  1.00  0.00     0.012 C 
ATOM     12  C   UNL     1     139.904 134.679 117.615  1.00  0.00     0.013 C 
ATOM     13  C   UNL     1     139.345 134.139 120.438  1.00  0.00     0.017 C 
ATOM     14  C   UNL     1     137.600 132.888 119.080  1.00  0.00    -0.064 C 
ATOM     15  C   UNL     1     136.564 133.808 117.064  1.00  0.00     0.032 C 
ATOM     16  C   UNL     1     137.121 132.638 117.835  1.00  0.00    -0.064 C 
ATOM     17  C   UNL     1     137.682 131.727 120.040  1.00  0.00     0.032 C 
ATOM     18  C   UNL     1     136.966 131.197 117.257  1.00  0.00    -0.008 C 
ATOM     19  C   UNL     1     138.438 130.614 119.351  1.00  0.00     0.009 C 
ATOM     20  C   UNL     1     137.633 130.043 118.153  1.00  0.00     0.009 C 
ATOM     21  C   UNL     1     135.448 130.937 117.029  1.00  0.00     0.015 C 
ATOM     22  C   UNL     1     137.668 131.178 115.875  1.00  0.00     0.016 C 
ATOM     23  C   UNL     1     136.675 128.806 118.480  1.00  0.00     0.005 C 
ATOM     24  C   UNL     1     134.723 130.556 118.315  1.00  0.00     0.047 C 
ATOM     25  C   UNL     1     135.275 129.285 119.003  1.00  0.00     0.182 C 
ATOM     26  C   UNL     1     137.310 127.880 119.556  1.00  0.00     0.015 C 
ATOM     27  C   UNL     1     136.503 127.915 117.197  1.00  0.00     0.015 C 
BRANCH   7  28
ATOM     28  O   UNL     1     137.725 137.363 120.936  1.00  0.00    -0.393 OA
ATOM     29  H   UNL     1     136.895 137.812 121.246  1.00  0.00     0.210 HD
ENDBRANCH   7  28
BRANCH  25  30
ATOM     30  O   UNL     1     134.300 128.246 118.859  1.00  0.00    -0.462 OA
BRANCH  30  31
ATOM     31  C   UNL     1     132.917 128.429 118.972  1.00  0.00     0.302 C 
ATOM     32  O   UNL     1     132.387 128.710 120.082  1.00  0.00    -0.253 OA
ATOM     33  C   UNL     1     132.064 128.261 117.763  1.00  0.00     0.139 C 
ENDBRANCH  30  31
ENDBRANCH  25  30
ENDBRANCH   2   6
ENDBRANCH   1   2
BRANCH   1  34
ATOM     34  C   UNL     1     136.440 139.099 117.149  1.00  0.00     0.031 C 
BRANCH  34  35
ATOM     35  C   UNL     1     135.117 138.633 117.724  1.00  0.00    -0.075 C 
ATOM     36  C   UNL     1     134.652 137.410 117.405  1.00  0.00     0.008 C 
BRANCH  35  37
ATOM     37  C   UNL     1     134.310 139.574 118.610  1.00  0.00     0.008 C 
ATOM     38  C   UNL     1     132.937 138.989 118.965  1.00  0.00     0.012 C 
ATOM     39  C   UNL     1     134.175 140.952 117.952  1.00  0.00     0.012 C 
ENDBRANCH  35  37
ENDBRANCH  34  35
ENDBRANCH   1  34
TORSDOF 9
ENDMDL
MODEL 7
REMARK VINA RESULT:    -3.494      3.238      9.391
REMARK INTER + INTRA:          -7.638
REMARK INTER:                  -5.196
REMARK INTRA:                  -2.441
REMARK UNBOUND:                -2.407
REMARK SMILES C=C(CC[C@@H](C(=O)[O-])[C@H]1[C@H](O)C[C@@]2(C)C3=C(CC[C@@]12C)[C@]1(C)CC[C@@H](OC(C)=O)C(C)(C)[C@@H]1CC3)C(C)C
REMARK SMILES IDX 4 1 5 2 6 3 7 4 8 5 9 6 10 7 19 8 12 9 13 10 18 11 20 12
REMARK SMILES IDX 14 13 15 14 17 15 16 16 35 17 21 18 34 19 33 20 23 21 22 22
REMARK SMILES IDX 30 23 24 24 25 25 31 26 32 27 11 28 26 30 27 31 29 32 28 33
REMARK SMILES IDX 3 34 2 35 1 36 36 37 37 38 38 39
REMARK H PARENT 11 29
REMARK Flexibility Score: inf
ROOT
ATOM      1  C   UNL     1     135.808 140.960 117.650  1.00  0.00     0.014 C 
ENDROOT
BRANCH   1   2
ATOM      2  C   UNL     1     137.261 140.665 117.212  1.00  0.00     0.042 C 
BRANCH   2   3
ATOM      3  C   UNL     1     137.928 141.947 116.791  1.00  0.00     0.045 C 
ATOM      4  O   UNL     1     138.816 141.937 115.899  1.00  0.00    -0.550 OA
ATOM      5  O   UNL     1     137.554 143.155 117.376  1.00  0.00    -0.550 OA
ENDBRANCH   2   3
BRANCH   2   6
ATOM      6  C   UNL     1     138.072 139.975 118.365  1.00  0.00     0.033 C 
ATOM      7  C   UNL     1     137.258 139.762 119.672  1.00  0.00     0.119 C 
ATOM      8  C   UNL     1     138.695 138.560 118.094  1.00  0.00    -0.017 C 
ATOM      9  C   UNL     1     137.799 138.490 120.355  1.00  0.00     0.043 C 
ATOM     10  C   UNL     1     139.033 138.048 119.548  1.00  0.00    -0.003 C 
ATOM     11  C   UNL     1     137.640 137.637 117.381  1.00  0.00     0.012 C 
ATOM     12  C   UNL     1     139.973 138.626 117.215  1.00  0.00     0.013 C 
ATOM     13  C   UNL     1     140.296 138.774 120.121  1.00  0.00     0.017 C 
ATOM     14  C   UNL     1     139.255 136.515 119.601  1.00  0.00    -0.064 C 
ATOM     15  C   UNL     1     137.550 136.195 117.877  1.00  0.00     0.032 C 
ATOM     16  C   UNL     1     138.764 135.709 118.626  1.00  0.00    -0.064 C 
ATOM     17  C   UNL     1     140.104 135.877 120.673  1.00  0.00     0.032 C 
ATOM     18  C   UNL     1     139.288 134.260 118.379  1.00  0.00    -0.008 C 
ATOM     19  C   UNL     1     141.194 135.086 119.985  1.00  0.00     0.009 C 
ATOM     20  C   UNL     1     140.608 133.876 119.209  1.00  0.00     0.009 C 
ATOM     21  C   UNL     1     138.119 133.276 118.678  1.00  0.00     0.015 C 
ATOM     22  C   UNL     1     139.635 134.148 116.872  1.00  0.00     0.016 C 
ATOM     23  C   UNL     1     140.517 132.501 120.021  1.00  0.00     0.005 C 
ATOM     24  C   UNL     1     137.945 133.014 120.169  1.00  0.00     0.047 C 
ATOM     25  C   UNL     1     139.193 132.417 120.860  1.00  0.00     0.182 C 
ATOM     26  C   UNL     1     141.723 132.348 120.990  1.00  0.00     0.015 C 
ATOM     27  C   UNL     1     140.611 131.290 119.026  1.00  0.00     0.015 C 
BRANCH   7  28
ATOM     28  O   UNL     1     137.346 140.871 120.536  1.00  0.00    -0.393 OA
ATOM     29  H   UNL     1     137.511 141.677 119.978  1.00  0.00     0.210 HD
ENDBRANCH   7  28
BRANCH  25  30
ATOM     30  O   UNL     1     138.900 131.057 121.203  1.00  0.00    -0.462 OA
BRANCH  30  31
ATOM     31  C   UNL     1     138.225 130.655 122.361  1.00  0.00     0.302 C 
ATOM     32  O   UNL     1     137.116 130.057 122.293  1.00  0.00    -0.253 OA
ATOM     33  C   UNL     1     138.820 130.966 123.691  1.00  0.00     0.139 C 
ENDBRANCH  30  31
ENDBRANCH  25  30
ENDBRANCH   2   6
ENDBRANCH   1   2
BRANCH   1  34
ATOM     34  C   UNL     1     134.795 139.926 117.119  1.00  0.00     0.031 C 
BRANCH  34  35
ATOM     35  C   UNL     1     133.957 139.374 118.255  1.00  0.00    -0.075 C 
ATOM     36  C   UNL     1     133.489 140.212 119.199  1.00  0.00     0.008 C 
BRANCH  35  37
ATOM     37  C   UNL     1     133.702 137.874 118.341  1.00  0.00     0.008 C 
ATOM     38  C   UNL     1     134.413 137.240 119.543  1.00  0.00     0.012 C 
ATOM     39  C   UNL     1     134.101 137.184 117.031  1.00  0.00     0.012 C 
ENDBRANCH  35  37
ENDBRANCH  34  35
ENDBRANCH   1  34
TORSDOF 9
ENDMDL
MODEL 8
REMARK VINA RESULT:    -3.463      3.605      7.165
REMARK INTER + INTRA:          -7.590
REMARK INTER:                  -5.352
REMARK INTRA:                  -2.238
REMARK UNBOUND:                -2.407
REMARK SMILES C=C(CC[C@@H](C(=O)[O-])[C@H]1[C@H](O)C[C@@]2(C)C3=C(CC[C@@]12C)[C@]1(C)CC[C@@H](OC(C)=O)C(C)(C)[C@@H]1CC3)C(C)C
REMARK SMILES IDX 4 1 5 2 6 3 7 4 8 5 9 6 10 7 19 8 12 9 13 10 18 11 20 12
REMARK SMILES IDX 14 13 15 14 17 15 16 16 35 17 21 18 34 19 33 20 23 21 22 22
REMARK SMILES IDX 30 23 24 24 25 25 31 26 32 27 11 28 26 30 27 31 29 32 28 33
REMARK SMILES IDX 3 34 2 35 1 36 36 37 37 38 38 39
REMARK H PARENT 11 29
REMARK Flexibility Score: inf
ROOT
ATOM      1  C   UNL     1     136.521 129.614 119.218  1.00  0.00     0.014 C 
ENDROOT
BRANCH   1   2
ATOM      2  C   UNL     1     138.003 130.055 119.251  1.00  0.00     0.042 C 
BRANCH   2   3
ATOM      3  C   UNL     1     138.884 128.877 118.934  1.00  0.00     0.045 C 
ATOM      4  O   UNL     1     139.304 128.132 119.857  1.00  0.00    -0.550 OA
ATOM      5  O   UNL     1     139.226 128.595 117.613  1.00  0.00    -0.550 OA
ENDBRANCH   2   3
BRANCH   2   6
ATOM      6  C   UNL     1     138.267 131.227 118.241  1.00  0.00     0.033 C 
ATOM      7  C   UNL     1     137.149 131.411 117.177  1.00  0.00     0.119 C 
ATOM      8  C   UNL     1     138.461 132.675 118.815  1.00  0.00    -0.017 C 
ATOM      9  C   UNL     1     137.091 132.910 116.818  1.00  0.00     0.043 C 
ATOM     10  C   UNL     1     138.276 133.581 117.536  1.00  0.00    -0.003 C 
ATOM     11  C   UNL     1     137.364 132.972 119.904  1.00  0.00     0.012 C 
ATOM     12  C   UNL     1     139.861 132.887 119.451  1.00  0.00     0.013 C 
ATOM     13  C   UNL     1     139.534 133.508 116.608  1.00  0.00     0.017 C 
ATOM     14  C   UNL     1     137.988 135.061 117.893  1.00  0.00    -0.064 C 
ATOM     15  C   UNL     1     136.715 134.354 119.858  1.00  0.00     0.032 C 
ATOM     16  C   UNL     1     137.508 135.399 119.116  1.00  0.00    -0.064 C 
ATOM     17  C   UNL     1     138.322 136.183 116.941  1.00  0.00     0.032 C 
ATOM     18  C   UNL     1     137.593 136.847 119.692  1.00  0.00    -0.008 C 
ATOM     19  C   UNL     1     139.237 137.143 117.667  1.00  0.00     0.009 C 
ATOM     20  C   UNL     1     138.497 137.857 118.830  1.00  0.00     0.009 C 
ATOM     21  C   UNL     1     136.139 137.379 119.854  1.00  0.00     0.015 C 
ATOM     22  C   UNL     1     138.225 136.744 121.104  1.00  0.00     0.016 C 
ATOM     23  C   UNL     1     137.795 139.246 118.466  1.00  0.00     0.005 C 
ATOM     24  C   UNL     1     135.552 137.880 118.540  1.00  0.00     0.047 C 
ATOM     25  C   UNL     1     136.356 139.026 117.880  1.00  0.00     0.182 C 
ATOM     26  C   UNL     1     138.634 140.036 117.422  1.00  0.00     0.015 C 
ATOM     27  C   UNL     1     137.732 140.159 119.743  1.00  0.00     0.015 C 
BRANCH   7  28
ATOM     28  O   UNL     1     137.379 130.629 116.029  1.00  0.00    -0.393 OA
ATOM     29  H   UNL     1     138.362 130.560 115.902  1.00  0.00     0.210 HD
ENDBRANCH   7  28
BRANCH  25  30
ATOM     30  O   UNL     1     135.580 140.226 117.985  1.00  0.00    -0.462 OA
BRANCH  30  31
ATOM     31  C   UNL     1     135.237 141.051 116.908  1.00  0.00     0.302 C 
ATOM     32  O   UNL     1     134.474 140.640 115.991  1.00  0.00    -0.253 OA
ATOM     33  C   UNL     1     135.809 142.425 116.838  1.00  0.00     0.139 C 
ENDBRANCH  30  31
ENDBRANCH  25  30
ENDBRANCH   2   6
ENDBRANCH   1   2
BRANCH   1  34
ATOM     34  C   UNL     1     135.796 129.837 120.561  1.00  0.00     0.031 C 
BRANCH  34  35
ATOM     35  C   UNL     1     134.475 130.546 120.337  1.00  0.00    -0.075 C 
ATOM     36  C   UNL     1     133.760 130.277 119.228  1.00  0.00     0.008 C 
BRANCH  35  37
ATOM     37  C   UNL     1     134.003 131.590 121.342  1.00  0.00     0.008 C 
ATOM     38  C   UNL     1     134.964 131.715 122.531  1.00  0.00     0.012 C 
ATOM     39  C   UNL     1     132.576 131.282 121.809  1.00  0.00     0.012 C 
ENDBRANCH  35  37
ENDBRANCH  34  35
ENDBRANCH   1  34
TORSDOF 9
ENDMDL
MODEL 9
REMARK VINA RESULT:    -3.461      4.578      8.501
REMARK INTER + INTRA:          -7.588
REMARK INTER:                  -5.192
REMARK INTRA:                  -2.396
REMARK UNBOUND:                -2.407
REMARK SMILES C=C(CC[C@@H](C(=O)[O-])[C@H]1[C@H](O)C[C@@]2(C)C3=C(CC[C@@]12C)[C@]1(C)CC[C@@H](OC(C)=O)C(C)(C)[C@@H]1CC3)C(C)C
REMARK SMILES IDX 4 1 5 2 6 3 7 4 8 5 9 6 10 7 19 8 12 9 13 10 18 11 20 12
REMARK SMILES IDX 14 13 15 14 17 15 16 16 35 17 21 18 34 19 33 20 23 21 22 22
REMARK SMILES IDX 30 23 24 24 25 25 31 26 32 27 11 28 26 30 27 31 29 32 28 33
REMARK SMILES IDX 3 34 2 35 1 36 36 37 37 38 38 39
REMARK H PARENT 11 29
REMARK Flexibility Score: inf
ROOT
ATOM      1  C   UNL     1     145.685 139.497 122.957  1.00  0.00     0.014 C 
ENDROOT
BRANCH   1   2
ATOM      2  C   UNL     1     144.955 138.392 123.755  1.00  0.00     0.042 C 
BRANCH   2   3
ATOM      3  C   UNL     1     145.480 138.360 125.164  1.00  0.00     0.045 C 
ATOM      4  O   UNL     1     146.497 137.675 125.447  1.00  0.00    -0.550 OA
ATOM      5  O   UNL     1     144.852 139.104 126.161  1.00  0.00    -0.550 OA
ENDBRANCH   2   3
BRANCH   2   6
ATOM      6  C   UNL     1     143.402 138.622 123.751  1.00  0.00     0.033 C 
ATOM      7  C   UNL     1     142.976 140.059 123.339  1.00  0.00     0.119 C 
ATOM      8  C   UNL     1     142.515 137.706 122.835  1.00  0.00    -0.017 C 
ATOM      9  C   UNL     1     141.606 139.954 122.637  1.00  0.00     0.043 C 
ATOM     10  C   UNL     1     141.148 138.492 122.782  1.00  0.00    -0.003 C 
ATOM     11  C   UNL     1     143.170 137.578 121.410  1.00  0.00     0.012 C 
ATOM     12  C   UNL     1     142.318 136.282 123.420  1.00  0.00     0.013 C 
ATOM     13  C   UNL     1     140.360 138.341 124.126  1.00  0.00     0.017 C 
ATOM     14  C   UNL     1     140.247 138.037 121.606  1.00  0.00    -0.064 C 
ATOM     15  C   UNL     1     142.225 137.671 120.214  1.00  0.00     0.032 C 
ATOM     16  C   UNL     1     140.776 137.398 120.533  1.00  0.00    -0.064 C 
ATOM     17  C   UNL     1     138.747 138.194 121.653  1.00  0.00     0.032 C 
ATOM     18  C   UNL     1     139.920 136.552 119.540  1.00  0.00    -0.008 C 
ATOM     19  C   UNL     1     138.136 136.827 121.445  1.00  0.00     0.009 C 
ATOM     20  C   UNL     1     138.405 136.301 120.010  1.00  0.00     0.009 C 
ATOM     21  C   UNL     1     139.978 137.251 118.149  1.00  0.00     0.015 C 
ATOM     22  C   UNL     1     140.603 135.167 119.408  1.00  0.00     0.016 C 
ATOM     23  C   UNL     1     137.293 136.652 118.916  1.00  0.00     0.005 C 
ATOM     24  C   UNL     1     139.020 138.432 118.051  1.00  0.00     0.047 C 
ATOM     25  C   UNL     1     137.535 138.068 118.285  1.00  0.00     0.182 C 
ATOM     26  C   UNL     1     135.871 136.630 119.543  1.00  0.00     0.015 C 
ATOM     27  C   UNL     1     137.285 135.549 117.797  1.00  0.00     0.015 C 
BRANCH   7  28
ATOM     28  O   UNL     1     142.906 140.927 124.446  1.00  0.00    -0.393 OA
ATOM     29  H   UNL     1     143.473 141.718 124.246  1.00  0.00     0.210 HD
ENDBRANCH   7  28
BRANCH  25  30
ATOM     30  O   UNL     1     136.849 138.185 117.032  1.00  0.00    -0.462 OA
BRANCH  30  31
ATOM     31  C   UNL     1     135.823 139.099 116.768  1.00  0.00     0.302 C 
ATOM     32  O   UNL     1     134.720 138.717 116.289  1.00  0.00    -0.253 OA
ATOM     33  C   UNL     1     136.056 140.546 117.034  1.00  0.00     0.139 C 
ENDBRANCH  30  31
ENDBRANCH  25  30
ENDBRANCH   2   6
ENDBRANCH   1   2
BRANCH   1  34
ATOM     34  C   UNL     1     146.957 138.990 122.249  1.00  0.00     0.031 C 
BRANCH  34  35
ATOM     35  C   UNL     1     146.645 138.590 120.821  1.00  0.00    -0.075 C 
ATOM     36  C   UNL     1     146.056 139.479 119.999  1.00  0.00     0.008 C 
BRANCH  35  37
ATOM     37  C   UNL     1     146.954 137.172 120.354  1.00  0.00     0.008 C 
ATOM     38  C   UNL     1     145.997 136.714 119.246  1.00  0.00     0.012 C 
ATOM     39  C   UNL     1     146.942 136.200 121.538  1.00  0.00     0.012 C 
ENDBRANCH  35  37
ENDBRANCH  34  35
ENDBRANCH   1  34
TORSDOF 9
ENDMDL
