MODEL 1
REMARK VINA RESULT:    -3.554      0.000      0.000
REMARK INTER + INTRA:          -5.033
REMARK INTER:                  -4.800
REMARK INTRA:                  -0.232
REMARK UNBOUND:                -0.232
REMARK SMILES CCCCCCCC(=O)[O-]
REMARK SMILES IDX 5 1 6 2 7 3 8 4 9 5 10 6 4 7 3 8 2 9 1 10
REMARK H PARENT
REMARK Flexibility Score: inf
ROOT
ATOM      1  C   UNL     1       8.162  -4.893  -8.981  1.00  0.00     0.000 C 
ENDROOT
BRANCH   1   2
ATOM      2  C   UNL     1       7.964  -5.031  -7.462  1.00  0.00     0.006 C 
BRANCH   2   3
ATOM      3  C   UNL     1       8.655  -6.273  -6.887  1.00  0.00     0.053 C 
BRANCH   3   4
ATOM      4  C   UNL     1       9.810  -5.876  -6.024  1.00  0.00     0.041 C 
ATOM      5  O   UNL     1      10.222  -6.649  -5.120  1.00  0.00    -0.550 OA
ATOM      6  O   UNL     1      10.401  -4.628  -6.184  1.00  0.00    -0.550 OA
ENDBRANCH   3   4
ENDBRANCH   2   3
ENDBRANCH   1   2
BRANCH   1   7
ATOM      7  C   UNL     1       7.022  -4.115  -9.657  1.00  0.00     0.000 C 
BRANCH   7   8
ATOM      8  C   UNL     1       5.753  -4.143  -8.797  1.00  0.00    -0.000 C 
BRANCH   8   9
ATOM      9  C   UNL     1       4.637  -3.306  -9.433  1.00  0.00    -0.003 C 
ATOM     10  C   UNL     1       3.535  -4.196  -9.999  1.00  0.00     0.004 C 
ENDBRANCH   8   9
ENDBRANCH   7   8
ENDBRANCH   1   7
TORSDOF 6
ENDMDL
MODEL 2
REMARK VINA RESULT:    -3.466      0.763      1.697
REMARK INTER + INTRA:          -4.914
REMARK INTER:                  -4.683
REMARK INTRA:                  -0.231
REMARK UNBOUND:                -0.232
REMARK SMILES CCCCCCCC(=O)[O-]
REMARK SMILES IDX 5 1 6 2 7 3 8 4 9 5 10 6 4 7 3 8 2 9 1 10
REMARK H PARENT
REMARK Flexibility Score: inf
ROOT
ATOM      1  C   UNL     1       7.836  -4.830  -7.538  1.00  0.00     0.000 C 
ENDROOT
BRANCH   1   2
ATOM      2  C   UNL     1       8.720  -5.906  -6.887  1.00  0.00     0.006 C 
BRANCH   2   3
ATOM      3  C   UNL     1      10.196  -5.496  -6.818  1.00  0.00     0.053 C 
BRANCH   3   4
ATOM      4  C   UNL     1      10.581  -5.166  -5.411  1.00  0.00     0.041 C 
ATOM      5  O   UNL     1      10.963  -4.004  -5.114  1.00  0.00    -0.550 OA
ATOM      6  O   UNL     1      10.567  -6.156  -4.435  1.00  0.00    -0.550 OA
ENDBRANCH   3   4
ENDBRANCH   2   3
ENDBRANCH   1   2
BRANCH   1   7
ATOM      7  C   UNL     1       8.019  -4.757  -9.061  1.00  0.00     0.000 C 
BRANCH   7   8
ATOM      8  C   UNL     1       6.812  -4.086  -9.727  1.00  0.00    -0.000 C 
BRANCH   8   9
ATOM      9  C   UNL     1       5.606  -4.056  -8.781  1.00  0.00    -0.003 C 
ATOM     10  C   UNL     1       4.419  -3.344  -9.422  1.00  0.00     0.004 C 
ENDBRANCH   8   9
ENDBRANCH   7   8
ENDBRANCH   1   7
TORSDOF 6
ENDMDL
MODEL 3
REMARK VINA RESULT:    -3.350      1.199      2.489
REMARK INTER + INTRA:          -4.757
REMARK INTER:                  -4.534
REMARK INTRA:                  -0.223
REMARK UNBOUND:                -0.232
REMARK SMILES CCCCCCCC(=O)[O-]
REMARK SMILES IDX 5 1 6 2 7 3 8 4 9 5 10 6 4 7 3 8 2 9 1 10
REMARK H PARENT
REMARK Flexibility Score: inf
ROOT
ATOM      1  C   UNL     1       8.585  -6.194  -6.475  1.00  0.00     0.000 C 
ENDROOT
BRANCH   1   2
ATOM      2  C   UNL     1       9.908  -6.963  -6.327  1.00  0.00     0.006 C 
BRANCH   2   3
ATOM      3  C   UNL     1      11.109  -6.035  -6.102  1.00  0.00     0.053 C 
BRANCH   3   4
ATOM      4  C   UNL     1      10.884  -5.172  -4.900  1.00  0.00     0.041 C 
ATOM      5  O   UNL     1      10.977  -3.920  -4.992  1.00  0.00    -0.550 OA
ATOM      6  O   UNL     1      10.620  -5.754  -3.666  1.00  0.00    -0.550 OA
ENDBRANCH   3   4
ENDBRANCH   2   3
ENDBRANCH   1   2
BRANCH   1   7
ATOM      7  C   UNL     1       8.437  -5.532  -7.853  1.00  0.00     0.000 C 
BRANCH   7   8
ATOM      8  C   UNL     1       7.258  -4.552  -7.867  1.00  0.00    -0.000 C 
BRANCH   8   9
ATOM      9  C   UNL     1       6.744  -4.328  -9.294  1.00  0.00    -0.003 C 
ATOM     10  C   UNL     1       5.278  -3.907  -9.292  1.00  0.00     0.004 C 
ENDBRANCH   8   9
ENDBRANCH   7   8
ENDBRANCH   1   7
TORSDOF 6
ENDMDL
MODEL 4
REMARK VINA RESULT:    -3.040      3.434      5.993
REMARK INTER + INTRA:          -4.338
REMARK INTER:                  -3.923
REMARK INTRA:                  -0.416
REMARK UNBOUND:                -0.232
REMARK SMILES CCCCCCCC(=O)[O-]
REMARK SMILES IDX 5 1 6 2 7 3 8 4 9 5 10 6 4 7 3 8 2 9 1 10
REMARK H PARENT
REMARK Flexibility Score: inf
ROOT
ATOM      1  C   UNL     1      11.843  -7.089  -6.109  1.00  0.00     0.000 C 
ENDROOT
BRANCH   1   2
ATOM      2  C   UNL     1      10.852  -6.867  -7.264  1.00  0.00     0.006 C 
BRANCH   2   3
ATOM      3  C   UNL     1      10.101  -5.534  -7.149  1.00  0.00     0.053 C 
BRANCH   3   4
ATOM      4  C   UNL     1       8.659  -5.774  -6.828  1.00  0.00     0.041 C 
ATOM      5  O   UNL     1       8.332  -6.672  -6.008  1.00  0.00    -0.550 OA
ATOM      6  O   UNL     1       7.672  -5.039  -7.474  1.00  0.00    -0.550 OA
ENDBRANCH   3   4
ENDBRANCH   2   3
ENDBRANCH   1   2
BRANCH   1   7
ATOM      7  C   UNL     1      12.040  -5.832  -5.249  1.00  0.00     0.000 C 
BRANCH   7   8
ATOM      8  C   UNL     1      11.487  -6.043  -3.834  1.00  0.00    -0.000 C 
BRANCH   8   9
ATOM      9  C   UNL     1      11.415  -4.718  -3.067  1.00  0.00    -0.003 C 
ATOM     10  C   UNL     1      11.808  -3.543  -3.958  1.00  0.00     0.004 C 
ENDBRANCH   8   9
ENDBRANCH   7   8
ENDBRANCH   1   7
TORSDOF 6
ENDMDL
MODEL 5
REMARK VINA RESULT:    -3.030     13.085     14.882
REMARK INTER + INTRA:          -4.326
REMARK INTER:                  -3.854
REMARK INTRA:                  -0.472
REMARK UNBOUND:                -0.232
REMARK SMILES CCCCCCCC(=O)[O-]
REMARK SMILES IDX 5 1 6 2 7 3 8 4 9 5 10 6 4 7 3 8 2 9 1 10
REMARK H PARENT
REMARK Flexibility Score: inf
ROOT
ATOM      1  C   UNL     1      -7.329  -4.203  -5.163  1.00  0.00     0.000 C 
ENDROOT
BRANCH   1   2
ATOM      2  C   UNL     1      -7.965  -3.474  -6.358  1.00  0.00     0.006 C 
BRANCH   2   3
ATOM      3  C   UNL     1      -7.122  -2.288  -6.843  1.00  0.00     0.053 C 
BRANCH   3   4
ATOM      4  C   UNL     1      -6.634  -2.530  -8.236  1.00  0.00     0.041 C 
ATOM      5  O   UNL     1      -5.734  -3.383  -8.454  1.00  0.00    -0.550 OA
ATOM      6  O   UNL     1      -7.137  -1.777  -9.290  1.00  0.00    -0.550 OA
ENDBRANCH   3   4
ENDBRANCH   2   3
ENDBRANCH   1   2
BRANCH   1   7
ATOM      7  C   UNL     1      -6.863  -5.623  -5.517  1.00  0.00     0.000 C 
BRANCH   7   8
ATOM      8  C   UNL     1      -5.363  -5.792  -5.248  1.00  0.00    -0.000 C 
BRANCH   8   9
ATOM      9  C   UNL     1      -4.619  -6.217  -6.520  1.00  0.00    -0.003 C 
ATOM     10  C   UNL     1      -5.583  -6.776  -7.562  1.00  0.00     0.004 C 
ENDBRANCH   8   9
ENDBRANCH   7   8
ENDBRANCH   1   7
TORSDOF 6
ENDMDL
MODEL 6
REMARK VINA RESULT:    -3.018      3.625      5.790
REMARK INTER + INTRA:          -4.309
REMARK INTER:                  -4.089
REMARK INTRA:                  -0.219
REMARK UNBOUND:                -0.232
REMARK SMILES CCCCCCCC(=O)[O-]
REMARK SMILES IDX 5 1 6 2 7 3 8 4 9 5 10 6 4 7 3 8 2 9 1 10
REMARK H PARENT
REMARK Flexibility Score: inf
ROOT
ATOM      1  C   UNL     1       8.100  -4.778  -8.488  1.00  0.00     0.000 C 
ENDROOT
BRANCH   1   2
ATOM      2  C   UNL     1       6.983  -4.194  -9.368  1.00  0.00     0.006 C 
BRANCH   2   3
ATOM      3  C   UNL     1       5.657  -4.035  -8.612  1.00  0.00     0.053 C 
BRANCH   3   4
ATOM      4  C   UNL     1       4.590  -3.532  -9.532  1.00  0.00     0.041 C 
ATOM      5  O   UNL     1       4.652  -2.363  -9.996  1.00  0.00    -0.550 OA
ATOM      6  O   UNL     1       3.498  -4.336  -9.837  1.00  0.00    -0.550 OA
ENDBRANCH   3   4
ENDBRANCH   2   3
ENDBRANCH   1   2
BRANCH   1   7
ATOM      7  C   UNL     1       8.815  -5.965  -9.150  1.00  0.00     0.000 C 
BRANCH   7   8
ATOM      8  C   UNL     1       8.782  -7.201  -8.244  1.00  0.00    -0.000 C 
BRANCH   8   9
ATOM      9  C   UNL     1       9.029  -6.819  -6.780  1.00  0.00    -0.003 C 
ATOM     10  C   UNL     1       9.860  -7.881  -6.066  1.00  0.00     0.004 C 
ENDBRANCH   8   9
ENDBRANCH   7   8
ENDBRANCH   1   7
TORSDOF 6
ENDMDL
MODEL 7
REMARK VINA RESULT:    -2.993      2.921      5.975
REMARK INTER + INTRA:          -4.275
REMARK INTER:                  -4.123
REMARK INTRA:                  -0.153
REMARK UNBOUND:                -0.232
REMARK SMILES CCCCCCCC(=O)[O-]
REMARK SMILES IDX 5 1 6 2 7 3 8 4 9 5 10 6 4 7 3 8 2 9 1 10
REMARK H PARENT
REMARK Flexibility Score: inf
ROOT
ATOM      1  C   UNL     1      10.136  -5.176  -7.265  1.00  0.00     0.000 C 
ENDROOT
BRANCH   1   2
ATOM      2  C   UNL     1       8.819  -5.671  -7.883  1.00  0.00     0.006 C 
BRANCH   2   3
ATOM      3  C   UNL     1       7.628  -4.768  -7.538  1.00  0.00     0.053 C 
BRANCH   3   4
ATOM      4  C   UNL     1       6.825  -4.473  -8.765  1.00  0.00     0.041 C 
ATOM      5  O   UNL     1       5.633  -4.078  -8.663  1.00  0.00    -0.550 OA
ATOM      6  O   UNL     1       7.375  -4.683 -10.024  1.00  0.00    -0.550 OA
ENDBRANCH   3   4
ENDBRANCH   2   3
ENDBRANCH   1   2
BRANCH   1   7
ATOM      7  C   UNL     1      10.246  -5.502  -5.768  1.00  0.00     0.000 C 
BRANCH   7   8
ATOM      8  C   UNL     1      11.600  -5.053  -5.206  1.00  0.00    -0.000 C 
BRANCH   8   9
ATOM      9  C   UNL     1      11.419  -4.205  -3.941  1.00  0.00    -0.003 C 
ATOM     10  C   UNL     1      11.063  -5.076  -2.740  1.00  0.00     0.004 C 
ENDBRANCH   8   9
ENDBRANCH   7   8
ENDBRANCH   1   7
TORSDOF 6
ENDMDL
MODEL 8
REMARK VINA RESULT:    -2.857     13.128     14.330
REMARK INTER + INTRA:          -4.092
REMARK INTER:                  -3.627
REMARK INTRA:                  -0.464
REMARK UNBOUND:                -0.232
REMARK SMILES CCCCCCCC(=O)[O-]
REMARK SMILES IDX 5 1 6 2 7 3 8 4 9 5 10 6 4 7 3 8 2 9 1 10
REMARK H PARENT
REMARK Flexibility Score: inf
ROOT
ATOM      1  C   UNL     1      -7.743  -3.618  -5.493  1.00  0.00     0.000 C 
ENDROOT
BRANCH   1   2
ATOM      2  C   UNL     1      -6.605  -4.644  -5.370  1.00  0.00     0.006 C 
BRANCH   2   3
ATOM      3  C   UNL     1      -6.693  -5.753  -6.426  1.00  0.00     0.053 C 
BRANCH   3   4
ATOM      4  C   UNL     1      -5.329  -6.281  -6.742  1.00  0.00     0.041 C 
ATOM      5  O   UNL     1      -4.364  -6.050  -5.967  1.00  0.00    -0.550 OA
ATOM      6  O   UNL     1      -5.113  -6.987  -7.919  1.00  0.00    -0.550 OA
ENDBRANCH   3   4
ENDBRANCH   2   3
ENDBRANCH   1   2
BRANCH   1   7
ATOM      7  C   UNL     1      -7.361  -2.413  -6.367  1.00  0.00     0.000 C 
BRANCH   7   8
ATOM      8  C   UNL     1      -8.008  -2.513  -7.753  1.00  0.00    -0.000 C 
BRANCH   8   9
ATOM      9  C   UNL     1      -7.018  -2.115  -8.854  1.00  0.00    -0.003 C 
ATOM     10  C   UNL     1      -5.794  -3.026  -8.851  1.00  0.00     0.004 C 
ENDBRANCH   8   9
ENDBRANCH   7   8
ENDBRANCH   1   7
TORSDOF 6
ENDMDL
MODEL 9
REMARK VINA RESULT:    -2.738     13.635     14.600
REMARK INTER + INTRA:          -3.931
REMARK INTER:                  -3.474
REMARK INTRA:                  -0.457
REMARK UNBOUND:                -0.232
REMARK SMILES CCCCCCCC(=O)[O-]
REMARK SMILES IDX 5 1 6 2 7 3 8 4 9 5 10 6 4 7 3 8 2 9 1 10
REMARK H PARENT
REMARK Flexibility Score: inf
ROOT
ATOM      1  C   UNL     1      -6.153  -5.795  -9.237  1.00  0.00     0.000 C 
ENDROOT
BRANCH   1   2
ATOM      2  C   UNL     1      -6.469  -4.338  -9.613  1.00  0.00     0.006 C 
BRANCH   2   3
ATOM      3  C   UNL     1      -5.784  -3.327  -8.686  1.00  0.00     0.053 C 
BRANCH   3   4
ATOM      4  C   UNL     1      -6.786  -2.364  -8.132  1.00  0.00     0.041 C 
ATOM      5  O   UNL     1      -7.404  -1.580  -8.899  1.00  0.00    -0.550 OA
ATOM      6  O   UNL     1      -7.001  -2.296  -6.760  1.00  0.00    -0.550 OA
ENDBRANCH   3   4
ENDBRANCH   2   3
ENDBRANCH   1   2
BRANCH   1   7
ATOM      7  C   UNL     1      -6.358  -6.077  -7.741  1.00  0.00     0.000 C 
BRANCH   7   8
ATOM      8  C   UNL     1      -5.128  -6.769  -7.140  1.00  0.00    -0.000 C 
BRANCH   8   9
ATOM      9  C   UNL     1      -4.834  -6.244  -5.730  1.00  0.00    -0.003 C 
ATOM     10  C   UNL     1      -5.951  -5.330  -5.238  1.00  0.00     0.004 C 
ENDBRANCH   8   9
ENDBRANCH   7   8
ENDBRANCH   1   7
TORSDOF 6
ENDMDL
