MODEL 1
REMARK VINA RESULT:    -3.809      0.000      0.000
REMARK INTER + INTRA:          -6.502
REMARK INTER:                  -5.813
REMARK INTRA:                  -0.689
REMARK UNBOUND:                -0.689
REMARK SMILES CCCCCCCCCCC(=O)[O-]
REMARK SMILES IDX 7 1 8 2 9 3 10 4 11 5 12 6 13 7 6 8 5 9 4 10 3 11 2 12 1 13
REMARK H PARENT
REMARK Flexibility Score: inf
ROOT
ATOM      1  C   UNL     1       6.120  -7.064  -7.622  1.00  0.00     0.000 C 
ENDROOT
BRANCH   1   2
ATOM      2  C   UNL     1       6.146  -5.592  -7.183  1.00  0.00     0.000 C 
BRANCH   2   3
ATOM      3  C   UNL     1       7.541  -5.130  -6.725  1.00  0.00     0.006 C 
BRANCH   3   4
ATOM      4  C   UNL     1       8.479  -6.273  -6.304  1.00  0.00     0.053 C 
BRANCH   4   5
ATOM      5  C   UNL     1       9.916  -5.849  -6.297  1.00  0.00     0.041 C 
ATOM      6  O   UNL     1      10.559  -5.777  -7.377  1.00  0.00    -0.550 OA
ATOM      7  O   UNL     1      10.553  -5.569  -5.095  1.00  0.00    -0.550 OA
ENDBRANCH   4   5
ENDBRANCH   3   4
ENDBRANCH   2   3
ENDBRANCH   1   2
BRANCH   1   8
ATOM      8  C   UNL     1       4.943  -7.334  -8.566  1.00  0.00     0.000 C 
BRANCH   8   9
ATOM      9  C   UNL     1       5.094  -6.551  -9.875  1.00  0.00    -0.000 C 
BRANCH   9  10
ATOM     10  C   UNL     1       5.241  -7.498 -11.071  1.00  0.00    -0.000 C 
BRANCH  10  11
ATOM     11  C   UNL     1       4.953  -8.951 -10.662  1.00  0.00    -0.000 C 
BRANCH  11  12
ATOM     12  C   UNL     1       6.103  -9.905 -11.019  1.00  0.00    -0.003 C 
ATOM     13  C   UNL     1       7.180  -9.964  -9.937  1.00  0.00     0.004 C 
ENDBRANCH  11  12
ENDBRANCH  10  11
ENDBRANCH   9  10
ENDBRANCH   8   9
ENDBRANCH   1   8
TORSDOF 9
ENDMDL
MODEL 2
REMARK VINA RESULT:    -3.730     14.495     16.281
REMARK INTER + INTRA:          -6.382
REMARK INTER:                  -5.847
REMARK INTRA:                  -0.535
REMARK UNBOUND:                -0.689
REMARK SMILES CCCCCCCCCCC(=O)[O-]
REMARK SMILES IDX 7 1 8 2 9 3 10 4 11 5 12 6 13 7 6 8 5 9 4 10 3 11 2 12 1 13
REMARK H PARENT
REMARK Flexibility Score: inf
ROOT
ATOM      1  C   UNL     1       4.878 -20.847 -13.350  1.00  0.00     0.000 C 
ENDROOT
BRANCH   1   2
ATOM      2  C   UNL     1       5.392 -19.410 -13.527  1.00  0.00     0.000 C 
BRANCH   2   3
ATOM      3  C   UNL     1       6.105 -19.192 -14.874  1.00  0.00     0.006 C 
BRANCH   3   4
ATOM      4  C   UNL     1       6.756 -20.456 -15.457  1.00  0.00     0.053 C 
BRANCH   4   5
ATOM      5  C   UNL     1       6.123 -20.869 -16.751  1.00  0.00     0.041 C 
ATOM      6  O   UNL     1       4.885 -20.727 -16.924  1.00  0.00    -0.550 OA
ATOM      7  O   UNL     1       6.897 -21.443 -17.751  1.00  0.00    -0.550 OA
ENDBRANCH   4   5
ENDBRANCH   3   4
ENDBRANCH   2   3
ENDBRANCH   1   2
BRANCH   1   8
ATOM      8  C   UNL     1       5.219 -21.385 -11.956  1.00  0.00     0.000 C 
BRANCH   8   9
ATOM      9  C   UNL     1       5.593 -22.870 -12.015  1.00  0.00    -0.000 C 
BRANCH   9  10
ATOM     10  C   UNL     1       4.955 -23.646 -10.857  1.00  0.00    -0.000 C 
BRANCH  10  11
ATOM     11  C   UNL     1       6.025 -24.151  -9.877  1.00  0.00    -0.000 C 
BRANCH  11  12
ATOM     12  C   UNL     1       5.903 -23.509  -8.487  1.00  0.00    -0.003 C 
ATOM     13  C   UNL     1       6.321 -22.039  -8.475  1.00  0.00     0.004 C 
ENDBRANCH  11  12
ENDBRANCH  10  11
ENDBRANCH   9  10
ENDBRANCH   8   9
ENDBRANCH   1   8
TORSDOF 9
ENDMDL
MODEL 3
REMARK VINA RESULT:    -3.690      1.633      2.287
REMARK INTER + INTRA:          -6.320
REMARK INTER:                  -6.002
REMARK INTRA:                  -0.319
REMARK UNBOUND:                -0.689
REMARK SMILES CCCCCCCCCCC(=O)[O-]
REMARK SMILES IDX 7 1 8 2 9 3 10 4 11 5 12 6 13 7 6 8 5 9 4 10 3 11 2 12 1 13
REMARK H PARENT
REMARK Flexibility Score: inf
ROOT
ATOM      1  C   UNL     1       5.494  -6.193  -8.450  1.00  0.00     0.000 C 
ENDROOT
BRANCH   1   2
ATOM      2  C   UNL     1       5.993  -6.399  -7.012  1.00  0.00     0.000 C 
BRANCH   2   3
ATOM      3  C   UNL     1       7.228  -5.541  -6.679  1.00  0.00     0.006 C 
BRANCH   3   4
ATOM      4  C   UNL     1       7.975  -5.974  -5.407  1.00  0.00     0.053 C 
BRANCH   4   5
ATOM      5  C   UNL     1       9.335  -6.523  -5.712  1.00  0.00     0.041 C 
ATOM      6  O   UNL     1       9.827  -6.392  -6.863  1.00  0.00    -0.550 OA
ATOM      7  O   UNL     1      10.043  -7.210  -4.735  1.00  0.00    -0.550 OA
ENDBRANCH   4   5
ENDBRANCH   3   4
ENDBRANCH   2   3
ENDBRANCH   1   2
BRANCH   1   8
ATOM      8  C   UNL     1       5.246  -7.537  -9.143  1.00  0.00     0.000 C 
BRANCH   8   9
ATOM      9  C   UNL     1       5.267  -7.384 -10.668  1.00  0.00    -0.000 C 
BRANCH   9  10
ATOM     10  C   UNL     1       5.692  -8.691 -11.348  1.00  0.00    -0.000 C 
BRANCH  10  11
ATOM     11  C   UNL     1       5.644  -8.557 -12.877  1.00  0.00    -0.000 C 
BRANCH  11  12
ATOM     12  C   UNL     1       5.030  -7.225 -13.335  1.00  0.00    -0.003 C 
ATOM     13  C   UNL     1       5.461  -6.830 -14.747  1.00  0.00     0.004 C 
ENDBRANCH  11  12
ENDBRANCH  10  11
ENDBRANCH   9  10
ENDBRANCH   8   9
ENDBRANCH   1   8
TORSDOF 9
ENDMDL
MODEL 4
REMARK VINA RESULT:    -3.669     13.859     15.816
REMARK INTER + INTRA:          -6.288
REMARK INTER:                  -5.914
REMARK INTRA:                  -0.374
REMARK UNBOUND:                -0.689
REMARK SMILES CCCCCCCCCCC(=O)[O-]
REMARK SMILES IDX 7 1 8 2 9 3 10 4 11 5 12 6 13 7 6 8 5 9 4 10 3 11 2 12 1 13
REMARK H PARENT
REMARK Flexibility Score: inf
ROOT
ATOM      1  C   UNL     1       5.605 -22.672 -12.145  1.00  0.00     0.000 C 
ENDROOT
BRANCH   1   2
ATOM      2  C   UNL     1       5.269 -21.194 -12.393  1.00  0.00     0.000 C 
BRANCH   2   3
ATOM      3  C   UNL     1       5.465 -20.775 -13.861  1.00  0.00     0.006 C 
BRANCH   3   4
ATOM      4  C   UNL     1       5.385 -19.260 -14.103  1.00  0.00     0.053 C 
BRANCH   4   5
ATOM      5  C   UNL     1       6.383 -18.798 -15.120  1.00  0.00     0.041 C 
ATOM      6  O   UNL     1       7.330 -19.553 -15.465  1.00  0.00    -0.550 OA
ATOM      7  O   UNL     1       6.289 -17.521 -15.659  1.00  0.00    -0.550 OA
ENDBRANCH   4   5
ENDBRANCH   3   4
ENDBRANCH   2   3
ENDBRANCH   1   2
BRANCH   1   8
ATOM      8  C   UNL     1       5.345 -23.057 -10.684  1.00  0.00     0.000 C 
BRANCH   8   9
ATOM      9  C   UNL     1       5.320 -21.817  -9.783  1.00  0.00    -0.000 C 
BRANCH   9  10
ATOM     10  C   UNL     1       5.054 -22.202  -8.323  1.00  0.00    -0.000 C 
BRANCH  10  11
ATOM     11  C   UNL     1       6.112 -23.191  -7.812  1.00  0.00    -0.000 C 
BRANCH  11  12
ATOM     12  C   UNL     1       5.495 -24.375  -7.052  1.00  0.00    -0.003 C 
ATOM     13  C   UNL     1       6.188 -24.645  -5.716  1.00  0.00     0.004 C 
ENDBRANCH  11  12
ENDBRANCH  10  11
ENDBRANCH   9  10
ENDBRANCH   8   9
ENDBRANCH   1   8
TORSDOF 9
ENDMDL
MODEL 5
REMARK VINA RESULT:    -3.638     19.668     21.258
REMARK INTER + INTRA:          -6.241
REMARK INTER:                  -5.840
REMARK INTRA:                  -0.401
REMARK UNBOUND:                -0.689
REMARK SMILES CCCCCCCCCCC(=O)[O-]
REMARK SMILES IDX 7 1 8 2 9 3 10 4 11 5 12 6 13 7 6 8 5 9 4 10 3 11 2 12 1 13
REMARK H PARENT
REMARK Flexibility Score: inf
ROOT
ATOM      1  C   UNL     1      19.925 -21.358 -20.083  1.00  0.00     0.000 C 
ENDROOT
BRANCH   1   2
ATOM      2  C   UNL     1      20.318 -20.148 -19.222  1.00  0.00     0.000 C 
BRANCH   2   3
ATOM      3  C   UNL     1      21.501 -20.443 -18.281  1.00  0.00     0.006 C 
BRANCH   3   4
ATOM      4  C   UNL     1      21.511 -19.601 -16.996  1.00  0.00     0.053 C 
BRANCH   4   5
ATOM      5  C   UNL     1      21.359 -18.138 -17.279  1.00  0.00     0.041 C 
ATOM      6  O   UNL     1      20.383 -17.500 -16.805  1.00  0.00    -0.550 OA
ATOM      7  O   UNL     1      22.274 -17.489 -18.097  1.00  0.00    -0.550 OA
ENDBRANCH   4   5
ENDBRANCH   3   4
ENDBRANCH   2   3
ENDBRANCH   1   2
BRANCH   1   8
ATOM      8  C   UNL     1      19.388 -22.500 -19.213  1.00  0.00     0.000 C 
BRANCH   8   9
ATOM      9  C   UNL     1      17.888 -22.714 -19.448  1.00  0.00    -0.000 C 
BRANCH   9  10
ATOM     10  C   UNL     1      17.291 -23.643 -18.385  1.00  0.00    -0.000 C 
BRANCH  10  11
ATOM     11  C   UNL     1      16.077 -24.405 -18.940  1.00  0.00    -0.000 C 
BRANCH  11  12
ATOM     12  C   UNL     1      14.766 -24.020 -18.238  1.00  0.00    -0.003 C 
ATOM     13  C   UNL     1      14.979 -23.038 -17.086  1.00  0.00     0.004 C 
ENDBRANCH  11  12
ENDBRANCH  10  11
ENDBRANCH   9  10
ENDBRANCH   8   9
ENDBRANCH   1   8
TORSDOF 9
ENDMDL
MODEL 6
REMARK VINA RESULT:    -3.544     19.864     21.169
REMARK INTER + INTRA:          -6.098
REMARK INTER:                  -5.677
REMARK INTRA:                  -0.421
REMARK UNBOUND:                -0.689
REMARK SMILES CCCCCCCCCCC(=O)[O-]
REMARK SMILES IDX 7 1 8 2 9 3 10 4 11 5 12 6 13 7 6 8 5 9 4 10 3 11 2 12 1 13
REMARK H PARENT
REMARK Flexibility Score: inf
ROOT
ATOM      1  C   UNL     1      20.319 -20.019 -19.211  1.00  0.00     0.000 C 
ENDROOT
BRANCH   1   2
ATOM      2  C   UNL     1      21.378 -20.556 -18.235  1.00  0.00     0.000 C 
BRANCH   2   3
ATOM      3  C   UNL     1      21.530 -19.681 -16.978  1.00  0.00     0.006 C 
BRANCH   3   4
ATOM      4  C   UNL     1      20.995 -18.248 -17.136  1.00  0.00     0.053 C 
BRANCH   4   5
ATOM      5  C   UNL     1      22.099 -17.250 -17.308  1.00  0.00     0.041 C 
ATOM      6  O   UNL     1      23.209 -17.610 -17.781  1.00  0.00    -0.550 OA
ATOM      7  O   UNL     1      21.913 -15.932 -16.913  1.00  0.00    -0.550 OA
ENDBRANCH   4   5
ENDBRANCH   3   4
ENDBRANCH   2   3
ENDBRANCH   1   2
BRANCH   1   8
ATOM      8  C   UNL     1      19.749 -21.147 -20.078  1.00  0.00     0.000 C 
BRANCH   8   9
ATOM      9  C   UNL     1      19.406 -22.377 -19.229  1.00  0.00    -0.000 C 
BRANCH   9  10
ATOM     10  C   UNL     1      17.989 -22.877 -19.529  1.00  0.00    -0.000 C 
BRANCH  10  11
ATOM     11  C   UNL     1      17.385 -23.588 -18.309  1.00  0.00    -0.000 C 
BRANCH  11  12
ATOM     12  C   UNL     1      15.883 -23.866 -18.470  1.00  0.00    -0.003 C 
ATOM     13  C   UNL     1      15.087 -23.569 -17.199  1.00  0.00     0.004 C 
ENDBRANCH  11  12
ENDBRANCH  10  11
ENDBRANCH   9  10
ENDBRANCH   8   9
ENDBRANCH   1   8
TORSDOF 9
ENDMDL
MODEL 7
REMARK VINA RESULT:    -3.439     20.144     21.675
REMARK INTER + INTRA:          -5.938
REMARK INTER:                  -5.275
REMARK INTRA:                  -0.663
REMARK UNBOUND:                -0.689
REMARK SMILES CCCCCCCCCCC(=O)[O-]
REMARK SMILES IDX 7 1 8 2 9 3 10 4 11 5 12 6 13 7 6 8 5 9 4 10 3 11 2 12 1 13
REMARK H PARENT
REMARK Flexibility Score: inf
ROOT
ATOM      1  C   UNL     1      18.082 -22.350 -20.073  1.00  0.00     0.000 C 
ENDROOT
BRANCH   1   2
ATOM      2  C   UNL     1      19.442 -21.648 -20.209  1.00  0.00     0.000 C 
BRANCH   2   3
ATOM      3  C   UNL     1      20.286 -21.728 -18.925  1.00  0.00     0.006 C 
BRANCH   3   4
ATOM      4  C   UNL     1      21.494 -20.778 -18.901  1.00  0.00     0.053 C 
BRANCH   4   5
ATOM      5  C   UNL     1      21.385 -19.756 -17.811  1.00  0.00     0.041 C 
ATOM      6  O   UNL     1      20.744 -18.690 -18.004  1.00  0.00    -0.550 OA
ATOM      7  O   UNL     1      22.023 -19.965 -16.595  1.00  0.00    -0.550 OA
ENDBRANCH   4   5
ENDBRANCH   3   4
ENDBRANCH   2   3
ENDBRANCH   1   2
BRANCH   1   8
ATOM      8  C   UNL     1      18.262 -23.839 -19.757  1.00  0.00     0.000 C 
BRANCH   8   9
ATOM      9  C   UNL     1      17.008 -24.416 -19.089  1.00  0.00    -0.000 C 
BRANCH   9  10
ATOM     10  C   UNL     1      16.690 -23.679 -17.783  1.00  0.00    -0.000 C 
BRANCH  10  11
ATOM     11  C   UNL     1      15.176 -23.645 -17.524  1.00  0.00    -0.000 C 
BRANCH  11  12
ATOM     12  C   UNL     1      14.353 -23.732 -18.818  1.00  0.00    -0.003 C 
ATOM     13  C   UNL     1      13.929 -22.360 -19.342  1.00  0.00     0.004 C 
ENDBRANCH  11  12
ENDBRANCH  10  11
ENDBRANCH   9  10
ENDBRANCH   8   9
ENDBRANCH   1   8
TORSDOF 9
ENDMDL
MODEL 8
REMARK VINA RESULT:    -3.422      1.586      2.302
REMARK INTER + INTRA:          -5.911
REMARK INTER:                  -5.470
REMARK INTRA:                  -0.441
REMARK UNBOUND:                -0.689
REMARK SMILES CCCCCCCCCCC(=O)[O-]
REMARK SMILES IDX 7 1 8 2 9 3 10 4 11 5 12 6 13 7 6 8 5 9 4 10 3 11 2 12 1 13
REMARK H PARENT
REMARK Flexibility Score: inf
ROOT
ATOM      1  C   UNL     1       7.237  -6.032  -6.847  1.00  0.00     0.000 C 
ENDROOT
BRANCH   1   2
ATOM      2  C   UNL     1       8.244  -4.969  -6.384  1.00  0.00     0.000 C 
BRANCH   2   3
ATOM      3  C   UNL     1       9.671  -5.525  -6.228  1.00  0.00     0.006 C 
BRANCH   3   4
ATOM      4  C   UNL     1       9.749  -6.869  -5.486  1.00  0.00     0.053 C 
BRANCH   4   5
ATOM      5  C   UNL     1       9.867  -6.687  -4.003  1.00  0.00     0.041 C 
ATOM      6  O   UNL     1       8.833  -6.636  -3.287  1.00  0.00    -0.550 OA
ATOM      7  O   UNL     1      11.118  -6.539  -3.418  1.00  0.00    -0.550 OA
ENDBRANCH   4   5
ENDBRANCH   3   4
ENDBRANCH   2   3
ENDBRANCH   1   2
BRANCH   1   8
ATOM      8  C   UNL     1       5.893  -5.393  -7.213  1.00  0.00     0.000 C 
BRANCH   8   9
ATOM      9  C   UNL     1       5.228  -6.136  -8.377  1.00  0.00    -0.000 C 
BRANCH   9  10
ATOM     10  C   UNL     1       5.805  -7.548  -8.532  1.00  0.00    -0.000 C 
BRANCH  10  11
ATOM     11  C   UNL     1       5.581  -8.082  -9.955  1.00  0.00    -0.000 C 
BRANCH  11  12
ATOM     12  C   UNL     1       6.335  -9.394 -10.219  1.00  0.00    -0.003 C 
ATOM     13  C   UNL     1       5.529 -10.380 -11.064  1.00  0.00     0.004 C 
ENDBRANCH  11  12
ENDBRANCH  10  11
ENDBRANCH   9  10
ENDBRANCH   8   9
ENDBRANCH   1   8
TORSDOF 9
ENDMDL
MODEL 9
REMARK VINA RESULT:    -3.420     19.836     21.792
REMARK INTER + INTRA:          -5.908
REMARK INTER:                  -5.157
REMARK INTRA:                  -0.752
REMARK UNBOUND:                -0.689
REMARK SMILES CCCCCCCCCCC(=O)[O-]
REMARK SMILES IDX 7 1 8 2 9 3 10 4 11 5 12 6 13 7 6 8 5 9 4 10 3 11 2 12 1 13
REMARK H PARENT
REMARK Flexibility Score: inf
ROOT
ATOM      1  C   UNL     1      14.992 -23.519 -17.703  1.00  0.00     0.000 C 
ENDROOT
BRANCH   1   2
ATOM      2  C   UNL     1      14.247 -24.196 -18.863  1.00  0.00     0.000 C 
BRANCH   2   3
ATOM      3  C   UNL     1      13.725 -23.191 -19.906  1.00  0.00     0.006 C 
BRANCH   3   4
ATOM      4  C   UNL     1      13.915 -21.717 -19.513  1.00  0.00     0.053 C 
BRANCH   4   5
ATOM      5  C   UNL     1      14.949 -21.038 -20.359  1.00  0.00     0.041 C 
ATOM      6  O   UNL     1      15.795 -21.721 -20.993  1.00  0.00    -0.550 OA
ATOM      7  O   UNL     1      14.999 -19.651 -20.417  1.00  0.00    -0.550 OA
ENDBRANCH   4   5
ENDBRANCH   3   4
ENDBRANCH   2   3
ENDBRANCH   1   2
BRANCH   1   8
ATOM      8  C   UNL     1      16.509 -23.690 -17.850  1.00  0.00     0.000 C 
BRANCH   8   9
ATOM      9  C   UNL     1      16.853 -24.509 -19.099  1.00  0.00    -0.000 C 
BRANCH   9  10
ATOM     10  C   UNL     1      18.275 -24.204 -19.583  1.00  0.00    -0.000 C 
BRANCH  10  11
ATOM     11  C   UNL     1      18.693 -22.776 -19.201  1.00  0.00    -0.000 C 
BRANCH  11  12
ATOM     12  C   UNL     1      20.217 -22.584 -19.210  1.00  0.00    -0.003 C 
ATOM     13  C   UNL     1      20.638 -21.172 -18.802  1.00  0.00     0.004 C 
ENDBRANCH  11  12
ENDBRANCH  10  11
ENDBRANCH   9  10
ENDBRANCH   8   9
ENDBRANCH   1   8
TORSDOF 9
ENDMDL
