MODEL 1
REMARK VINA RESULT:    -4.640      0.000      0.000
REMARK INTER + INTRA:          -7.107
REMARK INTER:                  -7.082
REMARK INTRA:                  -0.025
REMARK UNBOUND:                -0.025
REMARK SMILES CC1=CCC[C@H](C)C(=O)C[C@H](C(C)C)C(=O)C1
REMARK SMILES IDX 8 1 9 2 6 3 7 4 5 5 4 6 3 7 2 8 1 9 10 11 11 12 15 13 16 14
REMARK SMILES IDX 17 15 12 17 13 18 14 19
REMARK H PARENT
REMARK Flexibility Score: 70.00
ROOT
ATOM      1  C   UNL     1     -12.240 -33.733  29.057  1.00  0.00     0.136 C 
ATOM      2  O   UNL     1     -11.220 -33.331  28.516  1.00  0.00    -0.299 OA
ENDROOT
BRANCH   1   3
ATOM      3  C   UNL     1     -13.268 -34.512  28.252  1.00  0.00     0.053 C 
ATOM      4  C   UNL     1     -13.592 -33.832  26.913  1.00  0.00     0.016 C 
BRANCH   3   5
ATOM      5  C   UNL     1     -12.902 -36.006  28.068  1.00  0.00     0.015 C 
BRANCH   5   6
ATOM      6  C   UNL     1     -13.757 -37.064  28.800  1.00  0.00     0.028 C 
BRANCH   6   7
ATOM      7  C   UNL     1     -13.047 -37.994  29.759  1.00  0.00    -0.028 C 
ATOM      8  C   UNL     1     -13.110 -37.966  31.112  1.00  0.00    -0.070 CG0
ATOM      9  C   UNL     1     -12.469 -39.104  31.867  1.00  0.00     0.039 C 
ATOM     10  G   UNL     1     -13.717 -36.828  31.909  1.00  0.00     0.000 G0
ENDBRANCH   6   7
ENDBRANCH   5   6
ENDBRANCH   3   5
ENDBRANCH   1   3
BRANCH   1  11
ATOM     11  C   UNL     1     -12.454 -33.414  30.523  1.00  0.00     0.087 C 
BRANCH  11  12
ATOM     12  C   UNL     1     -13.524 -34.312  31.199  1.00  0.00     0.066 C 
BRANCH  12  13
ATOM     13  C   UNL     1     -12.902 -35.575  31.775  1.00  0.00     0.140 C 
ATOM     14  O   UNL     1     -11.717 -35.582  32.075  1.00  0.00    -0.299 OA
BRANCH  13  15
ATOM     15  C   UNL     1     -13.707 -36.845  31.941  1.00  0.00     0.106 CG0
ATOM     16  G   UNL     1     -13.099 -37.958  31.110  1.00  0.00     0.000 G0
ENDBRANCH  13  15
ENDBRANCH  12  13
BRANCH  12  17
ATOM     17  C   UNL     1     -14.409 -33.565  32.250  1.00  0.00    -0.006 C 
ATOM     18  C   UNL     1     -15.004 -32.274  31.665  1.00  0.00     0.008 C 
ATOM     19  C   UNL     1     -13.696 -33.246  33.577  1.00  0.00     0.008 C 
ENDBRANCH  12  17
ENDBRANCH  11  12
ENDBRANCH   1  11
TORSDOF 1
ENDMDL
MODEL 2
REMARK VINA RESULT:    -4.309      2.279      4.074
REMARK INTER + INTRA:          -6.601
REMARK INTER:                  -6.616
REMARK INTRA:                   0.015
REMARK UNBOUND:                -0.025
REMARK SMILES CC1=CCC[C@H](C)C(=O)C[C@H](C(C)C)C(=O)C1
REMARK SMILES IDX 8 1 9 2 6 3 7 4 5 5 4 6 3 7 2 8 1 9 10 11 11 12 15 13 16 14
REMARK SMILES IDX 17 15 12 17 13 18 14 19
REMARK H PARENT
REMARK Flexibility Score: 70.00
ROOT
ATOM      1  C   UNL     1     -13.085 -35.155  28.032  1.00  0.00     0.136 C 
ATOM      2  O   UNL     1     -13.898 -35.358  27.141  1.00  0.00    -0.299 OA
ENDROOT
BRANCH   1   3
ATOM      3  C   UNL     1     -11.629 -34.894  27.683  1.00  0.00     0.053 C 
ATOM      4  C   UNL     1     -11.418 -34.714  26.172  1.00  0.00     0.016 C 
BRANCH   3   5
ATOM      5  C   UNL     1     -10.998 -33.738  28.498  1.00  0.00     0.015 C 
BRANCH   5   6
ATOM      6  C   UNL     1      -9.875 -34.077  29.503  1.00  0.00     0.028 C 
BRANCH   6   7
ATOM      7  C   UNL     1      -9.989 -33.504  30.898  1.00  0.00    -0.028 C 
ATOM      8  C   UNL     1     -10.311 -34.178  32.028  1.00  0.00    -0.070 CG0
ATOM      9  C   UNL     1     -10.185 -33.446  33.341  1.00  0.00     0.039 C 
ATOM     10  G   UNL     1     -10.857 -35.592  32.045  1.00  0.00     0.000 G0
ENDBRANCH   6   7
ENDBRANCH   5   6
ENDBRANCH   3   5
ENDBRANCH   1   3
BRANCH   1  11
ATOM     11  C   UNL     1     -13.564 -35.195  29.470  1.00  0.00     0.087 C 
BRANCH  11  12
ATOM     12  C   UNL     1     -12.796 -36.219  30.347  1.00  0.00     0.066 C 
BRANCH  12  13
ATOM     13  C   UNL     1     -12.327 -35.590  31.649  1.00  0.00     0.140 C 
ATOM     14  O   UNL     1     -13.137 -35.035  32.378  1.00  0.00    -0.299 OA
BRANCH  13  15
ATOM     15  C   UNL     1     -10.867 -35.590  32.044  1.00  0.00     0.106 CG0
ATOM     16  G   UNL     1     -10.328 -34.173  32.045  1.00  0.00     0.000 G0
ENDBRANCH  13  15
ENDBRANCH  12  13
BRANCH  12  17
ATOM     17  C   UNL     1     -13.570 -37.556  30.589  1.00  0.00    -0.006 C 
ATOM     18  C   UNL     1     -12.792 -38.493  31.528  1.00  0.00     0.008 C 
ATOM     19  C   UNL     1     -13.950 -38.317  29.306  1.00  0.00     0.008 C 
ENDBRANCH  12  17
ENDBRANCH  11  12
ENDBRANCH   1  11
TORSDOF 1
ENDMDL
MODEL 3
REMARK VINA RESULT:    -4.095      1.845      3.772
REMARK INTER + INTRA:          -6.274
REMARK INTER:                  -6.600
REMARK INTRA:                   0.326
REMARK UNBOUND:                -0.025
REMARK SMILES CC1=CCC[C@H](C)C(=O)C[C@H](C(C)C)C(=O)C1
REMARK SMILES IDX 8 1 9 2 6 3 7 4 5 5 4 6 3 7 2 8 1 9 10 11 11 12 15 13 16 14
REMARK SMILES IDX 17 15 12 17 13 18 14 19
REMARK H PARENT
REMARK Flexibility Score: 70.00
ROOT
ATOM      1  C   UNL     1     -11.276 -33.420  30.135  1.00  0.00     0.136 C 
ATOM      2  O   UNL     1     -10.328 -32.954  29.519  1.00  0.00    -0.299 OA
ENDROOT
BRANCH   1   3
ATOM      3  C   UNL     1     -11.166 -33.651  31.633  1.00  0.00     0.053 C 
ATOM      4  C   UNL     1     -12.542 -33.809  32.298  1.00  0.00     0.016 C 
BRANCH   3   5
ATOM      5  C   UNL     1     -10.206 -34.807  32.009  1.00  0.00     0.015 C 
BRANCH   5   6
ATOM      6  C   UNL     1     -10.156 -36.046  31.088  1.00  0.00     0.028 C 
BRANCH   6   7
ATOM      7  C   UNL     1     -10.984 -37.247  31.486  1.00  0.00    -0.028 C 
ATOM      8  C   UNL     1     -12.307 -37.432  31.259  1.00  0.00    -0.070 CG0
ATOM      9  C   UNL     1     -12.890 -38.785  31.579  1.00  0.00     0.039 C 
ATOM     10  G   UNL     1     -13.244 -36.342  30.778  1.00  0.00     0.000 G0
ENDBRANCH   6   7
ENDBRANCH   5   6
ENDBRANCH   3   5
ENDBRANCH   1   3
BRANCH   1  11
ATOM     11  C   UNL     1     -12.533 -33.775  29.365  1.00  0.00     0.087 C 
BRANCH  11  12
ATOM     12  C   UNL     1     -12.418 -35.106  28.577  1.00  0.00     0.066 C 
BRANCH  12  13
ATOM     13  C   UNL     1     -13.190 -36.223  29.261  1.00  0.00     0.140 C 
ATOM     14  O   UNL     1     -13.809 -37.032  28.585  1.00  0.00    -0.299 OA
BRANCH  13  15
ATOM     15  C   UNL     1     -13.253 -36.329  30.769  1.00  0.00     0.106 CG0
ATOM     16  G   UNL     1     -12.312 -37.414  31.254  1.00  0.00     0.000 G0
ENDBRANCH  13  15
ENDBRANCH  12  13
BRANCH  12  17
ATOM     17  C   UNL     1     -12.788 -34.983  27.062  1.00  0.00    -0.006 C 
ATOM     18  C   UNL     1     -11.539 -34.745  26.198  1.00  0.00     0.008 C 
ATOM     19  C   UNL     1     -13.842 -33.906  26.747  1.00  0.00     0.008 C 
ENDBRANCH  12  17
ENDBRANCH  11  12
ENDBRANCH   1  11
TORSDOF 1
ENDMDL
MODEL 4
REMARK VINA RESULT:    -4.040      2.347      4.731
REMARK INTER + INTRA:          -6.192
REMARK INTER:                  -6.423
REMARK INTRA:                   0.232
REMARK UNBOUND:                -0.025
REMARK SMILES CC1=CCC[C@H](C)C(=O)C[C@H](C(C)C)C(=O)C1
REMARK SMILES IDX 8 1 9 2 6 3 7 4 5 5 4 6 3 7 2 8 1 9 10 11 11 12 15 13 16 14
REMARK SMILES IDX 17 15 12 17 13 18 14 19
REMARK H PARENT
REMARK Flexibility Score: 70.00
ROOT
ATOM      1  C   UNL     1     -13.211 -37.098  29.468  1.00  0.00     0.136 C 
ATOM      2  O   UNL     1     -12.580 -38.041  29.011  1.00  0.00    -0.299 OA
ENDROOT
BRANCH   1   3
ATOM      3  C   UNL     1     -13.568 -37.070  30.944  1.00  0.00     0.053 C 
ATOM      4  C   UNL     1     -13.090 -38.330  31.682  1.00  0.00     0.016 C 
BRANCH   3   5
ATOM      5  C   UNL     1     -13.116 -35.774  31.662  1.00  0.00     0.015 C 
BRANCH   5   6
ATOM      6  C   UNL     1     -11.622 -35.620  32.026  1.00  0.00     0.028 C 
BRANCH   6   7
ATOM      7  C   UNL     1     -10.916 -34.365  31.566  1.00  0.00    -0.028 C 
ATOM      8  C   UNL     1     -10.393 -34.132  30.337  1.00  0.00    -0.070 CG0
ATOM      9  C   UNL     1      -9.897 -32.739  30.040  1.00  0.00     0.039 C 
ATOM     10  G   UNL     1     -10.210 -35.201  29.278  1.00  0.00     0.000 G0
ENDBRANCH   6   7
ENDBRANCH   5   6
ENDBRANCH   3   5
ENDBRANCH   1   3
BRANCH   1  11
ATOM     11  C   UNL     1     -13.638 -35.991  28.524  1.00  0.00     0.087 C 
BRANCH  11  12
ATOM     12  C   UNL     1     -12.717 -34.743  28.583  1.00  0.00     0.066 C 
BRANCH  12  13
ATOM     13  C   UNL     1     -11.285 -35.094  28.210  1.00  0.00     0.140 C 
ATOM     14  O   UNL     1     -11.007 -35.336  27.044  1.00  0.00    -0.299 OA
BRANCH  13  15
ATOM     15  C   UNL     1     -10.201 -35.200  29.260  1.00  0.00     0.106 CG0
ATOM     16  G   UNL     1     -10.397 -34.135  30.320  1.00  0.00     0.000 G0
ENDBRANCH  13  15
ENDBRANCH  12  13
BRANCH  12  17
ATOM     17  C   UNL     1     -13.250 -33.520  27.766  1.00  0.00    -0.006 C 
ATOM     18  C   UNL     1     -13.754 -32.403  28.694  1.00  0.00     0.008 C 
ATOM     19  C   UNL     1     -14.344 -33.865  26.739  1.00  0.00     0.008 C 
ENDBRANCH  12  17
ENDBRANCH  11  12
ENDBRANCH   1  11
TORSDOF 1
ENDMDL
MODEL 5
REMARK VINA RESULT:    -4.012      2.057      4.523
REMARK INTER + INTRA:          -6.148
REMARK INTER:                  -6.825
REMARK INTRA:                   0.677
REMARK UNBOUND:                -0.025
REMARK SMILES CC1=CCC[C@H](C)C(=O)C[C@H](C(C)C)C(=O)C1
REMARK SMILES IDX 8 1 9 2 6 3 7 4 5 5 4 6 3 7 2 8 1 9 10 11 11 12 15 13 16 14
REMARK SMILES IDX 17 15 12 17 13 18 14 19
REMARK H PARENT
REMARK Flexibility Score: 70.00
ROOT
ATOM      1  C   UNL     1     -13.061 -34.208  32.266  1.00  0.00     0.136 C 
ATOM      2  O   UNL     1     -12.160 -33.559  32.779  1.00  0.00    -0.299 OA
ENDROOT
BRANCH   1   3
ATOM      3  C   UNL     1     -14.376 -33.532  31.914  1.00  0.00     0.053 C 
ATOM      4  C   UNL     1     -14.826 -32.539  32.997  1.00  0.00     0.016 C 
BRANCH   3   5
ATOM      5  C   UNL     1     -14.381 -32.892  30.504  1.00  0.00     0.015 C 
BRANCH   5   6
ATOM      6  C   UNL     1     -13.032 -32.724  29.770  1.00  0.00     0.028 C 
BRANCH   6   7
ATOM      7  C   UNL     1     -12.823 -33.518  28.501  1.00  0.00    -0.028 C 
ATOM      8  C   UNL     1     -11.843 -34.424  28.263  1.00  0.00    -0.070 CG0
ATOM      9  C   UNL     1     -11.932 -35.235  26.994  1.00  0.00     0.039 C 
ATOM     10  G   UNL     1     -10.631 -34.614  29.153  1.00  0.00     0.000 G0
ENDBRANCH   6   7
ENDBRANCH   5   6
ENDBRANCH   3   5
ENDBRANCH   1   3
BRANCH   1  11
ATOM     11  C   UNL     1     -12.835 -35.687  32.019  1.00  0.00     0.087 C 
BRANCH  11  12
ATOM     12  C   UNL     1     -12.381 -36.007  30.570  1.00  0.00     0.066 C 
BRANCH  12  13
ATOM     13  C   UNL     1     -10.960 -35.531  30.318  1.00  0.00     0.140 C 
ATOM     14  O   UNL     1     -10.067 -35.857  31.087  1.00  0.00    -0.299 OA
BRANCH  13  15
ATOM     15  C   UNL     1     -10.628 -34.617  29.158  1.00  0.00     0.106 CG0
ATOM     16  G   UNL     1     -11.848 -34.429  28.279  1.00  0.00     0.000 G0
ENDBRANCH  13  15
ENDBRANCH  12  13
BRANCH  12  17
ATOM     17  C   UNL     1     -12.578 -37.503  30.159  1.00  0.00    -0.006 C 
ATOM     18  C   UNL     1     -13.657 -37.649  29.074  1.00  0.00     0.008 C 
ATOM     19  C   UNL     1     -12.896 -38.452  31.329  1.00  0.00     0.008 C 
ENDBRANCH  12  17
ENDBRANCH  11  12
ENDBRANCH   1  11
TORSDOF 1
ENDMDL
MODEL 6
REMARK VINA RESULT:    -3.767      1.559      2.086
REMARK INTER + INTRA:          -5.774
REMARK INTER:                  -6.441
REMARK INTRA:                   0.667
REMARK UNBOUND:                -0.025
REMARK SMILES CC1=CCC[C@H](C)C(=O)C[C@H](C(C)C)C(=O)C1
REMARK SMILES IDX 8 1 9 2 6 3 7 4 5 5 4 6 3 7 2 8 1 9 10 11 11 12 15 13 16 14
REMARK SMILES IDX 17 15 12 17 13 18 14 19
REMARK H PARENT
REMARK Flexibility Score: 70.00
ROOT
ATOM      1  C   UNL     1     -12.295 -33.847  29.003  1.00  0.00     0.136 C 
ATOM      2  O   UNL     1     -12.855 -34.614  28.232  1.00  0.00    -0.299 OA
ENDROOT
BRANCH   1   3
ATOM      3  C   UNL     1     -10.787 -33.672  28.936  1.00  0.00     0.053 C 
ATOM      4  C   UNL     1     -10.274 -32.659  29.971  1.00  0.00     0.016 C 
BRANCH   3   5
ATOM      5  C   UNL     1     -10.008 -35.010  29.001  1.00  0.00     0.015 C 
BRANCH   5   6
ATOM      6  C   UNL     1     -10.198 -35.908  30.243  1.00  0.00     0.028 C 
BRANCH   6   7
ATOM      7  C   UNL     1     -11.368 -36.865  30.242  1.00  0.00    -0.028 C 
ATOM      8  C   UNL     1     -12.417 -36.864  31.100  1.00  0.00    -0.070 CG0
ATOM      9  C   UNL     1     -13.566 -37.795  30.801  1.00  0.00     0.039 C 
ATOM     10  G   UNL     1     -12.471 -36.044  32.373  1.00  0.00     0.000 G0
ENDBRANCH   6   7
ENDBRANCH   5   6
ENDBRANCH   3   5
ENDBRANCH   1   3
BRANCH   1  11
ATOM     11  C   UNL     1     -13.137 -33.110  30.026  1.00  0.00     0.087 C 
BRANCH  11  12
ATOM     12  C   UNL     1     -13.691 -34.029  31.146  1.00  0.00     0.066 C 
BRANCH  12  13
ATOM     13  C   UNL     1     -12.571 -34.571  32.020  1.00  0.00     0.140 C 
ATOM     14  O   UNL     1     -11.695 -33.816  32.418  1.00  0.00    -0.299 OA
BRANCH  13  15
ATOM     15  C   UNL     1     -12.487 -36.040  32.372  1.00  0.00     0.106 CG0
ATOM     16  G   UNL     1     -12.425 -36.875  31.108  1.00  0.00     0.000 G0
ENDBRANCH  13  15
ENDBRANCH  12  13
BRANCH  12  17
ATOM     17  C   UNL     1     -14.832 -33.378  31.995  1.00  0.00    -0.006 C 
ATOM     18  C   UNL     1     -15.206 -31.987  31.460  1.00  0.00     0.008 C 
ATOM     19  C   UNL     1     -14.534 -33.284  33.503  1.00  0.00     0.008 C 
ENDBRANCH  12  17
ENDBRANCH  11  12
ENDBRANCH   1  11
TORSDOF 1
ENDMDL
MODEL 7
REMARK VINA RESULT:    -3.736      1.871      3.681
REMARK INTER + INTRA:          -5.727
REMARK INTER:                  -6.101
REMARK INTRA:                   0.373
REMARK UNBOUND:                -0.025
REMARK SMILES CC1=CCC[C@H](C)C(=O)C[C@H](C(C)C)C(=O)C1
REMARK SMILES IDX 8 1 9 2 6 3 7 4 5 5 4 6 3 7 2 8 1 9 10 11 11 12 15 13 16 14
REMARK SMILES IDX 17 15 12 17 13 18 14 19
REMARK H PARENT
REMARK Flexibility Score: 70.00
ROOT
ATOM      1  C   UNL     1     -12.449 -36.859  31.816  1.00  0.00     0.136 C 
ATOM      2  O   UNL     1     -11.479 -36.912  32.560  1.00  0.00    -0.299 OA
ENDROOT
BRANCH   1   3
ATOM      3  C   UNL     1     -12.586 -37.858  30.679  1.00  0.00     0.053 C 
ATOM      4  C   UNL     1     -12.591 -39.311  31.181  1.00  0.00     0.016 C 
BRANCH   3   5
ATOM      5  C   UNL     1     -13.786 -37.566  29.744  1.00  0.00     0.015 C 
BRANCH   5   6
ATOM      6  C   UNL     1     -13.626 -36.469  28.668  1.00  0.00     0.028 C 
BRANCH   6   7
ATOM      7  C   UNL     1     -12.236 -35.927  28.424  1.00  0.00    -0.028 C 
ATOM      8  C   UNL     1     -11.669 -34.850  29.019  1.00  0.00    -0.070 CG0
ATOM      9  C   UNL     1     -10.204 -34.598  28.761  1.00  0.00     0.039 C 
ATOM     10  G   UNL     1     -12.432 -33.848  29.863  1.00  0.00     0.000 G0
ENDBRANCH   6   7
ENDBRANCH   5   6
ENDBRANCH   3   5
ENDBRANCH   1   3
BRANCH   1  11
ATOM     11  C   UNL     1     -13.477 -35.769  32.046  1.00  0.00     0.087 C 
BRANCH  11  12
ATOM     12  C   UNL     1     -12.850 -34.399  32.417  1.00  0.00     0.066 C 
BRANCH  12  13
ATOM     13  C   UNL     1     -11.951 -33.884  31.305  1.00  0.00     0.140 C 
ATOM     14  O   UNL     1     -10.835 -33.463  31.576  1.00  0.00    -0.299 OA
BRANCH  13  15
ATOM     15  C   UNL     1     -12.423 -33.833  29.868  1.00  0.00     0.106 CG0
ATOM     16  G   UNL     1     -11.667 -34.849  29.036  1.00  0.00     0.000 G0
ENDBRANCH  13  15
ENDBRANCH  12  13
BRANCH  12  17
ATOM     17  C   UNL     1     -13.893 -33.325  32.870  1.00  0.00    -0.006 C 
ATOM     18  C   UNL     1     -13.589 -32.812  34.287  1.00  0.00     0.008 C 
ATOM     19  C   UNL     1     -15.360 -33.785  32.795  1.00  0.00     0.008 C 
ENDBRANCH  12  17
ENDBRANCH  11  12
ENDBRANCH   1  11
TORSDOF 1
ENDMDL
MODEL 8
REMARK VINA RESULT:    -3.660      2.151      4.464
REMARK INTER + INTRA:          -5.610
REMARK INTER:                  -5.944
REMARK INTRA:                   0.334
REMARK UNBOUND:                -0.025
REMARK SMILES CC1=CCC[C@H](C)C(=O)C[C@H](C(C)C)C(=O)C1
REMARK SMILES IDX 8 1 9 2 6 3 7 4 5 5 4 6 3 7 2 8 1 9 10 11 11 12 15 13 16 14
REMARK SMILES IDX 17 15 12 17 13 18 14 19
REMARK H PARENT
REMARK Flexibility Score: 70.00
ROOT
ATOM      1  C   UNL     1     -13.175 -35.819  31.666  1.00  0.00     0.136 C 
ATOM      2  O   UNL     1     -14.015 -35.662  32.541  1.00  0.00    -0.299 OA
ENDROOT
BRANCH   1   3
ATOM      3  C   UNL     1     -12.770 -37.223  31.248  1.00  0.00     0.053 C 
ATOM      4  C   UNL     1     -12.678 -38.182  32.446  1.00  0.00     0.016 C 
BRANCH   3   5
ATOM      5  C   UNL     1     -13.647 -37.804  30.110  1.00  0.00     0.015 C 
BRANCH   5   6
ATOM      6  C   UNL     1     -13.267 -37.469  28.651  1.00  0.00     0.028 C 
BRANCH   6   7
ATOM      7  C   UNL     1     -13.707 -36.130  28.103  1.00  0.00    -0.028 C 
ATOM      8  C   UNL     1     -12.906 -35.140  27.640  1.00  0.00    -0.070 CG0
ATOM      9  C   UNL     1     -13.566 -33.962  26.968  1.00  0.00     0.039 C 
ATOM     10  G   UNL     1     -11.402 -35.112  27.823  1.00  0.00     0.000 G0
ENDBRANCH   6   7
ENDBRANCH   5   6
ENDBRANCH   3   5
ENDBRANCH   1   3
BRANCH   1  11
ATOM     11  C   UNL     1     -12.544 -34.591  31.042  1.00  0.00     0.087 C 
BRANCH  11  12
ATOM     12  C   UNL     1     -11.142 -34.860  30.434  1.00  0.00     0.066 C 
BRANCH  12  13
ATOM     13  C   UNL     1     -11.027 -34.284  29.031  1.00  0.00     0.140 C 
ATOM     14  O   UNL     1     -10.669 -33.124  28.882  1.00  0.00    -0.299 OA
BRANCH  13  15
ATOM     15  C   UNL     1     -11.395 -35.100  27.811  1.00  0.00     0.106 CG0
ATOM     16  G   UNL     1     -12.901 -35.127  27.639  1.00  0.00     0.000 G0
ENDBRANCH  13  15
ENDBRANCH  12  13
BRANCH  12  17
ATOM     17  C   UNL     1      -9.956 -34.410  31.349  1.00  0.00    -0.006 C 
ATOM     18  C   UNL     1      -9.951 -35.181  32.679  1.00  0.00     0.008 C 
ATOM     19  C   UNL     1      -9.903 -32.898  31.633  1.00  0.00     0.008 C 
ENDBRANCH  12  17
ENDBRANCH  11  12
ENDBRANCH   1  11
TORSDOF 1
ENDMDL
MODEL 9
REMARK VINA RESULT:    -3.658      2.259      4.904
REMARK INTER + INTRA:          -5.607
REMARK INTER:                  -6.204
REMARK INTRA:                   0.597
REMARK UNBOUND:                -0.025
REMARK SMILES CC1=CCC[C@H](C)C(=O)C[C@H](C(C)C)C(=O)C1
REMARK SMILES IDX 8 1 9 2 6 3 7 4 5 5 4 6 3 7 2 8 1 9 10 11 11 12 15 13 16 14
REMARK SMILES IDX 17 15 12 17 13 18 14 19
REMARK H PARENT
REMARK Flexibility Score: 70.00
ROOT
ATOM      1  C   UNL     1     -12.175 -34.329  32.162  1.00  0.00     0.136 C 
ATOM      2  O   UNL     1     -13.028 -33.482  31.935  1.00  0.00    -0.299 OA
ENDROOT
BRANCH   1   3
ATOM      3  C   UNL     1     -10.767 -33.903  32.544  1.00  0.00     0.053 C 
ATOM      4  C   UNL     1      -9.875 -35.101  32.904  1.00  0.00     0.016 C 
BRANCH   3   5
ATOM      5  C   UNL     1     -10.098 -32.979  31.496  1.00  0.00     0.015 C 
BRANCH   5   6
ATOM      6  C   UNL     1     -10.067 -33.444  30.023  1.00  0.00     0.028 C 
BRANCH   6   7
ATOM      7  C   UNL     1     -11.249 -33.085  29.152  1.00  0.00    -0.028 C 
ATOM      8  C   UNL     1     -12.056 -33.947  28.485  1.00  0.00    -0.070 CG0
ATOM      9  C   UNL     1     -13.288 -33.382  27.824  1.00  0.00     0.039 C 
ATOM     10  G   UNL     1     -11.755 -35.421  28.303  1.00  0.00     0.000 G0
ENDBRANCH   6   7
ENDBRANCH   5   6
ENDBRANCH   3   5
ENDBRANCH   1   3
BRANCH   1  11
ATOM     11  C   UNL     1     -12.555 -35.791  32.030  1.00  0.00     0.087 C 
BRANCH  11  12
ATOM     12  C   UNL     1     -12.902 -36.207  30.576  1.00  0.00     0.066 C 
BRANCH  12  13
ATOM     13  C   UNL     1     -11.686 -36.110  29.668  1.00  0.00     0.140 C 
ATOM     14  O   UNL     1     -10.612 -36.554  30.047  1.00  0.00    -0.299 OA
BRANCH  13  15
ATOM     15  C   UNL     1     -11.762 -35.430  28.318  1.00  0.00     0.106 CG0
ATOM     16  G   UNL     1     -12.051 -33.953  28.495  1.00  0.00     0.000 G0
ENDBRANCH  13  15
ENDBRANCH  12  13
BRANCH  12  17
ATOM     17  C   UNL     1     -13.605 -37.600  30.464  1.00  0.00    -0.006 C 
ATOM     18  C   UNL     1     -12.750 -38.712  31.093  1.00  0.00     0.008 C 
ATOM     19  C   UNL     1     -14.000 -38.005  29.032  1.00  0.00     0.008 C 
ENDBRANCH  12  17
ENDBRANCH  11  12
ENDBRANCH   1  11
TORSDOF 1
ENDMDL
