MODEL 1
REMARK VINA RESULT:    -3.991      0.000      0.000
REMARK INTER + INTRA:          -6.197
REMARK INTER:                  -5.390
REMARK INTRA:                  -0.807
REMARK UNBOUND:                -0.807
REMARK SMILES CC(=O)CCC=C(C)CCC=C(C)C
REMARK SMILES IDX 7 1 6 2 8 3 9 4 10 5 11 6 13 7 12 8 14 9 5 10 4 11 2 12 3 13
REMARK SMILES IDX 1 14
REMARK H PARENT
REMARK Flexibility Score: inf
ROOT
ATOM      1  C   UNL     1      -2.215  13.422   1.583  1.00  0.00    -0.077 C 
ATOM      2  C   UNL     1      -2.081  14.302   0.566  1.00  0.00    -0.028 C 
ATOM      3  C   UNL     1      -2.014  11.941   1.373  1.00  0.00     0.039 C 
ENDROOT
BRANCH   1   4
ATOM      4  C   UNL     1      -2.563  13.937   2.963  1.00  0.00     0.034 C 
BRANCH   4   5
ATOM      5  C   UNL     1      -1.418  13.675   3.948  1.00  0.00     0.032 C 
BRANCH   5   6
ATOM      6  C   UNL     1      -0.332  14.710   3.794  1.00  0.00    -0.028 C 
ATOM      7  C   UNL     1       1.447  13.006   3.338  1.00  0.00     0.039 C 
ATOM      8  C   UNL     1       0.968  14.421   3.552  1.00  0.00    -0.080 C 
ATOM      9  C   UNL     1       1.975  15.535   3.440  1.00  0.00     0.039 C 
ENDBRANCH   5   6
ENDBRANCH   4   5
ENDBRANCH   1   4
BRANCH   2  10
ATOM     10  C   UNL     1      -1.738  13.887  -0.845  1.00  0.00     0.035 C 
BRANCH  10  11
ATOM     11  C   UNL     1      -2.395  14.789  -1.897  1.00  0.00     0.079 C 
BRANCH  11  12
ATOM     12  C   UNL     1      -1.410  15.766  -2.492  1.00  0.00     0.130 C 
ATOM     13  O   UNL     1      -0.904  16.621  -1.782  1.00  0.00    -0.300 OA
ATOM     14  C   UNL     1      -1.047  15.719  -3.946  1.00  0.00     0.087 C 
ENDBRANCH  11  12
ENDBRANCH  10  11
ENDBRANCH   2  10
TORSDOF 6
ENDMDL
MODEL 2
REMARK VINA RESULT:    -3.983     11.679     13.944
REMARK INTER + INTRA:          -6.187
REMARK INTER:                  -5.427
REMARK INTRA:                  -0.761
REMARK UNBOUND:                -0.807
REMARK SMILES CC(=O)CCC=C(C)CCC=C(C)C
REMARK SMILES IDX 7 1 6 2 8 3 9 4 10 5 11 6 13 7 12 8 14 9 5 10 4 11 2 12 3 13
REMARK SMILES IDX 1 14
REMARK H PARENT
REMARK Flexibility Score: inf
ROOT
ATOM      1  C   UNL     1      -9.746   5.799   4.984  1.00  0.00    -0.077 C 
ATOM      2  C   UNL     1      -9.716   4.971   6.052  1.00  0.00    -0.028 C 
ATOM      3  C   UNL     1      -9.019   5.460   3.706  1.00  0.00     0.039 C 
ENDROOT
BRANCH   1   4
ATOM      4  C   UNL     1     -10.536   7.086   5.071  1.00  0.00     0.034 C 
BRANCH   4   5
ATOM      5  C   UNL     1     -10.074   7.930   6.265  1.00  0.00     0.032 C 
BRANCH   5   6
ATOM      6  C   UNL     1      -8.980   8.884   5.855  1.00  0.00    -0.028 C 
ATOM      7  C   UNL     1      -7.316   7.914   7.458  1.00  0.00     0.039 C 
ATOM      8  C   UNL     1      -7.745   8.909   6.407  1.00  0.00    -0.080 C 
ATOM      9  C   UNL     1      -6.734   9.922   5.937  1.00  0.00     0.039 C 
ENDBRANCH   5   6
ENDBRANCH   4   5
ENDBRANCH   1   4
BRANCH   2  10
ATOM     10  C   UNL     1      -8.956   3.665   6.064  1.00  0.00     0.035 C 
BRANCH  10  11
ATOM     11  C   UNL     1      -9.692   2.566   6.840  1.00  0.00     0.079 C 
BRANCH  11  12
ATOM     12  C   UNL     1      -9.425   1.198   6.262  1.00  0.00     0.130 C 
ATOM     13  O   UNL     1      -8.951   1.098   5.141  1.00  0.00    -0.300 OA
ATOM     14  C   UNL     1      -9.745  -0.050   7.030  1.00  0.00     0.087 C 
ENDBRANCH  11  12
ENDBRANCH  10  11
ENDBRANCH   2  10
TORSDOF 6
ENDMDL
MODEL 3
REMARK VINA RESULT:    -3.918      9.302     11.261
REMARK INTER + INTRA:          -6.099
REMARK INTER:                  -5.369
REMARK INTRA:                  -0.730
REMARK UNBOUND:                -0.807
REMARK SMILES CC(=O)CCC=C(C)CCC=C(C)C
REMARK SMILES IDX 7 1 6 2 8 3 9 4 10 5 11 6 13 7 12 8 14 9 5 10 4 11 2 12 3 13
REMARK SMILES IDX 1 14
REMARK H PARENT
REMARK Flexibility Score: inf
ROOT
ATOM      1  C   UNL     1      -1.089   5.065  -2.532  1.00  0.00    -0.077 C 
ATOM      2  C   UNL     1      -1.756   5.974  -3.277  1.00  0.00    -0.028 C 
ATOM      3  C   UNL     1       0.214   5.409  -1.851  1.00  0.00     0.039 C 
ENDROOT
BRANCH   1   4
ATOM      4  C   UNL     1      -1.669   3.678  -2.368  1.00  0.00     0.034 C 
BRANCH   4   5
ATOM      5  C   UNL     1      -0.621   2.606  -2.692  1.00  0.00     0.032 C 
BRANCH   5   6
ATOM      6  C   UNL     1      -1.135   1.656  -3.745  1.00  0.00    -0.028 C 
ATOM      7  C   UNL     1      -0.088   2.932  -5.630  1.00  0.00     0.039 C 
ATOM      8  C   UNL     1      -0.930   1.810  -5.074  1.00  0.00    -0.080 C 
ATOM      9  C   UNL     1      -1.511   0.813  -6.042  1.00  0.00     0.039 C 
ENDBRANCH   5   6
ENDBRANCH   4   5
ENDBRANCH   1   4
BRANCH   2  10
ATOM     10  C   UNL     1      -1.257   7.383  -3.501  1.00  0.00     0.035 C 
BRANCH  10  11
ATOM     11  C   UNL     1      -1.037   7.696  -4.987  1.00  0.00     0.079 C 
BRANCH  11  12
ATOM     12  C   UNL     1      -0.251   8.970  -5.180  1.00  0.00     0.130 C 
ATOM     13  O   UNL     1      -0.821   9.978  -5.569  1.00  0.00    -0.300 OA
ATOM     14  C   UNL     1       1.224   9.024  -4.916  1.00  0.00     0.087 C 
ENDBRANCH  11  12
ENDBRANCH  10  11
ENDBRANCH   2  10
TORSDOF 6
ENDMDL
MODEL 4
REMARK VINA RESULT:    -3.916      3.272      4.597
REMARK INTER + INTRA:          -6.097
REMARK INTER:                  -5.303
REMARK INTRA:                  -0.794
REMARK UNBOUND:                -0.807
REMARK SMILES CC(=O)CCC=C(C)CCC=C(C)C
REMARK SMILES IDX 7 1 6 2 8 3 9 4 10 5 11 6 13 7 12 8 14 9 5 10 4 11 2 12 3 13
REMARK SMILES IDX 1 14
REMARK H PARENT
REMARK Flexibility Score: inf
ROOT
ATOM      1  C   UNL     1      -3.442  13.700   4.797  1.00  0.00    -0.077 C 
ATOM      2  C   UNL     1      -2.604  13.104   3.920  1.00  0.00    -0.028 C 
ATOM      3  C   UNL     1      -4.107  15.018   4.479  1.00  0.00     0.039 C 
ENDROOT
BRANCH   1   4
ATOM      4  C   UNL     1      -3.727  13.025   6.120  1.00  0.00     0.034 C 
BRANCH   4   5
ATOM      5  C   UNL     1      -2.609  12.039   6.482  1.00  0.00     0.032 C 
BRANCH   5   6
ATOM      6  C   UNL     1      -1.930  12.447   7.766  1.00  0.00    -0.028 C 
ATOM      7  C   UNL     1      -0.162  13.778   6.592  1.00  0.00     0.039 C 
ATOM      8  C   UNL     1      -0.810  13.202   7.827  1.00  0.00    -0.080 C 
ATOM      9  C   UNL     1      -0.201  13.531   9.165  1.00  0.00     0.039 C 
ENDBRANCH   5   6
ENDBRANCH   4   5
ENDBRANCH   1   4
BRANCH   2  10
ATOM     10  C   UNL     1      -2.256  13.700   2.576  1.00  0.00     0.035 C 
BRANCH  10  11
ATOM     11  C   UNL     1      -1.181  12.891   1.838  1.00  0.00     0.079 C 
BRANCH  11  12
ATOM     12  C   UNL     1      -1.785  11.963   0.812  1.00  0.00     0.130 C 
ATOM     13  O   UNL     1      -2.116  10.833   1.140  1.00  0.00    -0.300 OA
ATOM     14  C   UNL     1      -1.976  12.392  -0.612  1.00  0.00     0.087 C 
ENDBRANCH  11  12
ENDBRANCH  10  11
ENDBRANCH   2  10
TORSDOF 6
ENDMDL
MODEL 5
REMARK VINA RESULT:    -3.895      3.641      5.656
REMARK INTER + INTRA:          -6.068
REMARK INTER:                  -5.352
REMARK INTRA:                  -0.717
REMARK UNBOUND:                -0.807
REMARK SMILES CC(=O)CCC=C(C)CCC=C(C)C
REMARK SMILES IDX 7 1 6 2 8 3 9 4 10 5 11 6 13 7 12 8 14 9 5 10 4 11 2 12 3 13
REMARK SMILES IDX 1 14
REMARK H PARENT
REMARK Flexibility Score: inf
ROOT
ATOM      1  C   UNL     1      -1.744  13.189   4.522  1.00  0.00    -0.077 C 
ATOM      2  C   UNL     1      -2.616  13.558   3.558  1.00  0.00    -0.028 C 
ATOM      3  C   UNL     1      -0.271  13.505   4.413  1.00  0.00     0.039 C 
ENDROOT
BRANCH   1   4
ATOM      4  C   UNL     1      -2.258  12.453   5.739  1.00  0.00     0.034 C 
BRANCH   4   5
ATOM      5  C   UNL     1      -3.791  12.467   5.779  1.00  0.00     0.032 C 
BRANCH   5   6
ATOM      6  C   UNL     1      -4.324  11.168   6.330  1.00  0.00    -0.028 C 
ATOM      7  C   UNL     1      -4.968  12.183   8.529  1.00  0.00     0.039 C 
ATOM      8  C   UNL     1      -4.826  11.020   7.578  1.00  0.00    -0.080 C 
ATOM      9  C   UNL     1      -5.310   9.668   8.034  1.00  0.00     0.039 C 
ENDBRANCH   5   6
ENDBRANCH   4   5
ENDBRANCH   1   4
BRANCH   2  10
ATOM     10  C   UNL     1      -2.200  14.294   2.306  1.00  0.00     0.035 C 
BRANCH  10  11
ATOM     11  C   UNL     1      -2.562  13.527   1.028  1.00  0.00     0.079 C 
BRANCH  11  12
ATOM     12  C   UNL     1      -1.843  12.202   0.947  1.00  0.00     0.130 C 
ATOM     13  O   UNL     1      -0.625  12.169   1.042  1.00  0.00    -0.300 OA
ATOM     14  C   UNL     1      -2.591  10.920   0.738  1.00  0.00     0.087 C 
ENDBRANCH  11  12
ENDBRANCH  10  11
ENDBRANCH   2  10
TORSDOF 6
ENDMDL
MODEL 6
REMARK VINA RESULT:    -3.849      9.060     10.809
REMARK INTER + INTRA:          -6.006
REMARK INTER:                  -4.909
REMARK INTRA:                  -1.096
REMARK UNBOUND:                -0.807
REMARK SMILES CC(=O)CCC=C(C)CCC=C(C)C
REMARK SMILES IDX 7 1 6 2 8 3 9 4 10 5 11 6 13 7 12 8 14 9 5 10 4 11 2 12 3 13
REMARK SMILES IDX 1 14
REMARK H PARENT
REMARK Flexibility Score: inf
ROOT
ATOM      1  C   UNL     1      -0.543   6.302  -3.968  1.00  0.00    -0.077 C 
ATOM      2  C   UNL     1      -1.032   6.145  -5.218  1.00  0.00    -0.028 C 
ATOM      3  C   UNL     1       0.808   6.930  -3.725  1.00  0.00     0.039 C 
ENDROOT
BRANCH   1   4
ATOM      4  C   UNL     1      -1.374   5.847  -2.789  1.00  0.00     0.034 C 
BRANCH   4   5
ATOM      5  C   UNL     1      -0.771   4.591  -2.148  1.00  0.00     0.032 C 
BRANCH   5   6
ATOM      6  C   UNL     1      -1.341   3.343  -2.776  1.00  0.00    -0.028 C 
ATOM      7  C   UNL     1       0.745   2.855  -4.076  1.00  0.00     0.039 C 
ATOM      8  C   UNL     1      -0.681   2.572  -3.670  1.00  0.00    -0.080 C 
ATOM      9  C   UNL     1      -1.356   1.359  -4.255  1.00  0.00     0.039 C 
ENDBRANCH   5   6
ENDBRANCH   4   5
ENDBRANCH   1   4
BRANCH   2  10
ATOM     10  C   UNL     1      -0.279   6.565  -6.458  1.00  0.00     0.035 C 
BRANCH  10  11
ATOM     11  C   UNL     1      -1.150   7.375  -7.427  1.00  0.00     0.079 C 
BRANCH  11  12
ATOM     12  C   UNL     1      -1.555   8.705  -6.838  1.00  0.00     0.130 C 
ATOM     13  O   UNL     1      -2.700   9.105  -6.982  1.00  0.00    -0.300 OA
ATOM     14  C   UNL     1      -0.575   9.556  -6.088  1.00  0.00     0.087 C 
ENDBRANCH  11  12
ENDBRANCH  10  11
ENDBRANCH   2  10
TORSDOF 6
ENDMDL
MODEL 7
REMARK VINA RESULT:    -3.832      8.404      9.717
REMARK INTER + INTRA:          -5.982
REMARK INTER:                  -4.934
REMARK INTRA:                  -1.049
REMARK UNBOUND:                -0.807
REMARK SMILES CC(=O)CCC=C(C)CCC=C(C)C
REMARK SMILES IDX 7 1 6 2 8 3 9 4 10 5 11 6 13 7 12 8 14 9 5 10 4 11 2 12 3 13
REMARK SMILES IDX 1 14
REMARK H PARENT
REMARK Flexibility Score: inf
ROOT
ATOM      1  C   UNL     1      -0.622   5.054  -3.448  1.00  0.00    -0.077 C 
ATOM      2  C   UNL     1      -1.556   6.030  -3.407  1.00  0.00    -0.028 C 
ATOM      3  C   UNL     1       0.834   5.368  -3.697  1.00  0.00     0.039 C 
ENDROOT
BRANCH   1   4
ATOM      4  C   UNL     1      -1.045   3.618  -3.227  1.00  0.00     0.034 C 
BRANCH   4   5
ATOM      5  C   UNL     1      -1.523   3.406  -1.785  1.00  0.00     0.032 C 
BRANCH   5   6
ATOM      6  C   UNL     1      -0.363   3.069  -0.881  1.00  0.00    -0.028 C 
ATOM      7  C   UNL     1      -0.418   5.291   0.277  1.00  0.00     0.039 C 
ATOM      8  C   UNL     1       0.165   3.921   0.029  1.00  0.00    -0.080 C 
ATOM      9  C   UNL     1       1.341   3.489   0.865  1.00  0.00     0.039 C 
ENDBRANCH   5   6
ENDBRANCH   4   5
ENDBRANCH   1   4
BRANCH   2  10
ATOM     10  C   UNL     1      -1.233   7.491  -3.617  1.00  0.00     0.035 C 
BRANCH  10  11
ATOM     11  C   UNL     1      -1.505   7.949  -5.055  1.00  0.00     0.079 C 
BRANCH  11  12
ATOM     12  C   UNL     1      -0.579   9.067  -5.471  1.00  0.00     0.130 C 
ATOM     13  O   UNL     1      -1.045  10.146  -5.801  1.00  0.00    -0.300 OA
ATOM     14  C   UNL     1       0.908   8.877  -5.501  1.00  0.00     0.087 C 
ENDBRANCH  11  12
ENDBRANCH  10  11
ENDBRANCH   2  10
TORSDOF 6
ENDMDL
MODEL 8
REMARK VINA RESULT:    -3.823      2.350      4.334
REMARK INTER + INTRA:          -5.971
REMARK INTER:                  -4.948
REMARK INTRA:                  -1.023
REMARK UNBOUND:                -0.807
REMARK SMILES CC(=O)CCC=C(C)CCC=C(C)C
REMARK SMILES IDX 7 1 6 2 8 3 9 4 10 5 11 6 13 7 12 8 14 9 5 10 4 11 2 12 3 13
REMARK SMILES IDX 1 14
REMARK H PARENT
REMARK Flexibility Score: inf
ROOT
ATOM      1  C   UNL     1      -1.981  12.890   4.379  1.00  0.00    -0.077 C 
ATOM      2  C   UNL     1      -2.268  12.923   3.058  1.00  0.00    -0.028 C 
ATOM      3  C   UNL     1      -0.621  13.288   4.899  1.00  0.00     0.039 C 
ENDROOT
BRANCH   1   4
ATOM      4  C   UNL     1      -3.052  12.455   5.355  1.00  0.00     0.034 C 
BRANCH   4   5
ATOM      5  C   UNL     1      -3.567  13.649   6.168  1.00  0.00     0.032 C 
BRANCH   5   6
ATOM      6  C   UNL     1      -4.777  14.263   5.510  1.00  0.00    -0.028 C 
ATOM      7  C   UNL     1      -3.479  16.181   4.554  1.00  0.00     0.039 C 
ATOM      8  C   UNL     1      -4.757  15.419   4.808  1.00  0.00    -0.080 C 
ATOM      9  C   UNL     1      -6.032  15.956   4.212  1.00  0.00     0.039 C 
ENDBRANCH   5   6
ENDBRANCH   4   5
ENDBRANCH   1   4
BRANCH   2  10
ATOM     10  C   UNL     1      -1.267  13.341   2.007  1.00  0.00     0.035 C 
BRANCH  10  11
ATOM     11  C   UNL     1      -1.767  14.515   1.156  1.00  0.00     0.079 C 
BRANCH  11  12
ATOM     12  C   UNL     1      -2.109  14.083  -0.249  1.00  0.00     0.130 C 
ATOM     13  O   UNL     1      -2.501  14.911  -1.058  1.00  0.00    -0.300 OA
ATOM     14  C   UNL     1      -1.991  12.650  -0.675  1.00  0.00     0.087 C 
ENDBRANCH  11  12
ENDBRANCH  10  11
ENDBRANCH   2  10
TORSDOF 6
ENDMDL
MODEL 9
REMARK VINA RESULT:    -3.785      1.960      3.726
REMARK INTER + INTRA:          -5.920
REMARK INTER:                  -5.144
REMARK INTRA:                  -0.776
REMARK UNBOUND:                -0.807
REMARK SMILES CC(=O)CCC=C(C)CCC=C(C)C
REMARK SMILES IDX 7 1 6 2 8 3 9 4 10 5 11 6 13 7 12 8 14 9 5 10 4 11 2 12 3 13
REMARK SMILES IDX 1 14
REMARK H PARENT
REMARK Flexibility Score: inf
ROOT
ATOM      1  C   UNL     1      -1.184  14.152   3.098  1.00  0.00    -0.077 C 
ATOM      2  C   UNL     1      -1.671  13.439   2.057  1.00  0.00    -0.028 C 
ATOM      3  C   UNL     1      -1.460  15.630   3.236  1.00  0.00     0.039 C 
ENDROOT
BRANCH   1   4
ATOM      4  C   UNL     1      -0.355  13.449   4.150  1.00  0.00     0.034 C 
BRANCH   4   5
ATOM      5  C   UNL     1      -1.016  13.561   5.530  1.00  0.00     0.032 C 
BRANCH   5   6
ATOM      6  C   UNL     1      -1.991  12.431   5.749  1.00  0.00    -0.028 C 
ATOM      7  C   UNL     1      -3.999  13.881   5.373  1.00  0.00     0.039 C 
ATOM      8  C   UNL     1      -3.336  12.569   5.714  1.00  0.00    -0.080 C 
ATOM      9  C   UNL     1      -4.218  11.375   5.972  1.00  0.00     0.039 C 
ENDBRANCH   5   6
ENDBRANCH   4   5
ENDBRANCH   1   4
BRANCH   2  10
ATOM     10  C   UNL     1      -2.506  14.050   0.957  1.00  0.00     0.035 C 
BRANCH  10  11
ATOM     11  C   UNL     1      -1.656  14.811  -0.069  1.00  0.00     0.079 C 
BRANCH  11  12
ATOM     12  C   UNL     1      -2.148  14.590  -1.478  1.00  0.00     0.130 C 
ATOM     13  O   UNL     1      -2.536  15.542  -2.139  1.00  0.00    -0.300 OA
ATOM     14  C   UNL     1      -2.186  13.220  -2.085  1.00  0.00     0.087 C 
ENDBRANCH  11  12
ENDBRANCH  10  11
ENDBRANCH   2  10
TORSDOF 6
ENDMDL
