MODEL 1
REMARK VINA RESULT:    10.052      0.000      0.000
REMARK INTER + INTRA:          16.076
REMARK INTER:                  17.104
REMARK INTRA:                  -1.028
REMARK UNBOUND:                -1.028
REMARK SMILES CCCCCCCCCCCCCC(=O)[O-]
REMARK SMILES IDX 8 1 9 2 10 3 11 4 12 5 13 6 14 7 15 8 16 9 7 10 6 11 5 12
REMARK SMILES IDX 4 13 3 14 2 15 1 16
REMARK H PARENT
REMARK Flexibility Score: inf
ROOT
ATOM      1  C   UNL     1     -17.607  60.870  -3.503  1.00  0.00     0.000 C 
ENDROOT
BRANCH   1   2
ATOM      2  C   UNL     1     -16.413  60.227  -2.788  1.00  0.00     0.000 C 
BRANCH   2   3
ATOM      3  C   UNL     1     -15.127  60.387  -3.608  1.00  0.00     0.000 C 
BRANCH   3   4
ATOM      4  C   UNL     1     -14.899  59.172  -4.518  1.00  0.00     0.000 C 
BRANCH   4   5
ATOM      5  C   UNL     1     -13.420  58.765  -4.604  1.00  0.00     0.006 C 
BRANCH   5   6
ATOM      6  C   UNL     1     -12.966  57.929  -3.400  1.00  0.00     0.053 C 
BRANCH   6   7
ATOM      7  C   UNL     1     -11.492  57.685  -3.460  1.00  0.00     0.041 C 
ATOM      8  O   UNL     1     -10.692  58.507  -2.941  1.00  0.00    -0.550 OA
ATOM      9  O   UNL     1     -10.998  56.574  -4.132  1.00  0.00    -0.550 OA
ENDBRANCH   6   7
ENDBRANCH   5   6
ENDBRANCH   4   5
ENDBRANCH   3   4
ENDBRANCH   2   3
ENDBRANCH   1   2
BRANCH   1  10
ATOM     10  C   UNL     1     -18.888  60.058  -3.277  1.00  0.00     0.000 C 
BRANCH  10  11
ATOM     11  C   UNL     1     -18.583  58.557  -3.208  1.00  0.00    -0.000 C 
BRANCH  11  12
ATOM     12  C   UNL     1     -18.566  58.063  -1.757  1.00  0.00    -0.000 C 
BRANCH  12  13
ATOM     13  C   UNL     1     -17.591  56.889  -1.587  1.00  0.00    -0.000 C 
BRANCH  13  14
ATOM     14  C   UNL     1     -16.622  56.748  -2.773  1.00  0.00    -0.000 C 
BRANCH  14  15
ATOM     15  C   UNL     1     -16.643  55.343  -3.390  1.00  0.00    -0.003 C 
ATOM     16  C   UNL     1     -17.162  55.381  -4.825  1.00  0.00     0.004 C 
ENDBRANCH  14  15
ENDBRANCH  13  14
ENDBRANCH  12  13
ENDBRANCH  11  12
ENDBRANCH  10  11
ENDBRANCH   1  10
TORSDOF 12
ENDMDL
MODEL 2
REMARK VINA RESULT:    10.061      2.545      4.855
REMARK INTER + INTRA:          16.091
REMARK INTER:                  16.563
REMARK INTRA:                  -0.471
REMARK UNBOUND:                -1.028
REMARK SMILES CCCCCCCCCCCCCC(=O)[O-]
REMARK SMILES IDX 8 1 9 2 10 3 11 4 12 5 13 6 14 7 15 8 16 9 7 10 6 11 5 12
REMARK SMILES IDX 4 13 3 14 2 15 1 16
REMARK H PARENT
REMARK Flexibility Score: inf
ROOT
ATOM      1  C   UNL     1     -18.903  60.332  -3.369  1.00  0.00     0.000 C 
ENDROOT
BRANCH   1   2
ATOM      2  C   UNL     1     -18.731  58.810  -3.408  1.00  0.00     0.000 C 
BRANCH   2   3
ATOM      3  C   UNL     1     -18.892  58.200  -2.011  1.00  0.00     0.000 C 
BRANCH   3   4
ATOM      4  C   UNL     1     -17.548  57.685  -1.476  1.00  0.00     0.000 C 
BRANCH   4   5
ATOM      5  C   UNL     1     -17.225  56.261  -1.956  1.00  0.00     0.006 C 
BRANCH   5   6
ATOM      6  C   UNL     1     -16.487  56.243  -3.300  1.00  0.00     0.053 C 
BRANCH   6   7
ATOM      7  C   UNL     1     -17.125  55.263  -4.233  1.00  0.00     0.041 C 
ATOM      8  O   UNL     1     -17.583  54.176  -3.792  1.00  0.00    -0.550 OA
ATOM      9  O   UNL     1     -17.171  55.528  -5.596  1.00  0.00    -0.550 OA
ENDBRANCH   6   7
ENDBRANCH   5   6
ENDBRANCH   4   5
ENDBRANCH   3   4
ENDBRANCH   2   3
ENDBRANCH   1   2
BRANCH   1  10
ATOM     10  C   UNL     1     -17.566  61.044  -3.609  1.00  0.00     0.000 C 
BRANCH  10  11
ATOM     11  C   UNL     1     -16.405  60.258  -2.989  1.00  0.00    -0.000 C 
BRANCH  11  12
ATOM     12  C   UNL     1     -15.199  60.218  -3.935  1.00  0.00    -0.000 C 
BRANCH  12  13
ATOM     13  C   UNL     1     -14.650  58.789  -4.066  1.00  0.00    -0.000 C 
BRANCH  13  14
ATOM     14  C   UNL     1     -13.131  58.758  -4.298  1.00  0.00    -0.000 C 
BRANCH  14  15
ATOM     15  C   UNL     1     -12.445  57.593  -3.569  1.00  0.00    -0.003 C 
ATOM     16  C   UNL     1     -10.981  57.913  -3.280  1.00  0.00     0.004 C 
ENDBRANCH  14  15
ENDBRANCH  13  14
ENDBRANCH  12  13
ENDBRANCH  11  12
ENDBRANCH  10  11
ENDBRANCH   1  10
TORSDOF 12
ENDMDL
MODEL 3
REMARK VINA RESULT:    12.525     10.975     13.726
REMARK INTER + INTRA:          20.283
REMARK INTER:                  20.935
REMARK INTRA:                  -0.652
REMARK UNBOUND:                -1.028
REMARK SMILES CCCCCCCCCCCCCC(=O)[O-]
REMARK SMILES IDX 8 1 9 2 10 3 11 4 12 5 13 6 14 7 15 8 16 9 7 10 6 11 5 12
REMARK SMILES IDX 4 13 3 14 2 15 1 16
REMARK H PARENT
REMARK Flexibility Score: inf
ROOT
ATOM      1  C   UNL     1      -4.903  50.252  -2.289  1.00  0.00     0.000 C 
ENDROOT
BRANCH   1   2
ATOM      2  C   UNL     1      -4.148  49.821  -1.026  1.00  0.00     0.000 C 
BRANCH   2   3
ATOM      3  C   UNL     1      -3.886  48.311  -1.027  1.00  0.00     0.000 C 
BRANCH   3   4
ATOM      4  C   UNL     1      -5.063  47.549  -1.654  1.00  0.00     0.000 C 
BRANCH   4   5
ATOM      5  C   UNL     1      -5.940  46.845  -0.606  1.00  0.00     0.006 C 
BRANCH   5   6
ATOM      6  C   UNL     1      -6.808  45.735  -1.211  1.00  0.00     0.053 C 
BRANCH   6   7
ATOM      7  C   UNL     1      -6.042  44.984  -2.254  1.00  0.00     0.041 C 
ATOM      8  O   UNL     1      -6.283  45.174  -3.475  1.00  0.00    -0.550 OA
ATOM      9  O   UNL     1      -5.096  44.040  -1.876  1.00  0.00    -0.550 OA
ENDBRANCH   6   7
ENDBRANCH   5   6
ENDBRANCH   4   5
ENDBRANCH   3   4
ENDBRANCH   2   3
ENDBRANCH   1   2
BRANCH   1  10
ATOM     10  C   UNL     1      -6.199  50.990  -1.932  1.00  0.00     0.000 C 
BRANCH  10  11
ATOM     11  C   UNL     1      -7.178  50.985  -3.111  1.00  0.00    -0.000 C 
BRANCH  11  12
ATOM     12  C   UNL     1      -8.631  51.016  -2.622  1.00  0.00    -0.000 C 
BRANCH  12  13
ATOM     13  C   UNL     1      -9.000  49.703  -1.916  1.00  0.00    -0.000 C 
BRANCH  13  14
ATOM     14  C   UNL     1     -10.520  49.501  -1.799  1.00  0.00    -0.000 C 
BRANCH  14  15
ATOM     15  C   UNL     1     -11.162  49.066  -3.124  1.00  0.00    -0.003 C 
ATOM     16  C   UNL     1     -10.128  48.439  -4.055  1.00  0.00     0.004 C 
ENDBRANCH  14  15
ENDBRANCH  13  14
ENDBRANCH  12  13
ENDBRANCH  11  12
ENDBRANCH  10  11
ENDBRANCH   1  10
TORSDOF 12
ENDMDL
MODEL 4
REMARK VINA RESULT:    12.704     10.723     13.481
REMARK INTER + INTRA:          20.588
REMARK INTER:                  21.354
REMARK INTRA:                  -0.766
REMARK UNBOUND:                -1.028
REMARK SMILES CCCCCCCCCCCCCC(=O)[O-]
REMARK SMILES IDX 8 1 9 2 10 3 11 4 12 5 13 6 14 7 15 8 16 9 7 10 6 11 5 12
REMARK SMILES IDX 4 13 3 14 2 15 1 16
REMARK H PARENT
REMARK Flexibility Score: inf
ROOT
ATOM      1  C   UNL     1      -5.818  50.628  -1.785  1.00  0.00     0.000 C 
ENDROOT
BRANCH   1   2
ATOM      2  C   UNL     1      -4.575  49.797  -2.125  1.00  0.00     0.000 C 
BRANCH   2   3
ATOM      3  C   UNL     1      -4.128  48.955  -0.924  1.00  0.00     0.000 C 
BRANCH   3   4
ATOM      4  C   UNL     1      -4.483  47.475  -1.127  1.00  0.00     0.000 C 
BRANCH   4   5
ATOM      5  C   UNL     1      -5.996  47.240  -1.258  1.00  0.00     0.006 C 
BRANCH   5   6
ATOM      6  C   UNL     1      -6.382  45.764  -1.092  1.00  0.00     0.053 C 
BRANCH   6   7
ATOM      7  C   UNL     1      -5.992  44.984  -2.308  1.00  0.00     0.041 C 
ATOM      8  O   UNL     1      -6.636  45.122  -3.382  1.00  0.00    -0.550 OA
ATOM      9  O   UNL     1      -4.948  44.070  -2.243  1.00  0.00    -0.550 OA
ENDBRANCH   6   7
ENDBRANCH   5   6
ENDBRANCH   4   5
ENDBRANCH   3   4
ENDBRANCH   2   3
ENDBRANCH   1   2
BRANCH   1  10
ATOM     10  C   UNL     1      -6.730  50.782  -3.008  1.00  0.00     0.000 C 
BRANCH  10  11
ATOM     11  C   UNL     1      -8.167  51.108  -2.586  1.00  0.00    -0.000 C 
BRANCH  11  12
ATOM     12  C   UNL     1      -8.898  49.851  -2.100  1.00  0.00    -0.000 C 
BRANCH  12  13
ATOM     13  C   UNL     1      -9.815  49.290  -3.197  1.00  0.00    -0.000 C 
BRANCH  13  14
ATOM     14  C   UNL     1     -11.261  49.087  -2.713  1.00  0.00    -0.000 C 
BRANCH  14  15
ATOM     15  C   UNL     1     -11.381  49.111  -1.183  1.00  0.00    -0.003 C 
ATOM     16  C   UNL     1     -12.839  48.998  -0.745  1.00  0.00     0.004 C 
ENDBRANCH  14  15
ENDBRANCH  13  14
ENDBRANCH  12  13
ENDBRANCH  11  12
ENDBRANCH  10  11
ENDBRANCH   1  10
TORSDOF 12
ENDMDL
MODEL 5
REMARK VINA RESULT:    12.715     11.111     14.272
REMARK INTER + INTRA:          20.608
REMARK INTER:                  21.538
REMARK INTRA:                  -0.931
REMARK UNBOUND:                -1.028
REMARK SMILES CCCCCCCCCCCCCC(=O)[O-]
REMARK SMILES IDX 8 1 9 2 10 3 11 4 12 5 13 6 14 7 15 8 16 9 7 10 6 11 5 12
REMARK SMILES IDX 4 13 3 14 2 15 1 16
REMARK H PARENT
REMARK Flexibility Score: inf
ROOT
ATOM      1  C   UNL     1      -4.408  49.772  -0.903  1.00  0.00     0.000 C 
ENDROOT
BRANCH   1   2
ATOM      2  C   UNL     1      -5.132  50.286  -2.153  1.00  0.00     0.000 C 
BRANCH   2   3
ATOM      3  C   UNL     1      -6.532  50.807  -1.805  1.00  0.00     0.000 C 
BRANCH   3   4
ATOM      4  C   UNL     1      -7.408  50.914  -3.061  1.00  0.00     0.000 C 
BRANCH   4   5
ATOM      5  C   UNL     1      -8.910  50.941  -2.736  1.00  0.00     0.006 C 
BRANCH   5   6
ATOM      6  C   UNL     1      -9.383  49.666  -2.025  1.00  0.00     0.053 C 
BRANCH   6   7
ATOM      7  C   UNL     1     -10.488  49.019  -2.799  1.00  0.00     0.041 C 
ATOM      8  O   UNL     1     -11.635  48.907  -2.291  1.00  0.00    -0.550 OA
ATOM      9  O   UNL     1     -10.239  48.495  -4.061  1.00  0.00    -0.550 OA
ENDBRANCH   6   7
ENDBRANCH   5   6
ENDBRANCH   4   5
ENDBRANCH   3   4
ENDBRANCH   2   3
ENDBRANCH   1   2
BRANCH   1  10
ATOM     10  C   UNL     1      -3.965  48.315  -1.083  1.00  0.00     0.000 C 
BRANCH  10  11
ATOM     11  C   UNL     1      -5.033  47.503  -1.826  1.00  0.00    -0.000 C 
BRANCH  11  12
ATOM     12  C   UNL     1      -6.078  46.945  -0.854  1.00  0.00    -0.000 C 
BRANCH  12  13
ATOM     13  C   UNL     1      -6.589  45.575  -1.322  1.00  0.00    -0.000 C 
BRANCH  13  14
ATOM     14  C   UNL     1      -5.943  45.122  -2.642  1.00  0.00    -0.000 C 
BRANCH  14  15
ATOM     15  C   UNL     1      -5.063  43.875  -2.473  1.00  0.00    -0.003 C 
ATOM     16  C   UNL     1      -4.215  43.970  -1.207  1.00  0.00     0.004 C 
ENDBRANCH  14  15
ENDBRANCH  13  14
ENDBRANCH  12  13
ENDBRANCH  11  12
ENDBRANCH  10  11
ENDBRANCH   1  10
TORSDOF 12
ENDMDL
