MODEL 1
REMARK VINA RESULT:    -1.042      0.000      0.000
REMARK INTER + INTRA:          -1.295
REMARK INTER:                  -1.164
REMARK INTRA:                  -0.131
REMARK UNBOUND:                -0.131
REMARK SMILES O=C([O-])C=Cc1ccccc1
REMARK SMILES IDX 4 1 5 2 2 3 1 4 3 5 6 6 7 7 11 8 8 9 10 10 9 11
REMARK H PARENT
REMARK Flexibility Score: inf
ROOT
ATOM      1  C   UNL     1      -2.183  -0.279   2.624  1.00  0.00     0.025 C 
ATOM      2  C   UNL     1      -3.505  -0.499   2.635  1.00  0.00     0.010 C 
ENDROOT
BRANCH   1   3
ATOM      3  C   UNL     1      -1.513   0.476   3.696  1.00  0.00     0.064 C 
ATOM      4  O   UNL     1      -2.201   0.994   4.613  1.00  0.00    -0.545 OA
ATOM      5  O   UNL     1      -0.131   0.625   3.712  1.00  0.00    -0.545 OA
ENDBRANCH   1   3
BRANCH   2   6
ATOM      6  C   UNL     1      -4.251  -1.251   1.589  1.00  0.00    -0.026 A 
ATOM      7  C   UNL     1      -4.250  -0.890   0.223  1.00  0.00     0.008 A 
ATOM      8  C   UNL     1      -4.994  -2.379   1.986  1.00  0.00     0.008 A 
ATOM      9  C   UNL     1      -4.973  -1.642  -0.709  1.00  0.00     0.001 A 
ATOM     10  C   UNL     1      -5.714  -3.125   1.048  1.00  0.00     0.001 A 
ATOM     11  C   UNL     1      -5.703  -2.757  -0.297  1.00  0.00     0.000 A 
ENDBRANCH   2   6
TORSDOF 2
ENDMDL
MODEL 2
REMARK VINA RESULT:    -0.944      0.152      1.467
REMARK INTER + INTRA:          -1.186
REMARK INTER:                  -1.050
REMARK INTRA:                  -0.136
REMARK UNBOUND:                -0.131
REMARK SMILES O=C([O-])C=Cc1ccccc1
REMARK SMILES IDX 4 1 5 2 2 3 1 4 3 5 6 6 7 7 11 8 8 9 10 10 9 11
REMARK H PARENT
REMARK Flexibility Score: inf
ROOT
ATOM      1  C   UNL     1      -2.091  -0.345   2.565  1.00  0.00     0.025 C 
ATOM      2  C   UNL     1      -3.422  -0.496   2.627  1.00  0.00     0.010 C 
ENDROOT
BRANCH   1   3
ATOM      3  C   UNL     1      -1.354   0.460   3.553  1.00  0.00     0.064 C 
ATOM      4  O   UNL     1      -1.980   1.007   4.499  1.00  0.00    -0.545 OA
ATOM      5  O   UNL     1       0.022   0.628   3.459  1.00  0.00    -0.545 OA
ENDBRANCH   1   3
BRANCH   2   6
ATOM      6  C   UNL     1      -4.233  -1.293   1.666  1.00  0.00    -0.026 A 
ATOM      7  C   UNL     1      -4.996  -2.421   2.042  1.00  0.00     0.008 A 
ATOM      8  C   UNL     1      -4.237  -0.898   0.315  1.00  0.00     0.008 A 
ATOM      9  C   UNL     1      -5.737  -3.125   1.086  1.00  0.00     0.001 A 
ATOM     10  C   UNL     1      -4.980  -1.606  -0.634  1.00  0.00     0.001 A 
ATOM     11  C   UNL     1      -5.729  -2.718  -0.248  1.00  0.00     0.000 A 
ENDBRANCH   2   6
TORSDOF 2
ENDMDL
MODEL 3
REMARK VINA RESULT:     1.357      3.331      5.455
REMARK INTER + INTRA:           1.385
REMARK INTER:                   1.512
REMARK INTRA:                  -0.128
REMARK UNBOUND:                -0.131
REMARK SMILES O=C([O-])C=Cc1ccccc1
REMARK SMILES IDX 4 1 5 2 2 3 1 4 3 5 6 6 7 7 11 8 8 9 10 10 9 11
REMARK H PARENT
REMARK Flexibility Score: inf
ROOT
ATOM      1  C   UNL     1      -4.263  -1.730   0.626  1.00  0.00     0.025 C 
ATOM      2  C   UNL     1      -3.866  -0.490   0.948  1.00  0.00     0.010 C 
ENDROOT
BRANCH   1   3
ATOM      3  C   UNL     1      -5.090  -1.995  -0.563  1.00  0.00     0.064 C 
ATOM      4  O   UNL     1      -5.026  -3.119  -1.125  1.00  0.00    -0.545 OA
ATOM      5  O   UNL     1      -5.943  -1.025  -1.075  1.00  0.00    -0.545 OA
ENDBRANCH   1   3
BRANCH   2   6
ATOM      6  C   UNL     1      -3.030  -0.146   2.132  1.00  0.00    -0.026 A 
ATOM      7  C   UNL     1      -3.521  -0.150   3.456  1.00  0.00     0.008 A 
ATOM      8  C   UNL     1      -1.683   0.200   1.914  1.00  0.00     0.008 A 
ATOM      9  C   UNL     1      -2.680   0.184   4.524  1.00  0.00     0.001 A 
ATOM     10  C   UNL     1      -0.850   0.532   2.985  1.00  0.00     0.001 A 
ATOM     11  C   UNL     1      -1.348   0.524   4.289  1.00  0.00     0.000 A 
ENDBRANCH   2   6
TORSDOF 2
ENDMDL
