MODEL 1
REMARK VINA RESULT:    -5.003      0.000      0.000
REMARK INTER + INTRA:         -10.211
REMARK INTER:                  -9.390
REMARK INTRA:                  -0.821
REMARK UNBOUND:                -0.821
REMARK SMILES O=C([O-])CCCCCCCCCCCCCCC(=O)[O-]
REMARK SMILES IDX 10 1 9 2 8 3 7 4 6 5 5 6 4 7 2 8 1 9 3 10 11 11 12 12 13 13
REMARK SMILES IDX 14 14 15 15 16 16 17 17 18 18 19 19 20 20
REMARK H PARENT
REMARK Flexibility Score: inf
ROOT
ATOM      1  C   UNL     1      -5.413  -5.035  28.231  1.00  0.00     0.000 C 
ENDROOT
BRANCH   1   2
ATOM      2  C   UNL     1      -5.518  -4.448  29.649  1.00  0.00     0.000 C 
BRANCH   2   3
ATOM      3  C   UNL     1      -5.019  -2.995  29.722  1.00  0.00     0.000 C 
BRANCH   3   4
ATOM      4  C   UNL     1      -5.305  -2.217  28.421  1.00  0.00     0.000 C 
BRANCH   4   5
ATOM      5  C   UNL     1      -4.976  -0.718  28.516  1.00  0.00     0.000 C 
BRANCH   5   6
ATOM      6  C   UNL     1      -3.532  -0.449  28.970  1.00  0.00     0.006 C 
BRANCH   6   7
ATOM      7  C   UNL     1      -2.516  -0.680  27.844  1.00  0.00     0.053 C 
BRANCH   7   8
ATOM      8  C   UNL     1      -1.410  -1.595  28.272  1.00  0.00     0.041 C 
ATOM      9  O   UNL     1      -1.668  -2.767  28.654  1.00  0.00    -0.550 OA
ATOM     10  O   UNL     1      -0.096  -1.144  28.275  1.00  0.00    -0.550 OA
ENDBRANCH   7   8
ENDBRANCH   6   7
ENDBRANCH   5   6
ENDBRANCH   4   5
ENDBRANCH   3   4
ENDBRANCH   2   3
ENDBRANCH   1   2
BRANCH   1  11
ATOM     11  C   UNL     1      -5.932  -6.479  28.157  1.00  0.00     0.000 C 
BRANCH  11  12
ATOM     12  C   UNL     1      -5.705  -7.214  29.487  1.00  0.00     0.000 C 
BRANCH  12  13
ATOM     13  C   UNL     1      -6.303  -8.633  29.498  1.00  0.00     0.000 C 
BRANCH  13  14
ATOM     14  C   UNL     1      -5.303  -9.764  29.190  1.00  0.00     0.000 C 
BRANCH  14  15
ATOM     15  C   UNL     1      -5.281 -10.234  27.723  1.00  0.00     0.000 C 
BRANCH  15  16
ATOM     16  C   UNL     1      -4.240 -11.339  27.439  1.00  0.00     0.006 C 
BRANCH  16  17
ATOM     17  C   UNL     1      -4.575 -12.154  26.183  1.00  0.00     0.053 C 
BRANCH  17  18
ATOM     18  C   UNL     1      -3.392 -12.217  25.271  1.00  0.00     0.041 C 
ATOM     19  O   UNL     1      -3.537 -12.055  24.031  1.00  0.00    -0.550 OA
ATOM     20  O   UNL     1      -2.134 -12.503  25.785  1.00  0.00    -0.550 OA
ENDBRANCH  17  18
ENDBRANCH  16  17
ENDBRANCH  15  16
ENDBRANCH  14  15
ENDBRANCH  13  14
ENDBRANCH  12  13
ENDBRANCH  11  12
ENDBRANCH   1  11
TORSDOF 15
ENDMDL
MODEL 2
REMARK VINA RESULT:    -4.971      1.004      1.768
REMARK INTER + INTRA:         -10.151
REMARK INTER:                  -9.423
REMARK INTRA:                  -0.728
REMARK UNBOUND:                -0.821
REMARK SMILES O=C([O-])CCCCCCCCCCCCCCC(=O)[O-]
REMARK SMILES IDX 10 1 9 2 8 3 7 4 6 5 5 6 4 7 2 8 1 9 3 10 11 11 12 12 13 13
REMARK SMILES IDX 14 14 15 15 16 16 17 17 18 18 19 19 20 20
REMARK H PARENT
REMARK Flexibility Score: inf
ROOT
ATOM      1  C   UNL     1      -5.363  -4.562  29.550  1.00  0.00     0.000 C 
ENDROOT
BRANCH   1   2
ATOM      2  C   UNL     1      -4.816  -3.125  29.523  1.00  0.00     0.000 C 
BRANCH   2   3
ATOM      3  C   UNL     1      -5.344  -2.316  28.326  1.00  0.00     0.000 C 
BRANCH   3   4
ATOM      4  C   UNL     1      -4.771  -0.884  28.296  1.00  0.00     0.000 C 
BRANCH   4   5
ATOM      5  C   UNL     1      -3.303  -0.799  28.745  1.00  0.00     0.000 C 
BRANCH   5   6
ATOM      6  C   UNL     1      -2.339  -0.493  27.587  1.00  0.00     0.006 C 
BRANCH   6   7
ATOM      7  C   UNL     1      -0.888  -0.345  28.062  1.00  0.00     0.053 C 
BRANCH   7   8
ATOM      8  C   UNL     1      -0.077  -1.570  27.765  1.00  0.00     0.041 C 
ATOM      9  O   UNL     1       0.140  -1.913  26.574  1.00  0.00    -0.550 OA
ATOM     10  O   UNL     1       0.414  -2.347  28.806  1.00  0.00    -0.550 OA
ENDBRANCH   7   8
ENDBRANCH   6   7
ENDBRANCH   5   6
ENDBRANCH   4   5
ENDBRANCH   3   4
ENDBRANCH   2   3
ENDBRANCH   1   2
BRANCH   1  11
ATOM     11  C   UNL     1      -5.383  -5.204  28.154  1.00  0.00     0.000 C 
BRANCH  11  12
ATOM     12  C   UNL     1      -5.962  -6.626  28.212  1.00  0.00     0.000 C 
BRANCH  12  13
ATOM     13  C   UNL     1      -5.773  -7.295  29.586  1.00  0.00     0.000 C 
BRANCH  13  14
ATOM     14  C   UNL     1      -6.294  -8.743  29.682  1.00  0.00     0.000 C 
BRANCH  14  15
ATOM     15  C   UNL     1      -5.279  -9.830  29.281  1.00  0.00     0.000 C 
BRANCH  15  16
ATOM     16  C   UNL     1      -5.343 -10.220  27.789  1.00  0.00     0.006 C 
BRANCH  16  17
ATOM     17  C   UNL     1      -4.205 -11.163  27.377  1.00  0.00     0.053 C 
BRANCH  17  18
ATOM     18  C   UNL     1      -4.564 -11.901  26.127  1.00  0.00     0.041 C 
ATOM     19  O   UNL     1      -5.260 -12.949  26.186  1.00  0.00    -0.550 OA
ATOM     20  O   UNL     1      -4.089 -11.459  24.899  1.00  0.00    -0.550 OA
ENDBRANCH  17  18
ENDBRANCH  16  17
ENDBRANCH  15  16
ENDBRANCH  14  15
ENDBRANCH  13  14
ENDBRANCH  12  13
ENDBRANCH  11  12
ENDBRANCH   1  11
TORSDOF 15
ENDMDL
MODEL 3
REMARK VINA RESULT:    -4.937      1.069      9.357
REMARK INTER + INTRA:         -10.088
REMARK INTER:                  -9.320
REMARK INTRA:                  -0.767
REMARK UNBOUND:                -0.821
REMARK SMILES O=C([O-])CCCCCCCCCCCCCCC(=O)[O-]
REMARK SMILES IDX 10 1 9 2 8 3 7 4 6 5 5 6 4 7 2 8 1 9 3 10 11 11 12 12 13 13
REMARK SMILES IDX 14 14 15 15 16 16 17 17 18 18 19 19 20 20
REMARK H PARENT
REMARK Flexibility Score: inf
ROOT
ATOM      1  C   UNL     1      -5.907  -6.773  28.209  1.00  0.00     0.000 C 
ENDROOT
BRANCH   1   2
ATOM      2  C   UNL     1      -5.840  -7.349  29.634  1.00  0.00     0.000 C 
BRANCH   2   3
ATOM      3  C   UNL     1      -6.167  -8.852  29.677  1.00  0.00     0.000 C 
BRANCH   3   4
ATOM      4  C   UNL     1      -5.452  -9.633  28.555  1.00  0.00     0.000 C 
BRANCH   4   5
ATOM      5  C   UNL     1      -4.644 -10.838  29.063  1.00  0.00     0.000 C 
BRANCH   5   6
ATOM      6  C   UNL     1      -4.026 -11.668  27.926  1.00  0.00     0.006 C 
BRANCH   6   7
ATOM      7  C   UNL     1      -4.576 -11.269  26.550  1.00  0.00     0.053 C 
BRANCH   7   8
ATOM      8  C   UNL     1      -3.874 -11.991  25.440  1.00  0.00     0.041 C 
ATOM      9  O   UNL     1      -3.916 -11.541  24.265  1.00  0.00    -0.550 OA
ATOM     10  O   UNL     1      -3.195 -13.175  25.701  1.00  0.00    -0.550 OA
ENDBRANCH   7   8
ENDBRANCH   6   7
ENDBRANCH   5   6
ENDBRANCH   4   5
ENDBRANCH   3   4
ENDBRANCH   2   3
ENDBRANCH   1   2
BRANCH   1  11
ATOM     11  C   UNL     1      -5.702  -5.250  28.185  1.00  0.00     0.000 C 
BRANCH  11  12
ATOM     12  C   UNL     1      -5.448  -4.707  29.599  1.00  0.00     0.000 C 
BRANCH  12  13
ATOM     13  C   UNL     1      -5.332  -3.172  29.641  1.00  0.00     0.000 C 
BRANCH  13  14
ATOM     14  C   UNL     1      -5.370  -2.478  28.265  1.00  0.00     0.000 C 
BRANCH  14  15
ATOM     15  C   UNL     1      -4.572  -1.163  28.175  1.00  0.00     0.000 C 
BRANCH  15  16
ATOM     16  C   UNL     1      -3.089  -1.307  28.578  1.00  0.00     0.006 C 
BRANCH  16  17
ATOM     17  C   UNL     1      -2.324   0.020  28.490  1.00  0.00     0.053 C 
BRANCH  17  18
ATOM     18  C   UNL     1      -1.088  -0.144  27.663  1.00  0.00     0.041 C 
ATOM     19  O   UNL     1       0.033   0.197  28.124  1.00  0.00    -0.550 OA
ATOM     20  O   UNL     1      -1.181  -0.627  26.364  1.00  0.00    -0.550 OA
ENDBRANCH  17  18
ENDBRANCH  16  17
ENDBRANCH  15  16
ENDBRANCH  14  15
ENDBRANCH  13  14
ENDBRANCH  12  13
ENDBRANCH  11  12
ENDBRANCH   1  11
TORSDOF 15
ENDMDL
MODEL 4
REMARK VINA RESULT:    -4.862      5.255      6.935
REMARK INTER + INTRA:          -9.946
REMARK INTER:                  -8.368
REMARK INTRA:                  -1.578
REMARK UNBOUND:                -0.821
REMARK SMILES O=C([O-])CCCCCCCCCCCCCCC(=O)[O-]
REMARK SMILES IDX 10 1 9 2 8 3 7 4 6 5 5 6 4 7 2 8 1 9 3 10 11 11 12 12 13 13
REMARK SMILES IDX 14 14 15 15 16 16 17 17 18 18 19 19 20 20
REMARK H PARENT
REMARK Flexibility Score: inf
ROOT
ATOM      1  C   UNL     1      -4.958  -0.626  28.599  1.00  0.00     0.000 C 
ENDROOT
BRANCH   1   2
ATOM      2  C   UNL     1      -5.485   0.623  29.326  1.00  0.00     0.000 C 
BRANCH   2   3
ATOM      3  C   UNL     1      -4.353   1.479  29.920  1.00  0.00     0.000 C 
BRANCH   3   4
ATOM      4  C   UNL     1      -2.965   0.846  29.690  1.00  0.00     0.000 C 
BRANCH   4   5
ATOM      5  C   UNL     1      -1.862   1.874  29.390  1.00  0.00     0.000 C 
BRANCH   5   6
ATOM      6  C   UNL     1      -1.415   1.860  27.919  1.00  0.00     0.006 C 
BRANCH   6   7
ATOM      7  C   UNL     1      -0.442   3.002  27.596  1.00  0.00     0.053 C 
BRANCH   7   8
ATOM      8  C   UNL     1       0.651   2.556  26.673  1.00  0.00     0.041 C 
ATOM      9  O   UNL     1       1.437   1.635  27.018  1.00  0.00    -0.550 OA
ATOM     10  O   UNL     1       0.818   3.178  25.442  1.00  0.00    -0.550 OA
ENDBRANCH   7   8
ENDBRANCH   6   7
ENDBRANCH   5   6
ENDBRANCH   4   5
ENDBRANCH   3   4
ENDBRANCH   2   3
ENDBRANCH   1   2
BRANCH   1  11
ATOM     11  C   UNL     1      -5.422  -1.930  29.266  1.00  0.00     0.000 C 
BRANCH  11  12
ATOM     12  C   UNL     1      -5.674  -3.023  28.217  1.00  0.00     0.000 C 
BRANCH  12  13
ATOM     13  C   UNL     1      -5.138  -4.402  28.647  1.00  0.00     0.000 C 
BRANCH  13  14
ATOM     14  C   UNL     1      -3.660  -4.664  28.297  1.00  0.00     0.000 C 
BRANCH  14  15
ATOM     15  C   UNL     1      -2.641  -4.113  29.311  1.00  0.00     0.000 C 
BRANCH  15  16
ATOM     16  C   UNL     1      -1.330  -3.613  28.667  1.00  0.00     0.006 C 
BRANCH  16  17
ATOM     17  C   UNL     1      -1.382  -2.123  28.306  1.00  0.00     0.053 C 
BRANCH  17  18
ATOM     18  C   UNL     1       0.000  -1.559  28.216  1.00  0.00     0.041 C 
ATOM     19  O   UNL     1       0.501  -0.947  29.196  1.00  0.00    -0.550 OA
ATOM     20  O   UNL     1       0.718  -1.667  27.032  1.00  0.00    -0.550 OA
ENDBRANCH  17  18
ENDBRANCH  16  17
ENDBRANCH  15  16
ENDBRANCH  14  15
ENDBRANCH  13  14
ENDBRANCH  12  13
ENDBRANCH  11  12
ENDBRANCH   1  11
TORSDOF 15
ENDMDL
MODEL 5
REMARK VINA RESULT:    -4.736      4.576      7.500
REMARK INTER + INTRA:          -9.710
REMARK INTER:                  -8.169
REMARK INTRA:                  -1.540
REMARK UNBOUND:                -0.821
REMARK SMILES O=C([O-])CCCCCCCCCCCCCCC(=O)[O-]
REMARK SMILES IDX 10 1 9 2 8 3 7 4 6 5 5 6 4 7 2 8 1 9 3 10 11 11 12 12 13 13
REMARK SMILES IDX 14 14 15 15 16 16 17 17 18 18 19 19 20 20
REMARK H PARENT
REMARK Flexibility Score: inf
ROOT
ATOM      1  C   UNL     1      -0.437  -2.320  28.506  1.00  0.00     0.000 C 
ENDROOT
BRANCH   1   2
ATOM      2  C   UNL     1       0.980  -2.376  29.101  1.00  0.00     0.000 C 
BRANCH   2   3
ATOM      3  C   UNL     1       1.731  -1.040  28.960  1.00  0.00     0.000 C 
BRANCH   3   4
ATOM      4  C   UNL     1       1.088   0.078  29.808  1.00  0.00     0.000 C 
BRANCH   4   5
ATOM      5  C   UNL     1       1.211   1.475  29.177  1.00  0.00     0.000 C 
BRANCH   5   6
ATOM      6  C   UNL     1       1.544   1.428  27.677  1.00  0.00     0.006 C 
BRANCH   6   7
ATOM      7  C   UNL     1       1.535   2.822  27.036  1.00  0.00     0.053 C 
BRANCH   7   8
ATOM      8  C   UNL     1       0.281   3.066  26.253  1.00  0.00     0.041 C 
ATOM      9  O   UNL     1      -0.837   2.741  26.729  1.00  0.00    -0.550 OA
ATOM     10  O   UNL     1       0.353   3.628  24.984  1.00  0.00    -0.550 OA
ENDBRANCH   7   8
ENDBRANCH   6   7
ENDBRANCH   5   6
ENDBRANCH   4   5
ENDBRANCH   3   4
ENDBRANCH   2   3
ENDBRANCH   1   2
BRANCH   1  11
ATOM     11  C   UNL     1      -0.459  -1.681  27.109  1.00  0.00     0.000 C 
BRANCH  11  12
ATOM     12  C   UNL     1      -1.462  -0.519  27.052  1.00  0.00     0.000 C 
BRANCH  12  13
ATOM     13  C   UNL     1      -2.516  -0.582  28.173  1.00  0.00     0.000 C 
BRANCH  13  14
ATOM     14  C   UNL     1      -3.949  -0.901  27.703  1.00  0.00     0.000 C 
BRANCH  14  15
ATOM     15  C   UNL     1      -5.002  -0.980  28.825  1.00  0.00     0.000 C 
BRANCH  15  16
ATOM     16  C   UNL     1      -5.220  -2.407  29.373  1.00  0.00     0.006 C 
BRANCH  16  17
ATOM     17  C   UNL     1      -5.744  -3.375  28.304  1.00  0.00     0.053 C 
BRANCH  17  18
ATOM     18  C   UNL     1      -4.953  -4.644  28.317  1.00  0.00     0.041 C 
ATOM     19  O   UNL     1      -3.737  -4.631  28.643  1.00  0.00    -0.550 OA
ATOM     20  O   UNL     1      -5.548  -5.836  27.922  1.00  0.00    -0.550 OA
ENDBRANCH  17  18
ENDBRANCH  16  17
ENDBRANCH  15  16
ENDBRANCH  14  15
ENDBRANCH  13  14
ENDBRANCH  12  13
ENDBRANCH  11  12
ENDBRANCH   1  11
TORSDOF 15
ENDMDL
MODEL 6
REMARK VINA RESULT:    -4.732      1.249      2.145
REMARK INTER + INTRA:          -9.701
REMARK INTER:                  -8.959
REMARK INTRA:                  -0.742
REMARK UNBOUND:                -0.821
REMARK SMILES O=C([O-])CCCCCCCCCCCCCCC(=O)[O-]
REMARK SMILES IDX 10 1 9 2 8 3 7 4 6 5 5 6 4 7 2 8 1 9 3 10 11 11 12 12 13 13
REMARK SMILES IDX 14 14 15 15 16 16 17 17 18 18 19 19 20 20
REMARK H PARENT
REMARK Flexibility Score: inf
ROOT
ATOM      1  C   UNL     1      -5.619  -3.557  28.985  1.00  0.00     0.000 C 
ENDROOT
BRANCH   1   2
ATOM      2  C   UNL     1      -4.889  -2.417  28.255  1.00  0.00     0.000 C 
BRANCH   2   3
ATOM      3  C   UNL     1      -5.110  -1.051  28.927  1.00  0.00     0.000 C 
BRANCH   3   4
ATOM      4  C   UNL     1      -3.805  -0.233  29.020  1.00  0.00     0.000 C 
BRANCH   4   5
ATOM      5  C   UNL     1      -2.784  -0.578  27.923  1.00  0.00     0.000 C 
BRANCH   5   6
ATOM      6  C   UNL     1      -1.355  -0.743  28.466  1.00  0.00     0.006 C 
BRANCH   6   7
ATOM      7  C   UNL     1      -0.636  -1.952  27.855  1.00  0.00     0.053 C 
BRANCH   7   8
ATOM      8  C   UNL     1      -0.628  -3.124  28.789  1.00  0.00     0.041 C 
ATOM      9  O   UNL     1       0.388  -3.368  29.492  1.00  0.00    -0.550 OA
ATOM     10  O   UNL     1      -1.733  -3.963  28.861  1.00  0.00    -0.550 OA
ENDBRANCH   7   8
ENDBRANCH   6   7
ENDBRANCH   5   6
ENDBRANCH   4   5
ENDBRANCH   3   4
ENDBRANCH   2   3
ENDBRANCH   1   2
BRANCH   1  11
ATOM     11  C   UNL     1      -5.477  -4.902  28.256  1.00  0.00     0.000 C 
BRANCH  11  12
ATOM     12  C   UNL     1      -5.509  -6.072  29.251  1.00  0.00     0.000 C 
BRANCH  12  13
ATOM     13  C   UNL     1      -5.974  -7.393  28.610  1.00  0.00     0.000 C 
BRANCH  13  14
ATOM     14  C   UNL     1      -6.346  -8.506  29.609  1.00  0.00     0.000 C 
BRANCH  14  15
ATOM     15  C   UNL     1      -5.376  -9.702  29.644  1.00  0.00     0.000 C 
BRANCH  15  16
ATOM     16  C   UNL     1      -5.025 -10.260  28.248  1.00  0.00     0.006 C 
BRANCH  16  17
ATOM     17  C   UNL     1      -4.347 -11.635  28.317  1.00  0.00     0.053 C 
BRANCH  17  18
ATOM     18  C   UNL     1      -3.129 -11.660  27.450  1.00  0.00     0.041 C 
ATOM     19  O   UNL     1      -3.223 -11.965  26.232  1.00  0.00    -0.550 OA
ATOM     20  O   UNL     1      -1.881 -11.395  27.999  1.00  0.00    -0.550 OA
ENDBRANCH  17  18
ENDBRANCH  16  17
ENDBRANCH  15  16
ENDBRANCH  14  15
ENDBRANCH  13  14
ENDBRANCH  12  13
ENDBRANCH  11  12
ENDBRANCH   1  11
TORSDOF 15
ENDMDL
MODEL 7
REMARK VINA RESULT:    -4.694      1.456      2.553
REMARK INTER + INTRA:          -9.631
REMARK INTER:                  -9.016
REMARK INTRA:                  -0.615
REMARK UNBOUND:                -0.821
REMARK SMILES O=C([O-])CCCCCCCCCCCCCCC(=O)[O-]
REMARK SMILES IDX 10 1 9 2 8 3 7 4 6 5 5 6 4 7 2 8 1 9 3 10 11 11 12 12 13 13
REMARK SMILES IDX 14 14 15 15 16 16 17 17 18 18 19 19 20 20
REMARK H PARENT
REMARK Flexibility Score: inf
ROOT
ATOM      1  C   UNL     1      -6.107  -7.632  28.652  1.00  0.00     0.000 C 
ENDROOT
BRANCH   1   2
ATOM      2  C   UNL     1      -5.686  -6.238  29.148  1.00  0.00     0.000 C 
BRANCH   2   3
ATOM      3  C   UNL     1      -5.374  -5.271  27.992  1.00  0.00     0.000 C 
BRANCH   3   4
ATOM      4  C   UNL     1      -5.914  -3.851  28.263  1.00  0.00     0.000 C 
BRANCH   4   5
ATOM      5  C   UNL     1      -5.477  -3.276  29.621  1.00  0.00     0.000 C 
BRANCH   5   6
ATOM      6  C   UNL     1      -4.232  -2.380  29.519  1.00  0.00     0.006 C 
BRANCH   6   7
ATOM      7  C   UNL     1      -4.194  -1.585  28.207  1.00  0.00     0.053 C 
BRANCH   7   8
ATOM      8  C   UNL     1      -3.045  -0.623  28.174  1.00  0.00     0.041 C 
ATOM      9  O   UNL     1      -2.361  -0.488  27.126  1.00  0.00    -0.550 OA
ATOM     10  O   UNL     1      -2.715   0.104  29.310  1.00  0.00    -0.550 OA
ENDBRANCH   7   8
ENDBRANCH   6   7
ENDBRANCH   5   6
ENDBRANCH   4   5
ENDBRANCH   3   4
ENDBRANCH   2   3
ENDBRANCH   1   2
BRANCH   1  11
ATOM     11  C   UNL     1      -6.128  -8.672  29.782  1.00  0.00     0.000 C 
BRANCH  11  12
ATOM     12  C   UNL     1      -5.324  -9.922  29.394  1.00  0.00     0.000 C 
BRANCH  12  13
ATOM     13  C   UNL     1      -5.216 -10.116  27.870  1.00  0.00     0.000 C 
BRANCH  13  14
ATOM     14  C   UNL     1      -4.479 -11.395  27.426  1.00  0.00     0.000 C 
BRANCH  14  15
ATOM     15  C   UNL     1      -4.531 -11.687  25.915  1.00  0.00     0.000 C 
BRANCH  15  16
ATOM     16  C   UNL     1      -3.508 -12.746  25.450  1.00  0.00     0.006 C 
BRANCH  16  17
ATOM     17  C   UNL     1      -2.953 -12.454  24.050  1.00  0.00     0.053 C 
BRANCH  17  18
ATOM     18  C   UNL     1      -1.472 -12.252  24.106  1.00  0.00     0.041 C 
ATOM     19  O   UNL     1      -0.907 -12.006  25.204  1.00  0.00    -0.550 OA
ATOM     20  O   UNL     1      -0.722 -12.287  22.938  1.00  0.00    -0.550 OA
ENDBRANCH  17  18
ENDBRANCH  16  17
ENDBRANCH  15  16
ENDBRANCH  14  15
ENDBRANCH  13  14
ENDBRANCH  12  13
ENDBRANCH  11  12
ENDBRANCH   1  11
TORSDOF 15
ENDMDL
MODEL 8
REMARK VINA RESULT:    -4.628      4.539      7.721
REMARK INTER + INTRA:          -9.508
REMARK INTER:                  -7.941
REMARK INTRA:                  -1.567
REMARK UNBOUND:                -0.821
REMARK SMILES O=C([O-])CCCCCCCCCCCCCCC(=O)[O-]
REMARK SMILES IDX 10 1 9 2 8 3 7 4 6 5 5 6 4 7 2 8 1 9 3 10 11 11 12 12 13 13
REMARK SMILES IDX 14 14 15 15 16 16 17 17 18 18 19 19 20 20
REMARK H PARENT
REMARK Flexibility Score: inf
ROOT
ATOM      1  C   UNL     1      -1.847   2.815  29.032  1.00  0.00     0.000 C 
ENDROOT
BRANCH   1   2
ATOM      2  C   UNL     1      -0.438   2.782  28.418  1.00  0.00     0.000 C 
BRANCH   2   3
ATOM      3  C   UNL     1       0.644   2.402  29.445  1.00  0.00     0.000 C 
BRANCH   3   4
ATOM      4  C   UNL     1       1.494   1.203  28.975  1.00  0.00     0.000 C 
BRANCH   4   5
ATOM      5  C   UNL     1       1.254  -0.078  29.792  1.00  0.00     0.000 C 
BRANCH   5   6
ATOM      6  C   UNL     1       1.181  -1.340  28.919  1.00  0.00     0.006 C 
BRANCH   6   7
ATOM      7  C   UNL     1       0.610  -1.051  27.525  1.00  0.00     0.053 C 
BRANCH   7   8
ATOM      8  C   UNL     1      -0.886  -1.146  27.506  1.00  0.00     0.041 C 
ATOM      9  O   UNL     1      -1.559  -0.408  26.740  1.00  0.00    -0.550 OA
ATOM     10  O   UNL     1      -1.536  -2.032  28.356  1.00  0.00    -0.550 OA
ENDBRANCH   7   8
ENDBRANCH   6   7
ENDBRANCH   5   6
ENDBRANCH   4   5
ENDBRANCH   3   4
ENDBRANCH   2   3
ENDBRANCH   1   2
BRANCH   1  11
ATOM     11  C   UNL     1      -2.033   1.750  30.124  1.00  0.00     0.000 C 
BRANCH  11  12
ATOM     12  C   UNL     1      -3.093   0.719  29.711  1.00  0.00     0.000 C 
BRANCH  12  13
ATOM     13  C   UNL     1      -4.531   1.253  29.837  1.00  0.00     0.000 C 
BRANCH  13  14
ATOM     14  C   UNL     1      -5.621   0.337  29.246  1.00  0.00     0.000 C 
BRANCH  14  15
ATOM     15  C   UNL     1      -5.096  -0.885  28.468  1.00  0.00     0.000 C 
BRANCH  15  16
ATOM     16  C   UNL     1      -5.371  -2.233  29.167  1.00  0.00     0.006 C 
BRANCH  16  17
ATOM     17  C   UNL     1      -5.831  -3.321  28.188  1.00  0.00     0.053 C 
BRANCH  17  18
ATOM     18  C   UNL     1      -5.072  -4.588  28.421  1.00  0.00     0.041 C 
ATOM     19  O   UNL     1      -3.836  -4.553  28.660  1.00  0.00    -0.550 OA
ATOM     20  O   UNL     1      -5.720  -5.813  28.328  1.00  0.00    -0.550 OA
ENDBRANCH  17  18
ENDBRANCH  16  17
ENDBRANCH  15  16
ENDBRANCH  14  15
ENDBRANCH  13  14
ENDBRANCH  12  13
ENDBRANCH  11  12
ENDBRANCH   1  11
TORSDOF 15
ENDMDL
MODEL 9
REMARK VINA RESULT:    -4.604      4.663      7.454
REMARK INTER + INTRA:          -9.462
REMARK INTER:                  -7.624
REMARK INTRA:                  -1.838
REMARK UNBOUND:                -0.821
REMARK SMILES O=C([O-])CCCCCCCCCCCCCCC(=O)[O-]
REMARK SMILES IDX 10 1 9 2 8 3 7 4 6 5 5 6 4 7 2 8 1 9 3 10 11 11 12 12 13 13
REMARK SMILES IDX 14 14 15 15 16 16 17 17 18 18 19 19 20 20
REMARK H PARENT
REMARK Flexibility Score: inf
ROOT
ATOM      1  C   UNL     1       0.153  -1.733  27.840  1.00  0.00     0.000 C 
ENDROOT
BRANCH   1   2
ATOM      2  C   UNL     1       1.384  -0.944  28.313  1.00  0.00     0.000 C 
BRANCH   2   3
ATOM      3  C   UNL     1       1.311  -0.578  29.806  1.00  0.00     0.000 C 
BRANCH   3   4
ATOM      4  C   UNL     1       1.298   0.948  30.029  1.00  0.00     0.000 C 
BRANCH   4   5
ATOM      5  C   UNL     1       0.927   1.751  28.771  1.00  0.00     0.000 C 
BRANCH   5   6
ATOM      6  C   UNL     1      -0.291   2.665  28.980  1.00  0.00     0.006 C 
BRANCH   6   7
ATOM      7  C   UNL     1      -1.266   2.104  30.024  1.00  0.00     0.053 C 
BRANCH   7   8
ATOM      8  C   UNL     1      -2.623   2.730  29.909  1.00  0.00     0.041 C 
ATOM      9  O   UNL     1      -3.657   2.013  29.943  1.00  0.00    -0.550 OA
ATOM     10  O   UNL     1      -2.743   4.103  29.738  1.00  0.00    -0.550 OA
ENDBRANCH   7   8
ENDBRANCH   6   7
ENDBRANCH   5   6
ENDBRANCH   4   5
ENDBRANCH   3   4
ENDBRANCH   2   3
ENDBRANCH   1   2
BRANCH   1  11
ATOM     11  C   UNL     1      -0.543  -1.068  26.642  1.00  0.00     0.000 C 
BRANCH  11  12
ATOM     12  C   UNL     1      -1.708  -0.182  27.106  1.00  0.00     0.000 C 
BRANCH  12  13
ATOM     13  C   UNL     1      -2.562  -0.841  28.205  1.00  0.00     0.000 C 
BRANCH  13  14
ATOM     14  C   UNL     1      -4.021  -1.139  27.806  1.00  0.00     0.000 C 
BRANCH  14  15
ATOM     15  C   UNL     1      -5.038  -1.086  28.962  1.00  0.00     0.000 C 
BRANCH  15  16
ATOM     16  C   UNL     1      -5.674  -2.453  29.295  1.00  0.00     0.006 C 
BRANCH  16  17
ATOM     17  C   UNL     1      -5.786  -3.364  28.066  1.00  0.00     0.053 C 
BRANCH  17  18
ATOM     18  C   UNL     1      -5.040  -4.641  28.293  1.00  0.00     0.041 C 
ATOM     19  O   UNL     1      -5.653  -5.740  28.311  1.00  0.00    -0.550 OA
ATOM     20  O   UNL     1      -3.672  -4.611  28.533  1.00  0.00    -0.550 OA
ENDBRANCH  17  18
ENDBRANCH  16  17
ENDBRANCH  15  16
ENDBRANCH  14  15
ENDBRANCH  13  14
ENDBRANCH  12  13
ENDBRANCH  11  12
ENDBRANCH   1  11
TORSDOF 15
ENDMDL
