MODEL 1
REMARK VINA RESULT:    -5.678      0.000      0.000
REMARK INTER + INTRA:         -11.821
REMARK INTER:                 -10.325
REMARK INTRA:                  -1.496
REMARK UNBOUND:                -1.496
REMARK SMILES CCCCCC=CCC=CCCCCCCCC(=O)[O-]
REMARK SMILES IDX 11 1 12 2 13 3 14 4 15 5 16 6 17 7 18 8 19 9 20 10 10 11
REMARK SMILES IDX 9 12 8 13 7 14 6 15 5 16 4 17 3 18 2 19 1 20
REMARK H PARENT
REMARK Flexibility Score: inf
ROOT
ATOM      1  C   UNL     1      80.893  59.433  10.594  1.00  0.00     0.027 C 
ENDROOT
BRANCH   1   2
ATOM      2  C   UNL     1      82.034  58.403  10.554  1.00  0.00     0.004 C 
BRANCH   2   3
ATOM      3  C   UNL     1      83.439  59.003  10.768  1.00  0.00     0.000 C 
BRANCH   3   4
ATOM      4  C   UNL     1      83.465  60.331  11.550  1.00  0.00     0.000 C 
BRANCH   4   5
ATOM      5  C   UNL     1      84.840  60.726  12.125  1.00  0.00     0.000 C 
BRANCH   5   6
ATOM      6  C   UNL     1      85.260  59.958  13.390  1.00  0.00     0.006 C 
BRANCH   6   7
ATOM      7  C   UNL     1      84.452  60.361  14.629  1.00  0.00     0.053 C 
BRANCH   7   8
ATOM      8  C   UNL     1      85.274  61.226  15.532  1.00  0.00     0.041 C 
ATOM      9  O   UNL     1      85.893  62.220  15.067  1.00  0.00    -0.550 OA
ATOM     10  O   UNL     1      85.320  60.964  16.896  1.00  0.00    -0.550 OA
ENDBRANCH   7   8
ENDBRANCH   6   7
ENDBRANCH   5   6
ENDBRANCH   4   5
ENDBRANCH   3   4
ENDBRANCH   2   3
ENDBRANCH   1   2
BRANCH   1  11
ATOM     11  C   UNL     1      79.568  58.844  10.192  1.00  0.00    -0.031 C 
ATOM     12  C   UNL     1      79.301  57.541  10.353  1.00  0.00    -0.027 C 
BRANCH  12  13
ATOM     13  C   UNL     1      77.972  56.973   9.934  1.00  0.00     0.054 C 
BRANCH  13  14
ATOM     14  C   UNL     1      77.842  56.945   8.433  1.00  0.00    -0.027 C 
ATOM     15  C   UNL     1      77.900  55.827   7.686  1.00  0.00    -0.031 C 
BRANCH  15  16
ATOM     16  C   UNL     1      78.171  54.446   8.232  1.00  0.00     0.027 C 
BRANCH  16  17
ATOM     17  C   UNL     1      79.495  53.869   7.709  1.00  0.00     0.004 C 
BRANCH  17  18
ATOM     18  C   UNL     1      80.420  53.415   8.851  1.00  0.00     0.000 C 
BRANCH  18  19
ATOM     19  C   UNL     1      81.087  54.595   9.575  1.00  0.00    -0.003 C 
ATOM     20  C   UNL     1      81.012  54.475  11.097  1.00  0.00     0.004 C 
ENDBRANCH  18  19
ENDBRANCH  17  18
ENDBRANCH  16  17
ENDBRANCH  15  16
ENDBRANCH  13  14
ENDBRANCH  12  13
ENDBRANCH   1  11
TORSDOF 14
ENDMDL
MODEL 2
REMARK VINA RESULT:    -5.670      0.915      2.071
REMARK INTER + INTRA:         -11.806
REMARK INTER:                 -10.674
REMARK INTRA:                  -1.132
REMARK UNBOUND:                -1.496
REMARK SMILES CCCCCC=CCC=CCCCCCCCC(=O)[O-]
REMARK SMILES IDX 11 1 12 2 13 3 14 4 15 5 16 6 17 7 18 8 19 9 20 10 10 11
REMARK SMILES IDX 9 12 8 13 7 14 6 15 5 16 4 17 3 18 2 19 1 20
REMARK H PARENT
REMARK Flexibility Score: inf
ROOT
ATOM      1  C   UNL     1      82.629  59.879  11.501  1.00  0.00     0.027 C 
ENDROOT
BRANCH   1   2
ATOM      2  C   UNL     1      83.381  60.832  10.556  1.00  0.00     0.004 C 
BRANCH   2   3
ATOM      3  C   UNL     1      84.840  61.118  10.972  1.00  0.00     0.000 C 
BRANCH   3   4
ATOM      4  C   UNL     1      85.666  59.869  11.338  1.00  0.00     0.000 C 
BRANCH   4   5
ATOM      5  C   UNL     1      85.717  59.536  12.842  1.00  0.00     0.000 C 
BRANCH   5   6
ATOM      6  C   UNL     1      85.607  60.750  13.781  1.00  0.00     0.006 C 
BRANCH   6   7
ATOM      7  C   UNL     1      84.599  60.536  14.917  1.00  0.00     0.053 C 
BRANCH   7   8
ATOM      8  C   UNL     1      84.861  61.494  16.036  1.00  0.00     0.041 C 
ATOM      9  O   UNL     1      84.577  62.714  15.906  1.00  0.00    -0.550 OA
ATOM     10  O   UNL     1      85.376  61.032  17.242  1.00  0.00    -0.550 OA
ENDBRANCH   7   8
ENDBRANCH   6   7
ENDBRANCH   5   6
ENDBRANCH   4   5
ENDBRANCH   3   4
ENDBRANCH   2   3
ENDBRANCH   1   2
BRANCH   1  11
ATOM     11  C   UNL     1      81.555  59.094  10.797  1.00  0.00    -0.031 C 
ATOM     12  C   UNL     1      80.384  59.651  10.460  1.00  0.00    -0.027 C 
BRANCH  12  13
ATOM     13  C   UNL     1      79.323  58.843   9.765  1.00  0.00     0.054 C 
BRANCH  13  14
ATOM     14  C   UNL     1      79.068  57.544  10.486  1.00  0.00    -0.027 C 
ATOM     15  C   UNL     1      78.269  56.564  10.026  1.00  0.00    -0.031 C 
BRANCH  15  16
ATOM     16  C   UNL     1      77.458  56.647   8.755  1.00  0.00     0.027 C 
BRANCH  16  17
ATOM     17  C   UNL     1      78.110  55.870   7.602  1.00  0.00     0.004 C 
BRANCH  17  18
ATOM     18  C   UNL     1      78.333  54.389   7.956  1.00  0.00     0.000 C 
BRANCH  18  19
ATOM     19  C   UNL     1      79.790  53.948   7.753  1.00  0.00    -0.003 C 
ATOM     20  C   UNL     1      80.574  53.871   9.063  1.00  0.00     0.004 C 
ENDBRANCH  18  19
ENDBRANCH  17  18
ENDBRANCH  16  17
ENDBRANCH  15  16
ENDBRANCH  13  14
ENDBRANCH  12  13
ENDBRANCH   1  11
TORSDOF 14
ENDMDL
MODEL 3
REMARK VINA RESULT:    -5.574      0.921      2.453
REMARK INTER + INTRA:         -11.632
REMARK INTER:                 -10.262
REMARK INTRA:                  -1.370
REMARK UNBOUND:                -1.496
REMARK SMILES CCCCCC=CCC=CCCCCCCCC(=O)[O-]
REMARK SMILES IDX 11 1 12 2 13 3 14 4 15 5 16 6 17 7 18 8 19 9 20 10 10 11
REMARK SMILES IDX 9 12 8 13 7 14 6 15 5 16 4 17 3 18 2 19 1 20
REMARK H PARENT
REMARK Flexibility Score: inf
ROOT
ATOM      1  C   UNL     1      80.449  59.778  10.443  1.00  0.00     0.027 C 
ENDROOT
BRANCH   1   2
ATOM      2  C   UNL     1      81.754  60.536  10.149  1.00  0.00     0.004 C 
BRANCH   2   3
ATOM      3  C   UNL     1      83.037  59.756  10.506  1.00  0.00     0.000 C 
BRANCH   3   4
ATOM      4  C   UNL     1      83.608  60.052  11.907  1.00  0.00     0.000 C 
BRANCH   4   5
ATOM      5  C   UNL     1      85.109  59.745  12.081  1.00  0.00     0.000 C 
BRANCH   5   6
ATOM      6  C   UNL     1      85.662  59.992  13.495  1.00  0.00     0.006 C 
BRANCH   6   7
ATOM      7  C   UNL     1      84.658  60.699  14.414  1.00  0.00     0.053 C 
BRANCH   7   8
ATOM      8  C   UNL     1      85.374  61.464  15.481  1.00  0.00     0.041 C 
ATOM      9  O   UNL     1      85.985  62.529  15.197  1.00  0.00    -0.550 OA
ATOM     10  O   UNL     1      85.328  61.029  16.800  1.00  0.00    -0.550 OA
ENDBRANCH   7   8
ENDBRANCH   6   7
ENDBRANCH   5   6
ENDBRANCH   4   5
ENDBRANCH   3   4
ENDBRANCH   2   3
ENDBRANCH   1   2
BRANCH   1  11
ATOM     11  C   UNL     1      80.673  58.306  10.669  1.00  0.00    -0.031 C 
ATOM     12  C   UNL     1      79.650  57.451  10.792  1.00  0.00    -0.027 C 
BRANCH  12  13
ATOM     13  C   UNL     1      79.900  55.986  11.027  1.00  0.00     0.054 C 
BRANCH  13  14
ATOM     14  C   UNL     1      81.176  55.538  10.361  1.00  0.00    -0.027 C 
ATOM     15  C   UNL     1      81.235  54.653   9.350  1.00  0.00    -0.031 C 
BRANCH  15  16
ATOM     16  C   UNL     1      80.042  53.926   8.777  1.00  0.00     0.027 C 
BRANCH  16  17
ATOM     17  C   UNL     1      79.357  54.730   7.663  1.00  0.00     0.004 C 
BRANCH  17  18
ATOM     18  C   UNL     1      77.907  55.098   8.023  1.00  0.00     0.000 C 
BRANCH  18  19
ATOM     19  C   UNL     1      77.626  56.601   7.872  1.00  0.00    -0.003 C 
ATOM     20  C   UNL     1      77.797  57.094   6.435  1.00  0.00     0.004 C 
ENDBRANCH  18  19
ENDBRANCH  17  18
ENDBRANCH  16  17
ENDBRANCH  15  16
ENDBRANCH  13  14
ENDBRANCH  12  13
ENDBRANCH   1  11
TORSDOF 14
ENDMDL
MODEL 4
REMARK VINA RESULT:    -5.452      1.858      3.760
REMARK INTER + INTRA:         -11.410
REMARK INTER:                 -10.470
REMARK INTRA:                  -0.941
REMARK UNBOUND:                -1.496
REMARK SMILES CCCCCC=CCC=CCCCCCCCC(=O)[O-]
REMARK SMILES IDX 11 1 12 2 13 3 14 4 15 5 16 6 17 7 18 8 19 9 20 10 10 11
REMARK SMILES IDX 9 12 8 13 7 14 6 15 5 16 4 17 3 18 2 19 1 20
REMARK H PARENT
REMARK Flexibility Score: inf
ROOT
ATOM      1  C   UNL     1      84.249  60.081  10.553  1.00  0.00     0.027 C 
ENDROOT
BRANCH   1   2
ATOM      2  C   UNL     1      84.220  60.863  11.878  1.00  0.00     0.004 C 
BRANCH   2   3
ATOM      3  C   UNL     1      84.640  60.037  13.112  1.00  0.00     0.000 C 
BRANCH   3   4
ATOM      4  C   UNL     1      85.619  60.749  14.066  1.00  0.00     0.000 C 
BRANCH   4   5
ATOM      5  C   UNL     1      84.978  61.350  15.333  1.00  0.00     0.000 C 
BRANCH   5   6
ATOM      6  C   UNL     1      85.659  62.625  15.863  1.00  0.00     0.006 C 
BRANCH   6   7
ATOM      7  C   UNL     1      84.670  63.770  16.111  1.00  0.00     0.053 C 
BRANCH   7   8
ATOM      8  C   UNL     1      85.060  64.979  15.321  1.00  0.00     0.041 C 
ATOM      9  O   UNL     1      86.260  65.154  14.981  1.00  0.00    -0.550 OA
ATOM     10  O   UNL     1      84.091  65.890  14.917  1.00  0.00    -0.550 OA
ENDBRANCH   7   8
ENDBRANCH   6   7
ENDBRANCH   5   6
ENDBRANCH   4   5
ENDBRANCH   3   4
ENDBRANCH   2   3
ENDBRANCH   1   2
BRANCH   1  11
ATOM     11  C   UNL     1      82.994  59.282  10.325  1.00  0.00    -0.031 C 
ATOM     12  C   UNL     1      81.807  59.691  10.794  1.00  0.00    -0.027 C 
BRANCH  12  13
ATOM     13  C   UNL     1      80.568  58.870  10.562  1.00  0.00     0.054 C 
BRANCH  13  14
ATOM     14  C   UNL     1      80.869  57.395  10.644  1.00  0.00    -0.027 C 
ATOM     15  C   UNL     1      79.933  56.432  10.719  1.00  0.00    -0.031 C 
BRANCH  15  16
ATOM     16  C   UNL     1      78.447  56.687  10.801  1.00  0.00     0.027 C 
BRANCH  16  17
ATOM     17  C   UNL     1      77.790  56.721   9.413  1.00  0.00     0.004 C 
BRANCH  17  18
ATOM     18  C   UNL     1      78.024  55.417   8.630  1.00  0.00     0.000 C 
BRANCH  18  19
ATOM     19  C   UNL     1      78.271  55.664   7.134  1.00  0.00    -0.003 C 
ATOM     20  C   UNL     1      77.775  57.034   6.670  1.00  0.00     0.004 C 
ENDBRANCH  18  19
ENDBRANCH  17  18
ENDBRANCH  16  17
ENDBRANCH  15  16
ENDBRANCH  13  14
ENDBRANCH  12  13
ENDBRANCH   1  11
TORSDOF 14
ENDMDL
MODEL 5
REMARK VINA RESULT:    -5.333      4.494      6.140
REMARK INTER + INTRA:         -11.193
REMARK INTER:                 -10.194
REMARK INTRA:                  -1.000
REMARK UNBOUND:                -1.496
REMARK SMILES CCCCCC=CCC=CCCCCCCCC(=O)[O-]
REMARK SMILES IDX 11 1 12 2 13 3 14 4 15 5 16 6 17 7 18 8 19 9 20 10 10 11
REMARK SMILES IDX 9 12 8 13 7 14 6 15 5 16 4 17 3 18 2 19 1 20
REMARK H PARENT
REMARK Flexibility Score: inf
ROOT
ATOM      1  C   UNL     1      83.629  62.623   9.609  1.00  0.00     0.027 C 
ENDROOT
BRANCH   1   2
ATOM      2  C   UNL     1      85.067  62.155   9.895  1.00  0.00     0.004 C 
BRANCH   2   3
ATOM      3  C   UNL     1      86.101  62.598   8.839  1.00  0.00     0.000 C 
BRANCH   3   4
ATOM      4  C   UNL     1      86.510  64.082   8.915  1.00  0.00     0.000 C 
BRANCH   4   5
ATOM      5  C   UNL     1      86.723  64.773   7.553  1.00  0.00     0.000 C 
BRANCH   5   6
ATOM      6  C   UNL     1      88.191  65.072   7.200  1.00  0.00     0.006 C 
BRANCH   6   7
ATOM      7  C   UNL     1      89.127  64.979   8.411  1.00  0.00     0.053 C 
BRANCH   7   8
ATOM      8  C   UNL     1      90.030  63.793   8.285  1.00  0.00     0.041 C 
ATOM      9  O   UNL     1      89.761  62.875   7.465  1.00  0.00    -0.550 OA
ATOM     10  O   UNL     1      91.196  63.722   9.038  1.00  0.00    -0.550 OA
ENDBRANCH   7   8
ENDBRANCH   6   7
ENDBRANCH   5   6
ENDBRANCH   4   5
ENDBRANCH   3   4
ENDBRANCH   2   3
ENDBRANCH   1   2
BRANCH   1  11
ATOM     11  C   UNL     1      82.597  61.614  10.035  1.00  0.00    -0.031 C 
ATOM     12  C   UNL     1      82.926  60.536  10.760  1.00  0.00    -0.027 C 
BRANCH  12  13
ATOM     13  C   UNL     1      81.877  59.536  11.165  1.00  0.00     0.054 C 
BRANCH  13  14
ATOM     14  C   UNL     1      80.569  59.807  10.467  1.00  0.00    -0.027 C 
ATOM     15  C   UNL     1      79.652  58.865  10.179  1.00  0.00    -0.031 C 
BRANCH  15  16
ATOM     16  C   UNL     1      79.827  57.390  10.449  1.00  0.00     0.027 C 
BRANCH  16  17
ATOM     17  C   UNL     1      78.480  56.662  10.573  1.00  0.00     0.004 C 
BRANCH  17  18
ATOM     18  C   UNL     1      77.575  56.907   9.353  1.00  0.00     0.000 C 
BRANCH  18  19
ATOM     19  C   UNL     1      78.059  56.159   8.101  1.00  0.00    -0.003 C 
ATOM     20  C   UNL     1      77.808  56.939   6.811  1.00  0.00     0.004 C 
ENDBRANCH  18  19
ENDBRANCH  17  18
ENDBRANCH  16  17
ENDBRANCH  15  16
ENDBRANCH  13  14
ENDBRANCH  12  13
ENDBRANCH   1  11
TORSDOF 14
ENDMDL
MODEL 6
REMARK VINA RESULT:    -5.325      4.104      8.182
REMARK INTER + INTRA:         -11.180
REMARK INTER:                  -9.575
REMARK INTRA:                  -1.605
REMARK UNBOUND:                -1.496
REMARK SMILES CCCCCC=CCC=CCCCCCCCC(=O)[O-]
REMARK SMILES IDX 11 1 12 2 13 3 14 4 15 5 16 6 17 7 18 8 19 9 20 10 10 11
REMARK SMILES IDX 9 12 8 13 7 14 6 15 5 16 4 17 3 18 2 19 1 20
REMARK H PARENT
REMARK Flexibility Score: inf
ROOT
ATOM      1  C   UNL     1      78.651  56.721  10.597  1.00  0.00     0.027 C 
ENDROOT
BRANCH   1   2
ATOM      2  C   UNL     1      77.608  56.921   9.484  1.00  0.00     0.004 C 
BRANCH   2   3
ATOM      3  C   UNL     1      78.125  56.608   8.065  1.00  0.00     0.000 C 
BRANCH   3   4
ATOM      4  C   UNL     1      77.727  55.221   7.521  1.00  0.00     0.000 C 
BRANCH   4   5
ATOM      5  C   UNL     1      78.551  54.040   8.073  1.00  0.00     0.000 C 
BRANCH   5   6
ATOM      6  C   UNL     1      80.074  54.261   8.085  1.00  0.00     0.006 C 
BRANCH   6   7
ATOM      7  C   UNL     1      80.711  53.949   9.445  1.00  0.00     0.053 C 
BRANCH   7   8
ATOM      8  C   UNL     1      81.628  52.773   9.336  1.00  0.00     0.041 C 
ATOM      9  O   UNL     1      82.681  52.723  10.026  1.00  0.00    -0.550 OA
ATOM     10  O   UNL     1      81.299  51.707   8.506  1.00  0.00    -0.550 OA
ENDBRANCH   7   8
ENDBRANCH   6   7
ENDBRANCH   5   6
ENDBRANCH   4   5
ENDBRANCH   3   4
ENDBRANCH   2   3
ENDBRANCH   1   2
BRANCH   1  11
ATOM     11  C   UNL     1      79.822  57.658  10.468  1.00  0.00    -0.031 C 
ATOM     12  C   UNL     1      79.653  58.984  10.377  1.00  0.00    -0.027 C 
BRANCH  12  13
ATOM     13  C   UNL     1      80.839  59.899  10.238  1.00  0.00     0.054 C 
BRANCH  13  14
ATOM     14  C   UNL     1      81.759  59.781  11.426  1.00  0.00    -0.027 C 
ATOM     15  C   UNL     1      83.100  59.705  11.344  1.00  0.00    -0.031 C 
BRANCH  15  16
ATOM     16  C   UNL     1      83.877  59.659  10.050  1.00  0.00     0.027 C 
BRANCH  16  17
ATOM     17  C   UNL     1      85.317  60.164  10.223  1.00  0.00     0.004 C 
BRANCH  17  18
ATOM     18  C   UNL     1      85.480  61.620   9.750  1.00  0.00     0.000 C 
BRANCH  18  19
ATOM     19  C   UNL     1      84.257  62.127   8.972  1.00  0.00    -0.003 C 
ATOM     20  C   UNL     1      83.456  63.175   9.746  1.00  0.00     0.004 C 
ENDBRANCH  18  19
ENDBRANCH  17  18
ENDBRANCH  16  17
ENDBRANCH  15  16
ENDBRANCH  13  14
ENDBRANCH  12  13
ENDBRANCH   1  11
TORSDOF 14
ENDMDL
MODEL 7
REMARK VINA RESULT:    -5.293      5.282      8.278
REMARK INTER + INTRA:         -11.122
REMARK INTER:                  -9.694
REMARK INTRA:                  -1.428
REMARK UNBOUND:                -1.496
REMARK SMILES CCCCCC=CCC=CCCCCCCCC(=O)[O-]
REMARK SMILES IDX 11 1 12 2 13 3 14 4 15 5 16 6 17 7 18 8 19 9 20 10 10 11
REMARK SMILES IDX 9 12 8 13 7 14 6 15 5 16 4 17 3 18 2 19 1 20
REMARK H PARENT
REMARK Flexibility Score: inf
ROOT
ATOM      1  C   UNL     1      82.697  60.428  10.797  1.00  0.00     0.027 C 
ENDROOT
BRANCH   1   2
ATOM      2  C   UNL     1      81.391  59.703  11.167  1.00  0.00     0.004 C 
BRANCH   2   3
ATOM      3  C   UNL     1      80.253  59.881  10.141  1.00  0.00     0.000 C 
BRANCH   3   4
ATOM      4  C   UNL     1      79.270  58.697  10.050  1.00  0.00     0.000 C 
BRANCH   4   5
ATOM      5  C   UNL     1      79.872  57.319  10.392  1.00  0.00     0.000 C 
BRANCH   5   6
ATOM      6  C   UNL     1      78.903  56.132  10.244  1.00  0.00     0.006 C 
BRANCH   6   7
ATOM      7  C   UNL     1      77.678  56.466   9.383  1.00  0.00     0.053 C 
BRANCH   7   8
ATOM      8  C   UNL     1      77.856  55.940   7.994  1.00  0.00     0.041 C 
ATOM      9  O   UNL     1      77.921  54.698   7.790  1.00  0.00    -0.550 OA
ATOM     10  O   UNL     1      77.902  56.817   6.917  1.00  0.00    -0.550 OA
ENDBRANCH   7   8
ENDBRANCH   6   7
ENDBRANCH   5   6
ENDBRANCH   4   5
ENDBRANCH   3   4
ENDBRANCH   2   3
ENDBRANCH   1   2
BRANCH   1  11
ATOM     11  C   UNL     1      83.590  59.594   9.918  1.00  0.00    -0.031 C 
ATOM     12  C   UNL     1      83.685  58.266  10.071  1.00  0.00    -0.027 C 
BRANCH  12  13
ATOM     13  C   UNL     1      84.593  57.456   9.186  1.00  0.00     0.054 C 
BRANCH  13  14
ATOM     14  C   UNL     1      85.535  58.345   8.414  1.00  0.00    -0.027 C 
ATOM     15  C   UNL     1      86.797  58.623   8.790  1.00  0.00    -0.031 C 
BRANCH  15  16
ATOM     16  C   UNL     1      87.433  58.144  10.073  1.00  0.00     0.027 C 
BRANCH  16  17
ATOM     17  C   UNL     1      88.635  57.225   9.812  1.00  0.00     0.004 C 
BRANCH  17  18
ATOM     18  C   UNL     1      88.930  57.070   8.310  1.00  0.00     0.000 C 
BRANCH  18  19
ATOM     19  C   UNL     1      88.541  55.684   7.772  1.00  0.00    -0.003 C 
ATOM     20  C   UNL     1      88.038  55.729   6.329  1.00  0.00     0.004 C 
ENDBRANCH  18  19
ENDBRANCH  17  18
ENDBRANCH  16  17
ENDBRANCH  15  16
ENDBRANCH  13  14
ENDBRANCH  12  13
ENDBRANCH   1  11
TORSDOF 14
ENDMDL
MODEL 8
REMARK VINA RESULT:    -5.290      2.918      3.567
REMARK INTER + INTRA:         -11.115
REMARK INTER:                  -9.479
REMARK INTRA:                  -1.636
REMARK UNBOUND:                -1.496
REMARK SMILES CCCCCC=CCC=CCCCCCCCC(=O)[O-]
REMARK SMILES IDX 11 1 12 2 13 3 14 4 15 5 16 6 17 7 18 8 19 9 20 10 10 11
REMARK SMILES IDX 9 12 8 13 7 14 6 15 5 16 4 17 3 18 2 19 1 20
REMARK H PARENT
REMARK Flexibility Score: inf
ROOT
ATOM      1  C   UNL     1      81.010  59.938  10.368  1.00  0.00     0.027 C 
ENDROOT
BRANCH   1   2
ATOM      2  C   UNL     1      82.186  59.175  11.003  1.00  0.00     0.004 C 
BRANCH   2   3
ATOM      3  C   UNL     1      83.305  58.793  10.011  1.00  0.00     0.000 C 
BRANCH   3   4
ATOM      4  C   UNL     1      84.563  59.681  10.079  1.00  0.00     0.000 C 
BRANCH   4   5
ATOM      5  C   UNL     1      84.383  61.017  10.828  1.00  0.00     0.000 C 
BRANCH   5   6
ATOM      6  C   UNL     1      83.924  62.195   9.951  1.00  0.00     0.006 C 
BRANCH   6   7
ATOM      7  C   UNL     1      84.961  63.323   9.879  1.00  0.00     0.053 C 
BRANCH   7   8
ATOM      8  C   UNL     1      85.782  63.200   8.633  1.00  0.00     0.041 C 
ATOM      9  O   UNL     1      86.881  62.585   8.657  1.00  0.00    -0.550 OA
ATOM     10  O   UNL     1      85.311  63.722   7.435  1.00  0.00    -0.550 OA
ENDBRANCH   7   8
ENDBRANCH   6   7
ENDBRANCH   5   6
ENDBRANCH   4   5
ENDBRANCH   3   4
ENDBRANCH   2   3
ENDBRANCH   1   2
BRANCH   1  11
ATOM     11  C   UNL     1      79.746  59.122  10.327  1.00  0.00    -0.031 C 
ATOM     12  C   UNL     1      79.773  57.783  10.373  1.00  0.00    -0.027 C 
BRANCH  12  13
ATOM     13  C   UNL     1      78.497  56.989  10.320  1.00  0.00     0.054 C 
BRANCH  13  14
ATOM     14  C   UNL     1      77.877  57.046   8.948  1.00  0.00    -0.027 C 
ATOM     15  C   UNL     1      77.761  55.990   8.122  1.00  0.00    -0.031 C 
BRANCH  15  16
ATOM     16  C   UNL     1      78.295  54.609   8.418  1.00  0.00     0.027 C 
BRANCH  16  17
ATOM     17  C   UNL     1      79.719  54.413   7.878  1.00  0.00     0.004 C 
BRANCH  17  18
ATOM     18  C   UNL     1      80.576  53.538   8.809  1.00  0.00     0.000 C 
BRANCH  18  19
ATOM     19  C   UNL     1      81.008  54.280  10.083  1.00  0.00    -0.003 C 
ATOM     20  C   UNL     1      82.230  55.171   9.865  1.00  0.00     0.004 C 
ENDBRANCH  18  19
ENDBRANCH  17  18
ENDBRANCH  16  17
ENDBRANCH  15  16
ENDBRANCH  13  14
ENDBRANCH  12  13
ENDBRANCH   1  11
TORSDOF 14
ENDMDL
MODEL 9
REMARK VINA RESULT:    -5.286      3.716      5.466
REMARK INTER + INTRA:         -11.108
REMARK INTER:                  -9.653
REMARK INTRA:                  -1.455
REMARK UNBOUND:                -1.496
REMARK SMILES CCCCCC=CCC=CCCCCCCCC(=O)[O-]
REMARK SMILES IDX 11 1 12 2 13 3 14 4 15 5 16 6 17 7 18 8 19 9 20 10 10 11
REMARK SMILES IDX 9 12 8 13 7 14 6 15 5 16 4 17 3 18 2 19 1 20
REMARK H PARENT
REMARK Flexibility Score: inf
ROOT
ATOM      1  C   UNL     1      84.228  62.458   9.981  1.00  0.00     0.027 C 
ENDROOT
BRANCH   1   2
ATOM      2  C   UNL     1      84.114  63.025   8.555  1.00  0.00     0.004 C 
BRANCH   2   3
ATOM      3  C   UNL     1      85.304  62.677   7.636  1.00  0.00     0.000 C 
BRANCH   3   4
ATOM      4  C   UNL     1      86.606  62.306   8.373  1.00  0.00     0.000 C 
BRANCH   4   5
ATOM      5  C   UNL     1      87.212  60.942   7.987  1.00  0.00     0.000 C 
BRANCH   5   6
ATOM      6  C   UNL     1      86.337  59.723   8.327  1.00  0.00     0.006 C 
BRANCH   6   7
ATOM      7  C   UNL     1      86.754  59.035   9.632  1.00  0.00     0.053 C 
BRANCH   7   8
ATOM      8  C   UNL     1      87.530  57.789   9.342  1.00  0.00     0.041 C 
ATOM      9  O   UNL     1      86.933  56.739   8.984  1.00  0.00    -0.550 OA
ATOM     10  O   UNL     1      88.918  57.799   9.420  1.00  0.00    -0.550 OA
ENDBRANCH   7   8
ENDBRANCH   6   7
ENDBRANCH   5   6
ENDBRANCH   4   5
ENDBRANCH   3   4
ENDBRANCH   2   3
ENDBRANCH   1   2
BRANCH   1  11
ATOM     11  C   UNL     1      83.152  61.453  10.291  1.00  0.00    -0.031 C 
ATOM     12  C   UNL     1      83.447  60.188  10.620  1.00  0.00    -0.027 C 
BRANCH  12  13
ATOM     13  C   UNL     1      82.354  59.198  10.917  1.00  0.00     0.054 C 
BRANCH  13  14
ATOM     14  C   UNL     1      81.006  59.739  10.513  1.00  0.00    -0.027 C 
ATOM     15  C   UNL     1      79.902  58.987  10.354  1.00  0.00    -0.031 C 
BRANCH  15  16
ATOM     16  C   UNL     1      79.864  57.484  10.489  1.00  0.00     0.027 C 
BRANCH  16  17
ATOM     17  C   UNL     1      78.433  56.933  10.398  1.00  0.00     0.004 C 
BRANCH  17  18
ATOM     18  C   UNL     1      78.227  56.064   9.144  1.00  0.00     0.000 C 
BRANCH  18  19
ATOM     19  C   UNL     1      77.432  56.790   8.048  1.00  0.00    -0.003 C 
ATOM     20  C   UNL     1      78.075  56.661   6.667  1.00  0.00     0.004 C 
ENDBRANCH  18  19
ENDBRANCH  17  18
ENDBRANCH  16  17
ENDBRANCH  15  16
ENDBRANCH  13  14
ENDBRANCH  12  13
ENDBRANCH   1  11
TORSDOF 14
ENDMDL
