MODEL 1
REMARK VINA RESULT:    -6.829      0.000      0.000
REMARK INTER + INTRA:          -8.529
REMARK INTER:                  -8.226
REMARK INTRA:                  -0.303
REMARK UNBOUND:                -0.303
REMARK SMILES O=c1c(O)c(-c2ccc(O)c(O)c2)oc2cc(O)cc(O)c12
REMARK SMILES IDX 5 1 3 2 2 3 1 4 22 5 20 6 19 7 17 8 16 9 15 10 14 11 6 12
REMARK SMILES IDX 7 13 8 14 9 15 13 16 11 17 10 18 12 20 4 22 21 24 18 26
REMARK H PARENT 10 19 12 21 4 23 21 25 18 27
REMARK Flexibility Score: inf
ROOT
ATOM      1  C   UNL     1     -17.451 -17.069  20.614  1.00  0.00     0.180 A 
ATOM      2  C   UNL     1     -17.381 -17.769  19.396  1.00  0.00     0.208 A 
ATOM      3  C   UNL     1     -16.978 -19.113  19.405  1.00  0.00     0.238 A 
ATOM      4  O   UNL     1     -16.990 -19.753  18.322  1.00  0.00    -0.285 OA
ATOM      5  C   UNL     1     -16.593 -19.726  20.623  1.00  0.00     0.111 A 
ATOM      6  C   UNL     1     -16.124 -21.069  20.743  1.00  0.00     0.134 A 
ATOM      7  C   UNL     1     -15.874 -21.602  22.014  1.00  0.00     0.093 A 
ATOM      8  C   UNL     1     -16.014 -20.821  23.163  1.00  0.00     0.123 A 
ATOM      9  C   UNL     1     -16.418 -19.494  23.052  1.00  0.00     0.094 A 
ATOM     10  C   UNL     1     -16.712 -18.944  21.802  1.00  0.00     0.146 A 
ATOM     11  O   UNL     1     -17.115 -17.681  21.744  1.00  0.00    -0.452 OA
ENDROOT
BRANCH   1  12
ATOM     12  C   UNL     1     -17.881 -15.654  20.687  1.00  0.00     0.025 A 
ATOM     13  C   UNL     1     -16.954 -14.636  20.417  1.00  0.00     0.016 A 
ATOM     14  C   UNL     1     -17.331 -13.295  20.501  1.00  0.00     0.051 A 
ATOM     15  C   UNL     1     -18.634 -12.948  20.872  1.00  0.00     0.157 A 
ATOM     16  C   UNL     1     -19.185 -15.305  21.081  1.00  0.00     0.062 A 
ATOM     17  C   UNL     1     -19.566 -13.958  21.168  1.00  0.00     0.158 A 
BRANCH  15  18
ATOM     18  O   UNL     1     -18.984 -11.600  20.945  1.00  0.00    -0.504 OA
ATOM     19  H   UNL     1     -19.885 -11.296  21.290  1.00  0.00     0.293 HD
ENDBRANCH  15  18
BRANCH  17  20
ATOM     20  O   UNL     1     -20.862 -13.619  21.552  1.00  0.00    -0.504 OA
ATOM     21  H   UNL     1     -21.612 -13.538  20.875  1.00  0.00     0.293 HD
ENDBRANCH  17  20
ENDBRANCH   1  12
BRANCH   2  22
ATOM     22  O   UNL     1     -17.691 -17.123  18.196  1.00  0.00    -0.502 OA
ATOM     23  H   UNL     1     -18.451 -17.424  17.598  1.00  0.00     0.293 HD
ENDBRANCH   2  22
BRANCH   6  24
ATOM     24  O   UNL     1     -15.865 -21.910  19.655  1.00  0.00    -0.507 OA
ATOM     25  H   UNL     1     -15.296 -22.741  19.690  1.00  0.00     0.293 HD
ENDBRANCH   6  24
BRANCH   8  26
ATOM     26  O   UNL     1     -15.746 -21.355  24.422  1.00  0.00    -0.508 OA
ATOM     27  H   UNL     1     -14.800 -21.561  24.719  1.00  0.00     0.293 HD
ENDBRANCH   8  26
TORSDOF 6
ENDMDL
MODEL 2
REMARK VINA RESULT:    -6.641      1.864      3.846
REMARK INTER + INTRA:          -8.303
REMARK INTER:                  -7.983
REMARK INTRA:                  -0.320
REMARK UNBOUND:                -0.303
REMARK SMILES O=c1c(O)c(-c2ccc(O)c(O)c2)oc2cc(O)cc(O)c12
REMARK SMILES IDX 5 1 3 2 2 3 1 4 22 5 20 6 19 7 17 8 16 9 15 10 14 11 6 12
REMARK SMILES IDX 7 13 8 14 9 15 13 16 11 17 10 18 12 20 4 22 21 24 18 26
REMARK H PARENT 10 19 12 21 4 23 21 25 18 27
REMARK Flexibility Score: inf
ROOT
ATOM      1  C   UNL     1     -17.804 -16.853  19.553  1.00  0.00     0.180 A 
ATOM      2  C   UNL     1     -17.257 -17.845  20.386  1.00  0.00     0.208 A 
ATOM      3  C   UNL     1     -16.820 -19.049  19.814  1.00  0.00     0.238 A 
ATOM      4  O   UNL     1     -16.263 -19.902  20.555  1.00  0.00    -0.285 OA
ATOM      5  C   UNL     1     -16.986 -19.272  18.426  1.00  0.00     0.111 A 
ATOM      6  C   UNL     1     -16.621 -20.474  17.746  1.00  0.00     0.134 A 
ATOM      7  C   UNL     1     -16.733 -20.541  16.352  1.00  0.00     0.093 A 
ATOM      8  C   UNL     1     -17.258 -19.474  15.620  1.00  0.00     0.123 A 
ATOM      9  C   UNL     1     -17.668 -18.318  16.279  1.00  0.00     0.094 A 
ATOM     10  C   UNL     1     -17.533 -18.206  17.665  1.00  0.00     0.146 A 
ATOM     11  O   UNL     1     -17.917 -17.079  18.250  1.00  0.00    -0.452 OA
ENDROOT
BRANCH   1  12
ATOM     12  C   UNL     1     -18.274 -15.552  20.080  1.00  0.00     0.025 A 
ATOM     13  C   UNL     1     -17.357 -14.502  20.246  1.00  0.00     0.016 A 
ATOM     14  C   UNL     1     -17.774 -13.273  20.762  1.00  0.00     0.051 A 
ATOM     15  C   UNL     1     -19.107 -13.078  21.135  1.00  0.00     0.157 A 
ATOM     16  C   UNL     1     -19.610 -15.362  20.476  1.00  0.00     0.062 A 
ATOM     17  C   UNL     1     -20.031 -14.128  20.996  1.00  0.00     0.158 A 
BRANCH  15  18
ATOM     18  O   UNL     1     -19.496 -11.839  21.644  1.00  0.00    -0.504 OA
ATOM     19  H   UNL     1     -19.634 -11.684  22.635  1.00  0.00     0.293 HD
ENDBRANCH  15  18
BRANCH  17  20
ATOM     20  O   UNL     1     -21.358 -13.945  21.378  1.00  0.00    -0.504 OA
ATOM     21  H   UNL     1     -21.734 -14.376  22.215  1.00  0.00     0.293 HD
ENDBRANCH  17  20
ENDBRANCH   1  12
BRANCH   2  22
ATOM     22  O   UNL     1     -17.172 -17.636  21.766  1.00  0.00    -0.502 OA
ATOM     23  H   UNL     1     -17.541 -18.296  22.439  1.00  0.00     0.293 HD
ENDBRANCH   2  22
BRANCH   6  24
ATOM     24  O   UNL     1     -16.168 -21.632  18.389  1.00  0.00    -0.507 OA
ATOM     25  H   UNL     1     -16.736 -22.441  18.588  1.00  0.00     0.293 HD
ENDBRANCH   6  24
BRANCH   8  26
ATOM     26  O   UNL     1     -17.383 -19.556  14.235  1.00  0.00    -0.508 OA
ATOM     27  H   UNL     1     -16.646 -19.942  13.657  1.00  0.00     0.293 HD
ENDBRANCH   8  26
TORSDOF 6
ENDMDL
MODEL 3
REMARK VINA RESULT:    -6.629      2.566      7.785
REMARK INTER + INTRA:          -8.288
REMARK INTER:                  -7.957
REMARK INTRA:                  -0.331
REMARK UNBOUND:                -0.303
REMARK SMILES O=c1c(O)c(-c2ccc(O)c(O)c2)oc2cc(O)cc(O)c12
REMARK SMILES IDX 5 1 3 2 2 3 1 4 22 5 20 6 19 7 17 8 16 9 15 10 14 11 6 12
REMARK SMILES IDX 7 13 8 14 9 15 13 16 11 17 10 18 12 20 4 22 21 24 18 26
REMARK H PARENT 10 19 12 21 4 23 21 25 18 27
REMARK Flexibility Score: inf
ROOT
ATOM      1  C   UNL     1     -16.713 -19.684  23.670  1.00  0.00     0.180 A 
ATOM      2  C   UNL     1     -17.449 -19.496  24.852  1.00  0.00     0.208 A 
ATOM      3  C   UNL     1     -18.341 -18.415  24.934  1.00  0.00     0.238 A 
ATOM      4  O   UNL     1     -19.051 -18.296  25.966  1.00  0.00    -0.285 OA
ATOM      5  C   UNL     1     -18.445 -17.503  23.856  1.00  0.00     0.111 A 
ATOM      6  C   UNL     1     -19.282 -16.346  23.847  1.00  0.00     0.134 A 
ATOM      7  C   UNL     1     -19.384 -15.575  22.683  1.00  0.00     0.093 A 
ATOM      8  C   UNL     1     -18.629 -15.881  21.549  1.00  0.00     0.123 A 
ATOM      9  C   UNL     1     -17.767 -16.974  21.565  1.00  0.00     0.094 A 
ATOM     10  C   UNL     1     -17.673 -17.785  22.698  1.00  0.00     0.146 A 
ATOM     11  O   UNL     1     -16.856 -18.830  22.663  1.00  0.00    -0.452 OA
ENDROOT
BRANCH   1  12
ATOM     12  C   UNL     1     -15.764 -20.808  23.502  1.00  0.00     0.025 A 
ATOM     13  C   UNL     1     -14.406 -20.615  23.799  1.00  0.00     0.016 A 
ATOM     14  C   UNL     1     -13.490 -21.655  23.629  1.00  0.00     0.051 A 
ATOM     15  C   UNL     1     -13.910 -22.897  23.144  1.00  0.00     0.157 A 
ATOM     16  C   UNL     1     -16.183 -22.051  22.994  1.00  0.00     0.062 A 
ATOM     17  C   UNL     1     -15.263 -23.096  22.821  1.00  0.00     0.158 A 
BRANCH  15  18
ATOM     18  O   UNL     1     -12.973 -23.917  22.986  1.00  0.00    -0.504 OA
ATOM     19  H   UNL     1     -12.539 -24.116  22.093  1.00  0.00     0.293 HD
ENDBRANCH  15  18
BRANCH  17  20
ATOM     20  O   UNL     1     -15.687 -24.327  22.324  1.00  0.00    -0.504 OA
ATOM     21  H   UNL     1     -15.145 -24.838  21.637  1.00  0.00     0.293 HD
ENDBRANCH  17  20
ENDBRANCH   1  12
BRANCH   2  22
ATOM     22  O   UNL     1     -17.276 -20.363  25.934  1.00  0.00    -0.502 OA
ATOM     23  H   UNL     1     -17.817 -20.284  26.786  1.00  0.00     0.293 HD
ENDBRANCH   2  22
BRANCH   6  24
ATOM     24  O   UNL     1     -20.012 -15.899  24.954  1.00  0.00    -0.507 OA
ATOM     25  H   UNL     1     -20.556 -16.490  25.564  1.00  0.00     0.293 HD
ENDBRANCH   6  24
BRANCH   8  26
ATOM     26  O   UNL     1     -18.722 -15.097  20.401  1.00  0.00    -0.508 OA
ATOM     27  H   UNL     1     -19.130 -15.455  19.545  1.00  0.00     0.293 HD
ENDBRANCH   8  26
TORSDOF 6
ENDMDL
MODEL 4
REMARK VINA RESULT:    -6.526      3.590      5.583
REMARK INTER + INTRA:          -8.163
REMARK INTER:                  -7.871
REMARK INTRA:                  -0.292
REMARK UNBOUND:                -0.303
REMARK SMILES O=c1c(O)c(-c2ccc(O)c(O)c2)oc2cc(O)cc(O)c12
REMARK SMILES IDX 5 1 3 2 2 3 1 4 22 5 20 6 19 7 17 8 16 9 15 10 14 11 6 12
REMARK SMILES IDX 7 13 8 14 9 15 13 16 11 17 10 18 12 20 4 22 21 24 18 26
REMARK H PARENT 10 19 12 21 4 23 21 25 18 27
REMARK Flexibility Score: inf
ROOT
ATOM      1  C   UNL     1     -18.319 -18.048  24.901  1.00  0.00     0.180 A 
ATOM      2  C   UNL     1     -17.591 -18.122  26.101  1.00  0.00     0.208 A 
ATOM      3  C   UNL     1     -16.259 -18.562  26.064  1.00  0.00     0.238 A 
ATOM      4  O   UNL     1     -15.592 -18.555  27.131  1.00  0.00    -0.285 OA
ATOM      5  C   UNL     1     -15.687 -18.977  24.836  1.00  0.00     0.111 A 
ATOM      6  C   UNL     1     -14.360 -19.484  24.689  1.00  0.00     0.134 A 
ATOM      7  C   UNL     1     -13.866 -19.763  23.408  1.00  0.00     0.093 A 
ATOM      8  C   UNL     1     -14.672 -19.616  22.278  1.00  0.00     0.123 A 
ATOM      9  C   UNL     1     -15.985 -19.174  22.416  1.00  0.00     0.094 A 
ATOM     10  C   UNL     1     -16.495 -18.851  23.676  1.00  0.00     0.146 A 
ATOM     11  O   UNL     1     -17.745 -18.414  23.760  1.00  0.00    -0.452 OA
ENDROOT
BRANCH   1  12
ATOM     12  C   UNL     1     -19.723 -17.581  24.857  1.00  0.00     0.025 A 
ATOM     13  C   UNL     1     -20.756 -18.466  25.198  1.00  0.00     0.016 A 
ATOM     14  C   UNL     1     -22.089 -18.054  25.144  1.00  0.00     0.051 A 
ATOM     15  C   UNL     1     -22.412 -16.757  24.732  1.00  0.00     0.157 A 
ATOM     16  C   UNL     1     -20.050 -16.283  24.422  1.00  0.00     0.062 A 
ATOM     17  C   UNL     1     -21.389 -15.868  24.365  1.00  0.00     0.158 A 
BRANCH  15  18
ATOM     18  O   UNL     1     -23.752 -16.372  24.690  1.00  0.00    -0.504 OA
ATOM     19  H   UNL     1     -24.074 -15.606  24.112  1.00  0.00     0.293 HD
ENDBRANCH  15  18
BRANCH  17  20
ATOM     20  O   UNL     1     -21.704 -14.578  23.940  1.00  0.00    -0.504 OA
ATOM     21  H   UNL     1     -22.651 -14.319  23.690  1.00  0.00     0.293 HD
ENDBRANCH  17  20
ENDBRANCH   1  12
BRANCH   2  22
ATOM     22  O   UNL     1     -18.198 -17.781  27.313  1.00  0.00    -0.502 OA
ATOM     23  H   UNL     1     -19.157 -17.459  27.369  1.00  0.00     0.293 HD
ENDBRANCH   2  22
BRANCH   6  24
ATOM     24  O   UNL     1     -13.500 -19.753  25.759  1.00  0.00    -0.507 OA
ATOM     25  H   UNL     1     -13.262 -20.675  26.091  1.00  0.00     0.293 HD
ENDBRANCH   6  24
BRANCH   8  26
ATOM     26  O   UNL     1     -14.178 -19.913  21.009  1.00  0.00    -0.508 OA
ATOM     27  H   UNL     1     -13.191 -19.841  20.794  1.00  0.00     0.293 HD
ENDBRANCH   8  26
TORSDOF 6
ENDMDL
MODEL 5
REMARK VINA RESULT:    -6.393      2.598      7.826
REMARK INTER + INTRA:          -8.004
REMARK INTER:                  -7.682
REMARK INTRA:                  -0.322
REMARK UNBOUND:                -0.303
REMARK SMILES O=c1c(O)c(-c2ccc(O)c(O)c2)oc2cc(O)cc(O)c12
REMARK SMILES IDX 5 1 3 2 2 3 1 4 22 5 20 6 19 7 17 8 16 9 15 10 14 11 6 12
REMARK SMILES IDX 7 13 8 14 9 15 13 16 11 17 10 18 12 20 4 22 21 24 18 26
REMARK H PARENT 10 19 12 21 4 23 21 25 18 27
REMARK Flexibility Score: inf
ROOT
ATOM      1  C   UNL     1     -16.600 -19.601  23.709  1.00  0.00     0.180 A 
ATOM      2  C   UNL     1     -17.416 -19.485  24.848  1.00  0.00     0.208 A 
ATOM      3  C   UNL     1     -18.389 -18.474  24.888  1.00  0.00     0.238 A 
ATOM      4  O   UNL     1     -19.164 -18.424  25.878  1.00  0.00    -0.285 OA
ATOM      5  C   UNL     1     -18.497 -17.556  23.815  1.00  0.00     0.111 A 
ATOM      6  C   UNL     1     -19.417 -16.464  23.770  1.00  0.00     0.134 A 
ATOM      7  C   UNL     1     -19.507 -15.685  22.610  1.00  0.00     0.093 A 
ATOM      8  C   UNL     1     -18.667 -15.918  21.519  1.00  0.00     0.123 A 
ATOM      9  C   UNL     1     -17.729 -16.945  21.575  1.00  0.00     0.094 A 
ATOM     10  C   UNL     1     -17.640 -17.764  22.703  1.00  0.00     0.146 A 
ATOM     11  O   UNL     1     -16.747 -18.745  22.705  1.00  0.00    -0.452 OA
ENDROOT
BRANCH   1  12
ATOM     12  C   UNL     1     -15.562 -20.650  23.586  1.00  0.00     0.025 A 
ATOM     13  C   UNL     1     -15.898 -21.893  23.030  1.00  0.00     0.016 A 
ATOM     14  C   UNL     1     -14.940 -22.903  22.923  1.00  0.00     0.051 A 
ATOM     15  C   UNL     1     -13.638 -22.695  23.386  1.00  0.00     0.157 A 
ATOM     16  C   UNL     1     -14.257 -20.448  24.072  1.00  0.00     0.062 A 
ATOM     17  C   UNL     1     -13.294 -21.463  23.968  1.00  0.00     0.158 A 
BRANCH  15  18
ATOM     18  O   UNL     1     -12.702 -23.722  23.265  1.00  0.00    -0.504 OA
ATOM     19  H   UNL     1     -12.821 -24.616  23.725  1.00  0.00     0.293 HD
ENDBRANCH  15  18
BRANCH  17  20
ATOM     20  O   UNL     1     -12.001 -21.253  24.444  1.00  0.00    -0.504 OA
ATOM     21  H   UNL     1     -11.186 -21.523  23.905  1.00  0.00     0.293 HD
ENDBRANCH  17  20
ENDBRANCH   1  12
BRANCH   2  22
ATOM     22  O   UNL     1     -17.242 -20.354  25.929  1.00  0.00    -0.502 OA
ATOM     23  H   UNL     1     -17.725 -20.229  26.810  1.00  0.00     0.293 HD
ENDBRANCH   2  22
BRANCH   6  24
ATOM     24  O   UNL     1     -20.241 -16.089  24.837  1.00  0.00    -0.507 OA
ATOM     25  H   UNL     1     -20.531 -16.699  25.585  1.00  0.00     0.293 HD
ENDBRANCH   6  24
BRANCH   8  26
ATOM     26  O   UNL     1     -18.752 -15.125  20.376  1.00  0.00    -0.508 OA
ATOM     27  H   UNL     1     -18.176 -14.301  20.259  1.00  0.00     0.293 HD
ENDBRANCH   8  26
TORSDOF 6
ENDMDL
MODEL 6
REMARK VINA RESULT:    -6.312      2.437      6.782
REMARK INTER + INTRA:          -7.906
REMARK INTER:                  -7.573
REMARK INTRA:                  -0.333
REMARK UNBOUND:                -0.303
REMARK SMILES O=c1c(O)c(-c2ccc(O)c(O)c2)oc2cc(O)cc(O)c12
REMARK SMILES IDX 5 1 3 2 2 3 1 4 22 5 20 6 19 7 17 8 16 9 15 10 14 11 6 12
REMARK SMILES IDX 7 13 8 14 9 15 13 16 11 17 10 18 12 20 4 22 21 24 18 26
REMARK H PARENT 10 19 12 21 4 23 21 25 18 27
REMARK Flexibility Score: inf
ROOT
ATOM      1  C   UNL     1     -16.144 -18.547  21.888  1.00  0.00     0.180 A 
ATOM      2  C   UNL     1     -16.229 -17.841  20.674  1.00  0.00     0.208 A 
ATOM      3  C   UNL     1     -17.205 -16.843  20.534  1.00  0.00     0.238 A 
ATOM      4  O   UNL     1     -17.225 -16.165  19.473  1.00  0.00    -0.285 OA
ATOM      5  C   UNL     1     -18.122 -16.600  21.585  1.00  0.00     0.111 A 
ATOM      6  C   UNL     1     -19.181 -15.643  21.534  1.00  0.00     0.134 A 
ATOM      7  C   UNL     1     -19.960 -15.414  22.675  1.00  0.00     0.093 A 
ATOM      8  C   UNL     1     -19.761 -16.152  23.843  1.00  0.00     0.123 A 
ATOM      9  C   UNL     1     -18.767 -17.126  23.885  1.00  0.00     0.094 A 
ATOM     10  C   UNL     1     -17.948 -17.351  22.777  1.00  0.00     0.146 A 
ATOM     11  O   UNL     1     -16.998 -18.274  22.867  1.00  0.00    -0.452 OA
ENDROOT
BRANCH   1  12
ATOM     12  C   UNL     1     -15.133 -19.604  22.117  1.00  0.00     0.025 A 
ATOM     13  C   UNL     1     -15.475 -20.946  21.894  1.00  0.00     0.016 A 
ATOM     14  C   UNL     1     -14.544 -21.961  22.124  1.00  0.00     0.051 A 
ATOM     15  C   UNL     1     -13.265 -21.654  22.596  1.00  0.00     0.157 A 
ATOM     16  C   UNL     1     -13.853 -19.297  22.612  1.00  0.00     0.062 A 
ATOM     17  C   UNL     1     -12.917 -20.315  22.846  1.00  0.00     0.158 A 
BRANCH  15  18
ATOM     18  O   UNL     1     -12.355 -22.688  22.814  1.00  0.00    -0.504 OA
ATOM     19  H   UNL     1     -12.202 -23.086  23.733  1.00  0.00     0.293 HD
ENDBRANCH  15  18
BRANCH  17  20
ATOM     20  O   UNL     1     -11.648 -20.003  23.330  1.00  0.00    -0.504 OA
ATOM     21  H   UNL     1     -10.832 -20.543  23.067  1.00  0.00     0.293 HD
ENDBRANCH  17  20
ENDBRANCH   1  12
BRANCH   2  22
ATOM     22  O   UNL     1     -15.363 -18.149  19.621  1.00  0.00    -0.502 OA
ATOM     23  H   UNL     1     -14.514 -18.685  19.754  1.00  0.00     0.293 HD
ENDBRANCH   2  22
BRANCH   6  24
ATOM     24  O   UNL     1     -19.524 -14.914  20.390  1.00  0.00    -0.507 OA
ATOM     25  H   UNL     1     -19.619 -15.302  19.465  1.00  0.00     0.293 HD
ENDBRANCH   6  24
BRANCH   8  26
ATOM     26  O   UNL     1     -20.553 -15.930  24.968  1.00  0.00    -0.508 OA
ATOM     27  H   UNL     1     -20.146 -15.800  25.886  1.00  0.00     0.293 HD
ENDBRANCH   8  26
TORSDOF 6
ENDMDL
MODEL 7
REMARK VINA RESULT:    -6.299     10.175     13.120
REMARK INTER + INTRA:          -7.891
REMARK INTER:                  -7.740
REMARK INTRA:                  -0.151
REMARK UNBOUND:                -0.303
REMARK SMILES O=c1c(O)c(-c2ccc(O)c(O)c2)oc2cc(O)cc(O)c12
REMARK SMILES IDX 5 1 3 2 2 3 1 4 22 5 20 6 19 7 17 8 16 9 15 10 14 11 6 12
REMARK SMILES IDX 7 13 8 14 9 15 13 16 11 17 10 18 12 20 4 22 21 24 18 26
REMARK H PARENT 10 19 12 21 4 23 21 25 18 27
REMARK Flexibility Score: inf
ROOT
ATOM      1  C   UNL     1      -9.100 -25.871  16.330  1.00  0.00     0.180 A 
ATOM      2  C   UNL     1      -8.431 -26.000  15.100  1.00  0.00     0.208 A 
ATOM      3  C   UNL     1      -7.334 -26.872  15.010  1.00  0.00     0.238 A 
ATOM      4  O   UNL     1      -6.788 -27.039  13.889  1.00  0.00    -0.285 OA
ATOM      5  C   UNL     1      -6.883 -27.561  16.163  1.00  0.00     0.111 A 
ATOM      6  C   UNL     1      -5.754 -28.434  16.197  1.00  0.00     0.134 A 
ATOM      7  C   UNL     1      -5.466 -29.144  17.369  1.00  0.00     0.093 A 
ATOM      8  C   UNL     1      -6.227 -28.963  18.526  1.00  0.00     0.123 A 
ATOM      9  C   UNL     1      -7.296 -28.072  18.519  1.00  0.00     0.094 A 
ATOM     10  C   UNL     1      -7.633 -27.378  17.355  1.00  0.00     0.146 A 
ATOM     11  O   UNL     1      -8.673 -26.555  17.386  1.00  0.00    -0.452 OA
ENDROOT
BRANCH   1  12
ATOM     12  C   UNL     1     -10.272 -24.983  16.501  1.00  0.00     0.025 A 
ATOM     13  C   UNL     1     -11.449 -25.248  15.784  1.00  0.00     0.016 A 
ATOM     14  C   UNL     1     -12.559 -24.411  15.913  1.00  0.00     0.051 A 
ATOM     15  C   UNL     1     -12.507 -23.289  16.746  1.00  0.00     0.157 A 
ATOM     16  C   UNL     1     -10.213 -23.842  17.322  1.00  0.00     0.062 A 
ATOM     17  C   UNL     1     -11.327 -23.000  17.451  1.00  0.00     0.158 A 
BRANCH  15  18
ATOM     18  O   UNL     1     -13.633 -22.473  16.857  1.00  0.00    -0.504 OA
ATOM     19  H   UNL     1     -14.110 -22.332  17.739  1.00  0.00     0.293 HD
ENDBRANCH  15  18
BRANCH  17  20
ATOM     20  O   UNL     1     -11.263 -21.875  18.272  1.00  0.00    -0.504 OA
ATOM     21  H   UNL     1     -12.101 -21.420  18.616  1.00  0.00     0.293 HD
ENDBRANCH  17  20
ENDBRANCH   1  12
BRANCH   2  22
ATOM     22  O   UNL     1      -8.844 -25.253  13.993  1.00  0.00    -0.502 OA
ATOM     23  H   UNL     1      -8.196 -24.730  13.419  1.00  0.00     0.293 HD
ENDBRANCH   2  22
BRANCH   6  24
ATOM     24  O   UNL     1      -4.875 -28.622  15.125  1.00  0.00    -0.507 OA
ATOM     25  H   UNL     1      -4.250 -29.406  15.022  1.00  0.00     0.293 HD
ENDBRANCH   6  24
BRANCH   8  26
ATOM     26  O   UNL     1      -5.921 -29.660  19.693  1.00  0.00    -0.508 OA
ATOM     27  H   UNL     1      -5.156 -30.323  19.731  1.00  0.00     0.293 HD
ENDBRANCH   8  26
TORSDOF 6
ENDMDL
MODEL 8
REMARK VINA RESULT:    -6.212      3.531      5.132
REMARK INTER + INTRA:          -7.785
REMARK INTER:                  -7.457
REMARK INTRA:                  -0.328
REMARK UNBOUND:                -0.303
REMARK SMILES O=c1c(O)c(-c2ccc(O)c(O)c2)oc2cc(O)cc(O)c12
REMARK SMILES IDX 5 1 3 2 2 3 1 4 22 5 20 6 19 7 17 8 16 9 15 10 14 11 6 12
REMARK SMILES IDX 7 13 8 14 9 15 13 16 11 17 10 18 12 20 4 22 21 24 18 26
REMARK H PARENT 10 19 12 21 4 23 21 25 18 27
REMARK Flexibility Score: inf
ROOT
ATOM      1  C   UNL     1     -17.009 -19.156  24.470  1.00  0.00     0.180 A 
ATOM      2  C   UNL     1     -15.881 -18.938  25.280  1.00  0.00     0.208 A 
ATOM      3  C   UNL     1     -14.786 -19.808  25.170  1.00  0.00     0.238 A 
ATOM      4  O   UNL     1     -13.751 -19.562  25.844  1.00  0.00    -0.285 OA
ATOM      5  C   UNL     1     -14.851 -20.919  24.294  1.00  0.00     0.111 A 
ATOM      6  C   UNL     1     -13.818 -21.891  24.136  1.00  0.00     0.134 A 
ATOM      7  C   UNL     1     -13.950 -22.888  23.161  1.00  0.00     0.093 A 
ATOM      8  C   UNL     1     -15.106 -22.986  22.384  1.00  0.00     0.123 A 
ATOM      9  C   UNL     1     -16.143 -22.075  22.568  1.00  0.00     0.094 A 
ATOM     10  C   UNL     1     -16.025 -21.047  23.506  1.00  0.00     0.146 A 
ATOM     11  O   UNL     1     -17.029 -20.188  23.634  1.00  0.00    -0.452 OA
ENDROOT
BRANCH   1  12
ATOM     12  C   UNL     1     -18.198 -18.274  24.518  1.00  0.00     0.025 A 
ATOM     13  C   UNL     1     -19.307 -18.653  25.289  1.00  0.00     0.016 A 
ATOM     14  C   UNL     1     -20.447 -17.847  25.333  1.00  0.00     0.051 A 
ATOM     15  C   UNL     1     -20.504 -16.661  24.594  1.00  0.00     0.157 A 
ATOM     16  C   UNL     1     -18.264 -17.092  23.759  1.00  0.00     0.062 A 
ATOM     17  C   UNL     1     -19.408 -16.282  23.800  1.00  0.00     0.158 A 
BRANCH  15  18
ATOM     18  O   UNL     1     -21.654 -15.875  24.659  1.00  0.00    -0.504 OA
ATOM     19  H   UNL     1     -21.881 -15.193  23.946  1.00  0.00     0.293 HD
ENDBRANCH  15  18
BRANCH  17  20
ATOM     20  O   UNL     1     -19.463 -15.109  23.050  1.00  0.00    -0.504 OA
ATOM     21  H   UNL     1     -18.623 -14.617  22.771  1.00  0.00     0.293 HD
ENDBRANCH  17  20
ENDBRANCH   1  12
BRANCH   2  22
ATOM     22  O   UNL     1     -15.866 -17.880  26.194  1.00  0.00    -0.502 OA
ATOM     23  H   UNL     1     -16.700 -17.361  26.437  1.00  0.00     0.293 HD
ENDBRANCH   2  22
BRANCH   6  24
ATOM     24  O   UNL     1     -12.660 -21.939  24.920  1.00  0.00    -0.507 OA
ATOM     25  H   UNL     1     -12.611 -21.682  25.894  1.00  0.00     0.293 HD
ENDBRANCH   6  24
BRANCH   8  26
ATOM     26  O   UNL     1     -15.237 -23.992  21.429  1.00  0.00    -0.508 OA
ATOM     27  H   UNL     1     -16.106 -24.140  20.930  1.00  0.00     0.293 HD
ENDBRANCH   8  26
TORSDOF 6
ENDMDL
MODEL 9
REMARK VINA RESULT:    -6.206      4.827      6.535
REMARK INTER + INTRA:          -7.779
REMARK INTER:                  -7.459
REMARK INTRA:                  -0.319
REMARK UNBOUND:                -0.303
REMARK SMILES O=c1c(O)c(-c2ccc(O)c(O)c2)oc2cc(O)cc(O)c12
REMARK SMILES IDX 5 1 3 2 2 3 1 4 22 5 20 6 19 7 17 8 16 9 15 10 14 11 6 12
REMARK SMILES IDX 7 13 8 14 9 15 13 16 11 17 10 18 12 20 4 22 21 24 18 26
REMARK H PARENT 10 19 12 21 4 23 21 25 18 27
REMARK Flexibility Score: inf
ROOT
ATOM      1  C   UNL     1     -17.896 -17.806  26.211  1.00  0.00     0.180 A 
ATOM      2  C   UNL     1     -16.909 -18.409  25.411  1.00  0.00     0.208 A 
ATOM      3  C   UNL     1     -15.738 -18.887  26.020  1.00  0.00     0.238 A 
ATOM      4  O   UNL     1     -14.893 -19.492  25.310  1.00  0.00    -0.285 OA
ATOM      5  C   UNL     1     -15.541 -18.706  27.411  1.00  0.00     0.111 A 
ATOM      6  C   UNL     1     -14.373 -19.110  28.125  1.00  0.00     0.134 A 
ATOM      7  C   UNL     1     -14.335 -18.976  29.519  1.00  0.00     0.093 A 
ATOM      8  C   UNL     1     -15.395 -18.393  30.216  1.00  0.00     0.123 A 
ATOM      9  C   UNL     1     -16.516 -17.946  29.522  1.00  0.00     0.094 A 
ATOM     10  C   UNL     1     -16.601 -18.100  28.136  1.00  0.00     0.146 A 
ATOM     11  O   UNL     1     -17.697 -17.680  27.517  1.00  0.00    -0.452 OA
ENDROOT
BRANCH   1  12
ATOM     12  C   UNL     1     -19.163 -17.291  25.644  1.00  0.00     0.025 A 
ATOM     13  C   UNL     1     -20.247 -18.165  25.468  1.00  0.00     0.016 A 
ATOM     14  C   UNL     1     -21.444 -17.705  24.916  1.00  0.00     0.051 A 
ATOM     15  C   UNL     1     -21.573 -16.372  24.516  1.00  0.00     0.157 A 
ATOM     16  C   UNL     1     -19.286 -15.955  25.221  1.00  0.00     0.062 A 
ATOM     17  C   UNL     1     -20.487 -15.492  24.664  1.00  0.00     0.158 A 
BRANCH  15  18
ATOM     18  O   UNL     1     -22.781 -15.940  23.970  1.00  0.00    -0.504 OA
ATOM     19  H   UNL     1     -23.365 -15.252  24.430  1.00  0.00     0.293 HD
ENDBRANCH  15  18
BRANCH  17  20
ATOM     20  O   UNL     1     -20.604 -14.165  24.254  1.00  0.00    -0.504 OA
ATOM     21  H   UNL     1     -19.881 -13.713  23.707  1.00  0.00     0.293 HD
ENDBRANCH  17  20
ENDBRANCH   1  12
BRANCH   2  22
ATOM     22  O   UNL     1     -17.088 -18.510  24.029  1.00  0.00    -0.502 OA
ATOM     23  H   UNL     1     -18.003 -18.606  23.605  1.00  0.00     0.293 HD
ENDBRANCH   2  22
BRANCH   6  24
ATOM     24  O   UNL     1     -13.221 -19.622  27.519  1.00  0.00    -0.507 OA
ATOM     25  H   UNL     1     -12.820 -19.280  26.659  1.00  0.00     0.293 HD
ENDBRANCH   6  24
BRANCH   8  26
ATOM     26  O   UNL     1     -15.341 -18.247  31.600  1.00  0.00    -0.508 OA
ATOM     27  H   UNL     1     -15.244 -17.337  32.034  1.00  0.00     0.293 HD
ENDBRANCH   8  26
TORSDOF 6
ENDMDL
