MODEL 1
REMARK VINA RESULT:     2.814      0.000      0.000
REMARK INTER + INTRA:           2.877
REMARK INTER:                   3.061
REMARK INTRA:                  -0.184
REMARK UNBOUND:                -0.184
REMARK SMILES CC(C)c1cc2c(cc1O)[C@]1(C)CCCC(C)(C)[C@@H]1CC2=O
REMARK SMILES IDX 4 1 9 2 8 3 7 4 6 5 5 6 21 7 22 8 20 9 19 10 11 11 13 12
REMARK SMILES IDX 14 13 15 14 16 15 17 16 18 17 12 18 2 19 1 20 3 21 10 22
REMARK H PARENT 10 23
REMARK Flexibility Score: inf
ROOT
ATOM      1  C   UNL     1      79.148  33.722  51.242  1.00  0.00    -0.003 A 
ATOM      2  C   UNL     1      78.809  35.055  51.580  1.00  0.00     0.119 A 
ATOM      3  C   UNL     1      77.549  35.344  52.109  1.00  0.00     0.051 A 
ATOM      4  C   UNL     1      76.606  34.331  52.395  1.00  0.00    -0.027 A 
ATOM      5  C   UNL     1      76.975  32.999  52.117  1.00  0.00     0.022 A 
ATOM      6  C   UNL     1      78.229  32.704  51.559  1.00  0.00     0.020 A 
ATOM      7  C   UNL     1      76.062  31.913  52.468  1.00  0.00     0.163 C 
ATOM      8  O   UNL     1      76.171  30.768  51.953  1.00  0.00    -0.294 OA
ATOM      9  C   UNL     1      75.044  32.176  53.512  1.00  0.00     0.086 C 
ATOM     10  C   UNL     1      74.240  33.452  53.176  1.00  0.00     0.013 C 
ATOM     11  C   UNL     1      75.170  34.710  52.855  1.00  0.00    -0.003 C 
ATOM     12  C   UNL     1      75.259  35.603  54.121  1.00  0.00     0.012 C 
ATOM     13  C   UNL     1      73.900  36.124  54.627  1.00  0.00     0.001 C 
ATOM     14  C   UNL     1      72.705  35.198  54.347  1.00  0.00     0.007 C 
ATOM     15  C   UNL     1      73.083  33.699  54.250  1.00  0.00    -0.031 C 
ATOM     16  C   UNL     1      71.814  32.928  53.813  1.00  0.00     0.011 C 
ATOM     17  C   UNL     1      73.438  33.209  55.685  1.00  0.00     0.011 C 
ATOM     18  C   UNL     1      74.565  35.515  51.668  1.00  0.00     0.017 C 
ENDROOT
BRANCH   1  19
ATOM     19  C   UNL     1      80.498  33.373  50.620  1.00  0.00     0.017 C 
ATOM     20  C   UNL     1      80.766  31.871  50.742  1.00  0.00     0.012 C 
ATOM     21  C   UNL     1      80.632  33.831  49.157  1.00  0.00     0.012 C 
ENDBRANCH   1  19
BRANCH   2  22
ATOM     22  O   UNL     1      79.695  36.125  51.417  1.00  0.00    -0.508 OA
ATOM     23  H   UNL     1      79.697  36.953  51.995  1.00  0.00     0.293 HD
ENDBRANCH   2  22
TORSDOF 2
ENDMDL
MODEL 2
REMARK VINA RESULT:     5.763      1.612      6.551
REMARK INTER + INTRA:           6.084
REMARK INTER:                   6.279
REMARK INTRA:                  -0.195
REMARK UNBOUND:                -0.184
REMARK SMILES CC(C)c1cc2c(cc1O)[C@]1(C)CCCC(C)(C)[C@@H]1CC2=O
REMARK SMILES IDX 4 1 9 2 8 3 7 4 6 5 5 6 21 7 22 8 20 9 19 10 11 11 13 12
REMARK SMILES IDX 14 13 15 14 16 15 17 16 18 17 12 18 2 19 1 20 3 21 10 22
REMARK H PARENT 10 23
REMARK Flexibility Score: inf
ROOT
ATOM      1  C   UNL     1      74.068  34.387  52.985  1.00  0.00    -0.003 A 
ATOM      2  C   UNL     1      74.374  33.125  53.549  1.00  0.00     0.119 A 
ATOM      3  C   UNL     1      75.598  32.512  53.269  1.00  0.00     0.051 A 
ATOM      4  C   UNL     1      76.592  33.145  52.490  1.00  0.00    -0.027 A 
ATOM      5  C   UNL     1      76.306  34.430  51.986  1.00  0.00     0.022 A 
ATOM      6  C   UNL     1      75.067  35.040  52.240  1.00  0.00     0.020 A 
ATOM      7  C   UNL     1      77.333  35.154  51.240  1.00  0.00     0.163 C 
ATOM      8  O   UNL     1      77.044  36.125  50.491  1.00  0.00    -0.294 OA
ATOM      9  C   UNL     1      78.747  34.761  51.451  1.00  0.00     0.086 C 
ATOM     10  C   UNL     1      78.921  33.239  51.247  1.00  0.00     0.013 C 
ATOM     11  C   UNL     1      77.881  32.372  52.093  1.00  0.00    -0.003 C 
ATOM     12  C   UNL     1      78.585  31.858  53.377  1.00  0.00     0.012 C 
ATOM     13  C   UNL     1      79.832  30.993  53.116  1.00  0.00     0.001 C 
ATOM     14  C   UNL     1      80.602  31.337  51.829  1.00  0.00     0.007 C 
ATOM     15  C   UNL     1      80.456  32.815  51.388  1.00  0.00    -0.031 C 
ATOM     16  C   UNL     1      81.149  32.959  50.011  1.00  0.00     0.011 C 
ATOM     17  C   UNL     1      81.263  33.689  52.394  1.00  0.00     0.011 C 
ATOM     18  C   UNL     1      77.384  31.172  51.234  1.00  0.00     0.017 C 
ENDROOT
BRANCH   1  19
ATOM     19  C   UNL     1      72.723  35.068  53.230  1.00  0.00     0.017 C 
ATOM     20  C   UNL     1      72.705  35.723  54.613  1.00  0.00     0.012 C 
ATOM     21  C   UNL     1      72.348  36.088  52.141  1.00  0.00     0.012 C 
ENDBRANCH   1  19
BRANCH   2  22
ATOM     22  O   UNL     1      73.498  32.444  54.400  1.00  0.00    -0.508 OA
ATOM     23  H   UNL     1      73.487  31.441  54.520  1.00  0.00     0.293 HD
ENDBRANCH   2  22
TORSDOF 2
ENDMDL
