MODEL 1
REMARK VINA RESULT:    -5.218      0.000      0.000
REMARK INTER + INTRA:          -6.722
REMARK INTER:                  -6.286
REMARK INTRA:                  -0.436
REMARK UNBOUND:                -0.436
REMARK SMILES O=c1c(O)c(-c2ccc(O)cc2O)oc2cc(O)cc(O)c12
REMARK SMILES IDX 5 1 3 2 2 3 1 4 22 5 20 6 19 7 17 8 16 9 15 10 14 11 6 12
REMARK SMILES IDX 8 13 7 14 9 15 11 16 12 17 10 18 13 20 4 22 21 24 18 26
REMARK H PARENT 10 19 13 21 4 23 21 25 18 27
REMARK Flexibility Score: inf
ROOT
ATOM      1  C   UNL     1     -15.440 -17.549 -34.516  1.00  0.00     0.184 A 
ATOM      2  C   UNL     1     -16.158 -17.014 -33.433  1.00  0.00     0.208 A 
ATOM      3  C   UNL     1     -15.979 -15.662 -33.099  1.00  0.00     0.238 A 
ATOM      4  O   UNL     1     -16.582 -15.203 -32.093  1.00  0.00    -0.285 OA
ATOM      5  C   UNL     1     -15.101 -14.858 -33.864  1.00  0.00     0.111 A 
ATOM      6  C   UNL     1     -14.874 -13.466 -33.641  1.00  0.00     0.134 A 
ATOM      7  C   UNL     1     -13.887 -12.800 -34.378  1.00  0.00     0.093 A 
ATOM      8  C   UNL     1     -13.166 -13.460 -35.377  1.00  0.00     0.123 A 
ATOM      9  C   UNL     1     -13.422 -14.802 -35.643  1.00  0.00     0.094 A 
ATOM     10  C   UNL     1     -14.374 -15.503 -34.898  1.00  0.00     0.146 A 
ATOM     11  O   UNL     1     -14.578 -16.785 -35.177  1.00  0.00    -0.451 OA
ENDROOT
BRANCH   1  12
ATOM     12  C   UNL     1     -15.599 -18.960 -34.938  1.00  0.00     0.063 A 
ATOM     13  C   UNL     1     -16.965 -20.738 -35.887  1.00  0.00     0.047 A 
ATOM     14  C   UNL     1     -16.822 -19.414 -35.463  1.00  0.00     0.020 A 
ATOM     15  C   UNL     1     -15.889 -21.623 -35.802  1.00  0.00     0.119 A 
ATOM     16  C   UNL     1     -14.661 -21.180 -35.294  1.00  0.00     0.093 A 
ATOM     17  C   UNL     1     -14.510 -19.852 -34.864  1.00  0.00     0.130 A 
BRANCH  15  18
ATOM     18  O   UNL     1     -16.046 -22.940 -36.229  1.00  0.00    -0.508 OA
ATOM     19  H   UNL     1     -16.934 -23.421 -36.148  1.00  0.00     0.293 HD
ENDBRANCH  15  18
BRANCH  17  20
ATOM     20  O   UNL     1     -13.284 -19.424 -34.353  1.00  0.00    -0.507 OA
ATOM     21  H   UNL     1     -13.221 -18.922 -33.474  1.00  0.00     0.293 HD
ENDBRANCH  17  20
ENDBRANCH   1  12
BRANCH   2  22
ATOM     22  O   UNL     1     -17.009 -17.831 -32.684  1.00  0.00    -0.502 OA
ATOM     23  H   UNL     1     -17.500 -17.497 -31.864  1.00  0.00     0.293 HD
ENDBRANCH   2  22
BRANCH   6  24
ATOM     24  O   UNL     1     -15.603 -12.692 -32.733  1.00  0.00    -0.507 OA
ATOM     25  H   UNL     1     -15.253 -11.865 -32.273  1.00  0.00     0.293 HD
ENDBRANCH   6  24
BRANCH   8  26
ATOM     26  O   UNL     1     -12.197 -12.785 -36.117  1.00  0.00    -0.508 OA
ATOM     27  H   UNL     1     -11.240 -12.707 -35.794  1.00  0.00     0.293 HD
ENDBRANCH   8  26
TORSDOF 6
ENDMDL
MODEL 2
REMARK VINA RESULT:    -4.802      1.930      7.001
REMARK INTER + INTRA:          -6.221
REMARK INTER:                  -5.802
REMARK INTRA:                  -0.419
REMARK UNBOUND:                -0.436
REMARK SMILES O=c1c(O)c(-c2ccc(O)cc2O)oc2cc(O)cc(O)c12
REMARK SMILES IDX 5 1 3 2 2 3 1 4 22 5 20 6 19 7 17 8 16 9 15 10 14 11 6 12
REMARK SMILES IDX 8 13 7 14 9 15 11 16 12 17 10 18 13 20 4 22 21 24 18 26
REMARK H PARENT 10 19 13 21 4 23 21 25 18 27
REMARK Flexibility Score: inf
ROOT
ATOM      1  C   UNL     1     -14.432 -17.187 -35.389  1.00  0.00     0.184 A 
ATOM      2  C   UNL     1     -14.705 -17.091 -36.764  1.00  0.00     0.208 A 
ATOM      3  C   UNL     1     -14.956 -18.265 -37.492  1.00  0.00     0.238 A 
ATOM      4  O   UNL     1     -15.144 -18.177 -38.734  1.00  0.00    -0.285 OA
ATOM      5  C   UNL     1     -14.952 -19.517 -36.832  1.00  0.00     0.111 A 
ATOM      6  C   UNL     1     -15.235 -20.767 -37.462  1.00  0.00     0.134 A 
ATOM      7  C   UNL     1     -15.076 -21.956 -36.740  1.00  0.00     0.093 A 
ATOM      8  C   UNL     1     -14.710 -21.937 -35.391  1.00  0.00     0.123 A 
ATOM      9  C   UNL     1     -14.491 -20.720 -34.752  1.00  0.00     0.094 A 
ATOM     10  C   UNL     1     -14.605 -19.518 -35.456  1.00  0.00     0.146 A 
ATOM     11  O   UNL     1     -14.375 -18.382 -34.810  1.00  0.00    -0.451 OA
ENDROOT
BRANCH   1  12
ATOM     12  C   UNL     1     -14.181 -15.988 -34.556  1.00  0.00     0.063 A 
ATOM     13  C   UNL     1     -12.688 -14.222 -33.795  1.00  0.00     0.047 A 
ATOM     14  C   UNL     1     -12.918 -15.369 -34.559  1.00  0.00     0.020 A 
ATOM     15  C   UNL     1     -13.716 -13.671 -33.028  1.00  0.00     0.119 A 
ATOM     16  C   UNL     1     -14.982 -14.270 -33.027  1.00  0.00     0.093 A 
ATOM     17  C   UNL     1     -15.221 -15.423 -33.790  1.00  0.00     0.130 A 
BRANCH  15  18
ATOM     18  O   UNL     1     -13.472 -12.526 -32.272  1.00  0.00    -0.508 OA
ATOM     19  H   UNL     1     -14.081 -12.255 -31.508  1.00  0.00     0.293 HD
ENDBRANCH  15  18
BRANCH  17  20
ATOM     20  O   UNL     1     -16.484 -16.015 -33.776  1.00  0.00    -0.507 OA
ATOM     21  H   UNL     1     -16.840 -16.491 -32.953  1.00  0.00     0.293 HD
ENDBRANCH  17  20
ENDBRANCH   1  12
BRANCH   2  22
ATOM     22  O   UNL     1     -14.690 -15.844 -37.396  1.00  0.00    -0.502 OA
ATOM     23  H   UNL     1     -15.532 -15.405 -37.748  1.00  0.00     0.293 HD
ENDBRANCH   2  22
BRANCH   6  24
ATOM     24  O   UNL     1     -15.695 -20.892 -38.777  1.00  0.00    -0.507 OA
ATOM     25  H   UNL     1     -16.401 -20.306 -39.196  1.00  0.00     0.293 HD
ENDBRANCH   6  24
BRANCH   8  26
ATOM     26  O   UNL     1     -14.571 -23.125 -34.677  1.00  0.00    -0.508 OA
ATOM     27  H   UNL     1     -15.376 -23.665 -34.383  1.00  0.00     0.293 HD
ENDBRANCH   8  26
TORSDOF 6
ENDMDL
MODEL 3
REMARK VINA RESULT:    -4.702      1.604      6.821
REMARK INTER + INTRA:          -6.100
REMARK INTER:                  -5.832
REMARK INTRA:                  -0.268
REMARK UNBOUND:                -0.436
REMARK SMILES O=c1c(O)c(-c2ccc(O)cc2O)oc2cc(O)cc(O)c12
REMARK SMILES IDX 5 1 3 2 2 3 1 4 22 5 20 6 19 7 17 8 16 9 15 10 14 11 6 12
REMARK SMILES IDX 8 13 7 14 9 15 11 16 12 17 10 18 13 20 4 22 21 24 18 26
REMARK H PARENT 10 19 13 21 4 23 21 25 18 27
REMARK Flexibility Score: inf
ROOT
ATOM      1  C   UNL     1     -15.028 -18.159 -34.940  1.00  0.00     0.184 A 
ATOM      2  C   UNL     1     -16.187 -18.692 -35.531  1.00  0.00     0.208 A 
ATOM      3  C   UNL     1     -16.221 -20.058 -35.852  1.00  0.00     0.238 A 
ATOM      4  O   UNL     1     -17.240 -20.517 -36.433  1.00  0.00    -0.285 OA
ATOM      5  C   UNL     1     -15.105 -20.878 -35.560  1.00  0.00     0.111 A 
ATOM      6  C   UNL     1     -15.045 -22.283 -35.805  1.00  0.00     0.134 A 
ATOM      7  C   UNL     1     -13.843 -22.971 -35.595  1.00  0.00     0.093 A 
ATOM      8  C   UNL     1     -12.718 -22.315 -35.086  1.00  0.00     0.123 A 
ATOM      9  C   UNL     1     -12.785 -20.957 -34.788  1.00  0.00     0.094 A 
ATOM     10  C   UNL     1     -13.959 -20.237 -35.022  1.00  0.00     0.146 A 
ATOM     11  O   UNL     1     -13.975 -18.941 -34.735  1.00  0.00    -0.451 OA
ENDROOT
BRANCH   1  12
ATOM     12  C   UNL     1     -14.934 -16.732 -34.554  1.00  0.00     0.063 A 
ATOM     13  C   UNL     1     -14.004 -14.509 -34.902  1.00  0.00     0.047 A 
ATOM     14  C   UNL     1     -14.074 -15.861 -35.247  1.00  0.00     0.020 A 
ATOM     15  C   UNL     1     -14.797 -14.006 -33.869  1.00  0.00     0.119 A 
ATOM     16  C   UNL     1     -15.667 -14.860 -33.179  1.00  0.00     0.093 A 
ATOM     17  C   UNL     1     -15.741 -16.220 -33.519  1.00  0.00     0.130 A 
BRANCH  15  18
ATOM     18  O   UNL     1     -14.717 -12.655 -33.536  1.00  0.00    -0.508 OA
ATOM     19  H   UNL     1     -15.530 -12.051 -33.570  1.00  0.00     0.293 HD
ENDBRANCH  15  18
BRANCH  17  20
ATOM     20  O   UNL     1     -16.607 -17.063 -32.821  1.00  0.00    -0.507 OA
ATOM     21  H   UNL     1     -17.183 -16.721 -32.059  1.00  0.00     0.293 HD
ENDBRANCH  17  20
ENDBRANCH   1  12
BRANCH   2  22
ATOM     22  O   UNL     1     -17.272 -17.859 -35.821  1.00  0.00    -0.502 OA
ATOM     23  H   UNL     1     -18.232 -18.160 -35.709  1.00  0.00     0.293 HD
ENDBRANCH   2  22
BRANCH   6  24
ATOM     24  O   UNL     1     -16.136 -23.050 -36.227  1.00  0.00    -0.507 OA
ATOM     25  H   UNL     1     -17.091 -22.898 -35.938  1.00  0.00     0.293 HD
ENDBRANCH   6  24
BRANCH   8  26
ATOM     26  O   UNL     1     -11.531 -23.011 -34.865  1.00  0.00    -0.508 OA
ATOM     27  H   UNL     1     -11.416 -23.972 -35.163  1.00  0.00     0.293 HD
ENDBRANCH   8  26
TORSDOF 6
ENDMDL
MODEL 4
REMARK VINA RESULT:    -4.624      4.074      9.010
REMARK INTER + INTRA:          -6.007
REMARK INTER:                  -5.532
REMARK INTRA:                  -0.475
REMARK UNBOUND:                -0.436
REMARK SMILES O=c1c(O)c(-c2ccc(O)cc2O)oc2cc(O)cc(O)c12
REMARK SMILES IDX 5 1 3 2 2 3 1 4 22 5 20 6 19 7 17 8 16 9 15 10 14 11 6 12
REMARK SMILES IDX 8 13 7 14 9 15 11 16 12 17 10 18 13 20 4 22 21 24 18 26
REMARK H PARENT 10 19 13 21 4 23 21 25 18 27
REMARK Flexibility Score: inf
ROOT
ATOM      1  C   UNL     1     -13.571 -10.738 -34.736  1.00  0.00     0.184 A 
ATOM      2  C   UNL     1     -12.401 -11.511 -34.657  1.00  0.00     0.208 A 
ATOM      3  C   UNL     1     -12.484 -12.822 -34.160  1.00  0.00     0.238 A 
ATOM      4  O   UNL     1     -11.423 -13.490 -34.039  1.00  0.00    -0.285 OA
ATOM      5  C   UNL     1     -13.738 -13.348 -33.768  1.00  0.00     0.111 A 
ATOM      6  C   UNL     1     -13.945 -14.677 -33.289  1.00  0.00     0.134 A 
ATOM      7  C   UNL     1     -15.207 -15.050 -32.808  1.00  0.00     0.093 A 
ATOM      8  C   UNL     1     -16.285 -14.161 -32.852  1.00  0.00     0.123 A 
ATOM      9  C   UNL     1     -16.107 -12.883 -33.374  1.00  0.00     0.094 A 
ATOM     10  C   UNL     1     -14.851 -12.470 -33.826  1.00  0.00     0.146 A 
ATOM     11  O   UNL     1     -14.723 -11.239 -34.304  1.00  0.00    -0.451 OA
ENDROOT
BRANCH   1  12
ATOM     12  C   UNL     1     -13.560  -9.357 -35.273  1.00  0.00     0.063 A 
ATOM     13  C   UNL     1     -13.406  -7.829 -37.162  1.00  0.00     0.047 A 
ATOM     14  C   UNL     1     -13.389  -9.129 -36.651  1.00  0.00     0.020 A 
ATOM     15  C   UNL     1     -13.603  -6.741 -36.309  1.00  0.00     0.119 A 
ATOM     16  C   UNL     1     -13.788  -6.955 -34.937  1.00  0.00     0.093 A 
ATOM     17  C   UNL     1     -13.771  -8.258 -34.416  1.00  0.00     0.130 A 
BRANCH  15  18
ATOM     18  O   UNL     1     -13.618  -5.449 -36.834  1.00  0.00    -0.508 OA
ATOM     19  H   UNL     1     -13.882  -5.271 -37.795  1.00  0.00     0.293 HD
ENDBRANCH  15  18
BRANCH  17  20
ATOM     20  O   UNL     1     -13.949  -8.459 -33.047  1.00  0.00    -0.507 OA
ATOM     21  H   UNL     1     -14.037  -9.390 -32.653  1.00  0.00     0.293 HD
ENDBRANCH  17  20
ENDBRANCH   1  12
BRANCH   2  22
ATOM     22  O   UNL     1     -11.172 -10.965 -35.038  1.00  0.00    -0.502 OA
ATOM     23  H   UNL     1     -11.102 -10.119 -35.590  1.00  0.00     0.293 HD
ENDBRANCH   2  22
BRANCH   6  24
ATOM     24  O   UNL     1     -12.960 -15.669 -33.287  1.00  0.00    -0.507 OA
ATOM     25  H   UNL     1     -12.520 -16.041 -32.458  1.00  0.00     0.293 HD
ENDBRANCH   6  24
BRANCH   8  26
ATOM     26  O   UNL     1     -17.541 -14.546 -32.388  1.00  0.00    -0.508 OA
ATOM     27  H   UNL     1     -18.278 -13.870 -32.229  1.00  0.00     0.293 HD
ENDBRANCH   8  26
TORSDOF 6
ENDMDL
MODEL 5
REMARK VINA RESULT:    -4.526      1.964      6.510
REMARK INTER + INTRA:          -5.888
REMARK INTER:                  -5.634
REMARK INTRA:                  -0.253
REMARK UNBOUND:                -0.436
REMARK SMILES O=c1c(O)c(-c2ccc(O)cc2O)oc2cc(O)cc(O)c12
REMARK SMILES IDX 5 1 3 2 2 3 1 4 22 5 20 6 19 7 17 8 16 9 15 10 14 11 6 12
REMARK SMILES IDX 8 13 7 14 9 15 11 16 12 17 10 18 13 20 4 22 21 24 18 26
REMARK H PARENT 10 19 13 21 4 23 21 25 18 27
REMARK Flexibility Score: inf
ROOT
ATOM      1  C   UNL     1     -14.983 -15.644 -34.015  1.00  0.00     0.184 A 
ATOM      2  C   UNL     1     -15.851 -16.497 -33.311  1.00  0.00     0.208 A 
ATOM      3  C   UNL     1     -16.197 -17.734 -33.877  1.00  0.00     0.238 A 
ATOM      4  O   UNL     1     -17.019 -18.468 -33.267  1.00  0.00    -0.285 OA
ATOM      5  C   UNL     1     -15.656 -18.112 -35.129  1.00  0.00     0.111 A 
ATOM      6  C   UNL     1     -15.906 -19.359 -35.777  1.00  0.00     0.134 A 
ATOM      7  C   UNL     1     -15.421 -19.574 -37.073  1.00  0.00     0.093 A 
ATOM      8  C   UNL     1     -14.638 -18.612 -37.718  1.00  0.00     0.123 A 
ATOM      9  C   UNL     1     -14.339 -17.417 -37.070  1.00  0.00     0.094 A 
ATOM     10  C   UNL     1     -14.840 -17.159 -35.791  1.00  0.00     0.146 A 
ATOM     11  O   UNL     1     -14.540 -16.001 -35.215  1.00  0.00    -0.451 OA
ENDROOT
BRANCH   1  12
ATOM     12  C   UNL     1     -14.557 -14.336 -33.467  1.00  0.00     0.063 A 
ATOM     13  C   UNL     1     -12.798 -12.855 -32.667  1.00  0.00     0.047 A 
ATOM     14  C   UNL     1     -13.205 -14.098 -33.159  1.00  0.00     0.020 A 
ATOM     15  C   UNL     1     -13.730 -11.831 -32.485  1.00  0.00     0.119 A 
ATOM     16  C   UNL     1     -15.077 -12.052 -32.800  1.00  0.00     0.093 A 
ATOM     17  C   UNL     1     -15.495 -13.298 -33.293  1.00  0.00     0.130 A 
BRANCH  15  18
ATOM     18  O   UNL     1     -13.309 -10.597 -31.994  1.00  0.00    -0.508 OA
ATOM     19  H   UNL     1     -13.496  -9.736 -32.494  1.00  0.00     0.293 HD
ENDBRANCH  15  18
BRANCH  17  20
ATOM     20  O   UNL     1     -16.840 -13.508 -33.597  1.00  0.00    -0.507 OA
ATOM     21  H   UNL     1     -17.582 -13.097 -33.040  1.00  0.00     0.293 HD
ENDBRANCH  17  20
ENDBRANCH   1  12
BRANCH   2  22
ATOM     22  O   UNL     1     -16.383 -16.096 -32.082  1.00  0.00    -0.502 OA
ATOM     23  H   UNL     1     -15.904 -15.448 -31.469  1.00  0.00     0.293 HD
ENDBRANCH   2  22
BRANCH   6  24
ATOM     24  O   UNL     1     -16.598 -20.422 -35.186  1.00  0.00    -0.507 OA
ATOM     25  H   UNL     1     -16.224 -21.022 -34.467  1.00  0.00     0.293 HD
ENDBRANCH   6  24
BRANCH   8  26
ATOM     26  O   UNL     1     -14.145 -18.842 -39.001  1.00  0.00    -0.508 OA
ATOM     27  H   UNL     1     -14.044 -18.091 -39.672  1.00  0.00     0.293 HD
ENDBRANCH   8  26
TORSDOF 6
ENDMDL
MODEL 6
REMARK VINA RESULT:    -4.346      5.365     10.606
REMARK INTER + INTRA:          -5.672
REMARK INTER:                  -5.185
REMARK INTRA:                  -0.487
REMARK UNBOUND:                -0.436
REMARK SMILES O=c1c(O)c(-c2ccc(O)cc2O)oc2cc(O)cc(O)c12
REMARK SMILES IDX 5 1 3 2 2 3 1 4 22 5 20 6 19 7 17 8 16 9 15 10 14 11 6 12
REMARK SMILES IDX 8 13 7 14 9 15 11 16 12 17 10 18 13 20 4 22 21 24 18 26
REMARK H PARENT 10 19 13 21 4 23 21 25 18 27
REMARK Flexibility Score: inf
ROOT
ATOM      1  C   UNL     1     -12.710  -8.574 -33.404  1.00  0.00     0.184 A 
ATOM      2  C   UNL     1     -12.164  -9.168 -32.254  1.00  0.00     0.208 A 
ATOM      3  C   UNL     1     -12.168 -10.567 -32.143  1.00  0.00     0.238 A 
ATOM      4  O   UNL     1     -11.729 -11.091 -31.085  1.00  0.00    -0.285 OA
ATOM      5  C   UNL     1     -12.699 -11.355 -33.192  1.00  0.00     0.111 A 
ATOM      6  C   UNL     1     -12.718 -12.783 -33.204  1.00  0.00     0.134 A 
ATOM      7  C   UNL     1     -13.384 -13.456 -34.236  1.00  0.00     0.093 A 
ATOM      8  C   UNL     1     -13.975 -12.754 -35.291  1.00  0.00     0.123 A 
ATOM      9  C   UNL     1     -13.909 -11.364 -35.318  1.00  0.00     0.094 A 
ATOM     10  C   UNL     1     -13.284 -10.663 -34.284  1.00  0.00     0.146 A 
ATOM     11  O   UNL     1     -13.255  -9.337 -34.344  1.00  0.00    -0.451 OA
ENDROOT
BRANCH   1  12
ATOM     12  C   UNL     1     -12.716  -7.105 -33.597  1.00  0.00     0.063 A 
ATOM     13  C   UNL     1     -11.558  -5.052 -34.207  1.00  0.00     0.047 A 
ATOM     14  C   UNL     1     -11.547  -6.433 -33.999  1.00  0.00     0.020 A 
ATOM     15  C   UNL     1     -12.736  -4.324 -34.029  1.00  0.00     0.119 A 
ATOM     16  C   UNL     1     -13.910  -4.983 -33.642  1.00  0.00     0.093 A 
ATOM     17  C   UNL     1     -13.907  -6.370 -33.428  1.00  0.00     0.130 A 
BRANCH  15  18
ATOM     18  O   UNL     1     -12.732  -2.947 -34.241  1.00  0.00    -0.508 OA
ATOM     19  H   UNL     1     -13.553  -2.461 -34.582  1.00  0.00     0.293 HD
ENDBRANCH  15  18
BRANCH  17  20
ATOM     20  O   UNL     1     -15.080  -7.014 -33.037  1.00  0.00    -0.507 OA
ATOM     21  H   UNL     1     -15.922  -6.977 -33.602  1.00  0.00     0.293 HD
ENDBRANCH  17  20
ENDBRANCH   1  12
BRANCH   2  22
ATOM     22  O   UNL     1     -11.657  -8.368 -31.225  1.00  0.00    -0.502 OA
ATOM     23  H   UNL     1     -12.162  -7.571 -30.858  1.00  0.00     0.293 HD
ENDBRANCH   2  22
BRANCH   6  24
ATOM     24  O   UNL     1     -12.081 -13.581 -32.249  1.00  0.00    -0.507 OA
ATOM     25  H   UNL     1     -12.066 -14.589 -32.260  1.00  0.00     0.293 HD
ENDBRANCH   6  24
BRANCH   8  26
ATOM     26  O   UNL     1     -14.621 -13.433 -36.321  1.00  0.00    -0.508 OA
ATOM     27  H   UNL     1     -14.615 -14.445 -36.376  1.00  0.00     0.293 HD
ENDBRANCH   8  26
TORSDOF 6
ENDMDL
MODEL 7
REMARK VINA RESULT:    -4.320      2.462      3.652
REMARK INTER + INTRA:          -5.640
REMARK INTER:                  -5.212
REMARK INTRA:                  -0.428
REMARK UNBOUND:                -0.436
REMARK SMILES O=c1c(O)c(-c2ccc(O)cc2O)oc2cc(O)cc(O)c12
REMARK SMILES IDX 5 1 3 2 2 3 1 4 22 5 20 6 19 7 17 8 16 9 15 10 14 11 6 12
REMARK SMILES IDX 8 13 7 14 9 15 11 16 12 17 10 18 13 20 4 22 21 24 18 26
REMARK H PARENT 10 19 13 21 4 23 21 25 18 27
REMARK Flexibility Score: inf
ROOT
ATOM      1  C   UNL     1     -14.128 -15.612 -34.295  1.00  0.00     0.184 A 
ATOM      2  C   UNL     1     -12.875 -15.937 -33.749  1.00  0.00     0.208 A 
ATOM      3  C   UNL     1     -12.142 -14.940 -33.086  1.00  0.00     0.238 A 
ATOM      4  O   UNL     1     -10.995 -15.223 -32.649  1.00  0.00    -0.285 OA
ATOM      5  C   UNL     1     -12.679 -13.637 -32.960  1.00  0.00     0.111 A 
ATOM      6  C   UNL     1     -12.042 -12.559 -32.274  1.00  0.00     0.134 A 
ATOM      7  C   UNL     1     -12.607 -11.279 -32.322  1.00  0.00     0.093 A 
ATOM      8  C   UNL     1     -13.821 -11.051 -32.977  1.00  0.00     0.123 A 
ATOM      9  C   UNL     1     -14.480 -12.108 -33.598  1.00  0.00     0.094 A 
ATOM     10  C   UNL     1     -13.923 -13.390 -33.598  1.00  0.00     0.146 A 
ATOM     11  O   UNL     1     -14.579 -14.366 -34.213  1.00  0.00    -0.451 OA
ENDROOT
BRANCH   1  12
ATOM     12  C   UNL     1     -14.965 -16.621 -34.985  1.00  0.00     0.063 A 
ATOM     13  C   UNL     1     -15.399 -18.037 -36.917  1.00  0.00     0.047 A 
ATOM     14  C   UNL     1     -14.626 -17.066 -36.276  1.00  0.00     0.020 A 
ATOM     15  C   UNL     1     -16.512 -18.585 -36.277  1.00  0.00     0.119 A 
ATOM     16  C   UNL     1     -16.852 -18.161 -34.987  1.00  0.00     0.093 A 
ATOM     17  C   UNL     1     -16.082 -17.184 -34.336  1.00  0.00     0.130 A 
BRANCH  15  18
ATOM     18  O   UNL     1     -17.273 -19.554 -36.929  1.00  0.00    -0.508 OA
ATOM     19  H   UNL     1     -18.108 -19.943 -36.509  1.00  0.00     0.293 HD
ENDBRANCH  15  18
BRANCH  17  20
ATOM     20  O   UNL     1     -16.434 -16.764 -33.053  1.00  0.00    -0.507 OA
ATOM     21  H   UNL     1     -16.061 -17.215 -32.225  1.00  0.00     0.293 HD
ENDBRANCH  17  20
ENDBRANCH   1  12
BRANCH   2  22
ATOM     22  O   UNL     1     -12.359 -17.228 -33.897  1.00  0.00    -0.502 OA
ATOM     23  H   UNL     1     -12.632 -17.994 -33.294  1.00  0.00     0.293 HD
ENDBRANCH   2  22
BRANCH   6  24
ATOM     24  O   UNL     1     -10.876 -12.698 -31.514  1.00  0.00    -0.507 OA
ATOM     25  H   UNL     1     -10.855 -12.894 -30.525  1.00  0.00     0.293 HD
ENDBRANCH   6  24
BRANCH   8  26
ATOM     26  O   UNL     1     -14.384  -9.777 -33.006  1.00  0.00    -0.508 OA
ATOM     27  H   UNL     1     -15.030  -9.466 -32.291  1.00  0.00     0.293 HD
ENDBRANCH   8  26
TORSDOF 6
ENDMDL
MODEL 8
REMARK VINA RESULT:    -4.308      2.353      3.791
REMARK INTER + INTRA:          -5.625
REMARK INTER:                  -5.218
REMARK INTRA:                  -0.407
REMARK UNBOUND:                -0.436
REMARK SMILES O=c1c(O)c(-c2ccc(O)cc2O)oc2cc(O)cc(O)c12
REMARK SMILES IDX 5 1 3 2 2 3 1 4 22 5 20 6 19 7 17 8 16 9 15 10 14 11 6 12
REMARK SMILES IDX 8 13 7 14 9 15 11 16 12 17 10 18 13 20 4 22 21 24 18 26
REMARK H PARENT 10 19 13 21 4 23 21 25 18 27
REMARK Flexibility Score: inf
ROOT
ATOM      1  C   UNL     1     -14.262 -14.684 -34.261  1.00  0.00     0.184 A 
ATOM      2  C   UNL     1     -13.422 -14.294 -33.205  1.00  0.00     0.208 A 
ATOM      3  C   UNL     1     -12.994 -12.958 -33.134  1.00  0.00     0.238 A 
ATOM      4  O   UNL     1     -12.195 -12.627 -32.218  1.00  0.00    -0.285 OA
ATOM      5  C   UNL     1     -13.428 -12.027 -34.107  1.00  0.00     0.111 A 
ATOM      6  C   UNL     1     -13.090 -10.640 -34.109  1.00  0.00     0.134 A 
ATOM      7  C   UNL     1     -13.472  -9.837 -35.192  1.00  0.00     0.093 A 
ATOM      8  C   UNL     1     -14.236 -10.358 -36.240  1.00  0.00     0.123 A 
ATOM      9  C   UNL     1     -14.621 -11.695 -36.217  1.00  0.00     0.094 A 
ATOM     10  C   UNL     1     -14.224 -12.529 -35.168  1.00  0.00     0.146 A 
ATOM     11  O   UNL     1     -14.604 -13.801 -35.192  1.00  0.00    -0.451 OA
ENDROOT
BRANCH   1  12
ATOM     12  C   UNL     1     -14.770 -16.070 -34.383  1.00  0.00     0.063 A 
ATOM     13  C   UNL     1     -14.443 -18.385 -35.064  1.00  0.00     0.047 A 
ATOM     14  C   UNL     1     -13.976 -17.071 -34.973  1.00  0.00     0.020 A 
ATOM     15  C   UNL     1     -15.701 -18.720 -34.560  1.00  0.00     0.119 A 
ATOM     16  C   UNL     1     -16.495 -17.736 -33.959  1.00  0.00     0.093 A 
ATOM     17  C   UNL     1     -16.035 -16.414 -33.865  1.00  0.00     0.130 A 
BRANCH  15  18
ATOM     18  O   UNL     1     -16.153 -20.035 -34.658  1.00  0.00    -0.508 OA
ATOM     19  H   UNL     1     -16.180 -20.522 -35.546  1.00  0.00     0.293 HD
ENDBRANCH  15  18
BRANCH  17  20
ATOM     20  O   UNL     1     -16.838 -15.440 -33.269  1.00  0.00    -0.507 OA
ATOM     21  H   UNL     1     -17.481 -15.667 -32.519  1.00  0.00     0.293 HD
ENDBRANCH  17  20
ENDBRANCH   1  12
BRANCH   2  22
ATOM     22  O   UNL     1     -12.995 -15.234 -32.263  1.00  0.00    -0.502 OA
ATOM     23  H   UNL     1     -13.050 -15.067 -31.266  1.00  0.00     0.293 HD
ENDBRANCH   2  22
BRANCH   6  24
ATOM     24  O   UNL     1     -12.409 -10.000 -33.069  1.00  0.00    -0.507 OA
ATOM     25  H   UNL     1     -12.854  -9.542 -32.287  1.00  0.00     0.293 HD
ENDBRANCH   6  24
BRANCH   8  26
ATOM     26  O   UNL     1     -14.625  -9.548 -37.305  1.00  0.00    -0.508 OA
ATOM     27  H   UNL     1     -14.029  -9.412 -38.113  1.00  0.00     0.293 HD
ENDBRANCH   8  26
TORSDOF 6
ENDMDL
MODEL 9
REMARK VINA RESULT:    -4.291      1.708      3.710
REMARK INTER + INTRA:          -5.606
REMARK INTER:                  -5.259
REMARK INTRA:                  -0.346
REMARK UNBOUND:                -0.436
REMARK SMILES O=c1c(O)c(-c2ccc(O)cc2O)oc2cc(O)cc(O)c12
REMARK SMILES IDX 5 1 3 2 2 3 1 4 22 5 20 6 19 7 17 8 16 9 15 10 14 11 6 12
REMARK SMILES IDX 8 13 7 14 9 15 11 16 12 17 10 18 13 20 4 22 21 24 18 26
REMARK H PARENT 10 19 13 21 4 23 21 25 18 27
REMARK Flexibility Score: inf
ROOT
ATOM      1  C   UNL     1     -14.274 -15.669 -35.025  1.00  0.00     0.184 A 
ATOM      2  C   UNL     1     -13.805 -15.061 -36.202  1.00  0.00     0.208 A 
ATOM      3  C   UNL     1     -13.519 -13.686 -36.191  1.00  0.00     0.238 A 
ATOM      4  O   UNL     1     -13.153 -13.136 -37.263  1.00  0.00    -0.285 OA
ATOM      5  C   UNL     1     -13.686 -12.942 -34.999  1.00  0.00     0.111 A 
ATOM      6  C   UNL     1     -13.388 -11.552 -34.862  1.00  0.00     0.134 A 
ATOM      7  C   UNL     1     -13.713 -10.890 -33.671  1.00  0.00     0.093 A 
ATOM      8  C   UNL     1     -14.264 -11.582 -32.589  1.00  0.00     0.123 A 
ATOM      9  C   UNL     1     -14.503 -12.949 -32.693  1.00  0.00     0.094 A 
ATOM     10  C   UNL     1     -14.224 -13.630 -33.880  1.00  0.00     0.146 A 
ATOM     11  O   UNL     1     -14.478 -14.932 -33.939  1.00  0.00    -0.451 OA
ENDROOT
BRANCH   1  12
ATOM     12  C   UNL     1     -14.572 -17.118 -34.960  1.00  0.00     0.063 A 
ATOM     13  C   UNL     1     -13.849 -19.433 -35.180  1.00  0.00     0.047 A 
ATOM     14  C   UNL     1     -13.578 -18.065 -35.267  1.00  0.00     0.020 A 
ATOM     15  C   UNL     1     -15.110 -19.875 -34.775  1.00  0.00     0.119 A 
ATOM     16  C   UNL     1     -16.104 -18.942 -34.453  1.00  0.00     0.093 A 
ATOM     17  C   UNL     1     -15.840 -17.567 -34.540  1.00  0.00     0.130 A 
BRANCH  15  18
ATOM     18  O   UNL     1     -15.366 -21.242 -34.692  1.00  0.00    -0.508 OA
ATOM     19  H   UNL     1     -14.755 -21.865 -34.177  1.00  0.00     0.293 HD
ENDBRANCH  15  18
BRANCH  17  20
ATOM     20  O   UNL     1     -16.841 -16.647 -34.223  1.00  0.00    -0.507 OA
ATOM     21  H   UNL     1     -17.715 -16.937 -33.798  1.00  0.00     0.293 HD
ENDBRANCH  17  20
ENDBRANCH   1  12
BRANCH   2  22
ATOM     22  O   UNL     1     -13.660 -15.814 -37.370  1.00  0.00    -0.502 OA
ATOM     23  H   UNL     1     -13.385 -15.400 -38.252  1.00  0.00     0.293 HD
ENDBRANCH   2  22
BRANCH   6  24
ATOM     24  O   UNL     1     -12.755 -10.789 -35.847  1.00  0.00    -0.507 OA
ATOM     25  H   UNL     1     -12.425  -9.844 -35.718  1.00  0.00     0.293 HD
ENDBRANCH   6  24
BRANCH   8  26
ATOM     26  O   UNL     1     -14.569 -10.918 -31.403  1.00  0.00    -0.508 OA
ATOM     27  H   UNL     1     -13.925 -10.259 -30.983  1.00  0.00     0.293 HD
ENDBRANCH   8  26
TORSDOF 6
ENDMDL
