MODEL 1
REMARK VINA RESULT:    -4.382      0.000      0.000
REMARK INTER + INTRA:          -5.669
REMARK INTER:                  -5.278
REMARK INTRA:                  -0.391
REMARK UNBOUND:                -0.391
REMARK SMILES O=c1c(O)c(-c2ccc(O)cc2O)oc2cc(O)cc(O)c12
REMARK SMILES IDX 5 1 3 2 2 3 1 4 22 5 20 6 19 7 17 8 16 9 15 10 14 11 6 12
REMARK SMILES IDX 8 13 7 14 9 15 11 16 12 17 10 18 13 20 4 22 21 24 18 26
REMARK H PARENT 10 19 13 21 4 23 21 25 18 27
REMARK Flexibility Score: inf
ROOT
ATOM      1  C   UNL     1      21.224  33.833  42.921  1.00  0.00     0.184 A 
ATOM      2  C   UNL     1      22.543  33.586  43.329  1.00  0.00     0.208 A 
ATOM      3  C   UNL     1      23.026  34.215  44.487  1.00  0.00     0.238 A 
ATOM      4  O   UNL     1      24.229  34.038  44.813  1.00  0.00    -0.285 OA
ATOM      5  C   UNL     1      22.172  35.060  45.237  1.00  0.00     0.111 A 
ATOM      6  C   UNL     1      22.543  35.719  46.449  1.00  0.00     0.134 A 
ATOM      7  C   UNL     1      21.657  36.627  47.039  1.00  0.00     0.093 A 
ATOM      8  C   UNL     1      20.391  36.854  46.501  1.00  0.00     0.123 A 
ATOM      9  C   UNL     1      19.996  36.172  45.349  1.00  0.00     0.094 A 
ATOM     10  C   UNL     1      20.871  35.287  44.716  1.00  0.00     0.146 A 
ATOM     11  O   UNL     1      20.461  34.669  43.614  1.00  0.00    -0.451 OA
ENDROOT
BRANCH   1  12
ATOM     12  C   UNL     1      20.653  33.180  41.722  1.00  0.00     0.063 A 
ATOM     13  C   UNL     1      19.525  31.265  40.730  1.00  0.00     0.047 A 
ATOM     14  C   UNL     1      20.119  31.884  41.833  1.00  0.00     0.020 A 
ATOM     15  C   UNL     1      19.448  31.933  39.507  1.00  0.00     0.119 A 
ATOM     16  C   UNL     1      19.974  33.224  39.386  1.00  0.00     0.093 A 
ATOM     17  C   UNL     1      20.582  33.853  40.479  1.00  0.00     0.130 A 
BRANCH  15  18
ATOM     18  O   UNL     1      18.846  31.305  38.418  1.00  0.00    -0.508 OA
ATOM     19  H   UNL     1      17.998  30.760  38.524  1.00  0.00     0.293 HD
ENDBRANCH  15  18
BRANCH  17  20
ATOM     20  O   UNL     1      21.123  35.127  40.294  1.00  0.00    -0.507 OA
ATOM     21  H   UNL     1      21.113  35.841  41.010  1.00  0.00     0.293 HD
ENDBRANCH  17  20
ENDBRANCH   1  12
BRANCH   2  22
ATOM     22  O   UNL     1      23.362  32.744  42.571  1.00  0.00    -0.502 OA
ATOM     23  H   UNL     1      23.714  33.007  41.658  1.00  0.00     0.293 HD
ENDBRANCH   2  22
BRANCH   6  24
ATOM     24  O   UNL     1      23.749  35.497  47.121  1.00  0.00    -0.507 OA
ATOM     25  H   UNL     1      24.658  35.765  46.777  1.00  0.00     0.293 HD
ENDBRANCH   6  24
BRANCH   8  26
ATOM     26  O   UNL     1      19.529  37.753  47.125  1.00  0.00    -0.508 OA
ATOM     27  H   UNL     1      19.014  37.502  47.962  1.00  0.00     0.293 HD
ENDBRANCH   8  26
TORSDOF 6
ENDMDL
MODEL 2
REMARK VINA RESULT:    -4.321      1.117      2.860
REMARK INTER + INTRA:          -5.596
REMARK INTER:                  -5.204
REMARK INTRA:                  -0.392
REMARK UNBOUND:                -0.391
REMARK SMILES O=c1c(O)c(-c2ccc(O)cc2O)oc2cc(O)cc(O)c12
REMARK SMILES IDX 5 1 3 2 2 3 1 4 22 5 20 6 19 7 17 8 16 9 15 10 14 11 6 12
REMARK SMILES IDX 8 13 7 14 9 15 11 16 12 17 10 18 13 20 4 22 21 24 18 26
REMARK H PARENT 10 19 13 21 4 23 21 25 18 27
REMARK Flexibility Score: inf
ROOT
ATOM      1  C   UNL     1      20.292  34.176  43.056  1.00  0.00     0.184 A 
ATOM      2  C   UNL     1      19.348  35.070  43.582  1.00  0.00     0.208 A 
ATOM      3  C   UNL     1      19.674  35.805  44.732  1.00  0.00     0.238 A 
ATOM      4  O   UNL     1      18.800  36.559  45.235  1.00  0.00    -0.285 OA
ATOM      5  C   UNL     1      20.952  35.656  45.324  1.00  0.00     0.111 A 
ATOM      6  C   UNL     1      21.406  36.379  46.469  1.00  0.00     0.134 A 
ATOM      7  C   UNL     1      22.644  36.062  47.039  1.00  0.00     0.093 A 
ATOM      8  C   UNL     1      23.473  35.095  46.472  1.00  0.00     0.123 A 
ATOM      9  C   UNL     1      23.065  34.423  45.319  1.00  0.00     0.094 A 
ATOM     10  C   UNL     1      21.819  34.691  44.747  1.00  0.00     0.146 A 
ATOM     11  O   UNL     1      21.463  34.018  43.659  1.00  0.00    -0.451 OA
ENDROOT
BRANCH   1  12
ATOM     12  C   UNL     1      20.012  33.393  41.832  1.00  0.00     0.063 A 
ATOM     13  C   UNL     1      19.020  31.425  40.799  1.00  0.00     0.047 A 
ATOM     14  C   UNL     1      19.346  32.160  41.942  1.00  0.00     0.020 A 
ATOM     15  C   UNL     1      19.347  31.914  39.533  1.00  0.00     0.119 A 
ATOM     16  C   UNL     1      20.009  33.142  39.411  1.00  0.00     0.093 A 
ATOM     17  C   UNL     1      20.350  33.883  40.549  1.00  0.00     0.130 A 
BRANCH  15  18
ATOM     18  O   UNL     1      19.010  31.173  38.402  1.00  0.00    -0.508 OA
ATOM     19  H   UNL     1      19.608  31.155  37.584  1.00  0.00     0.293 HD
ENDBRANCH  15  18
BRANCH  17  20
ATOM     20  O   UNL     1      21.041  35.084  40.372  1.00  0.00    -0.507 OA
ATOM     21  H   UNL     1      21.960  35.256  40.760  1.00  0.00     0.293 HD
ENDBRANCH  17  20
ENDBRANCH   1  12
BRANCH   2  22
ATOM     22  O   UNL     1      18.095  35.199  42.975  1.00  0.00    -0.502 OA
ATOM     23  H   UNL     1      17.937  34.969  42.001  1.00  0.00     0.293 HD
ENDBRANCH   2  22
BRANCH   6  24
ATOM     24  O   UNL     1      20.696  37.428  47.062  1.00  0.00    -0.507 OA
ATOM     25  H   UNL     1      19.715  37.400  47.296  1.00  0.00     0.293 HD
ENDBRANCH   6  24
BRANCH   8  26
ATOM     26  O   UNL     1      24.706  34.816  47.058  1.00  0.00    -0.508 OA
ATOM     27  H   UNL     1      25.110  33.887  47.028  1.00  0.00     0.293 HD
ENDBRANCH   8  26
TORSDOF 6
ENDMDL
MODEL 3
REMARK VINA RESULT:    -4.286      3.344      3.733
REMARK INTER + INTRA:          -5.554
REMARK INTER:                  -5.148
REMARK INTRA:                  -0.406
REMARK UNBOUND:                -0.391
REMARK SMILES O=c1c(O)c(-c2ccc(O)cc2O)oc2cc(O)cc(O)c12
REMARK SMILES IDX 5 1 3 2 2 3 1 4 22 5 20 6 19 7 17 8 16 9 15 10 14 11 6 12
REMARK SMILES IDX 8 13 7 14 9 15 11 16 12 17 10 18 13 20 4 22 21 24 18 26
REMARK H PARENT 10 19 13 21 4 23 21 25 18 27
REMARK Flexibility Score: inf
ROOT
ATOM      1  C   UNL     1      18.592  34.454  43.392  1.00  0.00     0.184 A 
ATOM      2  C   UNL     1      19.176  33.179  43.416  1.00  0.00     0.208 A 
ATOM      3  C   UNL     1      20.352  32.984  44.158  1.00  0.00     0.238 A 
ATOM      4  O   UNL     1      20.905  31.853  44.126  1.00  0.00    -0.285 OA
ATOM      5  C   UNL     1      20.911  34.061  44.887  1.00  0.00     0.111 A 
ATOM      6  C   UNL     1      22.079  33.968  45.704  1.00  0.00     0.134 A 
ATOM      7  C   UNL     1      22.611  35.127  46.281  1.00  0.00     0.093 A 
ATOM      8  C   UNL     1      21.985  36.363  46.126  1.00  0.00     0.123 A 
ATOM      9  C   UNL     1      20.811  36.456  45.378  1.00  0.00     0.094 A 
ATOM     10  C   UNL     1      20.276  35.324  44.758  1.00  0.00     0.146 A 
ATOM     11  O   UNL     1      19.165  35.459  44.043  1.00  0.00    -0.451 OA
ENDROOT
BRANCH   1  12
ATOM     12  C   UNL     1      17.340  34.713  42.647  1.00  0.00     0.063 A 
ATOM     13  C   UNL     1      14.921  34.985  42.668  1.00  0.00     0.047 A 
ATOM     14  C   UNL     1      16.113  34.690  43.335  1.00  0.00     0.020 A 
ATOM     15  C   UNL     1      14.938  35.314  41.312  1.00  0.00     0.119 A 
ATOM     16  C   UNL     1      16.153  35.343  40.618  1.00  0.00     0.093 A 
ATOM     17  C   UNL     1      17.354  35.039  41.271  1.00  0.00     0.130 A 
BRANCH  15  18
ATOM     18  O   UNL     1      13.741  35.613  40.663  1.00  0.00    -0.508 OA
ATOM     19  H   UNL     1      13.069  34.890  40.433  1.00  0.00     0.293 HD
ENDBRANCH  15  18
BRANCH  17  20
ATOM     20  O   UNL     1      18.533  35.047  40.523  1.00  0.00    -0.507 OA
ATOM     21  H   UNL     1      18.547  35.078  39.512  1.00  0.00     0.293 HD
ENDBRANCH  17  20
ENDBRANCH   1  12
BRANCH   2  22
ATOM     22  O   UNL     1      18.600  32.133  42.690  1.00  0.00    -0.502 OA
ATOM     23  H   UNL     1      18.641  32.087  41.679  1.00  0.00     0.293 HD
ENDBRANCH   2  22
BRANCH   6  24
ATOM     24  O   UNL     1      22.732  32.768  45.999  1.00  0.00    -0.507 OA
ATOM     25  H   UNL     1      23.727  32.672  46.134  1.00  0.00     0.293 HD
ENDBRANCH   6  24
BRANCH   8  26
ATOM     26  O   UNL     1      22.534  37.494  46.729  1.00  0.00    -0.508 OA
ATOM     27  H   UNL     1      22.089  37.940  47.523  1.00  0.00     0.293 HD
ENDBRANCH   8  26
TORSDOF 6
ENDMDL
MODEL 4
REMARK VINA RESULT:    -4.166      1.489      3.240
REMARK INTER + INTRA:          -5.409
REMARK INTER:                  -5.020
REMARK INTRA:                  -0.389
REMARK UNBOUND:                -0.391
REMARK SMILES O=c1c(O)c(-c2ccc(O)cc2O)oc2cc(O)cc(O)c12
REMARK SMILES IDX 5 1 3 2 2 3 1 4 22 5 20 6 19 7 17 8 16 9 15 10 14 11 6 12
REMARK SMILES IDX 8 13 7 14 9 15 11 16 12 17 10 18 13 20 4 22 21 24 18 26
REMARK H PARENT 10 19 13 21 4 23 21 25 18 27
REMARK Flexibility Score: inf
ROOT
ATOM      1  C   UNL     1      20.801  34.010  43.146  1.00  0.00     0.184 A 
ATOM      2  C   UNL     1      20.402  35.040  44.008  1.00  0.00     0.208 A 
ATOM      3  C   UNL     1      21.244  35.405  45.070  1.00  0.00     0.238 A 
ATOM      4  O   UNL     1      20.852  36.288  45.876  1.00  0.00    -0.285 OA
ATOM      5  C   UNL     1      22.489  34.750  45.237  1.00  0.00     0.111 A 
ATOM      6  C   UNL     1      23.441  35.063  46.254  1.00  0.00     0.134 A 
ATOM      7  C   UNL     1      24.584  34.268  46.398  1.00  0.00     0.093 A 
ATOM      8  C   UNL     1      24.843  33.213  45.525  1.00  0.00     0.123 A 
ATOM      9  C   UNL     1      23.949  32.934  44.490  1.00  0.00     0.094 A 
ATOM     10  C   UNL     1      22.781  33.686  44.343  1.00  0.00     0.146 A 
ATOM     11  O   UNL     1      21.949  33.378  43.355  1.00  0.00    -0.451 OA
ENDROOT
BRANCH   1  12
ATOM     12  C   UNL     1      19.965  33.600  41.996  1.00  0.00     0.063 A 
ATOM     13  C   UNL     1      18.100  32.293  41.136  1.00  0.00     0.047 A 
ATOM     14  C   UNL     1      18.940  32.657  42.192  1.00  0.00     0.020 A 
ATOM     15  C   UNL     1      18.266  32.869  39.876  1.00  0.00     0.119 A 
ATOM     16  C   UNL     1      19.281  33.811  39.670  1.00  0.00     0.093 A 
ATOM     17  C   UNL     1      20.136  34.177  40.716  1.00  0.00     0.130 A 
BRANCH  15  18
ATOM     18  O   UNL     1      17.416  32.501  38.835  1.00  0.00    -0.508 OA
ATOM     19  H   UNL     1      16.410  32.598  38.913  1.00  0.00     0.293 HD
ENDBRANCH  15  18
BRANCH  17  20
ATOM     20  O   UNL     1      21.155  35.094  40.447  1.00  0.00    -0.507 OA
ATOM     21  H   UNL     1      21.915  34.904  39.807  1.00  0.00     0.293 HD
ENDBRANCH  17  20
ENDBRANCH   1  12
BRANCH   2  22
ATOM     22  O   UNL     1      19.169  35.672  43.817  1.00  0.00    -0.502 OA
ATOM     23  H   UNL     1      19.032  36.398  43.124  1.00  0.00     0.293 HD
ENDBRANCH   2  22
BRANCH   6  24
ATOM     24  O   UNL     1      23.324  36.152  47.124  1.00  0.00    -0.507 OA
ATOM     25  H   UNL     1      22.593  36.845  47.084  1.00  0.00     0.293 HD
ENDBRANCH   6  24
BRANCH   8  26
ATOM     26  O   UNL     1      26.000  32.453  45.688  1.00  0.00    -0.508 OA
ATOM     27  H   UNL     1      26.907  32.888  45.813  1.00  0.00     0.293 HD
ENDBRANCH   8  26
TORSDOF 6
ENDMDL
MODEL 5
REMARK VINA RESULT:    -4.030      2.896      4.146
REMARK INTER + INTRA:          -5.245
REMARK INTER:                  -4.874
REMARK INTRA:                  -0.370
REMARK UNBOUND:                -0.391
REMARK SMILES O=c1c(O)c(-c2ccc(O)cc2O)oc2cc(O)cc(O)c12
REMARK SMILES IDX 5 1 3 2 2 3 1 4 22 5 20 6 19 7 17 8 16 9 15 10 14 11 6 12
REMARK SMILES IDX 8 13 7 14 9 15 11 16 12 17 10 18 13 20 4 22 21 24 18 26
REMARK H PARENT 10 19 13 21 4 23 21 25 18 27
REMARK Flexibility Score: inf
ROOT
ATOM      1  C   UNL     1      19.383  34.778  44.185  1.00  0.00     0.184 A 
ATOM      2  C   UNL     1      19.790  35.980  44.781  1.00  0.00     0.208 A 
ATOM      3  C   UNL     1      20.981  36.003  45.523  1.00  0.00     0.238 A 
ATOM      4  O   UNL     1      21.309  37.069  46.106  1.00  0.00    -0.285 OA
ATOM      5  C   UNL     1      21.763  34.827  45.634  1.00  0.00     0.111 A 
ATOM      6  C   UNL     1      23.008  34.743  46.329  1.00  0.00     0.134 A 
ATOM      7  C   UNL     1      23.633  33.500  46.477  1.00  0.00     0.093 A 
ATOM      8  C   UNL     1      23.095  32.349  45.903  1.00  0.00     0.123 A 
ATOM      9  C   UNL     1      21.909  32.429  45.172  1.00  0.00     0.094 A 
ATOM     10  C   UNL     1      21.242  33.649  45.038  1.00  0.00     0.146 A 
ATOM     11  O   UNL     1      20.107  33.678  44.347  1.00  0.00    -0.451 OA
ENDROOT
BRANCH   1  12
ATOM     12  C   UNL     1      18.149  34.701  43.372  1.00  0.00     0.063 A 
ATOM     13  C   UNL     1      15.717  34.691  43.270  1.00  0.00     0.047 A 
ATOM     14  C   UNL     1      16.899  34.707  44.016  1.00  0.00     0.020 A 
ATOM     15  C   UNL     1      15.767  34.675  41.875  1.00  0.00     0.119 A 
ATOM     16  C   UNL     1      17.005  34.671  41.223  1.00  0.00     0.093 A 
ATOM     17  C   UNL     1      18.198  34.677  41.958  1.00  0.00     0.130 A 
BRANCH  15  18
ATOM     18  O   UNL     1      14.579  34.665  41.145  1.00  0.00    -0.508 OA
ATOM     19  H   UNL     1      14.095  35.524  40.912  1.00  0.00     0.293 HD
ENDBRANCH  15  18
BRANCH  17  20
ATOM     20  O   UNL     1      19.405  34.635  41.258  1.00  0.00    -0.507 OA
ATOM     21  H   UNL     1      20.046  35.417  41.214  1.00  0.00     0.293 HD
ENDBRANCH  17  20
ENDBRANCH   1  12
BRANCH   2  22
ATOM     22  O   UNL     1      19.000  37.126  44.651  1.00  0.00    -0.502 OA
ATOM     23  H   UNL     1      19.267  38.018  45.050  1.00  0.00     0.293 HD
ENDBRANCH   2  22
BRANCH   6  24
ATOM     24  O   UNL     1      23.679  35.847  46.864  1.00  0.00    -0.507 OA
ATOM     25  H   UNL     1      24.375  36.390  46.376  1.00  0.00     0.293 HD
ENDBRANCH   6  24
BRANCH   8  26
ATOM     26  O   UNL     1      23.753  31.130  46.057  1.00  0.00    -0.508 OA
ATOM     27  H   UNL     1      23.964  30.754  46.974  1.00  0.00     0.293 HD
ENDBRANCH   8  26
TORSDOF 6
ENDMDL
MODEL 6
REMARK VINA RESULT:    -4.018      2.993      5.182
REMARK INTER + INTRA:          -5.231
REMARK INTER:                  -4.825
REMARK INTRA:                  -0.405
REMARK UNBOUND:                -0.391
REMARK SMILES O=c1c(O)c(-c2ccc(O)cc2O)oc2cc(O)cc(O)c12
REMARK SMILES IDX 5 1 3 2 2 3 1 4 22 5 20 6 19 7 17 8 16 9 15 10 14 11 6 12
REMARK SMILES IDX 8 13 7 14 9 15 11 16 12 17 10 18 13 20 4 22 21 24 18 26
REMARK H PARENT 10 19 13 21 4 23 21 25 18 27
REMARK Flexibility Score: inf
ROOT
ATOM      1  C   UNL     1      22.883  33.806  45.585  1.00  0.00     0.184 A 
ATOM      2  C   UNL     1      23.123  34.955  46.352  1.00  0.00     0.208 A 
ATOM      3  C   UNL     1      22.143  35.958  46.402  1.00  0.00     0.238 A 
ATOM      4  O   UNL     1      22.390  37.013  47.043  1.00  0.00    -0.285 OA
ATOM      5  C   UNL     1      20.923  35.785  45.704  1.00  0.00     0.111 A 
ATOM      6  C   UNL     1      19.843  36.719  45.713  1.00  0.00     0.134 A 
ATOM      7  C   UNL     1      18.734  36.500  44.888  1.00  0.00     0.093 A 
ATOM      8  C   UNL     1      18.635  35.352  44.103  1.00  0.00     0.123 A 
ATOM      9  C   UNL     1      19.658  34.404  44.129  1.00  0.00     0.094 A 
ATOM     10  C   UNL     1      20.795  34.612  44.914  1.00  0.00     0.146 A 
ATOM     11  O   UNL     1      21.753  33.692  44.899  1.00  0.00    -0.451 OA
ENDROOT
BRANCH   1  12
ATOM     12  C   UNL     1      23.869  32.706  45.515  1.00  0.00     0.063 A 
ATOM     13  C   UNL     1      24.868  30.734  46.535  1.00  0.00     0.047 A 
ATOM     14  C   UNL     1      23.983  31.815  46.597  1.00  0.00     0.020 A 
ATOM     15  C   UNL     1      25.642  30.524  45.393  1.00  0.00     0.119 A 
ATOM     16  C   UNL     1      25.535  31.404  44.309  1.00  0.00     0.093 A 
ATOM     17  C   UNL     1      24.661  32.497  44.361  1.00  0.00     0.130 A 
BRANCH  15  18
ATOM     18  O   UNL     1      26.514  29.439  45.344  1.00  0.00    -0.508 OA
ATOM     19  H   UNL     1      26.602  28.795  46.122  1.00  0.00     0.293 HD
ENDBRANCH  15  18
BRANCH  17  20
ATOM     20  O   UNL     1      24.620  33.363  43.267  1.00  0.00    -0.507 OA
ATOM     21  H   UNL     1      25.287  34.110  43.128  1.00  0.00     0.293 HD
ENDBRANCH  17  20
ENDBRANCH   1  12
BRANCH   2  22
ATOM     22  O   UNL     1      24.335  35.097  47.035  1.00  0.00    -0.502 OA
ATOM     23  H   UNL     1      24.875  34.302  47.355  1.00  0.00     0.293 HD
ENDBRANCH   2  22
BRANCH   6  24
ATOM     24  O   UNL     1      19.799  37.854  46.529  1.00  0.00    -0.507 OA
ATOM     25  H   UNL     1      18.985  38.432  46.669  1.00  0.00     0.293 HD
ENDBRANCH   6  24
BRANCH   8  26
ATOM     26  O   UNL     1      17.508  35.159  43.305  1.00  0.00    -0.508 OA
ATOM     27  H   UNL     1      17.413  34.345  42.709  1.00  0.00     0.293 HD
ENDBRANCH   8  26
TORSDOF 6
ENDMDL
MODEL 7
REMARK VINA RESULT:    -3.983      3.743      7.306
REMARK INTER + INTRA:          -5.189
REMARK INTER:                  -4.786
REMARK INTRA:                  -0.403
REMARK UNBOUND:                -0.391
REMARK SMILES O=c1c(O)c(-c2ccc(O)cc2O)oc2cc(O)cc(O)c12
REMARK SMILES IDX 5 1 3 2 2 3 1 4 22 5 20 6 19 7 17 8 16 9 15 10 14 11 6 12
REMARK SMILES IDX 8 13 7 14 9 15 11 16 12 17 10 18 13 20 4 22 21 24 18 26
REMARK H PARENT 10 19 13 21 4 23 21 25 18 27
REMARK Flexibility Score: inf
ROOT
ATOM      1  C   UNL     1      18.298  35.264  44.676  1.00  0.00     0.184 A 
ATOM      2  C   UNL     1      17.136  35.017  45.421  1.00  0.00     0.208 A 
ATOM      3  C   UNL     1      15.932  34.769  44.743  1.00  0.00     0.238 A 
ATOM      4  O   UNL     1      14.881  34.609  45.416  1.00  0.00    -0.285 OA
ATOM      5  C   UNL     1      15.915  34.743  43.327  1.00  0.00     0.111 A 
ATOM      6  C   UNL     1      14.760  34.463  42.535  1.00  0.00     0.134 A 
ATOM      7  C   UNL     1      14.833  34.585  41.142  1.00  0.00     0.093 A 
ATOM      8  C   UNL     1      16.030  34.913  40.508  1.00  0.00     0.123 A 
ATOM      9  C   UNL     1      17.180  35.132  41.269  1.00  0.00     0.094 A 
ATOM     10  C   UNL     1      17.130  35.054  42.663  1.00  0.00     0.146 A 
ATOM     11  O   UNL     1      18.244  35.284  43.350  1.00  0.00    -0.451 OA
ENDROOT
BRANCH   1  12
ATOM     12  C   UNL     1      19.599  35.508  45.337  1.00  0.00     0.063 A 
ATOM     13  C   UNL     1      21.561  34.618  46.469  1.00  0.00     0.047 A 
ATOM     14  C   UNL     1      20.304  34.424  45.889  1.00  0.00     0.020 A 
ATOM     15  C   UNL     1      22.132  35.891  46.500  1.00  0.00     0.119 A 
ATOM     16  C   UNL     1      21.440  36.977  45.951  1.00  0.00     0.093 A 
ATOM     17  C   UNL     1      20.175  36.800  45.375  1.00  0.00     0.130 A 
BRANCH  15  18
ATOM     18  O   UNL     1      23.388  36.068  47.077  1.00  0.00    -0.508 OA
ATOM     19  H   UNL     1      23.597  35.721  48.006  1.00  0.00     0.293 HD
ENDBRANCH  15  18
BRANCH  17  20
ATOM     20  O   UNL     1      19.513  37.923  44.875  1.00  0.00    -0.507 OA
ATOM     21  H   UNL     1      19.525  38.823  45.337  1.00  0.00     0.293 HD
ENDBRANCH  17  20
ENDBRANCH   1  12
BRANCH   2  22
ATOM     22  O   UNL     1      17.183  35.045  46.818  1.00  0.00    -0.502 OA
ATOM     23  H   UNL     1      17.725  35.732  47.329  1.00  0.00     0.293 HD
ENDBRANCH   2  22
BRANCH   6  24
ATOM     24  O   UNL     1      13.536  34.038  43.061  1.00  0.00    -0.507 OA
ATOM     25  H   UNL     1      12.844  33.509  42.554  1.00  0.00     0.293 HD
ENDBRANCH   6  24
BRANCH   8  26
ATOM     26  O   UNL     1      16.070  35.010  39.118  1.00  0.00    -0.508 OA
ATOM     27  H   UNL     1      16.705  35.645  38.649  1.00  0.00     0.293 HD
ENDBRANCH   8  26
TORSDOF 6
ENDMDL
MODEL 8
REMARK VINA RESULT:    -3.637      2.098      6.733
REMARK INTER + INTRA:          -4.772
REMARK INTER:                  -4.376
REMARK INTRA:                  -0.397
REMARK UNBOUND:                -0.391
REMARK SMILES O=c1c(O)c(-c2ccc(O)cc2O)oc2cc(O)cc(O)c12
REMARK SMILES IDX 5 1 3 2 2 3 1 4 22 5 20 6 19 7 17 8 16 9 15 10 14 11 6 12
REMARK SMILES IDX 8 13 7 14 9 15 11 16 12 17 10 18 13 20 4 22 21 24 18 26
REMARK H PARENT 10 19 13 21 4 23 21 25 18 27
REMARK Flexibility Score: inf
ROOT
ATOM      1  C   UNL     1      20.097  33.837  43.426  1.00  0.00     0.184 A 
ATOM      2  C   UNL     1      20.333  33.998  42.054  1.00  0.00     0.208 A 
ATOM      3  C   UNL     1      19.753  33.092  41.152  1.00  0.00     0.238 A 
ATOM      4  O   UNL     1      20.018  33.205  39.927  1.00  0.00    -0.285 OA
ATOM      5  C   UNL     1      18.920  32.054  41.637  1.00  0.00     0.111 A 
ATOM      6  C   UNL     1      18.248  31.101  40.812  1.00  0.00     0.134 A 
ATOM      7  C   UNL     1      17.549  30.045  41.407  1.00  0.00     0.093 A 
ATOM      8  C   UNL     1      17.443  29.940  42.793  1.00  0.00     0.123 A 
ATOM      9  C   UNL     1      18.047  30.898  43.608  1.00  0.00     0.094 A 
ATOM     10  C   UNL     1      18.783  31.943  43.045  1.00  0.00     0.146 A 
ATOM     11  O   UNL     1      19.354  32.826  43.857  1.00  0.00    -0.451 OA
ENDROOT
BRANCH   1  12
ATOM     12  C   UNL     1      20.663  34.776  44.420  1.00  0.00     0.063 A 
ATOM     13  C   UNL     1      22.475  35.363  45.936  1.00  0.00     0.047 A 
ATOM     14  C   UNL     1      21.890  34.469  45.035  1.00  0.00     0.020 A 
ATOM     15  C   UNL     1      21.849  36.575  46.229  1.00  0.00     0.119 A 
ATOM     16  C   UNL     1      20.628  36.892  45.621  1.00  0.00     0.093 A 
ATOM     17  C   UNL     1      20.026  36.001  44.724  1.00  0.00     0.130 A 
BRANCH  15  18
ATOM     18  O   UNL     1      22.447  37.459  47.125  1.00  0.00    -0.508 OA
ATOM     19  H   UNL     1      22.492  38.454  46.936  1.00  0.00     0.293 HD
ENDBRANCH  15  18
BRANCH  17  20
ATOM     20  O   UNL     1      18.791  36.351  44.174  1.00  0.00    -0.507 OA
ATOM     21  H   UNL     1      17.908  36.162  44.631  1.00  0.00     0.293 HD
ENDBRANCH  17  20
ENDBRANCH   1  12
BRANCH   2  22
ATOM     22  O   UNL     1      21.157  35.034  41.604  1.00  0.00    -0.502 OA
ATOM     23  H   UNL     1      20.922  36.011  41.736  1.00  0.00     0.293 HD
ENDBRANCH   2  22
BRANCH   6  24
ATOM     24  O   UNL     1      18.214  31.164  39.415  1.00  0.00    -0.507 OA
ATOM     25  H   UNL     1      17.647  31.804  38.881  1.00  0.00     0.293 HD
ENDBRANCH   6  24
BRANCH   8  26
ATOM     26  O   UNL     1      16.725  28.884  43.351  1.00  0.00    -0.508 OA
ATOM     27  H   UNL     1      17.029  27.922  43.246  1.00  0.00     0.293 HD
ENDBRANCH   8  26
TORSDOF 6
ENDMDL
MODEL 9
REMARK VINA RESULT:    -3.625      3.131      6.124
REMARK INTER + INTRA:          -4.758
REMARK INTER:                  -4.356
REMARK INTRA:                  -0.402
REMARK UNBOUND:                -0.391
REMARK SMILES O=c1c(O)c(-c2ccc(O)cc2O)oc2cc(O)cc(O)c12
REMARK SMILES IDX 5 1 3 2 2 3 1 4 22 5 20 6 19 7 17 8 16 9 15 10 14 11 6 12
REMARK SMILES IDX 8 13 7 14 9 15 11 16 12 17 10 18 13 20 4 22 21 24 18 26
REMARK H PARENT 10 19 13 21 4 23 21 25 18 27
REMARK Flexibility Score: inf
ROOT
ATOM      1  C   UNL     1      19.889  34.045  41.785  1.00  0.00     0.184 A 
ATOM      2  C   UNL     1      20.143  34.237  40.420  1.00  0.00     0.208 A 
ATOM      3  C   UNL     1      19.112  34.714  39.595  1.00  0.00     0.238 A 
ATOM      4  O   UNL     1      19.329  34.826  38.360  1.00  0.00    -0.285 OA
ATOM      5  C   UNL     1      17.848  35.019  40.156  1.00  0.00     0.111 A 
ATOM      6  C   UNL     1      16.741  35.545  39.423  1.00  0.00     0.134 A 
ATOM      7  C   UNL     1      15.501  35.693  40.056  1.00  0.00     0.093 A 
ATOM      8  C   UNL     1      15.343  35.396  41.409  1.00  0.00     0.123 A 
ATOM      9  C   UNL     1      16.432  34.937  42.150  1.00  0.00     0.094 A 
ATOM     10  C   UNL     1      17.673  34.743  41.537  1.00  0.00     0.146 A 
ATOM     11  O   UNL     1      18.680  34.290  42.275  1.00  0.00    -0.451 OA
ENDROOT
BRANCH   1  12
ATOM     12  C   UNL     1      20.944  33.567  42.705  1.00  0.00     0.063 A 
ATOM     13  C   UNL     1      22.129  31.704  43.730  1.00  0.00     0.047 A 
ATOM     14  C   UNL     1      21.105  32.185  42.910  1.00  0.00     0.020 A 
ATOM     15  C   UNL     1      23.008  32.593  44.351  1.00  0.00     0.119 A 
ATOM     16  C   UNL     1      22.859  33.971  44.152  1.00  0.00     0.093 A 
ATOM     17  C   UNL     1      21.831  34.468  43.341  1.00  0.00     0.130 A 
BRANCH  15  18
ATOM     18  O   UNL     1      24.028  32.098  45.161  1.00  0.00    -0.508 OA
ATOM     19  H   UNL     1      24.999  32.135  44.872  1.00  0.00     0.293 HD
ENDBRANCH  15  18
BRANCH  17  20
ATOM     20  O   UNL     1      21.706  35.852  43.207  1.00  0.00    -0.507 OA
ATOM     21  H   UNL     1      21.966  36.352  42.366  1.00  0.00     0.293 HD
ENDBRANCH  17  20
ENDBRANCH   1  12
BRANCH   2  22
ATOM     22  O   UNL     1      21.402  33.931  39.894  1.00  0.00    -0.502 OA
ATOM     23  H   UNL     1      22.220  34.501  40.077  1.00  0.00     0.293 HD
ENDBRANCH   2  22
BRANCH   6  24
ATOM     24  O   UNL     1      16.813  35.959  38.089  1.00  0.00    -0.507 OA
ATOM     25  H   UNL     1      16.041  35.951  37.441  1.00  0.00     0.293 HD
ENDBRANCH   6  24
BRANCH   8  26
ATOM     26  O   UNL     1      14.098  35.571  42.011  1.00  0.00    -0.508 OA
ATOM     27  H   UNL     1      13.463  36.303  41.713  1.00  0.00     0.293 HD
ENDBRANCH   8  26
TORSDOF 6
ENDMDL
