MODEL 1
REMARK VINA RESULT:    -6.995      0.000      0.000
REMARK INTER + INTRA:          -8.590
REMARK INTER:                  -8.426
REMARK INTRA:                  -0.163
REMARK UNBOUND:                -0.163
REMARK SMILES O=c1c(O)c(-c2ccc(O)c(O)c2)oc2cc(O)cc(O)c12
REMARK SMILES IDX 5 1 3 2 2 3 1 4 22 5 20 6 19 7 17 8 16 9 15 10 14 11 6 12
REMARK SMILES IDX 7 13 8 14 9 15 13 16 11 17 10 18 12 20 4 22 21 24 18 26
REMARK H PARENT 10 19 12 21 4 23 21 25 18 27
REMARK Flexibility Score: inf
ROOT
ATOM      1  C   UNL     1      26.237  33.217   5.931  1.00  0.00     0.180 A 
ATOM      2  C   UNL     1      25.303  34.194   5.546  1.00  0.00     0.208 A 
ATOM      3  C   UNL     1      25.539  35.534   5.893  1.00  0.00     0.238 A 
ATOM      4  O   UNL     1      24.726  36.412   5.501  1.00  0.00    -0.285 OA
ATOM      5  C   UNL     1      26.696  35.878   6.634  1.00  0.00     0.111 A 
ATOM      6  C   UNL     1      27.013  37.198   7.074  1.00  0.00     0.134 A 
ATOM      7  C   UNL     1      28.249  37.443   7.687  1.00  0.00     0.093 A 
ATOM      8  C   UNL     1      29.149  36.407   7.932  1.00  0.00     0.123 A 
ATOM      9  C   UNL     1      28.823  35.102   7.560  1.00  0.00     0.094 A 
ATOM     10  C   UNL     1      27.614  34.833   6.914  1.00  0.00     0.146 A 
ATOM     11  O   UNL     1      27.345  33.579   6.566  1.00  0.00    -0.452 OA
ENDROOT
BRANCH   1  12
ATOM     12  C   UNL     1      26.046  31.781   5.623  1.00  0.00     0.025 A 
ATOM     13  C   UNL     1      27.006  31.106   4.856  1.00  0.00     0.016 A 
ATOM     14  C   UNL     1      26.856  29.748   4.571  1.00  0.00     0.051 A 
ATOM     15  C   UNL     1      25.755  29.034   5.057  1.00  0.00     0.157 A 
ATOM     16  C   UNL     1      24.952  31.062   6.133  1.00  0.00     0.062 A 
ATOM     17  C   UNL     1      24.793  29.699   5.855  1.00  0.00     0.158 A 
BRANCH  15  18
ATOM     18  O   UNL     1      25.659  27.679   4.730  1.00  0.00    -0.504 OA
ATOM     19  H   UNL     1      26.446  27.105   4.469  1.00  0.00     0.293 HD
ENDBRANCH  15  18
BRANCH  17  20
ATOM     20  O   UNL     1      23.681  29.048   6.392  1.00  0.00    -0.504 OA
ATOM     21  H   UNL     1      22.749  29.118   6.013  1.00  0.00     0.293 HD
ENDBRANCH  17  20
ENDBRANCH   1  12
BRANCH   2  22
ATOM     22  O   UNL     1      24.180  33.837   4.798  1.00  0.00    -0.502 OA
ATOM     23  H   UNL     1      23.391  34.459   4.670  1.00  0.00     0.293 HD
ENDBRANCH   2  22
BRANCH   6  24
ATOM     24  O   UNL     1      26.147  38.289   6.960  1.00  0.00    -0.507 OA
ATOM     25  H   UNL     1      26.422  39.255   7.062  1.00  0.00     0.293 HD
ENDBRANCH   6  24
BRANCH   8  26
ATOM     26  O   UNL     1      30.362  36.684   8.557  1.00  0.00    -0.508 OA
ATOM     27  H   UNL     1      31.124  37.131   8.061  1.00  0.00     0.293 HD
ENDBRANCH   8  26
TORSDOF 6
ENDMDL
MODEL 2
REMARK VINA RESULT:    -6.971      3.988      5.936
REMARK INTER + INTRA:          -8.561
REMARK INTER:                  -8.282
REMARK INTRA:                  -0.279
REMARK UNBOUND:                -0.163
REMARK SMILES O=c1c(O)c(-c2ccc(O)c(O)c2)oc2cc(O)cc(O)c12
REMARK SMILES IDX 5 1 3 2 2 3 1 4 22 5 20 6 19 7 17 8 16 9 15 10 14 11 6 12
REMARK SMILES IDX 7 13 8 14 9 15 13 16 11 17 10 18 12 20 4 22 21 24 18 26
REMARK H PARENT 10 19 12 21 4 23 21 25 18 27
REMARK Flexibility Score: inf
ROOT
ATOM      1  C   UNL     1      23.698  31.785   7.609  1.00  0.00     0.180 A 
ATOM      2  C   UNL     1      23.403  31.213   8.858  1.00  0.00     0.208 A 
ATOM      3  C   UNL     1      22.379  31.774   9.638  1.00  0.00     0.238 A 
ATOM      4  O   UNL     1      22.083  31.226  10.732  1.00  0.00    -0.285 OA
ATOM      5  C   UNL     1      21.675  32.908   9.167  1.00  0.00     0.111 A 
ATOM      6  C   UNL     1      20.646  33.583   9.892  1.00  0.00     0.134 A 
ATOM      7  C   UNL     1      19.928  34.614   9.274  1.00  0.00     0.093 A 
ATOM      8  C   UNL     1      20.243  35.038   7.984  1.00  0.00     0.123 A 
ATOM      9  C   UNL     1      21.286  34.426   7.288  1.00  0.00     0.094 A 
ATOM     10  C   UNL     1      21.997  33.370   7.864  1.00  0.00     0.146 A 
ATOM     11  O   UNL     1      22.976  32.807   7.165  1.00  0.00    -0.452 OA
ENDROOT
BRANCH   1  12
ATOM     12  C   UNL     1      24.780  31.265   6.741  1.00  0.00     0.025 A 
ATOM     13  C   UNL     1      26.022  31.914   6.723  1.00  0.00     0.016 A 
ATOM     14  C   UNL     1      27.062  31.428   5.928  1.00  0.00     0.051 A 
ATOM     15  C   UNL     1      26.888  30.280   5.148  1.00  0.00     0.157 A 
ATOM     16  C   UNL     1      24.608  30.098   5.977  1.00  0.00     0.062 A 
ATOM     17  C   UNL     1      25.645  29.602   5.178  1.00  0.00     0.158 A 
BRANCH  15  18
ATOM     18  O   UNL     1      27.963  29.851   4.368  1.00  0.00    -0.504 OA
ATOM     19  H   UNL     1      28.547  29.061   4.598  1.00  0.00     0.293 HD
ENDBRANCH  15  18
BRANCH  17  20
ATOM     20  O   UNL     1      25.404  28.439   4.443  1.00  0.00    -0.504 OA
ATOM     21  H   UNL     1      24.732  28.375   3.693  1.00  0.00     0.293 HD
ENDBRANCH  17  20
ENDBRANCH   1  12
BRANCH   2  22
ATOM     22  O   UNL     1      24.095  30.082   9.295  1.00  0.00    -0.502 OA
ATOM     23  H   UNL     1      24.581  30.050  10.183  1.00  0.00     0.293 HD
ENDBRANCH   2  22
BRANCH   6  24
ATOM     24  O   UNL     1      20.312  33.299  11.219  1.00  0.00    -0.507 OA
ATOM     25  H   UNL     1      19.371  33.167  11.560  1.00  0.00     0.293 HD
ENDBRANCH   6  24
BRANCH   8  26
ATOM     26  O   UNL     1      19.518  36.077   7.406  1.00  0.00    -0.508 OA
ATOM     27  H   UNL     1      19.887  37.019   7.358  1.00  0.00     0.293 HD
ENDBRANCH   8  26
TORSDOF 6
ENDMDL
MODEL 3
REMARK VINA RESULT:    -6.542      1.677      3.015
REMARK INTER + INTRA:          -8.044
REMARK INTER:                  -7.836
REMARK INTRA:                  -0.208
REMARK UNBOUND:                -0.163
REMARK SMILES O=c1c(O)c(-c2ccc(O)c(O)c2)oc2cc(O)cc(O)c12
REMARK SMILES IDX 5 1 3 2 2 3 1 4 22 5 20 6 19 7 17 8 16 9 15 10 14 11 6 12
REMARK SMILES IDX 7 13 8 14 9 15 13 16 11 17 10 18 12 20 4 22 21 24 18 26
REMARK H PARENT 10 19 12 21 4 23 21 25 18 27
REMARK Flexibility Score: inf
ROOT
ATOM      1  C   UNL     1      27.172  32.555   7.255  1.00  0.00     0.180 A 
ATOM      2  C   UNL     1      27.741  32.395   8.530  1.00  0.00     0.208 A 
ATOM      3  C   UNL     1      28.318  33.509   9.162  1.00  0.00     0.238 A 
ATOM      4  O   UNL     1      28.780  33.372  10.325  1.00  0.00    -0.285 OA
ATOM      5  C   UNL     1      28.333  34.762   8.504  1.00  0.00     0.111 A 
ATOM      6  C   UNL     1      28.927  35.948   9.034  1.00  0.00     0.134 A 
ATOM      7  C   UNL     1      28.767  37.163   8.355  1.00  0.00     0.093 A 
ATOM      8  C   UNL     1      28.093  37.223   7.136  1.00  0.00     0.123 A 
ATOM      9  C   UNL     1      27.560  36.060   6.580  1.00  0.00     0.094 A 
ATOM     10  C   UNL     1      27.672  34.840   7.251  1.00  0.00     0.146 A 
ATOM     11  O   UNL     1      27.141  33.757   6.693  1.00  0.00    -0.452 OA
ENDROOT
BRANCH   1  12
ATOM     12  C   UNL     1      26.567  31.423   6.516  1.00  0.00     0.025 A 
ATOM     13  C   UNL     1      27.232  30.892   5.403  1.00  0.00     0.016 A 
ATOM     14  C   UNL     1      26.689  29.812   4.704  1.00  0.00     0.051 A 
ATOM     15  C   UNL     1      25.483  29.231   5.111  1.00  0.00     0.157 A 
ATOM     16  C   UNL     1      25.367  30.828   6.942  1.00  0.00     0.062 A 
ATOM     17  C   UNL     1      24.816  29.743   6.250  1.00  0.00     0.158 A 
BRANCH  15  18
ATOM     18  O   UNL     1      24.989  28.159   4.364  1.00  0.00    -0.504 OA
ATOM     19  H   UNL     1      24.460  28.262   3.511  1.00  0.00     0.293 HD
ENDBRANCH  15  18
BRANCH  17  20
ATOM     20  O   UNL     1      23.620  29.203   6.728  1.00  0.00    -0.504 OA
ATOM     21  H   UNL     1      22.736  29.688   6.712  1.00  0.00     0.293 HD
ENDBRANCH  17  20
ENDBRANCH   1  12
BRANCH   2  22
ATOM     22  O   UNL     1      27.697  31.154   9.170  1.00  0.00    -0.502 OA
ATOM     23  H   UNL     1      28.119  30.323   8.774  1.00  0.00     0.293 HD
ENDBRANCH   2  22
BRANCH   6  24
ATOM     24  O   UNL     1      29.700  35.981  10.198  1.00  0.00    -0.507 OA
ATOM     25  H   UNL     1      29.411  36.405  11.068  1.00  0.00     0.293 HD
ENDBRANCH   6  24
BRANCH   8  26
ATOM     26  O   UNL     1      27.966  38.446   6.481  1.00  0.00    -0.508 OA
ATOM     27  H   UNL     1      27.203  39.080   6.684  1.00  0.00     0.293 HD
ENDBRANCH   8  26
TORSDOF 6
ENDMDL
MODEL 4
REMARK VINA RESULT:    -6.454      3.456      6.115
REMARK INTER + INTRA:          -7.938
REMARK INTER:                  -7.624
REMARK INTRA:                  -0.314
REMARK UNBOUND:                -0.163
REMARK SMILES O=c1c(O)c(-c2ccc(O)c(O)c2)oc2cc(O)cc(O)c12
REMARK SMILES IDX 5 1 3 2 2 3 1 4 22 5 20 6 19 7 17 8 16 9 15 10 14 11 6 12
REMARK SMILES IDX 7 13 8 14 9 15 13 16 11 17 10 18 12 20 4 22 21 24 18 26
REMARK H PARENT 10 19 12 21 4 23 21 25 18 27
REMARK Flexibility Score: inf
ROOT
ATOM      1  C   UNL     1      25.670  36.026   5.935  1.00  0.00     0.180 A 
ATOM      2  C   UNL     1      24.994  35.128   5.092  1.00  0.00     0.208 A 
ATOM      3  C   UNL     1      23.611  35.280   4.904  1.00  0.00     0.238 A 
ATOM      4  O   UNL     1      23.020  34.506   4.107  1.00  0.00    -0.285 OA
ATOM      5  C   UNL     1      22.919  36.318   5.574  1.00  0.00     0.111 A 
ATOM      6  C   UNL     1      21.511  36.540   5.489  1.00  0.00     0.134 A 
ATOM      7  C   UNL     1      20.953  37.675   6.090  1.00  0.00     0.093 A 
ATOM      8  C   UNL     1      21.740  38.560   6.827  1.00  0.00     0.123 A 
ATOM      9  C   UNL     1      23.108  38.320   6.967  1.00  0.00     0.094 A 
ATOM     10  C   UNL     1      23.699  37.216   6.348  1.00  0.00     0.146 A 
ATOM     11  O   UNL     1      25.005  37.029   6.497  1.00  0.00    -0.452 OA
ENDROOT
BRANCH   1  12
ATOM     12  C   UNL     1      27.122  35.914   6.202  1.00  0.00     0.025 A 
ATOM     13  C   UNL     1      28.033  36.519   5.324  1.00  0.00     0.016 A 
ATOM     14  C   UNL     1      29.406  36.444   5.568  1.00  0.00     0.051 A 
ATOM     15  C   UNL     1      29.895  35.778   6.697  1.00  0.00     0.157 A 
ATOM     16  C   UNL     1      27.609  35.265   7.349  1.00  0.00     0.062 A 
ATOM     17  C   UNL     1      28.983  35.186   7.604  1.00  0.00     0.158 A 
BRANCH  15  18
ATOM     18  O   UNL     1      31.279  35.732   6.879  1.00  0.00    -0.504 OA
ATOM     19  H   UNL     1      31.837  36.521   7.168  1.00  0.00     0.293 HD
ENDBRANCH  15  18
BRANCH  17  20
ATOM     20  O   UNL     1      29.396  34.524   8.762  1.00  0.00    -0.504 OA
ATOM     21  H   UNL     1      29.247  34.876   9.696  1.00  0.00     0.293 HD
ENDBRANCH  17  20
ENDBRANCH   1  12
BRANCH   2  22
ATOM     22  O   UNL     1      25.699  34.124   4.424  1.00  0.00    -0.502 OA
ATOM     23  H   UNL     1      26.711  34.097   4.395  1.00  0.00     0.293 HD
ENDBRANCH   2  22
BRANCH   6  24
ATOM     24  O   UNL     1      20.620  35.669   4.855  1.00  0.00    -0.507 OA
ATOM     25  H   UNL     1      19.728  35.386   5.231  1.00  0.00     0.293 HD
ENDBRANCH   6  24
BRANCH   8  26
ATOM     26  O   UNL     1      21.149  39.671   7.425  1.00  0.00    -0.508 OA
ATOM     27  H   UNL     1      21.457  40.013   8.327  1.00  0.00     0.293 HD
ENDBRANCH   8  26
TORSDOF 6
ENDMDL
MODEL 5
REMARK VINA RESULT:    -6.024      3.809      6.380
REMARK INTER + INTRA:          -7.420
REMARK INTER:                  -7.106
REMARK INTRA:                  -0.314
REMARK UNBOUND:                -0.163
REMARK SMILES O=c1c(O)c(-c2ccc(O)c(O)c2)oc2cc(O)cc(O)c12
REMARK SMILES IDX 5 1 3 2 2 3 1 4 22 5 20 6 19 7 17 8 16 9 15 10 14 11 6 12
REMARK SMILES IDX 7 13 8 14 9 15 13 16 11 17 10 18 12 20 4 22 21 24 18 26
REMARK H PARENT 10 19 12 21 4 23 21 25 18 27
REMARK Flexibility Score: inf
ROOT
ATOM      1  C   UNL     1      22.798  34.877   5.061  1.00  0.00     0.180 A 
ATOM      2  C   UNL     1      23.908  35.679   4.746  1.00  0.00     0.208 A 
ATOM      3  C   UNL     1      25.185  35.264   5.157  1.00  0.00     0.238 A 
ATOM      4  O   UNL     1      26.182  35.959   4.826  1.00  0.00    -0.285 OA
ATOM      5  C   UNL     1      25.334  34.064   5.892  1.00  0.00     0.111 A 
ATOM      6  C   UNL     1      26.575  33.569   6.394  1.00  0.00     0.134 A 
ATOM      7  C   UNL     1      26.624  32.305   6.995  1.00  0.00     0.093 A 
ATOM      8  C   UNL     1      25.467  31.547   7.169  1.00  0.00     0.123 A 
ATOM      9  C   UNL     1      24.238  32.046   6.736  1.00  0.00     0.094 A 
ATOM     10  C   UNL     1      24.164  33.288   6.101  1.00  0.00     0.146 A 
ATOM     11  O   UNL     1      22.977  33.723   5.694  1.00  0.00    -0.452 OA
ENDROOT
BRANCH   1  12
ATOM     12  C   UNL     1      21.418  35.259   4.683  1.00  0.00     0.025 A 
ATOM     13  C   UNL     1      20.810  34.646   3.579  1.00  0.00     0.016 A 
ATOM     14  C   UNL     1      19.503  34.977   3.218  1.00  0.00     0.051 A 
ATOM     15  C   UNL     1      18.772  35.912   3.958  1.00  0.00     0.157 A 
ATOM     16  C   UNL     1      20.679  36.182   5.443  1.00  0.00     0.062 A 
ATOM     17  C   UNL     1      19.367  36.518   5.091  1.00  0.00     0.158 A 
BRANCH  15  18
ATOM     18  O   UNL     1      17.472  36.205   3.540  1.00  0.00    -0.504 OA
ATOM     19  H   UNL     1      16.990  37.064   3.757  1.00  0.00     0.293 HD
ENDBRANCH  15  18
BRANCH  17  20
ATOM     20  O   UNL     1      18.693  37.445   5.890  1.00  0.00    -0.504 OA
ATOM     21  H   UNL     1      17.704  37.631   5.825  1.00  0.00     0.293 HD
ENDBRANCH  17  20
ENDBRANCH   1  12
BRANCH   2  22
ATOM     22  O   UNL     1      23.742  36.848   4.001  1.00  0.00    -0.502 OA
ATOM     23  H   UNL     1      23.005  36.957   3.315  1.00  0.00     0.293 HD
ENDBRANCH   2  22
BRANCH   6  24
ATOM     24  O   UNL     1      27.775  34.286   6.353  1.00  0.00    -0.507 OA
ATOM     25  H   UNL     1      27.866  35.236   6.027  1.00  0.00     0.293 HD
ENDBRANCH   6  24
BRANCH   8  26
ATOM     26  O   UNL     1      25.549  30.300   7.785  1.00  0.00    -0.508 OA
ATOM     27  H   UNL     1      25.686  30.210   8.785  1.00  0.00     0.293 HD
ENDBRANCH   8  26
TORSDOF 6
ENDMDL
MODEL 6
REMARK VINA RESULT:    -5.983      4.581      7.699
REMARK INTER + INTRA:          -7.371
REMARK INTER:                  -7.148
REMARK INTRA:                  -0.224
REMARK UNBOUND:                -0.163
REMARK SMILES O=c1c(O)c(-c2ccc(O)c(O)c2)oc2cc(O)cc(O)c12
REMARK SMILES IDX 5 1 3 2 2 3 1 4 22 5 20 6 19 7 17 8 16 9 15 10 14 11 6 12
REMARK SMILES IDX 7 13 8 14 9 15 13 16 11 17 10 18 12 20 4 22 21 24 18 26
REMARK H PARENT 10 19 12 21 4 23 21 25 18 27
REMARK Flexibility Score: inf
ROOT
ATOM      1  C   UNL     1      21.692  33.919   7.751  1.00  0.00     0.180 A 
ATOM      2  C   UNL     1      21.602  33.062   8.861  1.00  0.00     0.208 A 
ATOM      3  C   UNL     1      22.503  31.991   8.968  1.00  0.00     0.238 A 
ATOM      4  O   UNL     1      22.452  31.258   9.991  1.00  0.00    -0.285 OA
ATOM      5  C   UNL     1      23.471  31.780   7.956  1.00  0.00     0.111 A 
ATOM      6  C   UNL     1      24.407  30.702   7.942  1.00  0.00     0.134 A 
ATOM      7  C   UNL     1      25.404  30.667   6.960  1.00  0.00     0.093 A 
ATOM      8  C   UNL     1      25.459  31.632   5.955  1.00  0.00     0.123 A 
ATOM      9  C   UNL     1      24.513  32.656   5.924  1.00  0.00     0.094 A 
ATOM     10  C   UNL     1      23.529  32.739   6.912  1.00  0.00     0.146 A 
ATOM     11  O   UNL     1      22.653  33.735   6.853  1.00  0.00    -0.452 OA
ENDROOT
BRANCH   1  12
ATOM     12  C   UNL     1      20.762  35.055   7.556  1.00  0.00     0.025 A 
ATOM     13  C   UNL     1      19.762  34.969   6.579  1.00  0.00     0.016 A 
ATOM     14  C   UNL     1      18.862  36.021   6.392  1.00  0.00     0.051 A 
ATOM     15  C   UNL     1      18.933  37.170   7.187  1.00  0.00     0.157 A 
ATOM     16  C   UNL     1      20.822  36.198   8.372  1.00  0.00     0.062 A 
ATOM     17  C   UNL     1      19.923  37.257   8.195  1.00  0.00     0.158 A 
BRANCH  15  18
ATOM     18  O   UNL     1      18.009  38.189   6.945  1.00  0.00    -0.504 OA
ATOM     19  H   UNL     1      17.886  38.638   6.050  1.00  0.00     0.293 HD
ENDBRANCH  15  18
BRANCH  17  20
ATOM     20  O   UNL     1      20.042  38.362   9.040  1.00  0.00    -0.504 OA
ATOM     21  H   UNL     1      20.003  38.310  10.047  1.00  0.00     0.293 HD
ENDBRANCH  17  20
ENDBRANCH   1  12
BRANCH   2  22
ATOM     22  O   UNL     1      20.654  33.301   9.858  1.00  0.00    -0.502 OA
ATOM     23  H   UNL     1      20.903  33.662  10.771  1.00  0.00     0.293 HD
ENDBRANCH   2  22
BRANCH   6  24
ATOM     24  O   UNL     1      24.384  29.636   8.846  1.00  0.00    -0.507 OA
ATOM     25  H   UNL     1      24.596  28.678   8.611  1.00  0.00     0.293 HD
ENDBRANCH   6  24
BRANCH   8  26
ATOM     26  O   UNL     1      26.456  31.556   4.984  1.00  0.00    -0.508 OA
ATOM     27  H   UNL     1      26.814  30.666   4.660  1.00  0.00     0.293 HD
ENDBRANCH   8  26
TORSDOF 6
ENDMDL
MODEL 7
REMARK VINA RESULT:    -5.923      3.962      5.482
REMARK INTER + INTRA:          -7.298
REMARK INTER:                  -6.991
REMARK INTRA:                  -0.307
REMARK UNBOUND:                -0.163
REMARK SMILES O=c1c(O)c(-c2ccc(O)c(O)c2)oc2cc(O)cc(O)c12
REMARK SMILES IDX 5 1 3 2 2 3 1 4 22 5 20 6 19 7 17 8 16 9 15 10 14 11 6 12
REMARK SMILES IDX 7 13 8 14 9 15 13 16 11 17 10 18 12 20 4 22 21 24 18 26
REMARK H PARENT 10 19 12 21 4 23 21 25 18 27
REMARK Flexibility Score: inf
ROOT
ATOM      1  C   UNL     1      23.925  31.875   7.360  1.00  0.00     0.180 A 
ATOM      2  C   UNL     1      23.068  32.891   6.903  1.00  0.00     0.208 A 
ATOM      3  C   UNL     1      22.088  33.397   7.772  1.00  0.00     0.238 A 
ATOM      4  O   UNL     1      21.358  34.342   7.375  1.00  0.00    -0.285 OA
ATOM      5  C   UNL     1      21.967  32.869   9.080  1.00  0.00     0.111 A 
ATOM      6  C   UNL     1      20.983  33.278  10.031  1.00  0.00     0.134 A 
ATOM      7  C   UNL     1      21.039  32.781  11.339  1.00  0.00     0.093 A 
ATOM      8  C   UNL     1      22.001  31.843  11.713  1.00  0.00     0.123 A 
ATOM      9  C   UNL     1      22.930  31.391  10.775  1.00  0.00     0.094 A 
ATOM     10  C   UNL     1      22.922  31.896   9.473  1.00  0.00     0.146 A 
ATOM     11  O   UNL     1      23.830  31.448   8.613  1.00  0.00    -0.452 OA
ENDROOT
BRANCH   1  12
ATOM     12  C   UNL     1      24.967  31.276   6.494  1.00  0.00     0.025 A 
ATOM     13  C   UNL     1      26.215  31.903   6.380  1.00  0.00     0.016 A 
ATOM     14  C   UNL     1      27.217  31.344   5.586  1.00  0.00     0.051 A 
ATOM     15  C   UNL     1      27.001  30.142   4.903  1.00  0.00     0.157 A 
ATOM     16  C   UNL     1      24.753  30.056   5.829  1.00  0.00     0.062 A 
ATOM     17  C   UNL     1      25.753  29.486   5.032  1.00  0.00     0.158 A 
BRANCH  15  18
ATOM     18  O   UNL     1      28.041  29.640   4.119  1.00  0.00    -0.504 OA
ATOM     19  H   UNL     1      28.460  30.140   3.349  1.00  0.00     0.293 HD
ENDBRANCH  15  18
BRANCH  17  20
ATOM     20  O   UNL     1      25.471  28.274   4.399  1.00  0.00    -0.504 OA
ATOM     21  H   UNL     1      26.174  27.607   4.117  1.00  0.00     0.293 HD
ENDBRANCH  17  20
ENDBRANCH   1  12
BRANCH   2  22
ATOM     22  O   UNL     1      23.219  33.412   5.616  1.00  0.00    -0.502 OA
ATOM     23  H   UNL     1      22.750  33.016   4.810  1.00  0.00     0.293 HD
ENDBRANCH   2  22
BRANCH   6  24
ATOM     24  O   UNL     1      19.924  34.141   9.736  1.00  0.00    -0.507 OA
ATOM     25  H   UNL     1      19.500  34.776  10.396  1.00  0.00     0.293 HD
ENDBRANCH   6  24
BRANCH   8  26
ATOM     26  O   UNL     1      22.017  31.359  13.019  1.00  0.00    -0.508 OA
ATOM     27  H   UNL     1      21.205  30.915  13.430  1.00  0.00     0.293 HD
ENDBRANCH   8  26
TORSDOF 6
ENDMDL
MODEL 8
REMARK VINA RESULT:    -5.561      4.675      7.645
REMARK INTER + INTRA:          -6.862
REMARK INTER:                  -6.528
REMARK INTRA:                  -0.334
REMARK UNBOUND:                -0.163
REMARK SMILES O=c1c(O)c(-c2ccc(O)c(O)c2)oc2cc(O)cc(O)c12
REMARK SMILES IDX 5 1 3 2 2 3 1 4 22 5 20 6 19 7 17 8 16 9 15 10 14 11 6 12
REMARK SMILES IDX 7 13 8 14 9 15 13 16 11 17 10 18 12 20 4 22 21 24 18 26
REMARK H PARENT 10 19 12 21 4 23 21 25 18 27
REMARK Flexibility Score: inf
ROOT
ATOM      1  C   UNL     1      21.527  34.807   6.873  1.00  0.00     0.180 A 
ATOM      2  C   UNL     1      22.300  35.062   5.728  1.00  0.00     0.208 A 
ATOM      3  C   UNL     1      23.404  34.238   5.456  1.00  0.00     0.238 A 
ATOM      4  O   UNL     1      24.062  34.438   4.401  1.00  0.00    -0.285 OA
ATOM      5  C   UNL     1      23.730  33.182   6.340  1.00  0.00     0.111 A 
ATOM      6  C   UNL     1      24.850  32.310   6.184  1.00  0.00     0.134 A 
ATOM      7  C   UNL     1      25.001  31.217   7.046  1.00  0.00     0.093 A 
ATOM      8  C   UNL     1      24.111  31.002   8.098  1.00  0.00     0.123 A 
ATOM      9  C   UNL     1      23.046  31.882   8.296  1.00  0.00     0.094 A 
ATOM     10  C   UNL     1      22.849  32.960   7.430  1.00  0.00     0.146 A 
ATOM     11  O   UNL     1      21.817  33.768   7.647  1.00  0.00    -0.452 OA
ENDROOT
BRANCH   1  12
ATOM     12  C   UNL     1      20.363  35.647   7.240  1.00  0.00     0.025 A 
ATOM     13  C   UNL     1      19.077  35.257   6.840  1.00  0.00     0.016 A 
ATOM     14  C   UNL     1      17.964  36.023   7.192  1.00  0.00     0.051 A 
ATOM     15  C   UNL     1      18.110  37.182   7.961  1.00  0.00     0.157 A 
ATOM     16  C   UNL     1      20.511  36.798   8.033  1.00  0.00     0.062 A 
ATOM     17  C   UNL     1      19.400  37.571   8.393  1.00  0.00     0.158 A 
BRANCH  15  18
ATOM     18  O   UNL     1      16.958  37.908   8.273  1.00  0.00    -0.504 OA
ATOM     19  H   UNL     1      16.627  38.063   9.213  1.00  0.00     0.293 HD
ENDBRANCH  15  18
BRANCH  17  20
ATOM     20  O   UNL     1      19.622  38.703   9.181  1.00  0.00    -0.504 OA
ATOM     21  H   UNL     1      19.657  39.644   8.819  1.00  0.00     0.293 HD
ENDBRANCH  17  20
ENDBRANCH   1  12
BRANCH   2  22
ATOM     22  O   UNL     1      21.949  36.097   4.858  1.00  0.00    -0.502 OA
ATOM     23  H   UNL     1      21.380  36.882   5.149  1.00  0.00     0.293 HD
ENDBRANCH   2  22
BRANCH   6  24
ATOM     24  O   UNL     1      25.849  32.488   5.222  1.00  0.00    -0.507 OA
ATOM     25  H   UNL     1      25.927  31.956   4.368  1.00  0.00     0.293 HD
ENDBRANCH   6  24
BRANCH   8  26
ATOM     26  O   UNL     1      24.300  29.914   8.946  1.00  0.00    -0.508 OA
ATOM     27  H   UNL     1      24.441  28.978   8.584  1.00  0.00     0.293 HD
ENDBRANCH   8  26
TORSDOF 6
ENDMDL
MODEL 9
REMARK VINA RESULT:    -5.520      4.662      6.336
REMARK INTER + INTRA:          -6.813
REMARK INTER:                  -7.251
REMARK INTRA:                   0.438
REMARK UNBOUND:                -0.163
REMARK SMILES O=c1c(O)c(-c2ccc(O)c(O)c2)oc2cc(O)cc(O)c12
REMARK SMILES IDX 5 1 3 2 2 3 1 4 22 5 20 6 19 7 17 8 16 9 15 10 14 11 6 12
REMARK SMILES IDX 7 13 8 14 9 15 13 16 11 17 10 18 12 20 4 22 21 24 18 26
REMARK H PARENT 10 19 12 21 4 23 21 25 18 27
REMARK Flexibility Score: inf
ROOT
ATOM      1  C   UNL     1      22.468  33.669   6.543  1.00  0.00     0.180 A 
ATOM      2  C   UNL     1      22.120  34.403   5.396  1.00  0.00     0.208 A 
ATOM      3  C   UNL     1      20.897  35.092   5.375  1.00  0.00     0.238 A 
ATOM      4  O   UNL     1      20.614  35.790   4.366  1.00  0.00    -0.285 OA
ATOM      5  C   UNL     1      20.031  35.025   6.493  1.00  0.00     0.111 A 
ATOM      6  C   UNL     1      18.750  35.650   6.564  1.00  0.00     0.134 A 
ATOM      7  C   UNL     1      18.035  35.627   7.769  1.00  0.00     0.093 A 
ATOM      8  C   UNL     1      18.525  34.946   8.882  1.00  0.00     0.123 A 
ATOM      9  C   UNL     1      19.749  34.280   8.806  1.00  0.00     0.094 A 
ATOM     10  C   UNL     1      20.501  34.317   7.629  1.00  0.00     0.146 A 
ATOM     11  O   UNL     1      21.666  33.680   7.601  1.00  0.00    -0.452 OA
ENDROOT
BRANCH   1  12
ATOM     12  C   UNL     1      23.729  32.897   6.631  1.00  0.00     0.025 A 
ATOM     13  C   UNL     1      24.802  33.230   5.793  1.00  0.00     0.016 A 
ATOM     14  C   UNL     1      26.007  32.529   5.874  1.00  0.00     0.051 A 
ATOM     15  C   UNL     1      26.170  31.494   6.800  1.00  0.00     0.157 A 
ATOM     16  C   UNL     1      23.897  31.873   7.579  1.00  0.00     0.062 A 
ATOM     17  C   UNL     1      25.102  31.166   7.669  1.00  0.00     0.158 A 
BRANCH  15  18
ATOM     18  O   UNL     1      27.396  30.826   6.825  1.00  0.00    -0.504 OA
ATOM     19  H   UNL     1      27.864  30.475   6.003  1.00  0.00     0.293 HD
ENDBRANCH  15  18
BRANCH  17  20
ATOM     20  O   UNL     1      25.197  30.160   8.633  1.00  0.00    -0.504 OA
ATOM     21  H   UNL     1      24.544  29.394   8.716  1.00  0.00     0.293 HD
ENDBRANCH  17  20
ENDBRANCH   1  12
BRANCH   2  22
ATOM     22  O   UNL     1      22.998  34.473   4.313  1.00  0.00    -0.502 OA
ATOM     23  H   UNL     1      22.798  34.037   3.420  1.00  0.00     0.293 HD
ENDBRANCH   2  22
BRANCH   6  24
ATOM     24  O   UNL     1      18.127  36.279   5.482  1.00  0.00    -0.507 OA
ATOM     25  H   UNL     1      18.611  36.775   4.748  1.00  0.00     0.293 HD
ENDBRANCH   6  24
BRANCH   8  26
ATOM     26  O   UNL     1      17.781  34.930  10.060  1.00  0.00    -0.508 OA
ATOM     27  H   UNL     1      17.203  35.716  10.332  1.00  0.00     0.293 HD
ENDBRANCH   8  26
TORSDOF 6
ENDMDL
