MODEL 1
REMARK VINA RESULT:     5.090      0.000      0.000
REMARK INTER + INTRA:           9.907
REMARK INTER:                   6.876
REMARK INTRA:                   3.032
REMARK UNBOUND:                 3.032
REMARK SMILES O=c1c(-c2ccc(O)cc2)coc2c([C@H]3O[C@H](CO)[C@H](O)[C@@H](O)[C@H]3O)c(O)ccc12
REMARK SMILES IDX 3 1 11 2 12 3 13 4 30 5 2 6 1 7 29 8 28 9 26 10 14 11 4 12
REMARK SMILES IDX 5 13 6 14 7 15 10 16 9 17 8 18 15 20 24 21 16 22 22 23 17 24
REMARK SMILES IDX 20 25 25 26 23 28 18 30 19 31 21 33 27 35
REMARK H PARENT 8 19 25 27 23 29 19 32 21 34 27 36
REMARK Flexibility Score: inf
ROOT
ATOM      1  C   UNL     1     -10.506  -2.376  10.174  1.00  0.00     0.065 A 
ATOM      2  C   UNL     1     -10.557  -3.776  10.233  1.00  0.00     0.208 A 
ATOM      3  O   UNL     1     -10.412  -4.415  11.387  1.00  0.00    -0.463 OA
ATOM      4  C   UNL     1     -10.212  -3.790  12.545  1.00  0.00     0.147 A 
ATOM      5  C   UNL     1     -10.149  -2.377  12.578  1.00  0.00     0.066 A 
ATOM      6  C   UNL     1     -10.289  -1.669  11.371  1.00  0.00     0.200 A 
ATOM      7  O   UNL     1     -10.204  -0.409  11.358  1.00  0.00    -0.288 OA
ATOM      8  C   UNL     1      -9.951  -1.721  13.802  1.00  0.00     0.020 A 
ATOM      9  C   UNL     1      -9.837  -2.453  14.982  1.00  0.00     0.047 A 
ATOM     10  C   UNL     1      -9.904  -3.851  14.963  1.00  0.00     0.125 A 
ATOM     11  C   UNL     1     -10.065  -4.540  13.737  1.00  0.00     0.069 A 
ENDROOT
BRANCH   1  12
ATOM     12  C   UNL     1     -10.675  -1.684   8.872  1.00  0.00    -0.011 A 
ATOM     13  C   UNL     1     -10.946  -2.415   7.701  1.00  0.00     0.013 A 
ATOM     14  C   UNL     1     -11.096  -1.760   6.476  1.00  0.00     0.047 A 
ATOM     15  C   UNL     1     -10.972  -0.369   6.401  1.00  0.00     0.115 A 
ATOM     16  C   UNL     1     -10.545  -0.286   8.789  1.00  0.00     0.013 A 
ATOM     17  C   UNL     1     -10.695   0.367   7.561  1.00  0.00     0.047 A 
BRANCH  15  18
ATOM     18  O   UNL     1     -11.125   0.271   5.174  1.00  0.00    -0.508 OA
ATOM     19  H   UNL     1     -11.397   1.246   5.115  1.00  0.00     0.293 HD
ENDBRANCH  15  18
ENDBRANCH   1  12
BRANCH  11  20
ATOM     20  C   UNL     1     -10.157  -6.061  13.695  1.00  0.00     0.188 C 
ATOM     21  C   UNL     1     -11.110  -6.609  14.793  1.00  0.00     0.179 C 
ATOM     22  O   UNL     1      -8.869  -6.638  13.810  1.00  0.00    -0.362 OA
ATOM     23  C   UNL     1     -10.823  -8.108  15.095  1.00  0.00     0.177 C 
ATOM     24  C   UNL     1      -8.857  -8.025  13.478  1.00  0.00     0.176 C 
ATOM     25  C   UNL     1     -10.150  -8.801  13.893  1.00  0.00     0.177 C 
BRANCH  21  26
ATOM     26  O   UNL     1     -11.018  -5.847  15.972  1.00  0.00    -0.387 OA
ATOM     27  H   UNL     1     -10.540  -5.010  15.733  1.00  0.00     0.211 HD
ENDBRANCH  21  26
BRANCH  23  28
ATOM     28  O   UNL     1     -10.047  -8.276  16.259  1.00  0.00    -0.387 OA
ATOM     29  H   UNL     1      -9.485  -9.085  16.143  1.00  0.00     0.211 HD
ENDBRANCH  23  28
BRANCH  24  30
ATOM     30  C   UNL     1      -8.463  -8.211  12.002  1.00  0.00     0.191 C 
BRANCH  30  31
ATOM     31  O   UNL     1      -7.424  -7.336  11.653  1.00  0.00    -0.394 OA
ATOM     32  H   UNL     1      -6.578  -7.758  11.955  1.00  0.00     0.210 HD
ENDBRANCH  30  31
ENDBRANCH  24  30
BRANCH  25  33
ATOM     33  O   UNL     1     -11.059  -8.867  12.822  1.00  0.00    -0.388 OA
ATOM     34  H   UNL     1     -11.862  -9.346  13.153  1.00  0.00     0.211 HD
ENDBRANCH  25  33
ENDBRANCH  11  20
BRANCH  10  35
ATOM     35  O   UNL     1      -9.823  -4.554  16.166  1.00  0.00    -0.507 OA
ATOM     36  H   UNL     1      -9.170  -4.291  16.894  1.00  0.00     0.293 HD
ENDBRANCH  10  35
TORSDOF 9
ENDMDL
