MODEL 1
REMARK VINA RESULT:    -5.116      0.000      0.000
REMARK INTER + INTRA:         -10.924
REMARK INTER:                  -9.303
REMARK INTRA:                  -1.621
REMARK UNBOUND:                -1.621
REMARK SMILES CCCCCCCCCCCCCCCC(=O)[O-]
REMARK SMILES IDX 9 1 10 2 11 3 12 4 13 5 14 6 15 7 16 8 17 9 18 10 8 11 7 12
REMARK SMILES IDX 6 13 5 14 4 15 3 16 2 17 1 18
REMARK H PARENT
REMARK Flexibility Score: inf
ROOT
ATOM      1  C   UNL     1      43.362 -12.503 -43.171  1.00  0.00     0.000 C 
ENDROOT
BRANCH   1   2
ATOM      2  C   UNL     1      43.844 -11.532 -42.074  1.00  0.00     0.000 C 
BRANCH   2   3
ATOM      3  C   UNL     1      44.437 -12.202 -40.822  1.00  0.00     0.000 C 
BRANCH   3   4
ATOM      4  C   UNL     1      44.653 -11.216 -39.664  1.00  0.00     0.000 C 
BRANCH   4   5
ATOM      5  C   UNL     1      44.349 -11.882 -38.314  1.00  0.00     0.000 C 
BRANCH   5   6
ATOM      6  C   UNL     1      43.742 -10.905 -37.295  1.00  0.00     0.006 C 
BRANCH   6   7
ATOM      7  C   UNL     1      43.301 -11.600 -36.000  1.00  0.00     0.053 C 
BRANCH   7   8
ATOM      8  C   UNL     1      41.893 -12.089 -36.125  1.00  0.00     0.041 C 
ATOM      9  O   UNL     1      41.443 -12.939 -35.312  1.00  0.00    -0.550 OA
ATOM     10  O   UNL     1      41.092 -11.644 -37.169  1.00  0.00    -0.550 OA
ENDBRANCH   7   8
ENDBRANCH   6   7
ENDBRANCH   5   6
ENDBRANCH   4   5
ENDBRANCH   3   4
ENDBRANCH   2   3
ENDBRANCH   1   2
BRANCH   1  11
ATOM     11  C   UNL     1      43.667 -12.070 -44.616  1.00  0.00     0.000 C 
BRANCH  11  12
ATOM     12  C   UNL     1      42.400 -11.720 -45.415  1.00  0.00    -0.000 C 
BRANCH  12  13
ATOM     13  C   UNL     1      41.102 -12.068 -44.661  1.00  0.00    -0.000 C 
BRANCH  13  14
ATOM     14  C   UNL     1      40.191 -10.868 -44.338  1.00  0.00    -0.000 C 
BRANCH  14  15
ATOM     15  C   UNL     1      40.905  -9.505 -44.266  1.00  0.00    -0.000 C 
BRANCH  15  16
ATOM     16  C   UNL     1      41.310  -9.090 -42.835  1.00  0.00    -0.000 C 
BRANCH  16  17
ATOM     17  C   UNL     1      40.432  -9.746 -41.761  1.00  0.00    -0.003 C 
ATOM     18  C   UNL     1      41.177  -9.863 -40.436  1.00  0.00     0.004 C 
ENDBRANCH  16  17
ENDBRANCH  15  16
ENDBRANCH  14  15
ENDBRANCH  13  14
ENDBRANCH  12  13
ENDBRANCH  11  12
ENDBRANCH   1  11
TORSDOF 14
ENDMDL
MODEL 2
REMARK VINA RESULT:    -5.090      4.431      8.143
REMARK INTER + INTRA:         -10.877
REMARK INTER:                  -8.781
REMARK INTRA:                  -2.096
REMARK UNBOUND:                -1.621
REMARK SMILES CCCCCCCCCCCCCCCC(=O)[O-]
REMARK SMILES IDX 9 1 10 2 11 3 12 4 13 5 14 6 15 7 16 8 17 9 18 10 8 11 7 12
REMARK SMILES IDX 6 13 5 14 4 15 3 16 2 17 1 18
REMARK H PARENT
REMARK Flexibility Score: inf
ROOT
ATOM      1  C   UNL     1      46.449 -15.263 -32.622  1.00  0.00     0.000 C 
ENDROOT
BRANCH   1   2
ATOM      2  C   UNL     1      47.593 -14.230 -32.667  1.00  0.00     0.000 C 
BRANCH   2   3
ATOM      3  C   UNL     1      47.538 -13.244 -33.846  1.00  0.00     0.000 C 
BRANCH   3   4
ATOM      4  C   UNL     1      48.215 -13.790 -35.113  1.00  0.00     0.000 C 
BRANCH   4   5
ATOM      5  C   UNL     1      47.169 -14.230 -36.147  1.00  0.00     0.000 C 
BRANCH   5   6
ATOM      6  C   UNL     1      47.191 -13.367 -37.417  1.00  0.00     0.006 C 
BRANCH   6   7
ATOM      7  C   UNL     1      45.997 -13.642 -38.341  1.00  0.00     0.053 C 
BRANCH   7   8
ATOM      8  C   UNL     1      46.005 -12.696 -39.499  1.00  0.00     0.041 C 
ATOM      9  O   UNL     1      44.920 -12.292 -39.995  1.00  0.00    -0.550 OA
ATOM     10  O   UNL     1      47.211 -12.299 -40.064  1.00  0.00    -0.550 OA
ENDBRANCH   7   8
ENDBRANCH   6   7
ENDBRANCH   5   6
ENDBRANCH   4   5
ENDBRANCH   3   4
ENDBRANCH   2   3
ENDBRANCH   1   2
BRANCH   1  11
ATOM     11  C   UNL     1      45.030 -14.683 -32.762  1.00  0.00     0.000 C 
BRANCH  11  12
ATOM     12  C   UNL     1      44.261 -15.265 -33.961  1.00  0.00    -0.000 C 
BRANCH  12  13
ATOM     13  C   UNL     1      43.654 -14.178 -34.868  1.00  0.00    -0.000 C 
BRANCH  13  14
ATOM     14  C   UNL     1      43.877 -12.729 -34.393  1.00  0.00    -0.000 C 
BRANCH  14  15
ATOM     15  C   UNL     1      44.273 -11.732 -35.498  1.00  0.00    -0.000 C 
BRANCH  15  16
ATOM     16  C   UNL     1      43.414 -11.845 -36.776  1.00  0.00    -0.000 C 
BRANCH  16  17
ATOM     17  C   UNL     1      43.171 -10.485 -37.444  1.00  0.00    -0.003 C 
ATOM     18  C   UNL     1      41.878 -10.492 -38.254  1.00  0.00     0.004 C 
ENDBRANCH  16  17
ENDBRANCH  15  16
ENDBRANCH  14  15
ENDBRANCH  13  14
ENDBRANCH  12  13
ENDBRANCH  11  12
ENDBRANCH   1  11
TORSDOF 14
ENDMDL
MODEL 3
REMARK VINA RESULT:    -5.084      3.367      7.552
REMARK INTER + INTRA:         -10.867
REMARK INTER:                  -8.689
REMARK INTRA:                  -2.177
REMARK UNBOUND:                -1.621
REMARK SMILES CCCCCCCCCCCCCCCC(=O)[O-]
REMARK SMILES IDX 9 1 10 2 11 3 12 4 13 5 14 6 15 7 16 8 17 9 18 10 8 11 7 12
REMARK SMILES IDX 6 13 5 14 4 15 3 16 2 17 1 18
REMARK H PARENT
REMARK Flexibility Score: inf
ROOT
ATOM      1  C   UNL     1      46.422 -14.311 -36.805  1.00  0.00     0.000 C 
ENDROOT
BRANCH   1   2
ATOM      2  C   UNL     1      46.078 -14.015 -38.278  1.00  0.00     0.000 C 
BRANCH   2   3
ATOM      3  C   UNL     1      46.808 -12.807 -38.890  1.00  0.00     0.000 C 
BRANCH   3   4
ATOM      4  C   UNL     1      45.845 -11.750 -39.453  1.00  0.00     0.000 C 
BRANCH   4   5
ATOM      5  C   UNL     1      44.729 -12.409 -40.276  1.00  0.00     0.000 C 
BRANCH   5   6
ATOM      6  C   UNL     1      43.484 -11.519 -40.406  1.00  0.00     0.006 C 
BRANCH   6   7
ATOM      7  C   UNL     1      43.668 -10.145 -39.746  1.00  0.00     0.053 C 
BRANCH   7   8
ATOM      8  C   UNL     1      42.445  -9.773 -38.969  1.00  0.00     0.041 C 
ATOM      9  O   UNL     1      41.331 -10.284 -39.256  1.00  0.00    -0.550 OA
ATOM     10  O   UNL     1      42.527  -8.823 -37.957  1.00  0.00    -0.550 OA
ENDBRANCH   7   8
ENDBRANCH   6   7
ENDBRANCH   5   6
ENDBRANCH   4   5
ENDBRANCH   3   4
ENDBRANCH   2   3
ENDBRANCH   1   2
BRANCH   1  11
ATOM     11  C   UNL     1      47.416 -13.335 -36.150  1.00  0.00     0.000 C 
BRANCH  11  12
ATOM     12  C   UNL     1      47.152 -13.130 -34.649  1.00  0.00    -0.000 C 
BRANCH  12  13
ATOM     13  C   UNL     1      46.457 -14.338 -33.993  1.00  0.00    -0.000 C 
BRANCH  13  14
ATOM     14  C   UNL     1      45.313 -13.988 -33.022  1.00  0.00    -0.000 C 
BRANCH  14  15
ATOM     15  C   UNL     1      43.899 -14.039 -33.632  1.00  0.00    -0.000 C 
BRANCH  15  16
ATOM     16  C   UNL     1      43.388 -12.671 -34.134  1.00  0.00    -0.000 C 
BRANCH  16  17
ATOM     17  C   UNL     1      43.384 -12.570 -35.665  1.00  0.00    -0.003 C 
ATOM     18  C   UNL     1      44.197 -11.371 -36.140  1.00  0.00     0.004 C 
ENDBRANCH  16  17
ENDBRANCH  15  16
ENDBRANCH  14  15
ENDBRANCH  13  14
ENDBRANCH  12  13
ENDBRANCH  11  12
ENDBRANCH   1  11
TORSDOF 14
ENDMDL
MODEL 4
REMARK VINA RESULT:    -5.068      4.234      6.159
REMARK INTER + INTRA:         -10.838
REMARK INTER:                  -8.776
REMARK INTRA:                  -2.061
REMARK UNBOUND:                -1.621
REMARK SMILES CCCCCCCCCCCCCCCC(=O)[O-]
REMARK SMILES IDX 9 1 10 2 11 3 12 4 13 5 14 6 15 7 16 8 17 9 18 10 8 11 7 12
REMARK SMILES IDX 6 13 5 14 4 15 3 16 2 17 1 18
REMARK H PARENT
REMARK Flexibility Score: inf
ROOT
ATOM      1  C   UNL     1      44.791 -13.841 -36.418  1.00  0.00     0.000 C 
ENDROOT
BRANCH   1   2
ATOM      2  C   UNL     1      44.885 -12.336 -36.097  1.00  0.00     0.000 C 
BRANCH   2   3
ATOM      3  C   UNL     1      43.953 -11.846 -34.976  1.00  0.00     0.000 C 
BRANCH   3   4
ATOM      4  C   UNL     1      43.353 -12.996 -34.153  1.00  0.00     0.000 C 
BRANCH   4   5
ATOM      5  C   UNL     1      43.868 -12.963 -32.707  1.00  0.00     0.000 C 
BRANCH   5   6
ATOM      6  C   UNL     1      44.542 -14.278 -32.288  1.00  0.00     0.006 C 
BRANCH   6   7
ATOM      7  C   UNL     1      45.807 -14.581 -33.104  1.00  0.00     0.053 C 
BRANCH   7   8
ATOM      8  C   UNL     1      46.874 -13.578 -32.804  1.00  0.00     0.041 C 
ATOM      9  O   UNL     1      47.133 -13.265 -31.612  1.00  0.00    -0.550 OA
ATOM     10  O   UNL     1      47.550 -12.949 -33.842  1.00  0.00    -0.550 OA
ENDBRANCH   7   8
ENDBRANCH   6   7
ENDBRANCH   5   6
ENDBRANCH   4   5
ENDBRANCH   3   4
ENDBRANCH   2   3
ENDBRANCH   1   2
BRANCH   1  11
ATOM     11  C   UNL     1      45.762 -14.347 -37.499  1.00  0.00     0.000 C 
BRANCH  11  12
ATOM     12  C   UNL     1      46.219 -13.237 -38.460  1.00  0.00    -0.000 C 
BRANCH  12  13
ATOM     13  C   UNL     1      45.397 -13.196 -39.762  1.00  0.00    -0.000 C 
BRANCH  13  14
ATOM     14  C   UNL     1      44.890 -11.800 -40.173  1.00  0.00    -0.000 C 
BRANCH  14  15
ATOM     15  C   UNL     1      43.532 -11.394 -39.570  1.00  0.00    -0.000 C 
BRANCH  15  16
ATOM     16  C   UNL     1      43.571 -10.065 -38.786  1.00  0.00    -0.000 C 
BRANCH  16  17
ATOM     17  C   UNL     1      42.436  -9.955 -37.758  1.00  0.00    -0.003 C 
ATOM     18  C   UNL     1      41.609 -11.236 -37.711  1.00  0.00     0.004 C 
ENDBRANCH  16  17
ENDBRANCH  15  16
ENDBRANCH  14  15
ENDBRANCH  13  14
ENDBRANCH  12  13
ENDBRANCH  11  12
ENDBRANCH   1  11
TORSDOF 14
ENDMDL
MODEL 5
REMARK VINA RESULT:    -5.056      3.740      8.417
REMARK INTER + INTRA:         -10.815
REMARK INTER:                  -8.855
REMARK INTRA:                  -1.960
REMARK UNBOUND:                -1.621
REMARK SMILES CCCCCCCCCCCCCCCC(=O)[O-]
REMARK SMILES IDX 9 1 10 2 11 3 12 4 13 5 14 6 15 7 16 8 17 9 18 10 8 11 7 12
REMARK SMILES IDX 6 13 5 14 4 15 3 16 2 17 1 18
REMARK H PARENT
REMARK Flexibility Score: inf
ROOT
ATOM      1  C   UNL     1      47.768 -13.107 -35.100  1.00  0.00     0.000 C 
ENDROOT
BRANCH   1   2
ATOM      2  C   UNL     1      47.886 -14.353 -36.001  1.00  0.00     0.000 C 
BRANCH   2   3
ATOM      3  C   UNL     1      46.888 -14.411 -37.170  1.00  0.00     0.000 C 
BRANCH   3   4
ATOM      4  C   UNL     1      46.972 -13.183 -38.089  1.00  0.00     0.000 C 
BRANCH   4   5
ATOM      5  C   UNL     1      45.830 -13.188 -39.116  1.00  0.00     0.000 C 
BRANCH   5   6
ATOM      6  C   UNL     1      45.461 -11.776 -39.597  1.00  0.00     0.006 C 
BRANCH   6   7
ATOM      7  C   UNL     1      44.325 -11.781 -40.630  1.00  0.00     0.053 C 
BRANCH   7   8
ATOM      8  C   UNL     1      43.576 -10.488 -40.587  1.00  0.00     0.041 C 
ATOM      9  O   UNL     1      43.082 -10.077 -39.504  1.00  0.00    -0.550 OA
ATOM     10  O   UNL     1      43.379  -9.759 -41.753  1.00  0.00    -0.550 OA
ENDBRANCH   7   8
ENDBRANCH   6   7
ENDBRANCH   5   6
ENDBRANCH   4   5
ENDBRANCH   3   4
ENDBRANCH   2   3
ENDBRANCH   1   2
BRANCH   1  11
ATOM     11  C   UNL     1      47.923 -13.367 -33.591  1.00  0.00     0.000 C 
BRANCH  11  12
ATOM     12  C   UNL     1      46.574 -13.540 -32.873  1.00  0.00    -0.000 C 
BRANCH  12  13
ATOM     13  C   UNL     1      46.165 -15.017 -32.715  1.00  0.00    -0.000 C 
BRANCH  13  14
ATOM     14  C   UNL     1      44.778 -15.376 -33.281  1.00  0.00    -0.000 C 
BRANCH  14  15
ATOM     15  C   UNL     1      44.494 -14.848 -34.700  1.00  0.00    -0.000 C 
BRANCH  15  16
ATOM     16  C   UNL     1      43.394 -13.767 -34.754  1.00  0.00    -0.000 C 
BRANCH  16  17
ATOM     17  C   UNL     1      43.527 -12.852 -35.979  1.00  0.00    -0.003 C 
ATOM     18  C   UNL     1      44.456 -11.677 -35.691  1.00  0.00     0.004 C 
ENDBRANCH  16  17
ENDBRANCH  15  16
ENDBRANCH  14  15
ENDBRANCH  13  14
ENDBRANCH  12  13
ENDBRANCH  11  12
ENDBRANCH   1  11
TORSDOF 14
ENDMDL
MODEL 6
REMARK VINA RESULT:    -5.052      4.800      7.244
REMARK INTER + INTRA:         -10.807
REMARK INTER:                  -8.690
REMARK INTRA:                  -2.117
REMARK UNBOUND:                -1.621
REMARK SMILES CCCCCCCCCCCCCCCC(=O)[O-]
REMARK SMILES IDX 9 1 10 2 11 3 12 4 13 5 14 6 15 7 16 8 17 9 18 10 8 11 7 12
REMARK SMILES IDX 6 13 5 14 4 15 3 16 2 17 1 18
REMARK H PARENT
REMARK Flexibility Score: inf
ROOT
ATOM      1  C   UNL     1      44.833 -12.702 -39.338  1.00  0.00     0.000 C 
ENDROOT
BRANCH   1   2
ATOM      2  C   UNL     1      46.315 -12.323 -39.143  1.00  0.00     0.000 C 
BRANCH   2   3
ATOM      3  C   UNL     1      47.049 -13.099 -38.037  1.00  0.00     0.000 C 
BRANCH   3   4
ATOM      4  C   UNL     1      46.098 -13.910 -37.144  1.00  0.00     0.000 C 
BRANCH   4   5
ATOM      5  C   UNL     1      46.765 -14.259 -35.806  1.00  0.00     0.000 C 
BRANCH   5   6
ATOM      6  C   UNL     1      47.003 -13.024 -34.923  1.00  0.00     0.006 C 
BRANCH   6   7
ATOM      7  C   UNL     1      48.256 -13.156 -34.047  1.00  0.00     0.053 C 
BRANCH   7   8
ATOM      8  C   UNL     1      47.872 -13.398 -32.622  1.00  0.00     0.041 C 
ATOM      9  O   UNL     1      47.425 -14.521 -32.268  1.00  0.00    -0.550 OA
ATOM     10  O   UNL     1      47.961 -12.369 -31.693  1.00  0.00    -0.550 OA
ENDBRANCH   7   8
ENDBRANCH   6   7
ENDBRANCH   5   6
ENDBRANCH   4   5
ENDBRANCH   3   4
ENDBRANCH   2   3
ENDBRANCH   1   2
BRANCH   1  11
ATOM     11  C   UNL     1      43.816 -11.618 -38.936  1.00  0.00     0.000 C 
BRANCH  11  12
ATOM     12  C   UNL     1      44.317 -10.725 -37.789  1.00  0.00    -0.000 C 
BRANCH  12  13
ATOM     13  C   UNL     1      43.770 -11.154 -36.414  1.00  0.00    -0.000 C 
BRANCH  13  14
ATOM     14  C   UNL     1      42.767 -12.323 -36.444  1.00  0.00    -0.000 C 
BRANCH  14  15
ATOM     15  C   UNL     1      42.598 -13.074 -35.110  1.00  0.00    -0.000 C 
BRANCH  15  16
ATOM     16  C   UNL     1      43.397 -12.457 -33.943  1.00  0.00    -0.000 C 
BRANCH  16  17
ATOM     17  C   UNL     1      43.953 -13.520 -32.984  1.00  0.00    -0.003 C 
ATOM     18  C   UNL     1      44.196 -12.935 -31.596  1.00  0.00     0.004 C 
ENDBRANCH  16  17
ENDBRANCH  15  16
ENDBRANCH  14  15
ENDBRANCH  13  14
ENDBRANCH  12  13
ENDBRANCH  11  12
ENDBRANCH   1  11
TORSDOF 14
ENDMDL
MODEL 7
REMARK VINA RESULT:    -5.011      3.357      5.224
REMARK INTER + INTRA:         -10.733
REMARK INTER:                  -8.848
REMARK INTRA:                  -1.885
REMARK UNBOUND:                -1.621
REMARK SMILES CCCCCCCCCCCCCCCC(=O)[O-]
REMARK SMILES IDX 9 1 10 2 11 3 12 4 13 5 14 6 15 7 16 8 17 9 18 10 8 11 7 12
REMARK SMILES IDX 6 13 5 14 4 15 3 16 2 17 1 18
REMARK H PARENT
REMARK Flexibility Score: inf
ROOT
ATOM      1  C   UNL     1      46.539 -13.149 -38.874  1.00  0.00     0.000 C 
ENDROOT
BRANCH   1   2
ATOM      2  C   UNL     1      45.741 -13.840 -37.750  1.00  0.00     0.000 C 
BRANCH   2   3
ATOM      3  C   UNL     1      46.531 -14.111 -36.458  1.00  0.00     0.000 C 
BRANCH   3   4
ATOM      4  C   UNL     1      46.388 -12.985 -35.423  1.00  0.00     0.000 C 
BRANCH   4   5
ATOM      5  C   UNL     1      46.403 -13.549 -33.995  1.00  0.00     0.000 C 
BRANCH   5   6
ATOM      6  C   UNL     1      45.365 -14.663 -33.787  1.00  0.00     0.006 C 
BRANCH   6   7
ATOM      7  C   UNL     1      43.926 -14.131 -33.755  1.00  0.00     0.053 C 
BRANCH   7   8
ATOM      8  C   UNL     1      43.782 -13.081 -32.700  1.00  0.00     0.041 C 
ATOM      9  O   UNL     1      43.445 -11.909 -33.013  1.00  0.00    -0.550 OA
ATOM     10  O   UNL     1      44.067 -13.383 -31.374  1.00  0.00    -0.550 OA
ENDBRANCH   7   8
ENDBRANCH   6   7
ENDBRANCH   5   6
ENDBRANCH   4   5
ENDBRANCH   3   4
ENDBRANCH   2   3
ENDBRANCH   1   2
BRANCH   1  11
ATOM     11  C   UNL     1      45.945 -11.824 -39.386  1.00  0.00     0.000 C 
BRANCH  11  12
ATOM     12  C   UNL     1      44.668 -12.023 -40.220  1.00  0.00    -0.000 C 
BRANCH  12  13
ATOM     13  C   UNL     1      43.722 -10.810 -40.164  1.00  0.00    -0.000 C 
BRANCH  13  14
ATOM     14  C   UNL     1      42.241 -11.146 -39.904  1.00  0.00    -0.000 C 
BRANCH  14  15
ATOM     15  C   UNL     1      41.694 -10.679 -38.541  1.00  0.00    -0.000 C 
BRANCH  15  16
ATOM     16  C   UNL     1      42.792 -10.259 -37.541  1.00  0.00    -0.000 C 
BRANCH  16  17
ATOM     17  C   UNL     1      43.231 -11.414 -36.629  1.00  0.00    -0.003 C 
ATOM     18  C   UNL     1      42.058 -12.330 -36.296  1.00  0.00     0.004 C 
ENDBRANCH  16  17
ENDBRANCH  15  16
ENDBRANCH  14  15
ENDBRANCH  13  14
ENDBRANCH  12  13
ENDBRANCH  11  12
ENDBRANCH   1  11
TORSDOF 14
ENDMDL
MODEL 8
REMARK VINA RESULT:    -5.001      2.533      4.784
REMARK INTER + INTRA:         -10.714
REMARK INTER:                  -9.057
REMARK INTRA:                  -1.657
REMARK UNBOUND:                -1.621
REMARK SMILES CCCCCCCCCCCCCCCC(=O)[O-]
REMARK SMILES IDX 9 1 10 2 11 3 12 4 13 5 14 6 15 7 16 8 17 9 18 10 8 11 7 12
REMARK SMILES IDX 6 13 5 14 4 15 3 16 2 17 1 18
REMARK H PARENT
REMARK Flexibility Score: inf
ROOT
ATOM      1  C   UNL     1      42.051 -10.056 -37.907  1.00  0.00     0.000 C 
ENDROOT
BRANCH   1   2
ATOM      2  C   UNL     1      43.506 -10.359 -37.498  1.00  0.00     0.000 C 
BRANCH   2   3
ATOM      3  C   UNL     1      43.668 -11.410 -36.386  1.00  0.00     0.000 C 
BRANCH   3   4
ATOM      4  C   UNL     1      42.518 -12.428 -36.354  1.00  0.00     0.000 C 
BRANCH   4   5
ATOM      5  C   UNL     1      42.276 -12.937 -34.925  1.00  0.00     0.000 C 
BRANCH   5   6
ATOM      6  C   UNL     1      43.145 -12.215 -33.884  1.00  0.00     0.006 C 
BRANCH   6   7
ATOM      7  C   UNL     1      43.903 -13.187 -32.970  1.00  0.00     0.053 C 
BRANCH   7   8
ATOM      8  C   UNL     1      44.725 -14.135 -33.784  1.00  0.00     0.041 C 
ATOM      9  O   UNL     1      44.483 -15.370 -33.756  1.00  0.00    -0.550 OA
ATOM     10  O   UNL     1      45.792 -13.659 -34.537  1.00  0.00    -0.550 OA
ENDBRANCH   7   8
ENDBRANCH   6   7
ENDBRANCH   5   6
ENDBRANCH   4   5
ENDBRANCH   3   4
ENDBRANCH   2   3
ENDBRANCH   1   2
BRANCH   1  11
ATOM     11  C   UNL     1      41.887  -9.200 -39.175  1.00  0.00     0.000 C 
BRANCH  11  12
ATOM     12  C   UNL     1      40.845  -9.771 -40.152  1.00  0.00    -0.000 C 
BRANCH  12  13
ATOM     13  C   UNL     1      41.441 -10.111 -41.531  1.00  0.00    -0.000 C 
BRANCH  13  14
ATOM     14  C   UNL     1      42.979 -10.076 -41.607  1.00  0.00    -0.000 C 
BRANCH  14  15
ATOM     15  C   UNL     1      43.642 -11.394 -42.050  1.00  0.00    -0.000 C 
BRANCH  15  16
ATOM     16  C   UNL     1      43.976 -12.346 -40.881  1.00  0.00    -0.000 C 
BRANCH  16  17
ATOM     17  C   UNL     1      45.210 -11.893 -40.088  1.00  0.00    -0.003 C 
ATOM     18  C   UNL     1      45.818 -13.053 -39.306  1.00  0.00     0.004 C 
ENDBRANCH  16  17
ENDBRANCH  15  16
ENDBRANCH  14  15
ENDBRANCH  13  14
ENDBRANCH  12  13
ENDBRANCH  11  12
ENDBRANCH   1  11
TORSDOF 14
ENDMDL
MODEL 9
REMARK VINA RESULT:    -5.000      3.879      8.405
REMARK INTER + INTRA:         -10.713
REMARK INTER:                  -8.755
REMARK INTRA:                  -1.958
REMARK UNBOUND:                -1.621
REMARK SMILES CCCCCCCCCCCCCCCC(=O)[O-]
REMARK SMILES IDX 9 1 10 2 11 3 12 4 13 5 14 6 15 7 16 8 17 9 18 10 8 11 7 12
REMARK SMILES IDX 6 13 5 14 4 15 3 16 2 17 1 18
REMARK H PARENT
REMARK Flexibility Score: inf
ROOT
ATOM      1  C   UNL     1      43.924 -13.197 -32.893  1.00  0.00     0.000 C 
ENDROOT
BRANCH   1   2
ATOM      2  C   UNL     1      43.268 -12.389 -34.031  1.00  0.00     0.000 C 
BRANCH   2   3
ATOM      3  C   UNL     1      42.405 -13.212 -35.004  1.00  0.00     0.000 C 
BRANCH   3   4
ATOM      4  C   UNL     1      41.979 -12.414 -36.246  1.00  0.00     0.000 C 
BRANCH   4   5
ATOM      5  C   UNL     1      43.142 -11.561 -36.774  1.00  0.00     0.000 C 
BRANCH   5   6
ATOM      6  C   UNL     1      42.694 -10.536 -37.827  1.00  0.00     0.006 C 
BRANCH   6   7
ATOM      7  C   UNL     1      42.697 -11.110 -39.250  1.00  0.00     0.053 C 
BRANCH   7   8
ATOM      8  C   UNL     1      43.831 -10.539 -40.040  1.00  0.00     0.041 C 
ATOM      9  O   UNL     1      43.893 -10.722 -41.284  1.00  0.00    -0.550 OA
ATOM     10  O   UNL     1      44.848  -9.845 -39.395  1.00  0.00    -0.550 OA
ENDBRANCH   7   8
ENDBRANCH   6   7
ENDBRANCH   5   6
ENDBRANCH   4   5
ENDBRANCH   3   4
ENDBRANCH   2   3
ENDBRANCH   1   2
BRANCH   1  11
ATOM     11  C   UNL     1      44.239 -14.667 -33.224  1.00  0.00     0.000 C 
BRANCH  11  12
ATOM     12  C   UNL     1      45.719 -15.024 -33.010  1.00  0.00    -0.000 C 
BRANCH  12  13
ATOM     13  C   UNL     1      46.673 -13.875 -33.388  1.00  0.00    -0.000 C 
BRANCH  13  14
ATOM     14  C   UNL     1      47.404 -14.047 -34.733  1.00  0.00    -0.000 C 
BRANCH  14  15
ATOM     15  C   UNL     1      46.706 -13.401 -35.945  1.00  0.00    -0.000 C 
BRANCH  15  16
ATOM     16  C   UNL     1      45.675 -14.321 -36.633  1.00  0.00    -0.000 C 
BRANCH  16  17
ATOM     17  C   UNL     1      45.800 -14.303 -38.163  1.00  0.00    -0.003 C 
ATOM     18  C   UNL     1      46.333 -12.962 -38.657  1.00  0.00     0.004 C 
ENDBRANCH  16  17
ENDBRANCH  15  16
ENDBRANCH  14  15
ENDBRANCH  13  14
ENDBRANCH  12  13
ENDBRANCH  11  12
ENDBRANCH   1  11
TORSDOF 14
ENDMDL
