MODEL 1
REMARK VINA RESULT:    -7.709      0.000      0.000
REMARK INTER + INTRA:          -9.747
REMARK INTER:                  -9.512
REMARK INTRA:                  -0.235
REMARK UNBOUND:                -0.235
REMARK SMILES Oc1cc(O)c2cc(O)c(-c3cc(O)c(O)c(O)c3)[o+]c2c1
REMARK SMILES IDX 10 1 20 2 21 3 22 4 2 5 3 6 4 7 6 8 7 9 8 10 11 11 12 12
REMARK SMILES IDX 13 13 19 14 15 15 17 16 14 17 16 19 18 21 9 23 1 25 5 27
REMARK H PARENT 14 18 16 20 18 22 9 24 1 26 5 28
REMARK Flexibility Score: inf
ROOT
ATOM      1  C   UNL     1       4.908  -6.986   6.848  1.00  0.00     0.402 A 
ATOM      2  O   UNL     1       5.984  -7.304   6.133  1.00  0.00    -0.202 OA
ATOM      3  C   UNL     1       7.217  -7.305   6.628  1.00  0.00     0.368 A 
ATOM      4  C   UNL     1       8.283  -7.657   5.796  1.00  0.00     0.162 A 
ATOM      5  C   UNL     1       9.588  -7.669   6.290  1.00  0.00     0.128 A 
ATOM      6  C   UNL     1       9.831  -7.328   7.626  1.00  0.00     0.093 A 
ATOM      7  C   UNL     1       8.780  -6.971   8.478  1.00  0.00     0.136 A 
ATOM      8  C   UNL     1       7.452  -6.955   7.979  1.00  0.00     0.125 A 
ATOM      9  C   UNL     1       6.338  -6.598   8.757  1.00  0.00     0.078 A 
ATOM     10  C   UNL     1       5.059  -6.602   8.194  1.00  0.00     0.223 A 
ENDROOT
BRANCH   1  11
ATOM     11  C   UNL     1       3.586  -7.033   6.185  1.00  0.00     0.091 A 
ATOM     12  C   UNL     1       2.579  -7.910   6.621  1.00  0.00     0.068 A 
ATOM     13  C   UNL     1       1.340  -7.956   5.966  1.00  0.00     0.162 A 
ATOM     14  C   UNL     1       3.349  -6.227   5.061  1.00  0.00     0.068 A 
ATOM     15  C   UNL     1       1.104  -7.128   4.855  1.00  0.00     0.200 A 
ATOM     16  C   UNL     1       2.116  -6.265   4.402  1.00  0.00     0.162 A 
BRANCH  13  17
ATOM     17  O   UNL     1       0.347  -8.826   6.412  1.00  0.00    -0.504 OA
ATOM     18  H   UNL     1      -0.415  -8.507   7.000  1.00  0.00     0.293 HD
ENDBRANCH  13  17
BRANCH  15  19
ATOM     19  O   UNL     1      -0.125  -7.157   4.193  1.00  0.00    -0.502 OA
ATOM     20  H   UNL     1      -0.495  -8.005   3.782  1.00  0.00     0.293 HD
ENDBRANCH  15  19
BRANCH  16  21
ATOM     21  O   UNL     1       1.915  -5.436   3.298  1.00  0.00    -0.504 OA
ATOM     22  H   UNL     1       1.001  -5.071   3.058  1.00  0.00     0.293 HD
ENDBRANCH  16  21
ENDBRANCH   1  11
BRANCH  10  23
ATOM     23  O   UNL     1       3.959  -6.199   8.952  1.00  0.00    -0.500 OA
ATOM     24  H   UNL     1       3.886  -5.261   9.329  1.00  0.00     0.294 HD
ENDBRANCH  10  23
BRANCH   5  25
ATOM     25  O   UNL     1      10.638  -8.023   5.446  1.00  0.00    -0.507 OA
ATOM     26  H   UNL     1      11.313  -7.339   5.123  1.00  0.00     0.293 HD
ENDBRANCH   5  25
BRANCH   7  27
ATOM     27  O   UNL     1       9.103  -6.646   9.799  1.00  0.00    -0.507 OA
ATOM     28  H   UNL     1       8.471  -6.736  10.580  1.00  0.00     0.293 HD
ENDBRANCH   7  27
TORSDOF 7
ENDMDL
MODEL 2
REMARK VINA RESULT:    -7.587      3.576      5.710
REMARK INTER + INTRA:          -9.596
REMARK INTER:                  -9.223
REMARK INTRA:                  -0.373
REMARK UNBOUND:                -0.235
REMARK SMILES Oc1cc(O)c2cc(O)c(-c3cc(O)c(O)c(O)c3)[o+]c2c1
REMARK SMILES IDX 10 1 20 2 21 3 22 4 2 5 3 6 4 7 6 8 7 9 8 10 11 11 12 12
REMARK SMILES IDX 13 13 19 14 15 15 17 16 14 17 16 19 18 21 9 23 1 25 5 27
REMARK H PARENT 14 18 16 20 18 22 9 24 1 26 5 28
REMARK Flexibility Score: inf
ROOT
ATOM      1  C   UNL     1       9.065  -5.589   9.493  1.00  0.00     0.402 A 
ATOM      2  O   UNL     1       9.692  -4.869   8.567  1.00  0.00    -0.202 OA
ATOM      3  C   UNL     1      10.755  -4.114   8.824  1.00  0.00     0.368 A 
ATOM      4  C   UNL     1      11.348  -3.396   7.782  1.00  0.00     0.162 A 
ATOM      5  C   UNL     1      12.466  -2.598   8.022  1.00  0.00     0.128 A 
ATOM      6  C   UNL     1      12.999  -2.516   9.314  1.00  0.00     0.093 A 
ATOM      7  C   UNL     1      12.423  -3.225  10.375  1.00  0.00     0.136 A 
ATOM      8  C   UNL     1      11.284  -4.036  10.135  1.00  0.00     0.125 A 
ATOM      9  C   UNL     1      10.634  -4.772  11.139  1.00  0.00     0.078 A 
ATOM     10  C   UNL     1       9.512  -5.545  10.827  1.00  0.00     0.223 A 
ENDROOT
BRANCH   1  11
ATOM     11  C   UNL     1       7.897  -6.399   9.079  1.00  0.00     0.091 A 
ATOM     12  C   UNL     1       8.053  -7.689   8.547  1.00  0.00     0.068 A 
ATOM     13  C   UNL     1       6.936  -8.432   8.140  1.00  0.00     0.162 A 
ATOM     14  C   UNL     1       6.609  -5.847   9.168  1.00  0.00     0.068 A 
ATOM     15  C   UNL     1       5.648  -7.881   8.252  1.00  0.00     0.200 A 
ATOM     16  C   UNL     1       5.489  -6.582   8.765  1.00  0.00     0.162 A 
BRANCH  13  17
ATOM     17  O   UNL     1       7.102  -9.714   7.618  1.00  0.00    -0.504 OA
ATOM     18  H   UNL     1       7.313  -9.865   6.638  1.00  0.00     0.293 HD
ENDBRANCH  13  17
BRANCH  15  19
ATOM     19  O   UNL     1       4.524  -8.607   7.856  1.00  0.00    -0.502 OA
ATOM     20  H   UNL     1       4.502  -9.620   7.879  1.00  0.00     0.293 HD
ENDBRANCH  15  19
BRANCH  16  21
ATOM     21  O   UNL     1       4.225  -6.003   8.883  1.00  0.00    -0.504 OA
ATOM     22  H   UNL     1       3.870  -5.660   9.768  1.00  0.00     0.293 HD
ENDBRANCH  16  21
ENDBRANCH   1  11
BRANCH  10  23
ATOM     23  O   UNL     1       8.837  -6.236  11.833  1.00  0.00    -0.500 OA
ATOM     24  H   UNL     1       9.155  -6.223  12.795  1.00  0.00     0.294 HD
ENDBRANCH  10  23
BRANCH   5  25
ATOM     25  O   UNL     1      13.043  -1.889   6.971  1.00  0.00    -0.507 OA
ATOM     26  H   UNL     1      14.044  -1.736   6.920  1.00  0.00     0.293 HD
ENDBRANCH   5  25
BRANCH   7  27
ATOM     27  O   UNL     1      13.016  -3.093  11.635  1.00  0.00    -0.507 OA
ATOM     28  H   UNL     1      13.711  -2.401  11.869  1.00  0.00     0.293 HD
ENDBRANCH   7  27
TORSDOF 7
ENDMDL
MODEL 3
REMARK VINA RESULT:    -7.512     11.442     15.187
REMARK INTER + INTRA:          -9.504
REMARK INTER:                  -9.119
REMARK INTRA:                  -0.384
REMARK UNBOUND:                -0.235
REMARK SMILES Oc1cc(O)c2cc(O)c(-c3cc(O)c(O)c(O)c3)[o+]c2c1
REMARK SMILES IDX 10 1 20 2 21 3 22 4 2 5 3 6 4 7 6 8 7 9 8 10 11 11 12 12
REMARK SMILES IDX 13 13 19 14 15 15 17 16 14 17 16 19 18 21 9 23 1 25 5 27
REMARK H PARENT 14 18 16 20 18 22 9 24 1 26 5 28
REMARK Flexibility Score: inf
ROOT
ATOM      1  C   UNL     1      13.808  -3.854  16.205  1.00  0.00     0.402 A 
ATOM      2  O   UNL     1      12.757  -4.341  16.859  1.00  0.00    -0.202 OA
ATOM      3  C   UNL     1      11.508  -3.952  16.625  1.00  0.00     0.368 A 
ATOM      4  C   UNL     1      10.468  -4.525  17.363  1.00  0.00     0.162 A 
ATOM      5  C   UNL     1       9.147  -4.139  17.137  1.00  0.00     0.128 A 
ATOM      6  C   UNL     1       8.860  -3.173  16.165  1.00  0.00     0.093 A 
ATOM      7  C   UNL     1       9.884  -2.584  15.414  1.00  0.00     0.136 A 
ATOM      8  C   UNL     1      11.229  -2.972  15.643  1.00  0.00     0.125 A 
ATOM      9  C   UNL     1      12.320  -2.426  14.946  1.00  0.00     0.078 A 
ATOM     10  C   UNL     1      13.619  -2.857  15.230  1.00  0.00     0.223 A 
ENDROOT
BRANCH   1  11
ATOM     11  C   UNL     1      15.150  -4.375  16.549  1.00  0.00     0.091 A 
ATOM     12  C   UNL     1      15.698  -5.483  15.882  1.00  0.00     0.068 A 
ATOM     13  C   UNL     1      16.962  -5.976  16.238  1.00  0.00     0.162 A 
ATOM     14  C   UNL     1      15.870  -3.787  17.601  1.00  0.00     0.068 A 
ATOM     15  C   UNL     1      17.685  -5.367  17.278  1.00  0.00     0.200 A 
ATOM     16  C   UNL     1      17.132  -4.271  17.962  1.00  0.00     0.162 A 
BRANCH  13  17
ATOM     17  O   UNL     1      17.498  -7.073  15.566  1.00  0.00    -0.504 OA
ATOM     18  H   UNL     1      16.943  -7.625  14.921  1.00  0.00     0.293 HD
ENDBRANCH  13  17
BRANCH  15  19
ATOM     19  O   UNL     1      18.946  -5.842  17.642  1.00  0.00    -0.502 OA
ATOM     20  H   UNL     1      19.278  -5.810  18.598  1.00  0.00     0.293 HD
ENDBRANCH  15  19
BRANCH  16  21
ATOM     21  O   UNL     1      17.821  -3.649  19.003  1.00  0.00    -0.504 OA
ATOM     22  H   UNL     1      17.478  -3.658  19.956  1.00  0.00     0.293 HD
ENDBRANCH  16  21
ENDBRANCH   1  11
BRANCH  10  23
ATOM     23  O   UNL     1      14.706  -2.279  14.574  1.00  0.00    -0.500 OA
ATOM     24  H   UNL     1      14.872  -2.426  13.585  1.00  0.00     0.294 HD
ENDBRANCH  10  23
BRANCH   5  25
ATOM     25  O   UNL     1       8.124  -4.722  17.882  1.00  0.00    -0.507 OA
ATOM     26  H   UNL     1       7.531  -5.446  17.494  1.00  0.00     0.293 HD
ENDBRANCH   5  25
BRANCH   7  27
ATOM     27  O   UNL     1       9.515  -1.629  14.461  1.00  0.00    -0.507 OA
ATOM     28  H   UNL     1      10.156  -0.987  14.020  1.00  0.00     0.293 HD
ENDBRANCH   7  27
TORSDOF 7
ENDMDL
MODEL 4
REMARK VINA RESULT:    -7.458      8.352     13.568
REMARK INTER + INTRA:          -9.438
REMARK INTER:                  -9.080
REMARK INTRA:                  -0.358
REMARK UNBOUND:                -0.235
REMARK SMILES Oc1cc(O)c2cc(O)c(-c3cc(O)c(O)c(O)c3)[o+]c2c1
REMARK SMILES IDX 10 1 20 2 21 3 22 4 2 5 3 6 4 7 6 8 7 9 8 10 11 11 12 12
REMARK SMILES IDX 13 13 19 14 15 15 17 16 14 17 16 19 18 21 9 23 1 25 5 27
REMARK H PARENT 14 18 16 20 18 22 9 24 1 26 5 28
REMARK Flexibility Score: inf
ROOT
ATOM      1  C   UNL     1      12.002  -4.376  15.062  1.00  0.00     0.402 A 
ATOM      2  O   UNL     1      11.002  -3.604  15.480  1.00  0.00    -0.202 OA
ATOM      3  C   UNL     1       9.847  -3.491  14.831  1.00  0.00     0.368 A 
ATOM      4  C   UNL     1       8.855  -2.657  15.351  1.00  0.00     0.162 A 
ATOM      5  C   UNL     1       7.632  -2.520  14.693  1.00  0.00     0.128 A 
ATOM      6  C   UNL     1       7.397  -3.223  13.506  1.00  0.00     0.093 A 
ATOM      7  C   UNL     1       8.376  -4.065  12.965  1.00  0.00     0.136 A 
ATOM      8  C   UNL     1       9.622  -4.204  13.630  1.00  0.00     0.125 A 
ATOM      9  C   UNL     1      10.665  -5.015  13.154  1.00  0.00     0.078 A 
ATOM     10  C   UNL     1      11.867  -5.098  13.862  1.00  0.00     0.223 A 
ENDROOT
BRANCH   1  11
ATOM     11  C   UNL     1      13.236  -4.427  15.879  1.00  0.00     0.091 A 
ATOM     12  C   UNL     1      14.222  -3.432  15.777  1.00  0.00     0.068 A 
ATOM     13  C   UNL     1      15.394  -3.509  16.542  1.00  0.00     0.162 A 
ATOM     14  C   UNL     1      13.454  -5.519  16.733  1.00  0.00     0.068 A 
ATOM     15  C   UNL     1      15.594  -4.595  17.412  1.00  0.00     0.200 A 
ATOM     16  C   UNL     1      14.620  -5.604  17.501  1.00  0.00     0.162 A 
BRANCH  13  17
ATOM     17  O   UNL     1      16.364  -2.513  16.437  1.00  0.00    -0.504 OA
ATOM     18  H   UNL     1      16.297  -1.777  15.744  1.00  0.00     0.293 HD
ENDBRANCH  13  17
BRANCH  15  19
ATOM     19  O   UNL     1      16.753  -4.686  18.184  1.00  0.00    -0.502 OA
ATOM     20  H   UNL     1      17.020  -3.964  18.842  1.00  0.00     0.293 HD
ENDBRANCH  15  19
BRANCH  16  21
ATOM     21  O   UNL     1      14.791  -6.699  18.348  1.00  0.00    -0.504 OA
ATOM     22  H   UNL     1      14.042  -7.050  18.933  1.00  0.00     0.293 HD
ENDBRANCH  16  21
ENDBRANCH   1  11
BRANCH  10  23
ATOM     23  O   UNL     1      12.922  -5.864  13.363  1.00  0.00    -0.500 OA
ATOM     24  H   UNL     1      13.885  -5.559  13.439  1.00  0.00     0.294 HD
ENDBRANCH  10  23
BRANCH   5  25
ATOM     25  O   UNL     1       6.655  -1.683  15.228  1.00  0.00    -0.507 OA
ATOM     26  H   UNL     1       5.893  -2.048  15.789  1.00  0.00     0.293 HD
ENDBRANCH   5  25
BRANCH   7  27
ATOM     27  O   UNL     1       8.065  -4.735  11.778  1.00  0.00    -0.507 OA
ATOM     28  H   UNL     1       7.837  -5.716  11.719  1.00  0.00     0.293 HD
ENDBRANCH   7  27
TORSDOF 7
ENDMDL
MODEL 5
REMARK VINA RESULT:    -7.446      1.628      7.030
REMARK INTER + INTRA:          -9.422
REMARK INTER:                  -9.061
REMARK INTRA:                  -0.362
REMARK UNBOUND:                -0.235
REMARK SMILES Oc1cc(O)c2cc(O)c(-c3cc(O)c(O)c(O)c3)[o+]c2c1
REMARK SMILES IDX 10 1 20 2 21 3 22 4 2 5 3 6 4 7 6 8 7 9 8 10 11 11 12 12
REMARK SMILES IDX 13 13 19 14 15 15 17 16 14 17 16 19 18 21 9 23 1 25 5 27
REMARK H PARENT 14 18 16 20 18 22 9 24 1 26 5 28
REMARK Flexibility Score: inf
ROOT
ATOM      1  C   UNL     1       4.970  -7.127   7.656  1.00  0.00     0.402 A 
ATOM      2  O   UNL     1       4.675  -6.333   6.630  1.00  0.00    -0.202 OA
ATOM      3  C   UNL     1       3.636  -6.533   5.826  1.00  0.00     0.368 A 
ATOM      4  C   UNL     1       3.407  -5.641   4.776  1.00  0.00     0.162 A 
ATOM      5  C   UNL     1       2.322  -5.825   3.918  1.00  0.00     0.128 A 
ATOM      6  C   UNL     1       1.457  -6.909   4.111  1.00  0.00     0.093 A 
ATOM      7  C   UNL     1       1.666  -7.817   5.156  1.00  0.00     0.136 A 
ATOM      8  C   UNL     1       2.770  -7.634   6.028  1.00  0.00     0.125 A 
ATOM      9  C   UNL     1       3.063  -8.501   7.094  1.00  0.00     0.078 A 
ATOM     10  C   UNL     1       4.172  -8.259   7.909  1.00  0.00     0.223 A 
ENDROOT
BRANCH   1  11
ATOM     11  C   UNL     1       6.149  -6.792   8.485  1.00  0.00     0.091 A 
ATOM     12  C   UNL     1       7.392  -7.412   8.275  1.00  0.00     0.068 A 
ATOM     13  C   UNL     1       8.492  -7.098   9.085  1.00  0.00     0.162 A 
ATOM     14  C   UNL     1       6.013  -5.877   9.541  1.00  0.00     0.068 A 
ATOM     15  C   UNL     1       8.352  -6.164  10.126  1.00  0.00     0.200 A 
ATOM     16  C   UNL     1       7.105  -5.556  10.354  1.00  0.00     0.162 A 
BRANCH  13  17
ATOM     17  O   UNL     1       9.721  -7.716   8.864  1.00  0.00    -0.504 OA
ATOM     18  H   UNL     1      10.596  -7.259   9.098  1.00  0.00     0.293 HD
ENDBRANCH  13  17
BRANCH  15  19
ATOM     19  O   UNL     1       9.437  -5.836  10.940  1.00  0.00    -0.502 OA
ATOM     20  H   UNL     1      10.388  -5.824  10.591  1.00  0.00     0.293 HD
ENDBRANCH  15  19
BRANCH  16  21
ATOM     21  O   UNL     1       6.932  -4.631  11.383  1.00  0.00    -0.504 OA
ATOM     22  H   UNL     1       6.208  -4.736  12.085  1.00  0.00     0.293 HD
ENDBRANCH  16  21
ENDBRANCH   1  11
BRANCH  10  23
ATOM     23  O   UNL     1       4.493  -9.147   8.936  1.00  0.00    -0.500 OA
ATOM     24  H   UNL     1       5.205  -8.932   9.624  1.00  0.00     0.294 HD
ENDBRANCH  10  23
BRANCH   5  25
ATOM     25  O   UNL     1       2.110  -4.925   2.876  1.00  0.00    -0.507 OA
ATOM     26  H   UNL     1       1.292  -4.327   2.849  1.00  0.00     0.293 HD
ENDBRANCH   5  25
BRANCH   7  27
ATOM     27  O   UNL     1       0.756  -8.871   5.284  1.00  0.00    -0.507 OA
ATOM     28  H   UNL     1      -0.153  -8.791   5.712  1.00  0.00     0.293 HD
ENDBRANCH   7  27
TORSDOF 7
ENDMDL
MODEL 6
REMARK VINA RESULT:    -7.324      9.899     14.867
REMARK INTER + INTRA:          -9.272
REMARK INTER:                  -9.106
REMARK INTRA:                  -0.166
REMARK UNBOUND:                -0.235
REMARK SMILES Oc1cc(O)c2cc(O)c(-c3cc(O)c(O)c(O)c3)[o+]c2c1
REMARK SMILES IDX 10 1 20 2 21 3 22 4 2 5 3 6 4 7 6 8 7 9 8 10 11 11 12 12
REMARK SMILES IDX 13 13 19 14 15 15 17 16 14 17 16 19 18 21 9 23 1 25 5 27
REMARK H PARENT 14 18 16 20 18 22 9 24 1 26 5 28
REMARK Flexibility Score: inf
ROOT
ATOM      1  C   UNL     1      13.177  -4.892  17.105  1.00  0.00     0.402 A 
ATOM      2  O   UNL     1      12.542  -4.654  15.961  1.00  0.00    -0.202 OA
ATOM      3  C   UNL     1      11.219  -4.569  15.863  1.00  0.00     0.368 A 
ATOM      4  C   UNL     1      10.645  -4.312  14.615  1.00  0.00     0.162 A 
ATOM      5  C   UNL     1       9.260  -4.215  14.483  1.00  0.00     0.128 A 
ATOM      6  C   UNL     1       8.439  -4.375  15.606  1.00  0.00     0.093 A 
ATOM      7  C   UNL     1       8.991  -4.634  16.867  1.00  0.00     0.136 A 
ATOM      8  C   UNL     1      10.400  -4.736  17.004  1.00  0.00     0.125 A 
ATOM      9  C   UNL     1      11.039  -5.005  18.226  1.00  0.00     0.078 A 
ATOM     10  C   UNL     1      12.433  -5.095  18.282  1.00  0.00     0.223 A 
ENDROOT
BRANCH   1  11
ATOM     11  C   UNL     1      14.656  -4.952  17.087  1.00  0.00     0.091 A 
ATOM     12  C   UNL     1      15.340  -5.904  16.313  1.00  0.00     0.068 A 
ATOM     13  C   UNL     1      16.741  -5.960  16.326  1.00  0.00     0.162 A 
ATOM     14  C   UNL     1      15.392  -4.078  17.902  1.00  0.00     0.068 A 
ATOM     15  C   UNL     1      17.471  -5.066  17.128  1.00  0.00     0.200 A 
ATOM     16  C   UNL     1      16.790  -4.126  17.920  1.00  0.00     0.162 A 
BRANCH  13  17
ATOM     17  O   UNL     1      17.409  -6.906  15.550  1.00  0.00    -0.504 OA
ATOM     18  H   UNL     1      18.407  -6.846  15.382  1.00  0.00     0.293 HD
ENDBRANCH  13  17
BRANCH  15  19
ATOM     19  O   UNL     1      18.866  -5.105  17.150  1.00  0.00    -0.502 OA
ATOM     20  H   UNL     1      19.396  -5.757  16.585  1.00  0.00     0.293 HD
ENDBRANCH  15  19
BRANCH  16  21
ATOM     21  O   UNL     1      17.485  -3.230  18.733  1.00  0.00    -0.504 OA
ATOM     22  H   UNL     1      18.369  -2.822  18.451  1.00  0.00     0.293 HD
ENDBRANCH  16  21
ENDBRANCH   1  11
BRANCH  10  23
ATOM     23  O   UNL     1      13.065  -5.412  19.485  1.00  0.00    -0.500 OA
ATOM     24  H   UNL     1      14.039  -5.187  19.651  1.00  0.00     0.294 HD
ENDBRANCH  10  23
BRANCH   5  25
ATOM     25  O   UNL     1       8.705  -3.959  13.231  1.00  0.00    -0.507 OA
ATOM     26  H   UNL     1       8.792  -3.051  12.789  1.00  0.00     0.293 HD
ENDBRANCH   5  25
BRANCH   7  27
ATOM     27  O   UNL     1       8.106  -4.778  17.940  1.00  0.00    -0.507 OA
ATOM     28  H   UNL     1       7.731  -4.011  18.477  1.00  0.00     0.293 HD
ENDBRANCH   7  27
TORSDOF 7
ENDMDL
MODEL 7
REMARK VINA RESULT:    -7.319      5.307      8.171
REMARK INTER + INTRA:          -9.265
REMARK INTER:                  -8.894
REMARK INTRA:                  -0.372
REMARK UNBOUND:                -0.235
REMARK SMILES Oc1cc(O)c2cc(O)c(-c3cc(O)c(O)c(O)c3)[o+]c2c1
REMARK SMILES IDX 10 1 20 2 21 3 22 4 2 5 3 6 4 7 6 8 7 9 8 10 11 11 12 12
REMARK SMILES IDX 13 13 19 14 15 15 17 16 14 17 16 19 18 21 9 23 1 25 5 27
REMARK H PARENT 14 18 16 20 18 22 9 24 1 26 5 28
REMARK Flexibility Score: inf
ROOT
ATOM      1  C   UNL     1      10.447  -4.471  11.106  1.00  0.00     0.402 A 
ATOM      2  O   UNL     1      10.557  -3.195  10.746  1.00  0.00    -0.202 OA
ATOM      3  C   UNL     1      11.391  -2.341  11.329  1.00  0.00     0.368 A 
ATOM      4  C   UNL     1      11.437  -1.019  10.876  1.00  0.00     0.162 A 
ATOM      5  C   UNL     1      12.305  -0.102  11.468  1.00  0.00     0.128 A 
ATOM      6  C   UNL     1      13.136  -0.505  12.520  1.00  0.00     0.093 A 
ATOM      7  C   UNL     1      13.108  -1.824  12.991  1.00  0.00     0.136 A 
ATOM      8  C   UNL     1      12.224  -2.759  12.394  1.00  0.00     0.125 A 
ATOM      9  C   UNL     1      12.120  -4.097  12.809  1.00  0.00     0.078 A 
ATOM     10  C   UNL     1      11.222  -4.960  12.174  1.00  0.00     0.223 A 
ENDROOT
BRANCH   1  11
ATOM     11  C   UNL     1       9.488  -5.326  10.372  1.00  0.00     0.091 A 
ATOM     12  C   UNL     1       8.131  -5.379  10.729  1.00  0.00     0.068 A 
ATOM     13  C   UNL     1       7.242  -6.212  10.036  1.00  0.00     0.162 A 
ATOM     14  C   UNL     1       9.951  -6.146   9.331  1.00  0.00     0.068 A 
ATOM     15  C   UNL     1       7.710  -7.013   8.981  1.00  0.00     0.200 A 
ATOM     16  C   UNL     1       9.071  -6.980   8.632  1.00  0.00     0.162 A 
BRANCH  13  17
ATOM     17  O   UNL     1       5.896  -6.252  10.397  1.00  0.00    -0.504 OA
ATOM     18  H   UNL     1       5.567  -5.853  11.269  1.00  0.00     0.293 HD
ENDBRANCH  13  17
BRANCH  15  19
ATOM     19  O   UNL     1       6.839  -7.846   8.276  1.00  0.00    -0.502 OA
ATOM     20  H   UNL     1       5.834  -7.727   8.312  1.00  0.00     0.293 HD
ENDBRANCH  15  19
BRANCH  16  21
ATOM     21  O   UNL     1       9.569  -7.768   7.595  1.00  0.00    -0.504 OA
ATOM     22  H   UNL     1      10.092  -7.373   6.822  1.00  0.00     0.293 HD
ENDBRANCH  16  21
ENDBRANCH   1  11
BRANCH  10  23
ATOM     23  O   UNL     1      11.081  -6.275  12.619  1.00  0.00    -0.500 OA
ATOM     24  H   UNL     1      10.174  -6.719  12.691  1.00  0.00     0.294 HD
ENDBRANCH  10  23
BRANCH   5  25
ATOM     25  O   UNL     1      12.337   1.211  11.003  1.00  0.00    -0.507 OA
ATOM     26  H   UNL     1      11.596   1.587  10.423  1.00  0.00     0.293 HD
ENDBRANCH   5  25
BRANCH   7  27
ATOM     27  O   UNL     1      13.970  -2.150  14.042  1.00  0.00    -0.507 OA
ATOM     28  H   UNL     1      14.712  -2.831  13.981  1.00  0.00     0.293 HD
ENDBRANCH   7  27
TORSDOF 7
ENDMDL
MODEL 8
REMARK VINA RESULT:    -7.297      9.344     11.899
REMARK INTER + INTRA:          -9.238
REMARK INTER:                  -8.875
REMARK INTRA:                  -0.363
REMARK UNBOUND:                -0.235
REMARK SMILES Oc1cc(O)c2cc(O)c(-c3cc(O)c(O)c(O)c3)[o+]c2c1
REMARK SMILES IDX 10 1 20 2 21 3 22 4 2 5 3 6 4 7 6 8 7 9 8 10 11 11 12 12
REMARK SMILES IDX 13 13 19 14 15 15 17 16 14 17 16 19 18 21 9 23 1 25 5 27
REMARK H PARENT 14 18 16 20 18 22 9 24 1 26 5 28
REMARK Flexibility Score: inf
ROOT
ATOM      1  C   UNL     1      11.754  -4.282  13.891  1.00  0.00     0.402 A 
ATOM      2  O   UNL     1      12.232  -3.041  13.892  1.00  0.00    -0.202 OA
ATOM      3  C   UNL     1      12.472  -2.350  12.782  1.00  0.00     0.368 A 
ATOM      4  C   UNL     1      12.972  -1.050  12.885  1.00  0.00     0.162 A 
ATOM      5  C   UNL     1      13.231  -0.301  11.737  1.00  0.00     0.128 A 
ATOM      6  C   UNL     1      12.989  -0.854  10.474  1.00  0.00     0.093 A 
ATOM      7  C   UNL     1      12.489  -2.155  10.345  1.00  0.00     0.136 A 
ATOM      8  C   UNL     1      12.227  -2.921  11.510  1.00  0.00     0.125 A 
ATOM      9  C   UNL     1      11.737  -4.237  11.475  1.00  0.00     0.078 A 
ATOM     10  C   UNL     1      11.507  -4.931  12.667  1.00  0.00     0.223 A 
ENDROOT
BRANCH   1  11
ATOM     11  C   UNL     1      11.518  -4.943  15.195  1.00  0.00     0.091 A 
ATOM     12  C   UNL     1      12.464  -5.816  15.755  1.00  0.00     0.068 A 
ATOM     13  C   UNL     1      12.213  -6.450  16.980  1.00  0.00     0.162 A 
ATOM     14  C   UNL     1      10.300  -4.738  15.862  1.00  0.00     0.068 A 
ATOM     15  C   UNL     1      11.000  -6.222  17.652  1.00  0.00     0.200 A 
ATOM     16  C   UNL     1      10.041  -5.365  17.085  1.00  0.00     0.162 A 
BRANCH  13  17
ATOM     17  O   UNL     1      13.162  -7.311  17.528  1.00  0.00    -0.504 OA
ATOM     18  H   UNL     1      13.649  -7.087  18.389  1.00  0.00     0.293 HD
ENDBRANCH  13  17
BRANCH  15  19
ATOM     19  O   UNL     1      10.735  -6.841  18.874  1.00  0.00    -0.502 OA
ATOM     20  H   UNL     1       9.990  -7.519  18.985  1.00  0.00     0.293 HD
ENDBRANCH  15  19
BRANCH  16  21
ATOM     21  O   UNL     1       8.824  -5.123  17.723  1.00  0.00    -0.504 OA
ATOM     22  H   UNL     1       8.774  -4.765  18.669  1.00  0.00     0.293 HD
ENDBRANCH  16  21
ENDBRANCH   1  11
BRANCH  10  23
ATOM     23  O   UNL     1      11.069  -6.255  12.632  1.00  0.00    -0.500 OA
ATOM     24  H   UNL     1      11.227  -6.890  13.406  1.00  0.00     0.294 HD
ENDBRANCH  10  23
BRANCH   5  25
ATOM     25  O   UNL     1      13.729   0.995  11.861  1.00  0.00    -0.507 OA
ATOM     26  H   UNL     1      13.819   1.445  12.764  1.00  0.00     0.293 HD
ENDBRANCH   5  25
BRANCH   7  27
ATOM     27  O   UNL     1      12.270  -2.635   9.050  1.00  0.00    -0.507 OA
ATOM     28  H   UNL     1      12.779  -2.329   8.235  1.00  0.00     0.293 HD
ENDBRANCH   7  27
TORSDOF 7
ENDMDL
MODEL 9
REMARK VINA RESULT:    -7.274      8.707     13.532
REMARK INTER + INTRA:          -9.211
REMARK INTER:                  -9.031
REMARK INTRA:                  -0.179
REMARK UNBOUND:                -0.235
REMARK SMILES Oc1cc(O)c2cc(O)c(-c3cc(O)c(O)c(O)c3)[o+]c2c1
REMARK SMILES IDX 10 1 20 2 21 3 22 4 2 5 3 6 4 7 6 8 7 9 8 10 11 11 12 12
REMARK SMILES IDX 13 13 19 14 15 15 17 16 14 17 16 19 18 21 9 23 1 25 5 27
REMARK H PARENT 14 18 16 20 18 22 9 24 1 26 5 28
REMARK Flexibility Score: inf
ROOT
ATOM      1  C   UNL     1      11.514  -3.242  15.901  1.00  0.00     0.402 A 
ATOM      2  O   UNL     1      10.818  -3.754  14.890  1.00  0.00    -0.202 OA
ATOM      3  C   UNL     1       9.579  -3.376  14.591  1.00  0.00     0.368 A 
ATOM      4  C   UNL     1       8.931  -3.970  13.505  1.00  0.00     0.162 A 
ATOM      5  C   UNL     1       7.632  -3.591  13.167  1.00  0.00     0.128 A 
ATOM      6  C   UNL     1       6.974  -2.609  13.917  1.00  0.00     0.093 A 
ATOM      7  C   UNL     1       7.603  -1.999  15.009  1.00  0.00     0.136 A 
ATOM      8  C   UNL     1       8.923  -2.384  15.358  1.00  0.00     0.125 A 
ATOM      9  C   UNL     1       9.626  -1.836  16.444  1.00  0.00     0.078 A 
ATOM     10  C   UNL     1      10.924  -2.270  16.729  1.00  0.00     0.223 A 
ENDROOT
BRANCH   1  11
ATOM     11  C   UNL     1      12.890  -3.739  16.126  1.00  0.00     0.091 A 
ATOM     12  C   UNL     1      13.990  -2.866  16.142  1.00  0.00     0.068 A 
ATOM     13  C   UNL     1      15.289  -3.358  16.334  1.00  0.00     0.162 A 
ATOM     14  C   UNL     1      13.111  -5.117  16.273  1.00  0.00     0.068 A 
ATOM     15  C   UNL     1      15.498  -4.738  16.502  1.00  0.00     0.200 A 
ATOM     16  C   UNL     1      14.403  -5.618  16.467  1.00  0.00     0.162 A 
BRANCH  13  17
ATOM     17  O   UNL     1      16.373  -2.481  16.353  1.00  0.00    -0.504 OA
ATOM     18  H   UNL     1      17.281  -2.766  16.701  1.00  0.00     0.293 HD
ENDBRANCH  13  17
BRANCH  15  19
ATOM     19  O   UNL     1      16.784  -5.245  16.699  1.00  0.00    -0.502 OA
ATOM     20  H   UNL     1      17.557  -5.004  16.092  1.00  0.00     0.293 HD
ENDBRANCH  15  19
BRANCH  16  21
ATOM     21  O   UNL     1      14.578  -6.992  16.623  1.00  0.00    -0.504 OA
ATOM     22  H   UNL     1      13.815  -7.649  16.504  1.00  0.00     0.293 HD
ENDBRANCH  16  21
ENDBRANCH   1  11
BRANCH  10  23
ATOM     23  O   UNL     1      11.603  -1.762  17.837  1.00  0.00    -0.500 OA
ATOM     24  H   UNL     1      11.399  -2.078  18.778  1.00  0.00     0.294 HD
ENDBRANCH  10  23
BRANCH   5  25
ATOM     25  O   UNL     1       7.001  -4.194  12.081  1.00  0.00    -0.507 OA
ATOM     26  H   UNL     1       7.148  -5.172  11.858  1.00  0.00     0.293 HD
ENDBRANCH   5  25
BRANCH   7  27
ATOM     27  O   UNL     1       6.881  -1.025  15.707  1.00  0.00    -0.507 OA
ATOM     28  H   UNL     1       6.328  -0.304  15.270  1.00  0.00     0.293 HD
ENDBRANCH   7  27
TORSDOF 7
ENDMDL
