MODEL 1
REMARK VINA RESULT:    -4.685      0.000      0.000
REMARK INTER + INTRA:          -7.020
REMARK INTER:                  -6.602
REMARK INTRA:                  -0.418
REMARK UNBOUND:                -0.418
REMARK SMILES CCCCCCCCC(=O)[O-]
REMARK SMILES IDX 6 1 7 2 8 3 9 4 10 5 11 6 5 7 4 8 3 9 2 10 1 11
REMARK H PARENT
REMARK Flexibility Score: inf
ROOT
ATOM      1  C   UNL     1     -16.125  -9.201 -21.274  1.00  0.00     0.000 C 
ENDROOT
BRANCH   1   2
ATOM      2  C   UNL     1     -15.900  -8.015 -20.329  1.00  0.00     0.006 C 
BRANCH   2   3
ATOM      3  C   UNL     1     -16.687  -6.786 -20.794  1.00  0.00     0.053 C 
BRANCH   3   4
ATOM      4  C   UNL     1     -15.917  -6.031 -21.831  1.00  0.00     0.041 C 
ATOM      5  O   UNL     1     -14.949  -6.575 -22.424  1.00  0.00    -0.550 OA
ATOM      6  O   UNL     1     -16.237  -4.707 -22.107  1.00  0.00    -0.550 OA
ENDBRANCH   3   4
ENDBRANCH   2   3
ENDBRANCH   1   2
BRANCH   1   7
ATOM      7  C   UNL     1     -17.560  -9.210 -21.815  1.00  0.00     0.000 C 
BRANCH   7   8
ATOM      8  C   UNL     1     -17.570  -9.251 -23.348  1.00  0.00    -0.000 C 
BRANCH   8   9
ATOM      9  C   UNL     1     -16.140  -9.306 -23.906  1.00  0.00    -0.000 C 
BRANCH   9  10
ATOM     10  C   UNL     1     -15.932  -8.352 -25.093  1.00  0.00    -0.003 C 
ATOM     11  C   UNL     1     -16.953  -7.216 -25.124  1.00  0.00     0.004 C 
ENDBRANCH   9  10
ENDBRANCH   8   9
ENDBRANCH   7   8
ENDBRANCH   1   7
TORSDOF 7
ENDMDL
MODEL 2
REMARK VINA RESULT:    -4.193      2.271      4.474
REMARK INTER + INTRA:          -6.327
REMARK INTER:                  -6.073
REMARK INTRA:                  -0.254
REMARK UNBOUND:                -0.418
REMARK SMILES CCCCCCCCC(=O)[O-]
REMARK SMILES IDX 6 1 7 2 8 3 9 4 10 5 11 6 5 7 4 8 3 9 2 10 1 11
REMARK H PARENT
REMARK Flexibility Score: inf
ROOT
ATOM      1  C   UNL     1     -16.508  -6.813 -24.393  1.00  0.00     0.000 C 
ENDROOT
BRANCH   1   2
ATOM      2  C   UNL     1     -16.971  -8.201 -24.847  1.00  0.00     0.006 C 
BRANCH   2   3
ATOM      3  C   UNL     1     -16.715  -9.249 -23.760  1.00  0.00     0.053 C 
BRANCH   3   4
ATOM      4  C   UNL     1     -17.949  -9.468 -22.941  1.00  0.00     0.041 C 
ATOM      5  O   UNL     1     -19.078  -9.154 -23.401  1.00  0.00    -0.550 OA
ATOM      6  O   UNL     1     -17.846  -9.972 -21.651  1.00  0.00    -0.550 OA
ENDBRANCH   3   4
ENDBRANCH   2   3
ENDBRANCH   1   2
BRANCH   1   7
ATOM      7  C   UNL     1     -15.490  -6.918 -23.250  1.00  0.00     0.000 C 
BRANCH   7   8
ATOM      8  C   UNL     1     -15.878  -6.005 -22.081  1.00  0.00    -0.000 C 
BRANCH   8   9
ATOM      9  C   UNL     1     -16.772  -6.747 -21.077  1.00  0.00    -0.000 C 
BRANCH   9  10
ATOM     10  C   UNL     1     -15.966  -7.429 -19.960  1.00  0.00    -0.003 C 
ATOM     11  C   UNL     1     -15.230  -8.679 -20.441  1.00  0.00     0.004 C 
ENDBRANCH   9  10
ENDBRANCH   8   9
ENDBRANCH   7   8
ENDBRANCH   1   7
TORSDOF 7
ENDMDL
MODEL 3
REMARK VINA RESULT:    -4.136      1.916      3.757
REMARK INTER + INTRA:          -6.246
REMARK INTER:                  -6.060
REMARK INTRA:                  -0.186
REMARK UNBOUND:                -0.418
REMARK SMILES CCCCCCCCC(=O)[O-]
REMARK SMILES IDX 6 1 7 2 8 3 9 4 10 5 11 6 5 7 4 8 3 9 2 10 1 11
REMARK H PARENT
REMARK Flexibility Score: inf
ROOT
ATOM      1  C   UNL     1     -15.530  -6.917 -22.685  1.00  0.00     0.000 C 
ENDROOT
BRANCH   1   2
ATOM      2  C   UNL     1     -16.305  -6.275 -23.842  1.00  0.00     0.006 C 
BRANCH   2   3
ATOM      3  C   UNL     1     -16.706  -7.324 -24.883  1.00  0.00     0.053 C 
BRANCH   3   4
ATOM      4  C   UNL     1     -15.714  -8.444 -24.909  1.00  0.00     0.041 C 
ATOM      5  O   UNL     1     -16.087  -9.627 -24.697  1.00  0.00    -0.550 OA
ATOM      6  O   UNL     1     -14.367  -8.174 -25.118  1.00  0.00    -0.550 OA
ENDBRANCH   3   4
ENDBRANCH   2   3
ENDBRANCH   1   2
BRANCH   1   7
ATOM      7  C   UNL     1     -16.197  -6.610 -21.339  1.00  0.00     0.000 C 
BRANCH   7   8
ATOM      8  C   UNL     1     -16.186  -7.841 -20.425  1.00  0.00    -0.000 C 
BRANCH   8   9
ATOM      9  C   UNL     1     -16.208  -9.137 -21.250  1.00  0.00    -0.000 C 
BRANCH   9  10
ATOM     10  C   UNL     1     -17.622  -9.724 -21.390  1.00  0.00    -0.003 C 
ATOM     11  C   UNL     1     -18.461  -9.000 -22.443  1.00  0.00     0.004 C 
ENDBRANCH   9  10
ENDBRANCH   8   9
ENDBRANCH   7   8
ENDBRANCH   1   7
TORSDOF 7
ENDMDL
MODEL 4
REMARK VINA RESULT:    -4.024      2.157      3.217
REMARK INTER + INTRA:          -6.089
REMARK INTER:                  -5.443
REMARK INTRA:                  -0.646
REMARK UNBOUND:                -0.418
REMARK SMILES CCCCCCCCC(=O)[O-]
REMARK SMILES IDX 6 1 7 2 8 3 9 4 10 5 11 6 5 7 4 8 3 9 2 10 1 11
REMARK H PARENT
REMARK Flexibility Score: inf
ROOT
ATOM      1  C   UNL     1     -16.205  -6.535 -21.261  1.00  0.00     0.000 C 
ENDROOT
BRANCH   1   2
ATOM      2  C   UNL     1     -16.150  -7.858 -20.490  1.00  0.00     0.006 C 
BRANCH   2   3
ATOM      3  C   UNL     1     -16.134  -9.053 -21.447  1.00  0.00     0.053 C 
BRANCH   3   4
ATOM      4  C   UNL     1     -17.524  -9.552 -21.686  1.00  0.00     0.041 C 
ATOM      5  O   UNL     1     -18.024 -10.424 -20.928  1.00  0.00    -0.550 OA
ATOM      6  O   UNL     1     -18.250  -9.090 -22.777  1.00  0.00    -0.550 OA
ENDBRANCH   3   4
ENDBRANCH   2   3
ENDBRANCH   1   2
BRANCH   1   7
ATOM      7  C   UNL     1     -15.552  -6.676 -22.642  1.00  0.00     0.000 C 
BRANCH   7   8
ATOM      8  C   UNL     1     -16.459  -6.107 -23.740  1.00  0.00    -0.000 C 
BRANCH   8   9
ATOM      9  C   UNL     1     -16.650  -7.124 -24.876  1.00  0.00    -0.000 C 
BRANCH   9  10
ATOM     10  C   UNL     1     -15.413  -8.011 -25.089  1.00  0.00    -0.003 C 
ATOM     11  C   UNL     1     -15.731  -9.503 -24.989  1.00  0.00     0.004 C 
ENDBRANCH   9  10
ENDBRANCH   8   9
ENDBRANCH   7   8
ENDBRANCH   1   7
TORSDOF 7
ENDMDL
MODEL 5
REMARK VINA RESULT:    -3.703      1.666      2.999
REMARK INTER + INTRA:          -5.636
REMARK INTER:                  -5.295
REMARK INTRA:                  -0.341
REMARK UNBOUND:                -0.418
REMARK SMILES CCCCCCCCC(=O)[O-]
REMARK SMILES IDX 6 1 7 2 8 3 9 4 10 5 11 6 5 7 4 8 3 9 2 10 1 11
REMARK H PARENT
REMARK Flexibility Score: inf
ROOT
ATOM      1  C   UNL     1     -17.696  -8.928 -23.675  1.00  0.00     0.000 C 
ENDROOT
BRANCH   1   2
ATOM      2  C   UNL     1     -17.725  -9.567 -22.282  1.00  0.00     0.006 C 
BRANCH   2   3
ATOM      3  C   UNL     1     -17.771  -8.498 -21.188  1.00  0.00     0.053 C 
BRANCH   3   4
ATOM      4  C   UNL     1     -16.412  -8.292 -20.597  1.00  0.00     0.041 C 
ATOM      5  O   UNL     1     -15.482  -9.103 -20.849  1.00  0.00    -0.550 OA
ATOM      6  O   UNL     1     -16.185  -7.232 -19.728  1.00  0.00    -0.550 OA
ENDBRANCH   3   4
ENDBRANCH   2   3
ENDBRANCH   1   2
BRANCH   1   7
ATOM      7  C   UNL     1     -16.335  -9.138 -24.349  1.00  0.00     0.000 C 
BRANCH   7   8
ATOM      8  C   UNL     1     -15.446  -7.899 -24.193  1.00  0.00    -0.000 C 
BRANCH   8   9
ATOM      9  C   UNL     1     -16.287  -6.658 -23.857  1.00  0.00    -0.000 C 
BRANCH   9  10
ATOM     10  C   UNL     1     -15.737  -5.881 -22.651  1.00  0.00    -0.003 C 
ATOM     11  C   UNL     1     -16.363  -4.494 -22.505  1.00  0.00     0.004 C 
ENDBRANCH   9  10
ENDBRANCH   8   9
ENDBRANCH   7   8
ENDBRANCH   1   7
TORSDOF 7
ENDMDL
MODEL 6
REMARK VINA RESULT:    -3.502     19.588     20.664
REMARK INTER + INTRA:          -5.352
REMARK INTER:                  -5.127
REMARK INTRA:                  -0.225
REMARK UNBOUND:                -0.418
REMARK SMILES CCCCCCCCC(=O)[O-]
REMARK SMILES IDX 6 1 7 2 8 3 9 4 10 5 11 6 5 7 4 8 3 9 2 10 1 11
REMARK H PARENT
REMARK Flexibility Score: inf
ROOT
ATOM      1  C   UNL     1      -1.128   6.092 -20.980  1.00  0.00     0.000 C 
ENDROOT
BRANCH   1   2
ATOM      2  C   UNL     1      -0.920   7.444 -21.672  1.00  0.00     0.006 C 
BRANCH   2   3
ATOM      3  C   UNL     1      -1.003   7.301 -23.194  1.00  0.00     0.053 C 
BRANCH   3   4
ATOM      4  C   UNL     1      -2.409   7.009 -23.618  1.00  0.00     0.041 C 
ATOM      5  O   UNL     1      -3.323   7.847 -23.400  1.00  0.00    -0.550 OA
ATOM      6  O   UNL     1      -2.718   5.790 -24.209  1.00  0.00    -0.550 OA
ENDBRANCH   3   4
ENDBRANCH   2   3
ENDBRANCH   1   2
BRANCH   1   7
ATOM      7  C   UNL     1      -0.960   6.219 -19.461  1.00  0.00     0.000 C 
BRANCH   7   8
ATOM      8  C   UNL     1      -1.658   5.065 -18.732  1.00  0.00    -0.000 C 
BRANCH   8   9
ATOM      9  C   UNL     1      -1.852   5.393 -17.244  1.00  0.00    -0.000 C 
BRANCH   9  10
ATOM     10  C   UNL     1      -3.212   6.050 -16.956  1.00  0.00    -0.003 C 
ATOM     11  C   UNL     1      -3.817   5.599 -15.627  1.00  0.00     0.004 C 
ENDBRANCH   9  10
ENDBRANCH   8   9
ENDBRANCH   7   8
ENDBRANCH   1   7
TORSDOF 7
ENDMDL
MODEL 7
REMARK VINA RESULT:    -3.258     17.949     19.093
REMARK INTER + INTRA:          -5.009
REMARK INTER:                  -4.423
REMARK INTRA:                  -0.586
REMARK UNBOUND:                -0.418
REMARK SMILES CCCCCCCCC(=O)[O-]
REMARK SMILES IDX 6 1 7 2 8 3 9 4 10 5 11 6 5 7 4 8 3 9 2 10 1 11
REMARK H PARENT
REMARK Flexibility Score: inf
ROOT
ATOM      1  C   UNL     1      -4.969 -10.008  -8.417  1.00  0.00     0.000 C 
ENDROOT
BRANCH   1   2
ATOM      2  C   UNL     1      -4.934  -8.500  -8.145  1.00  0.00     0.006 C 
BRANCH   2   3
ATOM      3  C   UNL     1      -4.850  -8.214  -6.643  1.00  0.00     0.053 C 
BRANCH   3   4
ATOM      4  C   UNL     1      -3.612  -7.436  -6.325  1.00  0.00     0.041 C 
ATOM      5  O   UNL     1      -3.470  -6.265  -6.765  1.00  0.00    -0.550 OA
ATOM      6  O   UNL     1      -2.593  -8.023  -5.585  1.00  0.00    -0.550 OA
ENDBRANCH   3   4
ENDBRANCH   2   3
ENDBRANCH   1   2
BRANCH   1   7
ATOM      7  C   UNL     1      -5.754 -10.746  -7.326  1.00  0.00     0.000 C 
BRANCH   7   8
ATOM      8  C   UNL     1      -7.209 -10.975  -7.753  1.00  0.00    -0.000 C 
BRANCH   8   9
ATOM      9  C   UNL     1      -8.172 -10.716  -6.585  1.00  0.00    -0.000 C 
BRANCH   9  10
ATOM     10  C   UNL     1      -9.205  -9.623  -6.902  1.00  0.00    -0.003 C 
ATOM     11  C   UNL     1      -8.785  -8.246  -6.388  1.00  0.00     0.004 C 
ENDBRANCH   9  10
ENDBRANCH   8   9
ENDBRANCH   7   8
ENDBRANCH   1   7
TORSDOF 7
ENDMDL
MODEL 8
REMARK VINA RESULT:    -3.254     17.571     18.557
REMARK INTER + INTRA:          -5.003
REMARK INTER:                  -4.430
REMARK INTRA:                  -0.573
REMARK UNBOUND:                -0.418
REMARK SMILES CCCCCCCCC(=O)[O-]
REMARK SMILES IDX 6 1 7 2 8 3 9 4 10 5 11 6 5 7 4 8 3 9 2 10 1 11
REMARK H PARENT
REMARK Flexibility Score: inf
ROOT
ATOM      1  C   UNL     1      -7.237 -10.827  -7.670  1.00  0.00     0.000 C 
ENDROOT
BRANCH   1   2
ATOM      2  C   UNL     1      -7.982 -10.274  -6.450  1.00  0.00     0.006 C 
BRANCH   2   3
ATOM      3  C   UNL     1      -7.942  -8.743  -6.429  1.00  0.00     0.053 C 
BRANCH   3   4
ATOM      4  C   UNL     1      -9.326  -8.184  -6.333  1.00  0.00     0.041 C 
ATOM      5  O   UNL     1     -10.187  -8.466  -7.208  1.00  0.00    -0.550 OA
ATOM      6  O   UNL     1      -9.652  -7.309  -5.303  1.00  0.00    -0.550 OA
ENDBRANCH   3   4
ENDBRANCH   2   3
ENDBRANCH   1   2
BRANCH   1   7
ATOM      7  C   UNL     1      -5.720 -10.803  -7.446  1.00  0.00     0.000 C 
BRANCH   7   8
ATOM      8  C   UNL     1      -5.005 -10.086  -8.598  1.00  0.00    -0.000 C 
BRANCH   8   9
ATOM      9  C   UNL     1      -4.704  -8.624  -8.232  1.00  0.00    -0.000 C 
BRANCH   9  10
ATOM     10  C   UNL     1      -4.224  -8.465  -6.781  1.00  0.00    -0.003 C 
ATOM     11  C   UNL     1      -3.844  -7.025  -6.438  1.00  0.00     0.004 C 
ENDBRANCH   9  10
ENDBRANCH   8   9
ENDBRANCH   7   8
ENDBRANCH   1   7
TORSDOF 7
ENDMDL
