MODEL 1
REMARK VINA RESULT:    -3.710      0.000      0.000
REMARK INTER + INTRA:          -6.236
REMARK INTER:                  -5.662
REMARK INTRA:                  -0.575
REMARK UNBOUND:                -0.575
REMARK SMILES CC1=CCC[C@H](C)C(=O)C[C@H](C(C)C)C(=O)C1
REMARK SMILES IDX 8 1 9 2 6 3 7 4 5 5 4 6 3 7 2 8 1 9 10 11 11 12 15 13 16 14
REMARK SMILES IDX 17 15 12 17 13 18 14 19
REMARK H PARENT
REMARK Flexibility Score: 70.00
ROOT
ATOM      1  C   UNL     1       4.793  30.702  53.728  1.00  0.00     0.136 C 
ATOM      2  O   UNL     1       4.926  31.453  54.684  1.00  0.00    -0.299 OA
ENDROOT
BRANCH   1   3
ATOM      3  C   UNL     1       3.778  31.059  52.655  1.00  0.00     0.053 C 
ATOM      4  C   UNL     1       2.364  31.058  53.249  1.00  0.00     0.016 C 
BRANCH   3   5
ATOM      5  C   UNL     1       4.092  32.412  51.971  1.00  0.00     0.015 C 
BRANCH   5   6
ATOM      6  C   UNL     1       4.989  32.315  50.718  1.00  0.00     0.028 C 
BRANCH   6   7
ATOM      7  C   UNL     1       6.457  32.597  50.946  1.00  0.00    -0.028 C 
ATOM      8  C   UNL     1       7.464  31.699  50.842  1.00  0.00    -0.070 CG0
ATOM      9  C   UNL     1       8.862  32.165  51.168  1.00  0.00     0.039 C 
ATOM     10  G   UNL     1       7.255  30.253  50.430  1.00  0.00     0.000 G0
ENDBRANCH   6   7
ENDBRANCH   5   6
ENDBRANCH   3   5
ENDBRANCH   1   3
BRANCH   1  11
ATOM     11  C   UNL     1       5.689  29.484  53.633  1.00  0.00     0.087 C 
BRANCH  11  12
ATOM     12  C   UNL     1       5.786  28.946  52.182  1.00  0.00     0.066 C 
BRANCH  12  13
ATOM     13  C   UNL     1       7.142  29.284  51.576  1.00  0.00     0.140 C 
ATOM     14  O   UNL     1       8.147  28.736  52.002  1.00  0.00    -0.299 OA
BRANCH  13  15
ATOM     15  C   UNL     1       7.288  30.247  50.424  1.00  0.00     0.106 CG0
ATOM     16  G   UNL     1       7.455  31.687  50.872  1.00  0.00     0.000 G0
ENDBRANCH  13  15
ENDBRANCH  12  13
BRANCH  12  17
ATOM     17  C   UNL     1       5.434  27.430  52.089  1.00  0.00    -0.006 C 
ATOM     18  C   UNL     1       5.269  26.900  50.654  1.00  0.00     0.008 C 
ATOM     19  C   UNL     1       4.189  27.093  52.925  1.00  0.00     0.008 C 
ENDBRANCH  12  17
ENDBRANCH  11  12
ENDBRANCH   1  11
TORSDOF 1
ENDMDL
MODEL 2
REMARK VINA RESULT:    -3.590     11.998     13.772
REMARK INTER + INTRA:          -6.054
REMARK INTER:                  -5.611
REMARK INTRA:                  -0.443
REMARK UNBOUND:                -0.575
REMARK SMILES CC1=CCC[C@H](C)C(=O)C[C@H](C(C)C)C(=O)C1
REMARK SMILES IDX 8 1 9 2 6 3 7 4 5 5 4 6 3 7 2 8 1 9 10 11 11 12 15 13 16 14
REMARK SMILES IDX 17 15 12 17 13 18 14 19
REMARK H PARENT
REMARK Flexibility Score: 70.00
ROOT
ATOM      1  C   UNL     1      15.161  20.001  57.848  1.00  0.00     0.136 C 
ATOM      2  O   UNL     1      15.703  18.914  57.986  1.00  0.00    -0.299 OA
ENDROOT
BRANCH   1   3
ATOM      3  C   UNL     1      15.557  20.869  56.666  1.00  0.00     0.053 C 
ATOM      4  C   UNL     1      17.083  20.883  56.513  1.00  0.00     0.016 C 
BRANCH   3   5
ATOM      5  C   UNL     1      14.871  20.425  55.351  1.00  0.00     0.015 C 
BRANCH   5   6
ATOM      6  C   UNL     1      13.426  20.935  55.165  1.00  0.00     0.028 C 
BRANCH   6   7
ATOM      7  C   UNL     1      13.237  22.426  55.328  1.00  0.00    -0.028 C 
ATOM      8  C   UNL     1      12.569  23.037  56.334  1.00  0.00    -0.070 CG0
ATOM      9  C   UNL     1      12.442  24.540  56.286  1.00  0.00     0.039 C 
ATOM     10  G   UNL     1      11.936  22.288  57.492  1.00  0.00     0.000 G0
ENDBRANCH   6   7
ENDBRANCH   5   6
ENDBRANCH   3   5
ENDBRANCH   1   3
BRANCH   1  11
ATOM     11  C   UNL     1      14.079  20.402  58.830  1.00  0.00     0.087 C 
BRANCH  11  12
ATOM     12  C   UNL     1      14.038  21.935  59.056  1.00  0.00     0.066 C 
BRANCH  12  13
ATOM     13  C   UNL     1      12.635  22.475  58.811  1.00  0.00     0.140 C 
ATOM     14  O   UNL     1      12.073  23.116  59.686  1.00  0.00    -0.299 OA
BRANCH  13  15
ATOM     15  C   UNL     1      11.920  22.285  57.496  1.00  0.00     0.106 CG0
ATOM     16  G   UNL     1      12.580  23.031  56.350  1.00  0.00     0.000 G0
ENDBRANCH  13  15
ENDBRANCH  12  13
BRANCH  12  17
ATOM     17  C   UNL     1      14.617  22.343  60.445  1.00  0.00    -0.006 C 
ATOM     18  C   UNL     1      16.107  22.732  60.425  1.00  0.00     0.008 C 
ATOM     19  C   UNL     1      14.368  21.251  61.497  1.00  0.00     0.008 C 
ENDBRANCH  12  17
ENDBRANCH  11  12
ENDBRANCH   1  11
TORSDOF 1
ENDMDL
MODEL 3
REMARK VINA RESULT:    -3.554     10.482     12.075
REMARK INTER + INTRA:          -5.999
REMARK INTER:                  -5.676
REMARK INTRA:                  -0.324
REMARK UNBOUND:                -0.575
REMARK SMILES CC1=CCC[C@H](C)C(=O)C[C@H](C(C)C)C(=O)C1
REMARK SMILES IDX 8 1 9 2 6 3 7 4 5 5 4 6 3 7 2 8 1 9 10 11 11 12 15 13 16 14
REMARK SMILES IDX 17 15 12 17 13 18 14 19
REMARK H PARENT
REMARK Flexibility Score: 70.00
ROOT
ATOM      1  C   UNL     1      13.580  21.179  57.640  1.00  0.00     0.136 C 
ATOM      2  O   UNL     1      13.564  20.016  58.016  1.00  0.00    -0.299 OA
ENDROOT
BRANCH   1   3
ATOM      3  C   UNL     1      14.274  22.217  58.506  1.00  0.00     0.053 C 
ATOM      4  C   UNL     1      13.875  22.028  59.975  1.00  0.00     0.016 C 
BRANCH   3   5
ATOM      5  C   UNL     1      15.814  22.190  58.340  1.00  0.00     0.015 C 
BRANCH   5   6
ATOM      6  C   UNL     1      16.329  22.648  56.959  1.00  0.00     0.028 C 
BRANCH   6   7
ATOM      7  C   UNL     1      16.118  24.111  56.639  1.00  0.00    -0.028 C 
ATOM      8  C   UNL     1      15.234  24.610  55.743  1.00  0.00    -0.070 CG0
ATOM      9  C   UNL     1      15.217  26.102  55.525  1.00  0.00     0.039 C 
ATOM     10  G   UNL     1      14.277  23.745  54.945  1.00  0.00     0.000 G0
ENDBRANCH   6   7
ENDBRANCH   5   6
ENDBRANCH   3   5
ENDBRANCH   1   3
BRANCH   1  11
ATOM     11  C   UNL     1      12.958  21.517  56.301  1.00  0.00     0.087 C 
BRANCH  11  12
ATOM     12  C   UNL     1      12.176  22.855  56.344  1.00  0.00     0.066 C 
BRANCH  12  13
ATOM     13  C   UNL     1      12.817  23.880  55.417  1.00  0.00     0.140 C 
ATOM     14  O   UNL     1      12.177  24.858  55.064  1.00  0.00    -0.299 OA
BRANCH  13  15
ATOM     15  C   UNL     1      14.246  23.755  54.950  1.00  0.00     0.106 CG0
ATOM     16  G   UNL     1      15.208  24.616  55.748  1.00  0.00     0.000 G0
ENDBRANCH  13  15
ENDBRANCH  12  13
BRANCH  12  17
ATOM     17  C   UNL     1      10.652  22.657  56.078  1.00  0.00    -0.006 C 
ATOM     18  C   UNL     1       9.862  22.101  57.276  1.00  0.00     0.008 C 
ATOM     19  C   UNL     1      10.409  21.788  54.834  1.00  0.00     0.008 C 
ENDBRANCH  12  17
ENDBRANCH  11  12
ENDBRANCH   1  11
TORSDOF 1
ENDMDL
MODEL 4
REMARK VINA RESULT:    -3.508     11.579     13.280
REMARK INTER + INTRA:          -5.929
REMARK INTER:                  -5.554
REMARK INTRA:                  -0.375
REMARK UNBOUND:                -0.575
REMARK SMILES CC1=CCC[C@H](C)C(=O)C[C@H](C(C)C)C(=O)C1
REMARK SMILES IDX 8 1 9 2 6 3 7 4 5 5 4 6 3 7 2 8 1 9 10 11 11 12 15 13 16 14
REMARK SMILES IDX 17 15 12 17 13 18 14 19
REMARK H PARENT
REMARK Flexibility Score: 70.00
ROOT
ATOM      1  C   UNL     1      12.930  23.328  56.081  1.00  0.00     0.136 C 
ATOM      2  O   UNL     1      13.206  24.446  55.670  1.00  0.00    -0.299 OA
ENDROOT
BRANCH   1   3
ATOM      3  C   UNL     1      12.411  22.295  55.096  1.00  0.00     0.053 C 
ATOM      4  C   UNL     1      11.424  22.950  54.120  1.00  0.00     0.016 C 
BRANCH   3   5
ATOM      5  C   UNL     1      13.553  21.580  54.333  1.00  0.00     0.015 C 
BRANCH   5   6
ATOM      6  C   UNL     1      13.762  20.099  54.713  1.00  0.00     0.028 C 
BRANCH   6   7
ATOM      7  C   UNL     1      15.051  19.790  55.441  1.00  0.00    -0.028 C 
ATOM      8  C   UNL     1      15.172  19.498  56.757  1.00  0.00    -0.070 CG0
ATOM      9  C   UNL     1      16.559  19.276  57.306  1.00  0.00     0.039 C 
ATOM     10  G   UNL     1      13.988  19.399  57.701  1.00  0.00     0.000 G0
ENDBRANCH   6   7
ENDBRANCH   5   6
ENDBRANCH   3   5
ENDBRANCH   1   3
BRANCH   1  11
ATOM     11  C   UNL     1      13.175  23.012  57.543  1.00  0.00     0.087 C 
BRANCH  11  12
ATOM     12  C   UNL     1      12.583  21.638  57.947  1.00  0.00     0.066 C 
BRANCH  12  13
ATOM     13  C   UNL     1      13.683  20.702  58.431  1.00  0.00     0.140 C 
ATOM     14  O   UNL     1      14.314  20.983  59.439  1.00  0.00    -0.299 OA
BRANCH  13  15
ATOM     15  C   UNL     1      13.997  19.404  57.732  1.00  0.00     0.106 CG0
ATOM     16  G   UNL     1      15.164  19.516  56.768  1.00  0.00     0.000 G0
ENDBRANCH  13  15
ENDBRANCH  12  13
BRANCH  12  17
ATOM     17  C   UNL     1      11.407  21.777  58.962  1.00  0.00    -0.006 C 
ATOM     18  C   UNL     1      10.026  21.984  58.313  1.00  0.00     0.008 C 
ATOM     19  C   UNL     1      11.682  22.887  59.988  1.00  0.00     0.008 C 
ENDBRANCH  12  17
ENDBRANCH  11  12
ENDBRANCH   1  11
TORSDOF 1
ENDMDL
MODEL 5
REMARK VINA RESULT:    -3.417     11.892     13.414
REMARK INTER + INTRA:          -5.789
REMARK INTER:                  -5.424
REMARK INTRA:                  -0.365
REMARK UNBOUND:                -0.575
REMARK SMILES CC1=CCC[C@H](C)C(=O)C[C@H](C(C)C)C(=O)C1
REMARK SMILES IDX 8 1 9 2 6 3 7 4 5 5 4 6 3 7 2 8 1 9 10 11 11 12 15 13 16 14
REMARK SMILES IDX 17 15 12 17 13 18 14 19
REMARK H PARENT
REMARK Flexibility Score: 70.00
ROOT
ATOM      1  C   UNL     1      13.363  21.233  58.083  1.00  0.00     0.136 C 
ATOM      2  O   UNL     1      13.374  20.101  58.545  1.00  0.00    -0.299 OA
ENDROOT
BRANCH   1   3
ATOM      3  C   UNL     1      13.795  22.388  58.970  1.00  0.00     0.053 C 
ATOM      4  C   UNL     1      12.761  22.613  60.081  1.00  0.00     0.016 C 
BRANCH   3   5
ATOM      5  C   UNL     1      15.211  22.180  59.562  1.00  0.00     0.015 C 
BRANCH   5   6
ATOM      6  C   UNL     1      16.358  22.809  58.744  1.00  0.00     0.028 C 
BRANCH   6   7
ATOM      7  C   UNL     1      17.163  21.844  57.903  1.00  0.00    -0.028 C 
ATOM      8  C   UNL     1      17.158  21.772  56.552  1.00  0.00    -0.070 CG0
ATOM      9  C   UNL     1      17.991  20.696  55.900  1.00  0.00     0.039 C 
ATOM     10  G   UNL     1      16.352  22.706  55.669  1.00  0.00     0.000 G0
ENDBRANCH   6   7
ENDBRANCH   5   6
ENDBRANCH   3   5
ENDBRANCH   1   3
BRANCH   1  11
ATOM     11  C   UNL     1      12.974  21.420  56.630  1.00  0.00     0.087 C 
BRANCH  11  12
ATOM     12  C   UNL     1      13.712  22.618  55.981  1.00  0.00     0.066 C 
BRANCH  12  13
ATOM     13  C   UNL     1      14.992  22.153  55.298  1.00  0.00     0.140 C 
ATOM     14  O   UNL     1      14.931  21.331  54.396  1.00  0.00    -0.299 OA
BRANCH  13  15
ATOM     15  C   UNL     1      16.345  22.708  55.667  1.00  0.00     0.106 CG0
ATOM     16  G   UNL     1      17.142  21.781  56.566  1.00  0.00     0.000 G0
ENDBRANCH  13  15
ENDBRANCH  12  13
BRANCH  12  17
ATOM     17  C   UNL     1      12.783  23.446  55.041  1.00  0.00    -0.006 C 
ATOM     18  C   UNL     1      12.738  24.952  55.353  1.00  0.00     0.008 C 
ATOM     19  C   UNL     1      11.359  22.868  55.013  1.00  0.00     0.008 C 
ENDBRANCH  12  17
ENDBRANCH  11  12
ENDBRANCH   1  11
TORSDOF 1
ENDMDL
MODEL 6
REMARK VINA RESULT:    -3.257     12.158     13.589
REMARK INTER + INTRA:          -5.546
REMARK INTER:                  -6.368
REMARK INTRA:                   0.821
REMARK UNBOUND:                -0.575
REMARK SMILES CC1=CCC[C@H](C)C(=O)C[C@H](C(C)C)C(=O)C1
REMARK SMILES IDX 8 1 9 2 6 3 7 4 5 5 4 6 3 7 2 8 1 9 10 11 11 12 15 13 16 14
REMARK SMILES IDX 17 15 12 17 13 18 14 19
REMARK H PARENT
REMARK Flexibility Score: 70.00
ROOT
ATOM      1  C   UNL     1      11.805  22.210  58.003  1.00  0.00     0.136 C 
ATOM      2  O   UNL     1      10.772  21.658  58.356  1.00  0.00    -0.299 OA
ENDROOT
BRANCH   1   3
ATOM      3  C   UNL     1      12.087  22.349  56.517  1.00  0.00     0.053 C 
ATOM      4  C   UNL     1      10.771  22.346  55.729  1.00  0.00     0.016 C 
BRANCH   3   5
ATOM      5  C   UNL     1      12.927  23.609  56.190  1.00  0.00     0.015 C 
BRANCH   5   6
ATOM      6  C   UNL     1      14.455  23.396  56.208  1.00  0.00     0.028 C 
BRANCH   6   7
ATOM      7  C   UNL     1      14.923  22.006  55.836  1.00  0.00    -0.028 C 
ATOM      8  C   UNL     1      15.373  21.062  56.695  1.00  0.00    -0.070 CG0
ATOM      9  C   UNL     1      15.850  19.753  56.117  1.00  0.00     0.039 C 
ATOM     10  G   UNL     1      15.432  21.261  58.199  1.00  0.00     0.000 G0
ENDBRANCH   6   7
ENDBRANCH   5   6
ENDBRANCH   3   5
ENDBRANCH   1   3
BRANCH   1  11
ATOM     11  C   UNL     1      12.722  22.781  59.066  1.00  0.00     0.087 C 
BRANCH  11  12
ATOM     12  C   UNL     1      13.436  21.669  59.876  1.00  0.00     0.066 C 
BRANCH  12  13
ATOM     13  C   UNL     1      14.243  20.768  58.950  1.00  0.00     0.140 C 
ATOM     14  O   UNL     1      13.883  19.615  58.765  1.00  0.00    -0.299 OA
BRANCH  13  15
ATOM     15  C   UNL     1      15.460  21.263  58.210  1.00  0.00     0.106 CG0
ATOM     16  G   UNL     1      15.360  21.067  56.708  1.00  0.00     0.000 G0
ENDBRANCH  13  15
ENDBRANCH  12  13
BRANCH  12  17
ATOM     17  C   UNL     1      14.276  22.245  61.056  1.00  0.00    -0.006 C 
ATOM     18  C   UNL     1      15.686  22.721  60.664  1.00  0.00     0.008 C 
ATOM     19  C   UNL     1      14.359  21.247  62.222  1.00  0.00     0.008 C 
ENDBRANCH  12  17
ENDBRANCH  11  12
ENDBRANCH   1  11
TORSDOF 1
ENDMDL
MODEL 7
REMARK VINA RESULT:    -3.203     11.516     13.278
REMARK INTER + INTRA:          -5.463
REMARK INTER:                  -5.276
REMARK INTRA:                  -0.188
REMARK UNBOUND:                -0.575
REMARK SMILES CC1=CCC[C@H](C)C(=O)C[C@H](C(C)C)C(=O)C1
REMARK SMILES IDX 8 1 9 2 6 3 7 4 5 5 4 6 3 7 2 8 1 9 10 11 11 12 15 13 16 14
REMARK SMILES IDX 17 15 12 17 13 18 14 19
REMARK H PARENT
REMARK Flexibility Score: 70.00
ROOT
ATOM      1  C   UNL     1      12.551  22.214  58.333  1.00  0.00     0.136 C 
ATOM      2  O   UNL     1      11.579  21.913  59.010  1.00  0.00    -0.299 OA
ENDROOT
BRANCH   1   3
ATOM      3  C   UNL     1      13.936  22.077  58.942  1.00  0.00     0.053 C 
ATOM      4  C   UNL     1      13.929  22.597  60.385  1.00  0.00     0.016 C 
BRANCH   3   5
ATOM      5  C   UNL     1      14.470  20.625  58.878  1.00  0.00     0.015 C 
BRANCH   5   6
ATOM      6  C   UNL     1      15.646  20.406  57.902  1.00  0.00     0.028 C 
BRANCH   6   7
ATOM      7  C   UNL     1      15.357  19.497  56.729  1.00  0.00    -0.028 C 
ATOM      8  C   UNL     1      15.164  19.890  55.448  1.00  0.00    -0.070 CG0
ATOM      9  C   UNL     1      14.828  18.829  54.428  1.00  0.00     0.039 C 
ATOM     10  G   UNL     1      15.255  21.335  54.995  1.00  0.00     0.000 G0
ENDBRANCH   6   7
ENDBRANCH   5   6
ENDBRANCH   3   5
ENDBRANCH   1   3
BRANCH   1  11
ATOM     11  C   UNL     1      12.329  22.652  56.899  1.00  0.00     0.087 C 
BRANCH  11  12
ATOM     12  C   UNL     1      13.654  23.051  56.202  1.00  0.00     0.066 C 
BRANCH  12  13
ATOM     13  C   UNL     1      13.968  22.093  55.059  1.00  0.00     0.140 C 
ATOM     14  O   UNL     1      13.160  21.949  54.154  1.00  0.00    -0.299 OA
BRANCH  13  15
ATOM     15  C   UNL     1      15.273  21.342  54.978  1.00  0.00     0.106 CG0
ATOM     16  G   UNL     1      15.154  19.898  55.431  1.00  0.00     0.000 G0
ENDBRANCH  13  15
ENDBRANCH  12  13
BRANCH  12  17
ATOM     17  C   UNL     1      13.664  24.549  55.766  1.00  0.00    -0.006 C 
ATOM     18  C   UNL     1      12.341  25.045  55.156  1.00  0.00     0.008 C 
ATOM     19  C   UNL     1      14.831  24.845  54.811  1.00  0.00     0.008 C 
ENDBRANCH  12  17
ENDBRANCH  11  12
ENDBRANCH   1  11
TORSDOF 1
ENDMDL
MODEL 8
REMARK VINA RESULT:    -3.201     13.925     15.840
REMARK INTER + INTRA:          -5.459
REMARK INTER:                  -5.128
REMARK INTRA:                  -0.331
REMARK UNBOUND:                -0.575
REMARK SMILES CC1=CCC[C@H](C)C(=O)C[C@H](C(C)C)C(=O)C1
REMARK SMILES IDX 8 1 9 2 6 3 7 4 5 5 4 6 3 7 2 8 1 9 10 11 11 12 15 13 16 14
REMARK SMILES IDX 17 15 12 17 13 18 14 19
REMARK H PARENT
REMARK Flexibility Score: 70.00
ROOT
ATOM      1  C   UNL     1      16.677  18.657  57.295  1.00  0.00     0.136 C 
ATOM      2  O   UNL     1      17.293  19.621  57.727  1.00  0.00    -0.299 OA
ENDROOT
BRANCH   1   3
ATOM      3  C   UNL     1      17.458  17.434  56.845  1.00  0.00     0.053 C 
ATOM      4  C   UNL     1      16.497  16.275  56.553  1.00  0.00     0.016 C 
BRANCH   3   5
ATOM      5  C   UNL     1      18.362  17.727  55.623  1.00  0.00     0.015 C 
BRANCH   5   6
ATOM      6  C   UNL     1      17.722  17.424  54.252  1.00  0.00     0.028 C 
BRANCH   6   7
ATOM      7  C   UNL     1      17.210  18.628  53.493  1.00  0.00    -0.028 C 
ATOM      8  C   UNL     1      15.928  19.063  53.464  1.00  0.00    -0.070 CG0
ATOM      9  C   UNL     1      15.608  20.255  52.596  1.00  0.00     0.039 C 
ATOM     10  G   UNL     1      14.806  18.406  54.245  1.00  0.00     0.000 G0
ENDBRANCH   6   7
ENDBRANCH   5   6
ENDBRANCH   3   5
ENDBRANCH   1   3
BRANCH   1  11
ATOM     11  C   UNL     1      15.163  18.709  57.285  1.00  0.00     0.087 C 
BRANCH  11  12
ATOM     12  C   UNL     1      14.626  19.884  56.429  1.00  0.00     0.066 C 
BRANCH  12  13
ATOM     13  C   UNL     1      14.033  19.369  55.124  1.00  0.00     0.140 C 
ATOM     14  O   UNL     1      12.937  19.767  54.761  1.00  0.00    -0.299 OA
BRANCH  13  15
ATOM     15  C   UNL     1      14.775  18.408  54.229  1.00  0.00     0.106 CG0
ATOM     16  G   UNL     1      15.928  19.059  53.487  1.00  0.00     0.000 G0
ENDBRANCH  13  15
ENDBRANCH  12  13
BRANCH  12  17
ATOM     17  C   UNL     1      13.648  20.799  57.228  1.00  0.00    -0.006 C 
ATOM     18  C   UNL     1      14.075  22.276  57.305  1.00  0.00     0.008 C 
ATOM     19  C   UNL     1      13.393  20.246  58.639  1.00  0.00     0.008 C 
ENDBRANCH  12  17
ENDBRANCH  11  12
ENDBRANCH   1  11
TORSDOF 1
ENDMDL
MODEL 9
REMARK VINA RESULT:    -3.149     12.237     13.789
REMARK INTER + INTRA:          -5.381
REMARK INTER:                  -5.432
REMARK INTRA:                   0.051
REMARK UNBOUND:                -0.575
REMARK SMILES CC1=CCC[C@H](C)C(=O)C[C@H](C(C)C)C(=O)C1
REMARK SMILES IDX 8 1 9 2 6 3 7 4 5 5 4 6 3 7 2 8 1 9 10 11 11 12 15 13 16 14
REMARK SMILES IDX 17 15 12 17 13 18 14 19
REMARK H PARENT
REMARK Flexibility Score: 70.00
ROOT
ATOM      1  C   UNL     1      15.575  21.974  58.627  1.00  0.00     0.136 C 
ATOM      2  O   UNL     1      15.647  23.128  58.229  1.00  0.00    -0.299 OA
ENDROOT
BRANCH   1   3
ATOM      3  C   UNL     1      14.741  21.679  59.862  1.00  0.00     0.053 C 
ATOM      4  C   UNL     1      15.389  22.318  61.098  1.00  0.00     0.016 C 
BRANCH   3   5
ATOM      5  C   UNL     1      13.271  22.139  59.706  1.00  0.00     0.015 C 
BRANCH   5   6
ATOM      6  C   UNL     1      12.518  21.519  58.510  1.00  0.00     0.028 C 
BRANCH   6   7
ATOM      7  C   UNL     1      12.192  22.472  57.382  1.00  0.00    -0.028 C 
ATOM      8  C   UNL     1      12.512  22.300  56.078  1.00  0.00    -0.070 CG0
ATOM      9  C   UNL     1      12.146  23.399  55.111  1.00  0.00     0.039 C 
ATOM     10  G   UNL     1      13.227  21.071  55.549  1.00  0.00     0.000 G0
ENDBRANCH   6   7
ENDBRANCH   5   6
ENDBRANCH   3   5
ENDBRANCH   1   3
BRANCH   1  11
ATOM     11  C   UNL     1      16.273  20.888  57.835  1.00  0.00     0.087 C 
BRANCH  11  12
ATOM     12  C   UNL     1      15.291  20.117  56.916  1.00  0.00     0.066 C 
BRANCH  12  13
ATOM     13  C   UNL     1      14.703  21.046  55.862  1.00  0.00     0.140 C 
ATOM     14  O   UNL     1      15.442  21.775  55.219  1.00  0.00    -0.299 OA
BRANCH  13  15
ATOM     15  C   UNL     1      13.228  21.067  55.546  1.00  0.00     0.106 CG0
ATOM     16  G   UNL     1      12.527  22.307  56.070  1.00  0.00     0.000 G0
ENDBRANCH  13  15
ENDBRANCH  12  13
BRANCH  12  17
ATOM     17  C   UNL     1      15.935  18.832  56.309  1.00  0.00    -0.006 C 
ATOM     18  C   UNL     1      15.186  18.257  55.094  1.00  0.00     0.008 C 
ATOM     19  C   UNL     1      16.125  17.744  57.378  1.00  0.00     0.008 C 
ENDBRANCH  12  17
ENDBRANCH  11  12
ENDBRANCH   1  11
TORSDOF 1
ENDMDL
