MODEL 1
REMARK VINA RESULT:    -3.552      0.000      0.000
REMARK INTER + INTRA:          -4.702
REMARK INTER:                  -4.382
REMARK INTRA:                  -0.320
REMARK UNBOUND:                -0.320
REMARK SMILES C=CC[C@H](C)C(=O)CC
REMARK SMILES IDX 4 1 5 2 6 3 7 4 8 5 9 6 3 7 2 8 1 9
REMARK H PARENT
REMARK Flexibility Score: inf
ROOT
ATOM      1  C   UNL     1     -26.815  -1.419  -5.451  1.00  0.00     0.057 C 
ATOM      2  C   UNL     1     -26.635  -2.861  -4.956  1.00  0.00     0.016 C 
ENDROOT
BRANCH   1   3
ATOM      3  C   UNL     1     -26.451  -0.427  -4.366  1.00  0.00     0.135 C 
ATOM      4  O   UNL     1     -25.303  -0.012  -4.280  1.00  0.00    -0.299 OA
BRANCH   3   5
ATOM      5  C   UNL     1     -27.480   0.065  -3.382  1.00  0.00     0.072 C 
ATOM      6  C   UNL     1     -27.138  -0.392  -1.968  1.00  0.00     0.012 C 
ENDBRANCH   3   5
ENDBRANCH   1   3
BRANCH   1   7
ATOM      7  C   UNL     1     -28.227  -1.155  -6.019  1.00  0.00     0.038 C 
BRANCH   7   8
ATOM      8  C   UNL     1     -28.228  -0.654  -7.441  1.00  0.00    -0.034 C 
ATOM      9  C   UNL     1     -27.103  -0.293  -8.064  1.00  0.00     0.004 C 
ENDBRANCH   7   8
ENDBRANCH   1   7
TORSDOF 4
ENDMDL
MODEL 2
REMARK VINA RESULT:    -3.529      3.840      5.858
REMARK INTER + INTRA:          -4.674
REMARK INTER:                  -4.398
REMARK INTRA:                  -0.276
REMARK UNBOUND:                -0.320
REMARK SMILES C=CC[C@H](C)C(=O)CC
REMARK SMILES IDX 4 1 5 2 6 3 7 4 8 5 9 6 3 7 2 8 1 9
REMARK H PARENT
REMARK Flexibility Score: inf
ROOT
ATOM      1  C   UNL     1     -24.863   0.472  -0.347  1.00  0.00     0.057 C 
ATOM      2  C   UNL     1     -25.125   1.262   0.942  1.00  0.00     0.016 C 
ENDROOT
BRANCH   1   3
ATOM      3  C   UNL     1     -23.446  -0.063  -0.373  1.00  0.00     0.135 C 
ATOM      4  O   UNL     1     -23.039  -0.664  -1.358  1.00  0.00    -0.299 OA
BRANCH   3   5
ATOM      5  C   UNL     1     -22.518   0.132   0.798  1.00  0.00     0.072 C 
ATOM      6  C   UNL     1     -21.544   1.274   0.530  1.00  0.00     0.012 C 
ENDBRANCH   3   5
ENDBRANCH   1   3
BRANCH   1   7
ATOM      7  C   UNL     1     -25.195   1.281  -1.620  1.00  0.00     0.038 C 
BRANCH   7   8
ATOM      8  C   UNL     1     -26.248   0.643  -2.490  1.00  0.00    -0.034 C 
ATOM      9  C   UNL     1     -26.862  -0.491  -2.141  1.00  0.00     0.004 C 
ENDBRANCH   7   8
ENDBRANCH   1   7
TORSDOF 4
ENDMDL
MODEL 3
REMARK VINA RESULT:    -3.504      3.315      4.215
REMARK INTER + INTRA:          -4.644
REMARK INTER:                  -4.146
REMARK INTRA:                  -0.498
REMARK UNBOUND:                -0.320
REMARK SMILES C=CC[C@H](C)C(=O)CC
REMARK SMILES IDX 4 1 5 2 6 3 7 4 8 5 9 6 3 7 2 8 1 9
REMARK H PARENT
REMARK Flexibility Score: inf
ROOT
ATOM      1  C   UNL     1     -25.839   0.553  -2.768  1.00  0.00     0.057 C 
ATOM      2  C   UNL     1     -27.284   0.044  -2.698  1.00  0.00     0.016 C 
ENDROOT
BRANCH   1   3
ATOM      3  C   UNL     1     -25.090   0.232  -1.491  1.00  0.00     0.135 C 
ATOM      4  O   UNL     1     -25.662   0.317  -0.412  1.00  0.00    -0.299 OA
BRANCH   3   5
ATOM      5  C   UNL     1     -23.646  -0.196  -1.520  1.00  0.00     0.072 C 
ATOM      6  C   UNL     1     -23.360  -1.047  -2.753  1.00  0.00     0.012 C 
ENDBRANCH   3   5
ENDBRANCH   1   3
BRANCH   1   7
ATOM      7  C   UNL     1     -25.752   2.054  -3.121  1.00  0.00     0.038 C 
BRANCH   7   8
ATOM      8  C   UNL     1     -24.749   2.369  -4.202  1.00  0.00    -0.034 C 
ATOM      9  C   UNL     1     -24.523   1.535  -5.222  1.00  0.00     0.004 C 
ENDBRANCH   7   8
ENDBRANCH   1   7
TORSDOF 4
ENDMDL
MODEL 4
REMARK VINA RESULT:    -3.503      3.896      5.151
REMARK INTER + INTRA:          -4.643
REMARK INTER:                  -4.164
REMARK INTRA:                  -0.479
REMARK UNBOUND:                -0.320
REMARK SMILES C=CC[C@H](C)C(=O)CC
REMARK SMILES IDX 4 1 5 2 6 3 7 4 8 5 9 6 3 7 2 8 1 9
REMARK H PARENT
REMARK Flexibility Score: inf
ROOT
ATOM      1  C   UNL     1     -23.598   0.180  -2.078  1.00  0.00     0.057 C 
ATOM      2  C   UNL     1     -23.336  -1.261  -2.535  1.00  0.00     0.016 C 
ENDROOT
BRANCH   1   3
ATOM      3  C   UNL     1     -23.353   0.327  -0.590  1.00  0.00     0.135 C 
ATOM      4  O   UNL     1     -22.708  -0.523   0.008  1.00  0.00    -0.299 OA
BRANCH   3   5
ATOM      5  C   UNL     1     -23.890   1.509   0.175  1.00  0.00     0.072 C 
ATOM      6  C   UNL     1     -24.827   1.051   1.288  1.00  0.00     0.012 C 
ENDBRANCH   3   5
ENDBRANCH   1   3
BRANCH   1   7
ATOM      7  C   UNL     1     -25.000   0.688  -2.481  1.00  0.00     0.038 C 
BRANCH   7   8
ATOM      8  C   UNL     1     -26.069  -0.374  -2.441  1.00  0.00    -0.034 C 
ATOM      9  C   UNL     1     -26.967  -0.436  -1.454  1.00  0.00     0.004 C 
ENDBRANCH   7   8
ENDBRANCH   1   7
TORSDOF 4
ENDMDL
MODEL 5
REMARK VINA RESULT:    -3.497      3.361      5.488
REMARK INTER + INTRA:          -4.635
REMARK INTER:                  -4.282
REMARK INTRA:                  -0.353
REMARK UNBOUND:                -0.320
REMARK SMILES C=CC[C@H](C)C(=O)CC
REMARK SMILES IDX 4 1 5 2 6 3 7 4 8 5 9 6 3 7 2 8 1 9
REMARK H PARENT
REMARK Flexibility Score: inf
ROOT
ATOM      1  C   UNL     1     -25.974   0.604  -2.225  1.00  0.00     0.057 C 
ATOM      2  C   UNL     1     -26.927  -0.478  -1.699  1.00  0.00     0.016 C 
ENDROOT
BRANCH   1   3
ATOM      3  C   UNL     1     -25.106   0.061  -3.342  1.00  0.00     0.135 C 
ATOM      4  O   UNL     1     -25.608  -0.221  -4.422  1.00  0.00    -0.299 OA
BRANCH   3   5
ATOM      5  C   UNL     1     -23.626  -0.140  -3.151  1.00  0.00     0.072 C 
ATOM      6  C   UNL     1     -23.329  -1.563  -2.689  1.00  0.00     0.012 C 
ENDBRANCH   3   5
ENDBRANCH   1   3
BRANCH   1   7
ATOM      7  C   UNL     1     -25.130   1.251  -1.106  1.00  0.00     0.038 C 
BRANCH   7   8
ATOM      8  C   UNL     1     -25.408   0.695   0.267  1.00  0.00    -0.034 C 
ATOM      9  C   UNL     1     -24.770   1.142   1.354  1.00  0.00     0.004 C 
ENDBRANCH   7   8
ENDBRANCH   1   7
TORSDOF 4
ENDMDL
MODEL 6
REMARK VINA RESULT:    -3.490      3.463      6.178
REMARK INTER + INTRA:          -4.626
REMARK INTER:                  -4.450
REMARK INTRA:                  -0.176
REMARK UNBOUND:                -0.320
REMARK SMILES C=CC[C@H](C)C(=O)CC
REMARK SMILES IDX 4 1 5 2 6 3 7 4 8 5 9 6 3 7 2 8 1 9
REMARK H PARENT
REMARK Flexibility Score: inf
ROOT
ATOM      1  C   UNL     1     -24.585   0.762  -0.817  1.00  0.00     0.057 C 
ATOM      2  C   UNL     1     -25.386   0.646   0.487  1.00  0.00     0.016 C 
ENDROOT
BRANCH   1   3
ATOM      3  C   UNL     1     -25.464   0.475  -2.017  1.00  0.00     0.135 C 
ATOM      4  O   UNL     1     -25.181   0.952  -3.108  1.00  0.00    -0.299 OA
BRANCH   3   5
ATOM      5  C   UNL     1     -26.688  -0.395  -1.896  1.00  0.00     0.072 C 
ATOM      6  C   UNL     1     -27.713  -0.036  -2.966  1.00  0.00     0.012 C 
ENDBRANCH   3   5
ENDBRANCH   1   3
BRANCH   1   7
ATOM      7  C   UNL     1     -23.313  -0.113  -0.815  1.00  0.00     0.038 C 
BRANCH   7   8
ATOM      8  C   UNL     1     -22.475   0.031   0.430  1.00  0.00    -0.034 C 
ATOM      9  C   UNL     1     -21.704   1.102   0.643  1.00  0.00     0.004 C 
ENDBRANCH   7   8
ENDBRANCH   1   7
TORSDOF 4
ENDMDL
MODEL 7
REMARK VINA RESULT:    -3.453      3.159      5.294
REMARK INTER + INTRA:          -4.581
REMARK INTER:                  -4.088
REMARK INTRA:                  -0.493
REMARK UNBOUND:                -0.320
REMARK SMILES C=CC[C@H](C)C(=O)CC
REMARK SMILES IDX 4 1 5 2 6 3 7 4 8 5 9 6 3 7 2 8 1 9
REMARK H PARENT
REMARK Flexibility Score: inf
ROOT
ATOM      1  C   UNL     1     -24.351  -0.118  -1.965  1.00  0.00     0.057 C 
ATOM      2  C   UNL     1     -23.354  -1.179  -2.450  1.00  0.00     0.016 C 
ENDROOT
BRANCH   1   3
ATOM      3  C   UNL     1     -25.122   0.470  -3.130  1.00  0.00     0.135 C 
ATOM      4  O   UNL     1     -24.518   0.931  -4.089  1.00  0.00    -0.299 OA
BRANCH   3   5
ATOM      5  C   UNL     1     -26.628   0.497  -3.134  1.00  0.00     0.072 C 
ATOM      6  C   UNL     1     -27.186  -0.376  -2.015  1.00  0.00     0.012 C 
ENDBRANCH   3   5
ENDBRANCH   1   3
BRANCH   1   7
ATOM      7  C   UNL     1     -23.686   0.979  -1.106  1.00  0.00     0.038 C 
BRANCH   7   8
ATOM      8  C   UNL     1     -24.636   1.677  -0.166  1.00  0.00    -0.034 C 
ATOM      9  C   UNL     1     -25.197   1.045   0.870  1.00  0.00     0.004 C 
ENDBRANCH   7   8
ENDBRANCH   1   7
TORSDOF 4
ENDMDL
MODEL 8
REMARK VINA RESULT:    -3.450      3.530      5.208
REMARK INTER + INTRA:          -4.577
REMARK INTER:                  -4.110
REMARK INTRA:                  -0.467
REMARK UNBOUND:                -0.320
REMARK SMILES C=CC[C@H](C)C(=O)CC
REMARK SMILES IDX 4 1 5 2 6 3 7 4 8 5 9 6 3 7 2 8 1 9
REMARK H PARENT
REMARK Flexibility Score: inf
ROOT
ATOM      1  C   UNL     1     -24.687   0.809  -0.723  1.00  0.00     0.057 C 
ATOM      2  C   UNL     1     -25.493   0.610   0.567  1.00  0.00     0.016 C 
ENDROOT
BRANCH   1   3
ATOM      3  C   UNL     1     -24.681   2.267  -1.135  1.00  0.00     0.135 C 
ATOM      4  O   UNL     1     -24.778   3.142  -0.285  1.00  0.00    -0.299 OA
BRANCH   3   5
ATOM      5  C   UNL     1     -24.556   2.667  -2.582  1.00  0.00     0.072 C 
ATOM      6  C   UNL     1     -25.847   3.307  -3.079  1.00  0.00     0.012 C 
ENDBRANCH   3   5
ENDBRANCH   1   3
BRANCH   1   7
ATOM      7  C   UNL     1     -25.162  -0.109  -1.871  1.00  0.00     0.038 C 
BRANCH   7   8
ATOM      8  C   UNL     1     -26.638  -0.413  -1.838  1.00  0.00    -0.034 C 
ATOM      9  C   UNL     1     -27.443  -0.119  -2.863  1.00  0.00     0.004 C 
ENDBRANCH   7   8
ENDBRANCH   1   7
TORSDOF 4
ENDMDL
MODEL 9
REMARK VINA RESULT:    -3.385      2.615      4.138
REMARK INTER + INTRA:          -4.497
REMARK INTER:                  -3.986
REMARK INTRA:                  -0.510
REMARK UNBOUND:                -0.320
REMARK SMILES C=CC[C@H](C)C(=O)CC
REMARK SMILES IDX 4 1 5 2 6 3 7 4 8 5 9 6 3 7 2 8 1 9
REMARK H PARENT
REMARK Flexibility Score: inf
ROOT
ATOM      1  C   UNL     1     -24.923   0.502  -2.833  1.00  0.00     0.057 C 
ATOM      2  C   UNL     1     -23.686   0.104  -2.018  1.00  0.00     0.016 C 
ENDROOT
BRANCH   1   3
ATOM      3  C   UNL     1     -24.921   1.988  -3.127  1.00  0.00     0.135 C 
ATOM      4  O   UNL     1     -25.090   2.790  -2.217  1.00  0.00    -0.299 OA
BRANCH   3   5
ATOM      5  C   UNL     1     -24.712   2.506  -4.526  1.00  0.00     0.072 C 
ATOM      6  C   UNL     1     -24.478   1.354  -5.498  1.00  0.00     0.012 C 
ENDBRANCH   3   5
ENDBRANCH   1   3
BRANCH   1   7
ATOM      7  C   UNL     1     -26.244   0.050  -2.172  1.00  0.00     0.038 C 
BRANCH   7   8
ATOM      8  C   UNL     1     -27.411  -0.019  -3.125  1.00  0.00    -0.034 C 
ATOM      9  C   UNL     1     -27.344  -0.696  -4.275  1.00  0.00     0.004 C 
ENDBRANCH   7   8
ENDBRANCH   1   7
TORSDOF 4
ENDMDL
