MODEL 1
REMARK VINA RESULT:    -4.749      0.000      0.000
REMARK INTER + INTRA:         -10.535
REMARK INTER:                  -7.802
REMARK INTRA:                  -2.733
REMARK UNBOUND:                -2.733
REMARK SMILES C[C@@H]1O[C@H](OC[C@H]2O[C@@H](Oc3c(-c4ccc(O)c(O)c4)oc4cc(O)cc(O)c4c3=O)[C@H](O)[C@@H](O)[C@H]2O)[C@@H](O)[C@H](O)[C@H]1O
REMARK SMILES IDX 7 1 36 2 34 3 32 4 9 5 8 6 6 7 5 8 4 9 1 10 2 11 42 12 3 13
REMARK SMILES IDX 40 14 38 15 43 16 41 18 39 20 37 22 35 24 10 26 11 27 12 28
REMARK SMILES IDX 30 29 21 30 29 31 31 32 22 33 27 34 23 35 26 36 24 37 13 38
REMARK SMILES IDX 20 39 14 40 18 41 15 42 16 43 19 44 17 46 28 48 25 50 33 52
REMARK H PARENT 43 17 41 19 39 21 37 23 35 25 19 45 17 47 28 49 25 51 33 53
REMARK Flexibility Score: inf
ROOT
ATOM      1  C   UNL     1     -26.050  47.381  44.991  1.00  0.00     0.180 C 
ATOM      2  C   UNL     1     -26.078  47.001  46.397  1.00  0.00     0.177 C 
ATOM      3  C   UNL     1     -24.547  47.363  46.756  1.00  0.00     0.180 C 
ATOM      4  C   UNL     1     -24.696  48.761  47.193  1.00  0.00     0.214 C 
ATOM      5  C   UNL     1     -25.143  49.573  45.894  1.00  0.00     0.339 C 
ATOM      6  O   UNL     1     -26.113  48.871  45.044  1.00  0.00    -0.332 OA
ENDROOT
BRANCH   1   7
ATOM      7  C   UNL     1     -27.066  46.455  44.228  1.00  0.00     0.198 C 
BRANCH   7   8
ATOM      8  O   UNL     1     -26.644  46.290  42.863  1.00  0.00    -0.347 OA
BRANCH   8   9
ATOM      9  C   UNL     1     -27.299  47.176  41.938  1.00  0.00     0.281 C 
ATOM     10  C   UNL     1     -26.104  45.652  39.668  1.00  0.00     0.041 C 
ATOM     11  C   UNL     1     -26.457  47.166  39.729  1.00  0.00     0.150 C 
ATOM     12  C   UNL     1     -27.771  47.531  39.036  1.00  0.00     0.174 C 
ATOM     13  O   UNL     1     -26.379  47.737  41.016  1.00  0.00    -0.344 OA
ATOM     14  C   UNL     1     -28.952  47.532  40.059  1.00  0.00     0.179 C 
ATOM     15  C   UNL     1     -28.625  46.624  41.257  1.00  0.00     0.202 C 
BRANCH  12  16
ATOM     16  O   UNL     1     -27.631  48.818  38.500  1.00  0.00    -0.388 OA
ATOM     17  H   UNL     1     -28.018  48.784  37.564  1.00  0.00     0.211 HD
ENDBRANCH  12  16
BRANCH  14  18
ATOM     18  O   UNL     1     -30.125  47.067  39.386  1.00  0.00    -0.387 OA
ATOM     19  H   UNL     1     -30.764  46.645  40.023  1.00  0.00     0.211 HD
ENDBRANCH  14  18
BRANCH  15  20
ATOM     20  O   UNL     1     -29.635  46.590  42.219  1.00  0.00    -0.385 OA
ATOM     21  H   UNL     1     -29.214  46.417  43.095  1.00  0.00     0.211 HD
ENDBRANCH  15  20
ENDBRANCH   8   9
ENDBRANCH   7   8
ENDBRANCH   1   7
BRANCH   2  22
ATOM     22  O   UNL     1     -27.229  47.779  46.947  1.00  0.00    -0.387 OA
ATOM     23  H   UNL     1     -27.288  47.972  47.952  1.00  0.00     0.211 HD
ENDBRANCH   2  22
BRANCH   3  24
ATOM     24  O   UNL     1     -23.864  46.438  47.566  1.00  0.00    -0.387 OA
ATOM     25  H   UNL     1     -22.988  46.715  48.099  1.00  0.00     0.211 HD
ENDBRANCH   3  24
BRANCH   5  26
ATOM     26  O   UNL     1     -25.670  50.829  46.303  1.00  0.00    -0.454 OA
BRANCH  26  27
ATOM     27  C   UNL     1     -25.171  52.071  45.878  1.00  0.00     0.214 A 
ATOM     28  C   UNL     1     -25.503  52.656  44.633  1.00  0.00     0.180 A 
ATOM     29  C   UNL     1     -24.436  52.935  46.764  1.00  0.00     0.239 A 
ATOM     30  O   UNL     1     -25.759  53.966  44.553  1.00  0.00    -0.452 OA
ATOM     31  C   UNL     1     -24.513  54.346  46.575  1.00  0.00     0.111 A 
ATOM     32  O   UNL     1     -23.643  52.401  47.598  1.00  0.00    -0.285 OA
ATOM     33  C   UNL     1     -25.324  54.814  45.473  1.00  0.00     0.146 A 
ATOM     34  C   UNL     1     -23.945  55.327  47.428  1.00  0.00     0.134 A 
ATOM     35  C   UNL     1     -25.595  56.170  45.310  1.00  0.00     0.094 A 
ATOM     36  C   UNL     1     -24.213  56.661  47.223  1.00  0.00     0.093 A 
ATOM     37  C   UNL     1     -25.051  57.098  46.171  1.00  0.00     0.123 A 
BRANCH  28  38
ATOM     38  C   UNL     1     -25.087  52.017  43.351  1.00  0.00     0.025 A 
ATOM     39  C   UNL     1     -26.039  51.293  42.574  1.00  0.00     0.062 A 
ATOM     40  C   UNL     1     -23.966  52.497  42.709  1.00  0.00     0.016 A 
ATOM     41  C   UNL     1     -25.896  51.179  41.196  1.00  0.00     0.158 A 
ATOM     42  C   UNL     1     -23.769  52.338  41.352  1.00  0.00     0.051 A 
ATOM     43  C   UNL     1     -24.719  51.663  40.566  1.00  0.00     0.157 A 
BRANCH  41  44
ATOM     44  O   UNL     1     -26.905  50.588  40.425  1.00  0.00    -0.504 OA
ATOM     45  H   UNL     1     -26.768  49.718  39.804  1.00  0.00     0.293 HD
ENDBRANCH  41  44
BRANCH  43  46
ATOM     46  O   UNL     1     -24.502  51.457  39.186  1.00  0.00    -0.504 OA
ATOM     47  H   UNL     1     -23.992  52.135  38.655  1.00  0.00     0.293 HD
ENDBRANCH  43  46
ENDBRANCH  28  38
BRANCH  34  48
ATOM     48  O   UNL     1     -23.239  54.992  48.612  1.00  0.00    -0.507 OA
ATOM     49  H   UNL     1     -23.493  54.241  49.260  1.00  0.00     0.293 HD
ENDBRANCH  34  48
BRANCH  37  50
ATOM     50  O   UNL     1     -25.234  58.464  45.921  1.00  0.00    -0.508 OA
ATOM     51  H   UNL     1     -25.947  59.056  46.398  1.00  0.00     0.293 HD
ENDBRANCH  37  50
ENDBRANCH  26  27
ENDBRANCH   5  26
BRANCH   4  52
ATOM     52  O   UNL     1     -23.462  49.239  47.662  1.00  0.00    -0.384 OA
ATOM     53  H   UNL     1     -23.197  50.011  47.041  1.00  0.00     0.211 HD
ENDBRANCH   4  52
TORSDOF 16
ENDMDL
MODEL 2
REMARK VINA RESULT:    -4.735      1.957      8.421
REMARK INTER + INTRA:         -10.512
REMARK INTER:                  -7.502
REMARK INTRA:                  -3.011
REMARK UNBOUND:                -2.733
REMARK SMILES C[C@@H]1O[C@H](OC[C@H]2O[C@@H](Oc3c(-c4ccc(O)c(O)c4)oc4cc(O)cc(O)c4c3=O)[C@H](O)[C@@H](O)[C@H]2O)[C@@H](O)[C@H](O)[C@H]1O
REMARK SMILES IDX 7 1 36 2 34 3 32 4 9 5 8 6 6 7 5 8 4 9 1 10 2 11 42 12 3 13
REMARK SMILES IDX 40 14 38 15 43 16 41 18 39 20 37 22 35 24 10 26 11 27 12 28
REMARK SMILES IDX 30 29 21 30 29 31 31 32 22 33 27 34 23 35 26 36 24 37 13 38
REMARK SMILES IDX 20 39 14 40 18 41 15 42 16 43 19 44 17 46 28 48 25 50 33 52
REMARK H PARENT 43 17 41 19 39 21 37 23 35 25 19 45 17 47 28 49 25 51 33 53
REMARK Flexibility Score: inf
ROOT
ATOM      1  C   UNL     1     -22.871  52.033  46.440  1.00  0.00     0.180 C 
ATOM      2  C   UNL     1     -21.743  51.113  46.501  1.00  0.00     0.177 C 
ATOM      3  C   UNL     1     -22.528  49.841  47.110  1.00  0.00     0.180 C 
ATOM      4  C   UNL     1     -22.938  49.159  45.871  1.00  0.00     0.214 C 
ATOM      5  C   UNL     1     -23.983  50.139  45.167  1.00  0.00     0.339 C 
ATOM      6  O   UNL     1     -23.625  51.562  45.241  1.00  0.00    -0.332 OA
ENDROOT
BRANCH   1   7
ATOM      7  C   UNL     1     -22.309  53.487  46.646  1.00  0.00     0.198 C 
BRANCH   7   8
ATOM      8  O   UNL     1     -23.036  54.145  47.698  1.00  0.00    -0.347 OA
BRANCH   8   9
ATOM      9  C   UNL     1     -24.236  54.803  47.256  1.00  0.00     0.281 C 
ATOM     10  C   UNL     1     -25.120  55.048  50.096  1.00  0.00     0.041 C 
ATOM     11  C   UNL     1     -26.003  54.888  48.825  1.00  0.00     0.150 C 
ATOM     12  C   UNL     1     -26.623  56.194  48.325  1.00  0.00     0.174 C 
ATOM     13  O   UNL     1     -25.395  54.171  47.774  1.00  0.00    -0.344 OA
ATOM     14  C   UNL     1     -25.718  56.852  47.234  1.00  0.00     0.179 C 
ATOM     15  C   UNL     1     -24.260  56.387  47.395  1.00  0.00     0.202 C 
BRANCH  12  16
ATOM     16  O   UNL     1     -27.869  55.889  47.760  1.00  0.00    -0.388 OA
ATOM     17  H   UNL     1     -27.868  54.890  47.585  1.00  0.00     0.211 HD
ENDBRANCH  12  16
BRANCH  14  18
ATOM     18  O   UNL     1     -25.807  58.272  47.378  1.00  0.00    -0.387 OA
ATOM     19  H   UNL     1     -25.043  58.630  47.907  1.00  0.00     0.211 HD
ENDBRANCH  14  18
BRANCH  15  20
ATOM     20  O   UNL     1     -23.397  56.928  46.441  1.00  0.00    -0.385 OA
ATOM     21  H   UNL     1     -23.926  57.527  45.860  1.00  0.00     0.211 HD
ENDBRANCH  15  20
ENDBRANCH   8   9
ENDBRANCH   7   8
ENDBRANCH   1   7
BRANCH   2  22
ATOM     22  O   UNL     1     -21.206  51.123  45.107  1.00  0.00    -0.387 OA
ATOM     23  H   UNL     1     -21.250  50.276  44.531  1.00  0.00     0.211 HD
ENDBRANCH   2  22
BRANCH   3  24
ATOM     24  O   UNL     1     -21.861  49.127  48.122  1.00  0.00    -0.387 OA
ATOM     25  H   UNL     1     -21.510  49.613  48.999  1.00  0.00     0.211 HD
ENDBRANCH   3  24
BRANCH   5  26
ATOM     26  O   UNL     1     -24.132  49.743  43.810  1.00  0.00    -0.454 OA
BRANCH  26  27
ATOM     27  C   UNL     1     -25.363  49.676  43.138  1.00  0.00     0.214 A 
ATOM     28  C   UNL     1     -25.741  50.580  42.117  1.00  0.00     0.180 A 
ATOM     29  C   UNL     1     -26.256  48.558  43.302  1.00  0.00     0.239 A 
ATOM     30  O   UNL     1     -26.364  50.134  41.021  1.00  0.00    -0.452 OA
ATOM     31  C   UNL     1     -27.100  48.182  42.217  1.00  0.00     0.111 A 
ATOM     32  O   UNL     1     -26.349  48.033  44.453  1.00  0.00    -0.285 OA
ATOM     33  C   UNL     1     -27.010  48.978  41.013  1.00  0.00     0.146 A 
ATOM     34  C   UNL     1     -27.944  47.042  42.182  1.00  0.00     0.134 A 
ATOM     35  C   UNL     1     -27.668  48.591  39.848  1.00  0.00     0.094 A 
ATOM     36  C   UNL     1     -28.599  46.701  41.021  1.00  0.00     0.093 A 
ATOM     37  C   UNL     1     -28.459  47.462  39.837  1.00  0.00     0.123 A 
BRANCH  28  38
ATOM     38  C   UNL     1     -25.949  52.027  42.414  1.00  0.00     0.025 A 
ATOM     39  C   UNL     1     -26.688  52.417  43.570  1.00  0.00     0.062 A 
ATOM     40  C   UNL     1     -25.074  52.943  41.872  1.00  0.00     0.016 A 
ATOM     41  C   UNL     1     -26.447  53.635  44.193  1.00  0.00     0.158 A 
ATOM     42  C   UNL     1     -24.867  54.187  42.435  1.00  0.00     0.051 A 
ATOM     43  C   UNL     1     -25.558  54.569  43.598  1.00  0.00     0.157 A 
BRANCH  41  44
ATOM     44  O   UNL     1     -27.077  53.950  45.404  1.00  0.00    -0.504 OA
ATOM     45  H   UNL     1     -27.235  54.951  45.768  1.00  0.00     0.293 HD
ENDBRANCH  41  44
BRANCH  43  46
ATOM     46  O   UNL     1     -25.384  55.856  44.153  1.00  0.00    -0.504 OA
ATOM     47  H   UNL     1     -24.513  56.101  44.579  1.00  0.00     0.293 HD
ENDBRANCH  43  46
ENDBRANCH  28  38
BRANCH  34  48
ATOM     48  O   UNL     1     -28.016  46.113  43.252  1.00  0.00    -0.507 OA
ATOM     49  H   UNL     1     -28.879  45.794  43.701  1.00  0.00     0.293 HD
ENDBRANCH  34  48
BRANCH  37  50
ATOM     50  O   UNL     1     -29.209  47.155  38.695  1.00  0.00    -0.508 OA
ATOM     51  H   UNL     1     -29.077  46.294  38.123  1.00  0.00     0.293 HD
ENDBRANCH  37  50
ENDBRANCH  26  27
ENDBRANCH   5  26
BRANCH   4  52
ATOM     52  O   UNL     1     -23.557  47.940  46.191  1.00  0.00    -0.384 OA
ATOM     53  H   UNL     1     -23.957  48.058  47.128  1.00  0.00     0.211 HD
ENDBRANCH   4  52
TORSDOF 16
ENDMDL
MODEL 3
REMARK VINA RESULT:    -4.679      1.762      4.761
REMARK INTER + INTRA:         -10.421
REMARK INTER:                  -7.160
REMARK INTRA:                  -3.261
REMARK UNBOUND:                -2.733
REMARK SMILES C[C@@H]1O[C@H](OC[C@H]2O[C@@H](Oc3c(-c4ccc(O)c(O)c4)oc4cc(O)cc(O)c4c3=O)[C@H](O)[C@@H](O)[C@H]2O)[C@@H](O)[C@H](O)[C@H]1O
REMARK SMILES IDX 7 1 36 2 34 3 32 4 9 5 8 6 6 7 5 8 4 9 1 10 2 11 42 12 3 13
REMARK SMILES IDX 40 14 38 15 43 16 41 18 39 20 37 22 35 24 10 26 11 27 12 28
REMARK SMILES IDX 30 29 21 30 29 31 31 32 22 33 27 34 23 35 26 36 24 37 13 38
REMARK SMILES IDX 20 39 14 40 18 41 15 42 16 43 19 44 17 46 28 48 25 50 33 52
REMARK H PARENT 43 17 41 19 39 21 37 23 35 25 19 45 17 47 28 49 25 51 33 53
REMARK Flexibility Score: inf
ROOT
ATOM      1  C   UNL     1     -25.200  46.987  44.552  1.00  0.00     0.180 C 
ATOM      2  C   UNL     1     -26.285  46.624  45.455  1.00  0.00     0.177 C 
ATOM      3  C   UNL     1     -25.546  46.982  46.844  1.00  0.00     0.180 C 
ATOM      4  C   UNL     1     -25.955  48.386  47.014  1.00  0.00     0.214 C 
ATOM      5  C   UNL     1     -25.258  49.184  45.821  1.00  0.00     0.339 C 
ATOM      6  O   UNL     1     -25.263  48.478  44.534  1.00  0.00    -0.332 OA
ENDROOT
BRANCH   1   7
ATOM      7  C   UNL     1     -25.304  46.058  43.289  1.00  0.00     0.198 C 
BRANCH   7   8
ATOM      8  O   UNL     1     -26.641  46.105  42.758  1.00  0.00    -0.347 OA
BRANCH   8   9
ATOM      9  C   UNL     1     -26.723  46.651  41.430  1.00  0.00     0.281 C 
ATOM     10  C   UNL     1     -29.695  46.412  41.543  1.00  0.00     0.041 C 
ATOM     11  C   UNL     1     -28.769  46.301  40.297  1.00  0.00     0.150 C 
ATOM     12  C   UNL     1     -28.717  47.568  39.441  1.00  0.00     0.174 C 
ATOM     13  O   UNL     1     -27.475  45.811  40.570  1.00  0.00    -0.344 OA
ATOM     14  C   UNL     1     -27.517  48.473  39.867  1.00  0.00     0.179 C 
ATOM     15  C   UNL     1     -27.121  48.186  41.327  1.00  0.00     0.202 C 
BRANCH  12  16
ATOM     16  O   UNL     1     -28.541  47.177  38.107  1.00  0.00    -0.388 OA
ATOM     17  H   UNL     1     -29.254  46.482  37.914  1.00  0.00     0.211 HD
ENDBRANCH  12  16
BRANCH  14  18
ATOM     18  O   UNL     1     -27.913  49.839  39.717  1.00  0.00    -0.387 OA
ATOM     19  H   UNL     1     -28.678  50.061  40.315  1.00  0.00     0.211 HD
ENDBRANCH  14  18
BRANCH  15  20
ATOM     20  O   UNL     1     -26.042  48.954  41.769  1.00  0.00    -0.385 OA
ATOM     21  H   UNL     1     -25.249  48.693  41.242  1.00  0.00     0.211 HD
ENDBRANCH  15  20
ENDBRANCH   8   9
ENDBRANCH   7   8
ENDBRANCH   1   7
BRANCH   2  22
ATOM     22  O   UNL     1     -27.445  47.416  44.946  1.00  0.00    -0.387 OA
ATOM     23  H   UNL     1     -28.397  47.047  45.029  1.00  0.00     0.211 HD
ENDBRANCH   2  22
BRANCH   3  24
ATOM     24  O   UNL     1     -25.720  46.062  47.894  1.00  0.00    -0.387 OA
ATOM     25  H   UNL     1     -26.130  45.098  47.719  1.00  0.00     0.211 HD
ENDBRANCH   3  24
BRANCH   5  26
ATOM     26  O   UNL     1     -25.896  50.448  45.688  1.00  0.00    -0.454 OA
BRANCH  26  27
ATOM     27  C   UNL     1     -25.399  51.505  44.907  1.00  0.00     0.214 A 
ATOM     28  C   UNL     1     -24.414  52.411  45.365  1.00  0.00     0.180 A 
ATOM     29  C   UNL     1     -25.715  51.626  43.508  1.00  0.00     0.239 A 
ATOM     30  O   UNL     1     -23.426  52.796  44.551  1.00  0.00    -0.452 OA
ATOM     31  C   UNL     1     -24.766  52.233  42.635  1.00  0.00     0.111 A 
ATOM     32  O   UNL     1     -26.883  51.305  43.130  1.00  0.00    -0.285 OA
ATOM     33  C   UNL     1     -23.539  52.709  43.235  1.00  0.00     0.146 A 
ATOM     34  C   UNL     1     -24.878  52.321  41.224  1.00  0.00     0.134 A 
ATOM     35  C   UNL     1     -22.485  53.162  42.444  1.00  0.00     0.094 A 
ATOM     36  C   UNL     1     -23.827  52.797  40.474  1.00  0.00     0.093 A 
ATOM     37  C   UNL     1     -22.614  53.210  41.072  1.00  0.00     0.123 A 
BRANCH  28  38
ATOM     38  C   UNL     1     -24.696  53.341  46.497  1.00  0.00     0.025 A 
ATOM     39  C   UNL     1     -25.657  54.383  46.340  1.00  0.00     0.062 A 
ATOM     40  C   UNL     1     -24.399  52.928  47.778  1.00  0.00     0.016 A 
ATOM     41  C   UNL     1     -26.354  54.880  47.435  1.00  0.00     0.158 A 
ATOM     42  C   UNL     1     -25.029  53.455  48.887  1.00  0.00     0.051 A 
ATOM     43  C   UNL     1     -26.009  54.453  48.745  1.00  0.00     0.157 A 
BRANCH  41  44
ATOM     44  O   UNL     1     -27.393  55.802  47.255  1.00  0.00    -0.504 OA
ATOM     45  H   UNL     1     -28.149  55.728  46.492  1.00  0.00     0.293 HD
ENDBRANCH  41  44
BRANCH  43  46
ATOM     46  O   UNL     1     -26.626  55.029  49.878  1.00  0.00    -0.504 OA
ATOM     47  H   UNL     1     -27.424  54.586  50.289  1.00  0.00     0.293 HD
ENDBRANCH  43  46
ENDBRANCH  28  38
BRANCH  34  48
ATOM     48  O   UNL     1     -25.974  51.772  40.510  1.00  0.00    -0.507 OA
ATOM     49  H   UNL     1     -25.915  51.008  39.830  1.00  0.00     0.293 HD
ENDBRANCH  34  48
BRANCH  37  50
ATOM     50  O   UNL     1     -21.593  53.782  40.302  1.00  0.00    -0.508 OA
ATOM     51  H   UNL     1     -21.714  54.629  39.707  1.00  0.00     0.293 HD
ENDBRANCH  37  50
ENDBRANCH  26  27
ENDBRANCH   5  26
BRANCH   4  52
ATOM     52  O   UNL     1     -25.493  48.861  48.252  1.00  0.00    -0.384 OA
ATOM     53  H   UNL     1     -26.286  48.796  48.899  1.00  0.00     0.211 HD
ENDBRANCH   4  52
TORSDOF 16
ENDMDL
MODEL 4
REMARK VINA RESULT:    -4.674      2.027      3.005
REMARK INTER + INTRA:         -10.412
REMARK INTER:                  -7.950
REMARK INTRA:                  -2.462
REMARK UNBOUND:                -2.733
REMARK SMILES C[C@@H]1O[C@H](OC[C@H]2O[C@@H](Oc3c(-c4ccc(O)c(O)c4)oc4cc(O)cc(O)c4c3=O)[C@H](O)[C@@H](O)[C@H]2O)[C@@H](O)[C@H](O)[C@H]1O
REMARK SMILES IDX 7 1 36 2 34 3 32 4 9 5 8 6 6 7 5 8 4 9 1 10 2 11 42 12 3 13
REMARK SMILES IDX 40 14 38 15 43 16 41 18 39 20 37 22 35 24 10 26 11 27 12 28
REMARK SMILES IDX 30 29 21 30 29 31 31 32 22 33 27 34 23 35 26 36 24 37 13 38
REMARK SMILES IDX 20 39 14 40 18 41 15 42 16 43 19 44 17 46 28 48 25 50 33 52
REMARK H PARENT 43 17 41 19 39 21 37 23 35 25 19 45 17 47 28 49 25 51 33 53
REMARK Flexibility Score: inf
ROOT
ATOM      1  C   UNL     1     -24.682  49.445  44.782  1.00  0.00     0.180 C 
ATOM      2  C   UNL     1     -23.983  48.736  45.845  1.00  0.00     0.177 C 
ATOM      3  C   UNL     1     -22.647  49.640  45.874  1.00  0.00     0.180 C 
ATOM      4  C   UNL     1     -23.025  50.648  46.878  1.00  0.00     0.214 C 
ATOM      5  C   UNL     1     -24.216  51.483  46.222  1.00  0.00     0.339 C 
ATOM      6  O   UNL     1     -25.182  50.673  45.468  1.00  0.00    -0.332 OA
ENDROOT
BRANCH   1   7
ATOM      7  C   UNL     1     -25.578  48.400  44.023  1.00  0.00     0.198 C 
BRANCH   7   8
ATOM      8  O   UNL     1     -26.420  49.079  43.073  1.00  0.00    -0.347 OA
BRANCH   8   9
ATOM      9  C   UNL     1     -26.227  48.653  41.713  1.00  0.00     0.281 C 
ATOM     10  C   UNL     1     -28.471  46.712  42.029  1.00  0.00     0.041 C 
ATOM     11  C   UNL     1     -27.205  46.580  41.135  1.00  0.00     0.150 C 
ATOM     12  C   UNL     1     -27.444  46.902  39.658  1.00  0.00     0.174 C 
ATOM     13  O   UNL     1     -26.065  47.247  41.628  1.00  0.00    -0.344 OA
ATOM     14  C   UNL     1     -27.118  48.401  39.361  1.00  0.00     0.179 C 
ATOM     15  C   UNL     1     -27.244  49.242  40.643  1.00  0.00     0.202 C 
BRANCH  12  16
ATOM     16  O   UNL     1     -26.591  46.090  38.898  1.00  0.00    -0.388 OA
ATOM     17  H   UNL     1     -26.094  45.500  39.556  1.00  0.00     0.211 HD
ENDBRANCH  12  16
BRANCH  14  18
ATOM     18  O   UNL     1     -28.033  48.867  38.366  1.00  0.00    -0.387 OA
ATOM     19  H   UNL     1     -27.625  48.839  37.458  1.00  0.00     0.211 HD
ENDBRANCH  14  18
BRANCH  15  20
ATOM     20  O   UNL     1     -26.951  50.593  40.451  1.00  0.00    -0.385 OA
ATOM     21  H   UNL     1     -26.858  50.747  39.480  1.00  0.00     0.211 HD
ENDBRANCH  15  20
ENDBRANCH   8   9
ENDBRANCH   7   8
ENDBRANCH   1   7
BRANCH   2  22
ATOM     22  O   UNL     1     -24.966  48.734  46.970  1.00  0.00    -0.387 OA
ATOM     23  H   UNL     1     -25.966  48.857  46.782  1.00  0.00     0.211 HD
ENDBRANCH   2  22
BRANCH   3  24
ATOM     24  O   UNL     1     -21.430  48.944  45.994  1.00  0.00    -0.387 OA
ATOM     25  H   UNL     1     -20.627  49.120  45.321  1.00  0.00     0.211 HD
ENDBRANCH   3  24
BRANCH   5  26
ATOM     26  O   UNL     1     -24.882  52.207  47.249  1.00  0.00    -0.454 OA
BRANCH  26  27
ATOM     27  C   UNL     1     -25.049  53.602  47.251  1.00  0.00     0.214 A 
ATOM     28  C   UNL     1     -26.154  54.252  46.651  1.00  0.00     0.180 A 
ATOM     29  C   UNL     1     -24.205  54.464  48.036  1.00  0.00     0.239 A 
ATOM     30  O   UNL     1     -26.744  55.280  47.269  1.00  0.00    -0.452 OA
ATOM     31  C   UNL     1     -24.741  55.686  48.537  1.00  0.00     0.111 A 
ATOM     32  O   UNL     1     -22.977  54.164  48.140  1.00  0.00    -0.285 OA
ATOM     33  C   UNL     1     -26.115  55.984  48.198  1.00  0.00     0.146 A 
ATOM     34  C   UNL     1     -24.079  56.581  49.416  1.00  0.00     0.134 A 
ATOM     35  C   UNL     1     -26.777  57.065  48.776  1.00  0.00     0.094 A 
ATOM     36  C   UNL     1     -24.755  57.654  49.950  1.00  0.00     0.093 A 
ATOM     37  C   UNL     1     -26.114  57.902  49.648  1.00  0.00     0.123 A 
BRANCH  28  38
ATOM     38  C   UNL     1     -26.365  54.199  45.176  1.00  0.00     0.025 A 
ATOM     39  C   UNL     1     -25.489  54.914  44.305  1.00  0.00     0.062 A 
ATOM     40  C   UNL     1     -27.070  53.138  44.649  1.00  0.00     0.016 A 
ATOM     41  C   UNL     1     -25.270  54.481  43.003  1.00  0.00     0.158 A 
ATOM     42  C   UNL     1     -26.918  52.731  43.339  1.00  0.00     0.051 A 
ATOM     43  C   UNL     1     -26.028  53.400  42.480  1.00  0.00     0.157 A 
BRANCH  41  44
ATOM     44  O   UNL     1     -24.306  55.106  42.202  1.00  0.00    -0.504 OA
ATOM     45  H   UNL     1     -24.124  56.167  42.180  1.00  0.00     0.293 HD
ENDBRANCH  41  44
BRANCH  43  46
ATOM     46  O   UNL     1     -25.902  53.017  41.126  1.00  0.00    -0.504 OA
ATOM     47  H   UNL     1     -26.717  52.781  40.598  1.00  0.00     0.293 HD
ENDBRANCH  43  46
ENDBRANCH  28  38
BRANCH  34  48
ATOM     48  O   UNL     1     -22.778  56.329  49.924  1.00  0.00    -0.507 OA
ATOM     49  H   UNL     1     -22.211  55.503  49.715  1.00  0.00     0.293 HD
ENDBRANCH  34  48
BRANCH  37  50
ATOM     50  O   UNL     1     -26.756  59.052  50.124  1.00  0.00    -0.508 OA
ATOM     51  H   UNL     1     -27.011  59.208  51.123  1.00  0.00     0.293 HD
ENDBRANCH  37  50
ENDBRANCH  26  27
ENDBRANCH   5  26
BRANCH   4  52
ATOM     52  O   UNL     1     -21.929  51.487  47.135  1.00  0.00    -0.384 OA
ATOM     53  H   UNL     1     -21.742  51.991  46.261  1.00  0.00     0.211 HD
ENDBRANCH   4  52
TORSDOF 16
ENDMDL
MODEL 5
REMARK VINA RESULT:    -4.649      2.411      5.535
REMARK INTER + INTRA:         -10.371
REMARK INTER:                  -7.413
REMARK INTRA:                  -2.957
REMARK UNBOUND:                -2.733
REMARK SMILES C[C@@H]1O[C@H](OC[C@H]2O[C@@H](Oc3c(-c4ccc(O)c(O)c4)oc4cc(O)cc(O)c4c3=O)[C@H](O)[C@@H](O)[C@H]2O)[C@@H](O)[C@H](O)[C@H]1O
REMARK SMILES IDX 7 1 36 2 34 3 32 4 9 5 8 6 6 7 5 8 4 9 1 10 2 11 42 12 3 13
REMARK SMILES IDX 40 14 38 15 43 16 41 18 39 20 37 22 35 24 10 26 11 27 12 28
REMARK SMILES IDX 30 29 21 30 29 31 31 32 22 33 27 34 23 35 26 36 24 37 13 38
REMARK SMILES IDX 20 39 14 40 18 41 15 42 16 43 19 44 17 46 28 48 25 50 33 52
REMARK H PARENT 43 17 41 19 39 21 37 23 35 25 19 45 17 47 28 49 25 51 33 53
REMARK Flexibility Score: inf
ROOT
ATOM      1  C   UNL     1     -26.656  48.612  42.977  1.00  0.00     0.180 C 
ATOM      2  C   UNL     1     -26.073  48.422  41.655  1.00  0.00     0.177 C 
ATOM      3  C   UNL     1     -26.859  49.609  40.895  1.00  0.00     0.180 C 
ATOM      4  C   UNL     1     -25.914  50.722  41.084  1.00  0.00     0.214 C 
ATOM      5  C   UNL     1     -25.902  51.014  42.653  1.00  0.00     0.339 C 
ATOM      6  O   UNL     1     -25.932  49.811  43.494  1.00  0.00    -0.332 OA
ENDROOT
BRANCH   1   7
ATOM      7  C   UNL     1     -26.705  47.207  43.681  1.00  0.00     0.198 C 
BRANCH   7   8
ATOM      8  O   UNL     1     -25.721  47.154  44.729  1.00  0.00    -0.347 OA
BRANCH   8   9
ATOM      9  C   UNL     1     -26.250  47.416  46.041  1.00  0.00     0.281 C 
ATOM     10  C   UNL     1     -23.844  46.123  47.243  1.00  0.00     0.041 C 
ATOM     11  C   UNL     1     -25.294  46.166  47.806  1.00  0.00     0.150 C 
ATOM     12  C   UNL     1     -25.509  47.213  48.901  1.00  0.00     0.174 C 
ATOM     13  O   UNL     1     -26.304  46.235  46.824  1.00  0.00    -0.344 OA
ATOM     14  C   UNL     1     -26.038  48.550  48.290  1.00  0.00     0.179 C 
ATOM     15  C   UNL     1     -25.631  48.661  46.810  1.00  0.00     0.202 C 
BRANCH  12  16
ATOM     16  O   UNL     1     -26.466  46.709  49.793  1.00  0.00    -0.388 OA
ATOM     17  H   UNL     1     -27.220  46.337  49.227  1.00  0.00     0.211 HD
ENDBRANCH  12  16
BRANCH  14  18
ATOM     18  O   UNL     1     -25.485  49.633  49.043  1.00  0.00    -0.387 OA
ATOM     19  H   UNL     1     -26.080  50.431  49.019  1.00  0.00     0.211 HD
ENDBRANCH  14  18
BRANCH  15  20
ATOM     20  O   UNL     1     -26.085  49.830  46.198  1.00  0.00    -0.385 OA
ATOM     21  H   UNL     1     -25.602  49.931  45.342  1.00  0.00     0.211 HD
ENDBRANCH  15  20
ENDBRANCH   8   9
ENDBRANCH   7   8
ENDBRANCH   1   7
BRANCH   2  22
ATOM     22  O   UNL     1     -24.602  48.477  41.908  1.00  0.00    -0.387 OA
ATOM     23  H   UNL     1     -24.131  47.699  42.380  1.00  0.00     0.211 HD
ENDBRANCH   2  22
BRANCH   3  24
ATOM     24  O   UNL     1     -27.347  49.307  39.611  1.00  0.00    -0.387 OA
ATOM     25  H   UNL     1     -26.703  49.301  38.765  1.00  0.00     0.211 HD
ENDBRANCH   3  24
BRANCH   5  26
ATOM     26  O   UNL     1     -24.754  51.796  42.959  1.00  0.00    -0.454 OA
BRANCH  26  27
ATOM     27  C   UNL     1     -24.738  52.838  43.901  1.00  0.00     0.214 A 
ATOM     28  C   UNL     1     -25.215  54.142  43.625  1.00  0.00     0.180 A 
ATOM     29  C   UNL     1     -24.414  52.603  45.284  1.00  0.00     0.239 A 
ATOM     30  O   UNL     1     -25.937  54.800  44.538  1.00  0.00    -0.452 OA
ATOM     31  C   UNL     1     -25.004  53.432  46.283  1.00  0.00     0.111 A 
ATOM     32  O   UNL     1     -23.513  51.750  45.550  1.00  0.00    -0.285 OA
ATOM     33  C   UNL     1     -25.887  54.481  45.822  1.00  0.00     0.146 A 
ATOM     34  C   UNL     1     -24.878  53.256  47.684  1.00  0.00     0.134 A 
ATOM     35  C   UNL     1     -26.637  55.232  46.724  1.00  0.00     0.094 A 
ATOM     36  C   UNL     1     -25.615  54.032  48.549  1.00  0.00     0.093 A 
ATOM     37  C   UNL     1     -26.514  55.019  48.080  1.00  0.00     0.123 A 
BRANCH  28  38
ATOM     38  C   UNL     1     -24.539  55.006  42.614  1.00  0.00     0.025 A 
ATOM     39  C   UNL     1     -24.925  54.933  41.243  1.00  0.00     0.062 A 
ATOM     40  C   UNL     1     -23.910  56.154  43.045  1.00  0.00     0.016 A 
ATOM     41  C   UNL     1     -24.776  56.029  40.402  1.00  0.00     0.158 A 
ATOM     42  C   UNL     1     -23.690  57.231  42.210  1.00  0.00     0.051 A 
ATOM     43  C   UNL     1     -24.102  57.190  40.866  1.00  0.00     0.157 A 
BRANCH  41  44
ATOM     44  O   UNL     1     -25.284  55.995  39.097  1.00  0.00    -0.504 OA
ATOM     45  H   UNL     1     -24.755  55.602  38.245  1.00  0.00     0.293 HD
ENDBRANCH  41  44
BRANCH  43  46
ATOM     46  O   UNL     1     -23.840  58.270  39.995  1.00  0.00    -0.504 OA
ATOM     47  H   UNL     1     -22.905  58.609  39.889  1.00  0.00     0.293 HD
ENDBRANCH  43  46
ENDBRANCH  28  38
BRANCH  34  48
ATOM     48  O   UNL     1     -24.146  52.184  48.256  1.00  0.00    -0.507 OA
ATOM     49  H   UNL     1     -23.125  52.128  48.314  1.00  0.00     0.293 HD
ENDBRANCH  34  48
BRANCH  37  50
ATOM     50  O   UNL     1     -27.182  55.863  48.976  1.00  0.00    -0.508 OA
ATOM     51  H   UNL     1     -27.158  56.904  48.928  1.00  0.00     0.293 HD
ENDBRANCH  37  50
ENDBRANCH  26  27
ENDBRANCH   5  26
BRANCH   4  52
ATOM     52  O   UNL     1     -26.372  51.849  40.384  1.00  0.00    -0.384 OA
ATOM     53  H   UNL     1     -25.596  52.520  40.379  1.00  0.00     0.211 HD
ENDBRANCH   4  52
TORSDOF 16
ENDMDL
MODEL 6
REMARK VINA RESULT:    -4.648      2.023      6.732
REMARK INTER + INTRA:         -10.370
REMARK INTER:                  -7.806
REMARK INTRA:                  -2.563
REMARK UNBOUND:                -2.733
REMARK SMILES C[C@@H]1O[C@H](OC[C@H]2O[C@@H](Oc3c(-c4ccc(O)c(O)c4)oc4cc(O)cc(O)c4c3=O)[C@H](O)[C@@H](O)[C@H]2O)[C@@H](O)[C@H](O)[C@H]1O
REMARK SMILES IDX 7 1 36 2 34 3 32 4 9 5 8 6 6 7 5 8 4 9 1 10 2 11 42 12 3 13
REMARK SMILES IDX 40 14 38 15 43 16 41 18 39 20 37 22 35 24 10 26 11 27 12 28
REMARK SMILES IDX 30 29 21 30 29 31 31 32 22 33 27 34 23 35 26 36 24 37 13 38
REMARK SMILES IDX 20 39 14 40 18 41 15 42 16 43 19 44 17 46 28 48 25 50 33 52
REMARK H PARENT 43 17 41 19 39 21 37 23 35 25 19 45 17 47 28 49 25 51 33 53
REMARK Flexibility Score: inf
ROOT
ATOM      1  C   UNL     1     -24.845  50.459  47.752  1.00  0.00     0.180 C 
ATOM      2  C   UNL     1     -24.625  49.067  48.122  1.00  0.00     0.177 C 
ATOM      3  C   UNL     1     -26.068  48.491  47.685  1.00  0.00     0.180 C 
ATOM      4  C   UNL     1     -25.792  48.101  46.292  1.00  0.00     0.214 C 
ATOM      5  C   UNL     1     -25.507  49.465  45.512  1.00  0.00     0.339 C 
ATOM      6  O   UNL     1     -24.706  50.438  46.266  1.00  0.00    -0.332 OA
ENDROOT
BRANCH   1   7
ATOM      7  C   UNL     1     -23.997  51.350  48.731  1.00  0.00     0.198 C 
BRANCH   7   8
ATOM      8  O   UNL     1     -23.878  52.681  48.198  1.00  0.00    -0.347 OA
BRANCH   8   9
ATOM      9  C   UNL     1     -25.130  53.266  47.803  1.00  0.00     0.281 C 
ATOM     10  C   UNL     1     -24.170  55.918  48.777  1.00  0.00     0.041 C 
ATOM     11  C   UNL     1     -25.628  55.374  48.752  1.00  0.00     0.150 C 
ATOM     12  C   UNL     1     -26.473  55.898  47.589  1.00  0.00     0.174 C 
ATOM     13  O   UNL     1     -25.734  53.973  48.875  1.00  0.00    -0.344 OA
ATOM     14  C   UNL     1     -26.414  54.913  46.378  1.00  0.00     0.179 C 
ATOM     15  C   UNL     1     -25.127  54.071  46.432  1.00  0.00     0.202 C 
BRANCH  12  16
ATOM     16  O   UNL     1     -27.798  55.997  48.032  1.00  0.00    -0.388 OA
ATOM     17  H   UNL     1     -28.056  56.974  47.953  1.00  0.00     0.211 HD
ENDBRANCH  12  16
BRANCH  14  18
ATOM     18  O   UNL     1     -26.454  55.684  45.174  1.00  0.00    -0.387 OA
ATOM     19  H   UNL     1     -26.167  55.144  44.389  1.00  0.00     0.211 HD
ENDBRANCH  14  18
BRANCH  15  20
ATOM     20  O   UNL     1     -25.017  53.157  45.383  1.00  0.00    -0.385 OA
ATOM     21  H   UNL     1     -25.072  53.662  44.536  1.00  0.00     0.211 HD
ENDBRANCH  15  20
ENDBRANCH   8   9
ENDBRANCH   7   8
ENDBRANCH   1   7
BRANCH   2  22
ATOM     22  O   UNL     1     -23.371  48.705  47.395  1.00  0.00    -0.387 OA
ATOM     23  H   UNL     1     -22.831  49.426  46.907  1.00  0.00     0.211 HD
ENDBRANCH   2  22
BRANCH   3  24
ATOM     24  O   UNL     1     -26.664  47.575  48.570  1.00  0.00    -0.387 OA
ATOM     25  H   UNL     1     -27.366  47.893  49.302  1.00  0.00     0.211 HD
ENDBRANCH   3  24
BRANCH   5  26
ATOM     26  O   UNL     1     -24.868  49.157  44.280  1.00  0.00    -0.454 OA
BRANCH  26  27
ATOM     27  C   UNL     1     -24.811  50.029  43.181  1.00  0.00     0.214 A 
ATOM     28  C   UNL     1     -25.926  50.316  42.358  1.00  0.00     0.180 A 
ATOM     29  C   UNL     1     -23.657  50.852  42.927  1.00  0.00     0.239 A 
ATOM     30  O   UNL     1     -26.152  51.567  41.945  1.00  0.00    -0.452 OA
ATOM     31  C   UNL     1     -23.835  52.113  42.286  1.00  0.00     0.111 A 
ATOM     32  O   UNL     1     -22.511  50.363  43.165  1.00  0.00    -0.285 OA
ATOM     33  C   UNL     1     -25.185  52.472  41.914  1.00  0.00     0.146 A 
ATOM     34  C   UNL     1     -22.821  53.082  42.072  1.00  0.00     0.134 A 
ATOM     35  C   UNL     1     -25.482  53.747  41.438  1.00  0.00     0.094 A 
ATOM     36  C   UNL     1     -23.145  54.324  41.577  1.00  0.00     0.093 A 
ATOM     37  C   UNL     1     -24.479  54.677  41.266  1.00  0.00     0.123 A 
BRANCH  28  38
ATOM     38  C   UNL     1     -26.551  49.253  41.519  1.00  0.00     0.025 A 
ATOM     39  C   UNL     1     -27.076  48.078  42.133  1.00  0.00     0.062 A 
ATOM     40  C   UNL     1     -27.029  49.595  40.272  1.00  0.00     0.016 A 
ATOM     41  C   UNL     1     -28.116  47.369  41.543  1.00  0.00     0.158 A 
ATOM     42  C   UNL     1     -28.014  48.867  39.636  1.00  0.00     0.051 A 
ATOM     43  C   UNL     1     -28.571  47.730  40.247  1.00  0.00     0.157 A 
BRANCH  41  44
ATOM     44  O   UNL     1     -28.718  46.299  42.219  1.00  0.00    -0.504 OA
ATOM     45  H   UNL     1     -29.747  46.004  42.101  1.00  0.00     0.293 HD
ENDBRANCH  41  44
BRANCH  43  46
ATOM     46  O   UNL     1     -29.548  46.955  39.583  1.00  0.00    -0.504 OA
ATOM     47  H   UNL     1     -29.572  45.964  39.716  1.00  0.00     0.293 HD
ENDBRANCH  43  46
ENDBRANCH  28  38
BRANCH  34  48
ATOM     48  O   UNL     1     -21.485  52.899  42.512  1.00  0.00    -0.507 OA
ATOM     49  H   UNL     1     -20.864  52.139  42.219  1.00  0.00     0.293 HD
ENDBRANCH  34  48
BRANCH  37  50
ATOM     50  O   UNL     1     -24.774  55.911  40.673  1.00  0.00    -0.508 OA
ATOM     51  H   UNL     1     -25.700  56.154  40.260  1.00  0.00     0.293 HD
ENDBRANCH  37  50
ENDBRANCH  26  27
ENDBRANCH   5  26
BRANCH   4  52
ATOM     52  O   UNL     1     -26.919  47.461  45.753  1.00  0.00    -0.384 OA
ATOM     53  H   UNL     1     -26.891  47.632  44.742  1.00  0.00     0.211 HD
ENDBRANCH   4  52
TORSDOF 16
ENDMDL
MODEL 7
REMARK VINA RESULT:    -4.582      2.437      5.744
REMARK INTER + INTRA:         -10.261
REMARK INTER:                  -7.246
REMARK INTRA:                  -3.014
REMARK UNBOUND:                -2.733
REMARK SMILES C[C@@H]1O[C@H](OC[C@H]2O[C@@H](Oc3c(-c4ccc(O)c(O)c4)oc4cc(O)cc(O)c4c3=O)[C@H](O)[C@@H](O)[C@H]2O)[C@@H](O)[C@H](O)[C@H]1O
REMARK SMILES IDX 7 1 36 2 34 3 32 4 9 5 8 6 6 7 5 8 4 9 1 10 2 11 42 12 3 13
REMARK SMILES IDX 40 14 38 15 43 16 41 18 39 20 37 22 35 24 10 26 11 27 12 28
REMARK SMILES IDX 30 29 21 30 29 31 31 32 22 33 27 34 23 35 26 36 24 37 13 38
REMARK SMILES IDX 20 39 14 40 18 41 15 42 16 43 19 44 17 46 28 48 25 50 33 52
REMARK H PARENT 43 17 41 19 39 21 37 23 35 25 19 45 17 47 28 49 25 51 33 53
REMARK Flexibility Score: inf
ROOT
ATOM      1  C   UNL     1     -22.072  47.850  44.339  1.00  0.00     0.180 C 
ATOM      2  C   UNL     1     -22.085  49.241  44.771  1.00  0.00     0.177 C 
ATOM      3  C   UNL     1     -20.905  49.782  43.813  1.00  0.00     0.180 C 
ATOM      4  C   UNL     1     -21.684  50.203  42.637  1.00  0.00     0.214 C 
ATOM      5  C   UNL     1     -22.294  48.862  42.022  1.00  0.00     0.339 C 
ATOM      6  O   UNL     1     -22.774  47.900  43.023  1.00  0.00    -0.332 OA
ENDROOT
BRANCH   1   7
ATOM      7  C   UNL     1     -22.506  46.968  45.566  1.00  0.00     0.198 C 
BRANCH   7   8
ATOM      8  O   UNL     1     -23.628  47.576  46.230  1.00  0.00    -0.347 OA
BRANCH   8   9
ATOM      9  C   UNL     1     -24.885  46.929  45.964  1.00  0.00     0.281 C 
ATOM     10  C   UNL     1     -25.039  46.104  48.828  1.00  0.00     0.041 C 
ATOM     11  C   UNL     1     -25.598  45.359  47.581  1.00  0.00     0.150 C 
ATOM     12  C   UNL     1     -27.101  45.548  47.361  1.00  0.00     0.174 C 
ATOM     13  O   UNL     1     -24.873  45.577  46.392  1.00  0.00    -0.344 OA
ATOM     14  C   UNL     1     -27.370  46.737  46.385  1.00  0.00     0.179 C 
ATOM     15  C   UNL     1     -26.189  47.724  46.403  1.00  0.00     0.202 C 
BRANCH  12  16
ATOM     16  O   UNL     1     -27.602  44.369  46.792  1.00  0.00    -0.388 OA
ATOM     17  H   UNL     1     -28.589  44.528  46.622  1.00  0.00     0.211 HD
ENDBRANCH  12  16
BRANCH  14  18
ATOM     18  O   UNL     1     -28.572  47.391  46.800  1.00  0.00    -0.387 OA
ATOM     19  H   UNL     1     -28.389  48.075  47.500  1.00  0.00     0.211 HD
ENDBRANCH  14  18
BRANCH  15  20
ATOM     20  O   UNL     1     -26.359  48.807  45.540  1.00  0.00    -0.385 OA
ATOM     21  H   UNL     1     -26.280  48.472  44.614  1.00  0.00     0.211 HD
ENDBRANCH  15  20
ENDBRANCH   8   9
ENDBRANCH   7   8
ENDBRANCH   1   7
BRANCH   2  22
ATOM     22  O   UNL     1     -23.509  49.653  44.587  1.00  0.00    -0.387 OA
ATOM     23  H   UNL     1     -23.755  50.645  44.520  1.00  0.00     0.211 HD
ENDBRANCH   2  22
BRANCH   3  24
ATOM     24  O   UNL     1     -19.982  50.664  44.402  1.00  0.00    -0.387 OA
ATOM     25  H   UNL     1     -20.116  51.717  44.349  1.00  0.00     0.211 HD
ENDBRANCH   3  24
BRANCH   5  26
ATOM     26  O   UNL     1     -23.349  49.210  41.134  1.00  0.00    -0.454 OA
BRANCH  26  27
ATOM     27  C   UNL     1     -24.414  50.062  41.469  1.00  0.00     0.214 A 
ATOM     28  C   UNL     1     -25.626  49.602  42.038  1.00  0.00     0.180 A 
ATOM     29  C   UNL     1     -24.276  51.495  41.440  1.00  0.00     0.239 A 
ATOM     30  O   UNL     1     -26.205  50.288  43.029  1.00  0.00    -0.452 OA
ATOM     31  C   UNL     1     -25.047  52.282  42.345  1.00  0.00     0.111 A 
ATOM     32  O   UNL     1     -23.571  52.008  40.519  1.00  0.00    -0.285 OA
ATOM     33  C   UNL     1     -25.942  51.570  43.230  1.00  0.00     0.146 A 
ATOM     34  C   UNL     1     -24.939  53.686  42.518  1.00  0.00     0.134 A 
ATOM     35  C   UNL     1     -26.608  52.234  44.258  1.00  0.00     0.094 A 
ATOM     36  C   UNL     1     -25.631  54.314  43.528  1.00  0.00     0.093 A 
ATOM     37  C   UNL     1     -26.462  53.595  44.418  1.00  0.00     0.123 A 
BRANCH  28  38
ATOM     38  C   UNL     1     -26.542  48.710  41.270  1.00  0.00     0.025 A 
ATOM     39  C   UNL     1     -27.302  47.713  41.952  1.00  0.00     0.062 A 
ATOM     40  C   UNL     1     -26.995  49.134  40.039  1.00  0.00     0.016 A 
ATOM     41  C   UNL     1     -28.517  47.272  41.442  1.00  0.00     0.158 A 
ATOM     42  C   UNL     1     -28.165  48.660  39.482  1.00  0.00     0.051 A 
ATOM     43  C   UNL     1     -28.946  47.708  40.161  1.00  0.00     0.157 A 
BRANCH  41  44
ATOM     44  O   UNL     1     -29.321  46.398  42.185  1.00  0.00    -0.504 OA
ATOM     45  H   UNL     1     -30.062  45.741  41.762  1.00  0.00     0.293 HD
ENDBRANCH  41  44
BRANCH  43  46
ATOM     46  O   UNL     1     -30.121  47.185  39.576  1.00  0.00    -0.504 OA
ATOM     47  H   UNL     1     -30.068  46.686  38.711  1.00  0.00     0.293 HD
ENDBRANCH  43  46
ENDBRANCH  28  38
BRANCH  34  48
ATOM     48  O   UNL     1     -24.003  54.473  41.800  1.00  0.00    -0.507 OA
ATOM     49  H   UNL     1     -23.058  54.707  42.119  1.00  0.00     0.293 HD
ENDBRANCH  34  48
BRANCH  37  50
ATOM     50  O   UNL     1     -27.232  54.264  45.378  1.00  0.00    -0.508 OA
ATOM     51  H   UNL     1     -27.781  53.787  46.124  1.00  0.00     0.293 HD
ENDBRANCH  37  50
ENDBRANCH  26  27
ENDBRANCH   5  26
BRANCH   4  52
ATOM     52  O   UNL     1     -20.831  50.818  41.706  1.00  0.00    -0.384 OA
ATOM     53  H   UNL     1     -20.641  50.116  40.983  1.00  0.00     0.211 HD
ENDBRANCH   4  52
TORSDOF 16
ENDMDL
MODEL 8
REMARK VINA RESULT:    -4.547      2.033      4.955
REMARK INTER + INTRA:         -10.204
REMARK INTER:                  -7.045
REMARK INTRA:                  -3.159
REMARK UNBOUND:                -2.733
REMARK SMILES C[C@@H]1O[C@H](OC[C@H]2O[C@@H](Oc3c(-c4ccc(O)c(O)c4)oc4cc(O)cc(O)c4c3=O)[C@H](O)[C@@H](O)[C@H]2O)[C@@H](O)[C@H](O)[C@H]1O
REMARK SMILES IDX 7 1 36 2 34 3 32 4 9 5 8 6 6 7 5 8 4 9 1 10 2 11 42 12 3 13
REMARK SMILES IDX 40 14 38 15 43 16 41 18 39 20 37 22 35 24 10 26 11 27 12 28
REMARK SMILES IDX 30 29 21 30 29 31 31 32 22 33 27 34 23 35 26 36 24 37 13 38
REMARK SMILES IDX 20 39 14 40 18 41 15 42 16 43 19 44 17 46 28 48 25 50 33 52
REMARK H PARENT 43 17 41 19 39 21 37 23 35 25 19 45 17 47 28 49 25 51 33 53
REMARK Flexibility Score: inf
ROOT
ATOM      1  C   UNL     1     -24.167  48.596  45.321  1.00  0.00     0.180 C 
ATOM      2  C   UNL     1     -24.942  48.098  46.450  1.00  0.00     0.177 C 
ATOM      3  C   UNL     1     -24.099  48.807  47.628  1.00  0.00     0.180 C 
ATOM      4  C   UNL     1     -24.834  50.076  47.761  1.00  0.00     0.214 C 
ATOM      5  C   UNL     1     -24.593  50.858  46.391  1.00  0.00     0.339 C 
ATOM      6  O   UNL     1     -24.629  50.010  45.193  1.00  0.00    -0.332 OA
ENDROOT
BRANCH   1   7
ATOM      7  C   UNL     1     -24.233  47.512  44.184  1.00  0.00     0.198 C 
BRANCH   7   8
ATOM      8  O   UNL     1     -25.566  47.454  43.644  1.00  0.00    -0.347 OA
BRANCH   8   9
ATOM      9  C   UNL     1     -25.652  47.837  42.260  1.00  0.00     0.281 C 
ATOM     10  C   UNL     1     -28.437  46.769  42.165  1.00  0.00     0.041 C 
ATOM     11  C   UNL     1     -27.387  46.820  41.017  1.00  0.00     0.150 C 
ATOM     12  C   UNL     1     -27.595  47.970  40.029  1.00  0.00     0.174 C 
ATOM     13  O   UNL     1     -26.045  46.745  41.445  1.00  0.00    -0.344 OA
ATOM     14  C   UNL     1     -26.745  49.213  40.443  1.00  0.00     0.179 C 
ATOM     15  C   UNL     1     -26.445  49.179  41.952  1.00  0.00     0.202 C 
BRANCH  12  16
ATOM     16  O   UNL     1     -27.175  47.531  38.766  1.00  0.00    -0.388 OA
ATOM     17  H   UNL     1     -27.070  48.360  38.193  1.00  0.00     0.211 HD
ENDBRANCH  12  16
BRANCH  14  18
ATOM     18  O   UNL     1     -27.485  50.390  40.108  1.00  0.00    -0.387 OA
ATOM     19  H   UNL     1     -26.918  51.206  40.179  1.00  0.00     0.211 HD
ENDBRANCH  14  18
BRANCH  15  20
ATOM     20  O   UNL     1     -25.675  50.258  42.388  1.00  0.00    -0.385 OA
ATOM     21  H   UNL     1     -25.935  50.460  43.319  1.00  0.00     0.211 HD
ENDBRANCH  15  20
ENDBRANCH   8   9
ENDBRANCH   7   8
ENDBRANCH   1   7
BRANCH   2  22
ATOM     22  O   UNL     1     -26.342  48.503  46.120  1.00  0.00    -0.387 OA
ATOM     23  H   UNL     1     -27.010  48.709  46.869  1.00  0.00     0.211 HD
ENDBRANCH   2  22
BRANCH   3  24
ATOM     24  O   UNL     1     -23.837  48.020  48.764  1.00  0.00    -0.387 OA
ATOM     25  H   UNL     1     -23.865  48.437  49.741  1.00  0.00     0.211 HD
ENDBRANCH   3  24
BRANCH   5  26
ATOM     26  O   UNL     1     -25.560  51.895  46.285  1.00  0.00    -0.454 OA
BRANCH  26  27
ATOM     27  C   UNL     1     -25.411  53.033  45.475  1.00  0.00     0.214 A 
ATOM     28  C   UNL     1     -24.666  54.172  45.864  1.00  0.00     0.180 A 
ATOM     29  C   UNL     1     -25.845  53.047  44.102  1.00  0.00     0.239 A 
ATOM     30  O   UNL     1     -23.872  54.788  44.983  1.00  0.00    -0.452 OA
ATOM     31  C   UNL     1     -25.150  53.867  43.166  1.00  0.00     0.111 A 
ATOM     32  O   UNL     1     -26.912  52.428  43.807  1.00  0.00    -0.285 OA
ATOM     33  C   UNL     1     -24.050  54.654  43.678  1.00  0.00     0.146 A 
ATOM     34  C   UNL     1     -25.379  53.901  41.766  1.00  0.00     0.134 A 
ATOM     35  C   UNL     1     -23.209  55.354  42.816  1.00  0.00     0.094 A 
ATOM     36  C   UNL     1     -24.544  54.623  40.945  1.00  0.00     0.093 A 
ATOM     37  C   UNL     1     -23.442  55.346  41.457  1.00  0.00     0.123 A 
BRANCH  28  38
ATOM     38  C   UNL     1     -25.101  55.013  47.017  1.00  0.00     0.025 A 
ATOM     39  C   UNL     1     -24.425  56.236  47.300  1.00  0.00     0.062 A 
ATOM     40  C   UNL     1     -26.385  54.862  47.495  1.00  0.00     0.016 A 
ATOM     41  C   UNL     1     -25.082  57.283  47.935  1.00  0.00     0.158 A 
ATOM     42  C   UNL     1     -27.035  55.864  48.187  1.00  0.00     0.051 A 
ATOM     43  C   UNL     1     -26.396  57.091  48.438  1.00  0.00     0.157 A 
BRANCH  41  44
ATOM     44  O   UNL     1     -24.456  58.527  48.085  1.00  0.00    -0.504 OA
ATOM     45  H   UNL     1     -23.395  58.691  47.996  1.00  0.00     0.293 HD
ENDBRANCH  41  44
BRANCH  43  46
ATOM     46  O   UNL     1     -27.040  58.103  49.184  1.00  0.00    -0.504 OA
ATOM     47  H   UNL     1     -26.506  58.682  49.801  1.00  0.00     0.293 HD
ENDBRANCH  43  46
ENDBRANCH  28  38
BRANCH  34  48
ATOM     48  O   UNL     1     -26.342  53.075  41.130  1.00  0.00    -0.507 OA
ATOM     49  H   UNL     1     -27.337  53.294  41.033  1.00  0.00     0.293 HD
ENDBRANCH  34  48
BRANCH  37  50
ATOM     50  O   UNL     1     -22.661  56.152  40.618  1.00  0.00    -0.508 OA
ATOM     51  H   UNL     1     -22.336  55.866  39.670  1.00  0.00     0.293 HD
ENDBRANCH  37  50
ENDBRANCH  26  27
ENDBRANCH   5  26
BRANCH   4  52
ATOM     52  O   UNL     1     -24.311  50.810  48.837  1.00  0.00    -0.384 OA
ATOM     53  H   UNL     1     -23.802  50.138  49.423  1.00  0.00     0.211 HD
ENDBRANCH   4  52
TORSDOF 16
ENDMDL
MODEL 9
REMARK VINA RESULT:    -4.519      2.794      7.401
REMARK INTER + INTRA:         -10.158
REMARK INTER:                  -6.609
REMARK INTRA:                  -3.548
REMARK UNBOUND:                -2.733
REMARK SMILES C[C@@H]1O[C@H](OC[C@H]2O[C@@H](Oc3c(-c4ccc(O)c(O)c4)oc4cc(O)cc(O)c4c3=O)[C@H](O)[C@@H](O)[C@H]2O)[C@@H](O)[C@H](O)[C@H]1O
REMARK SMILES IDX 7 1 36 2 34 3 32 4 9 5 8 6 6 7 5 8 4 9 1 10 2 11 42 12 3 13
REMARK SMILES IDX 40 14 38 15 43 16 41 18 39 20 37 22 35 24 10 26 11 27 12 28
REMARK SMILES IDX 30 29 21 30 29 31 31 32 22 33 27 34 23 35 26 36 24 37 13 38
REMARK SMILES IDX 20 39 14 40 18 41 15 42 16 43 19 44 17 46 28 48 25 50 33 52
REMARK H PARENT 43 17 41 19 39 21 37 23 35 25 19 45 17 47 28 49 25 51 33 53
REMARK Flexibility Score: inf
ROOT
ATOM      1  C   UNL     1     -21.128  50.493  42.918  1.00  0.00     0.180 C 
ATOM      2  C   UNL     1     -21.642  49.596  41.891  1.00  0.00     0.177 C 
ATOM      3  C   UNL     1     -21.279  48.200  42.614  1.00  0.00     0.180 C 
ATOM      4  C   UNL     1     -22.521  47.954  43.365  1.00  0.00     0.214 C 
ATOM      5  C   UNL     1     -22.599  49.114  44.459  1.00  0.00     0.339 C 
ATOM      6  O   UNL     1     -22.182  50.435  43.973  1.00  0.00    -0.332 OA
ENDROOT
BRANCH   1   7
ATOM      7  C   UNL     1     -20.631  51.801  42.201  1.00  0.00     0.198 C 
BRANCH   7   8
ATOM      8  O   UNL     1     -21.576  52.188  41.187  1.00  0.00    -0.347 OA
BRANCH   8   9
ATOM      9  C   UNL     1     -22.556  53.141  41.636  1.00  0.00     0.281 C 
ATOM     10  C   UNL     1     -21.053  55.308  40.239  1.00  0.00     0.041 C 
ATOM     11  C   UNL     1     -21.905  55.412  41.536  1.00  0.00     0.150 C 
ATOM     12  C   UNL     1     -23.306  55.989  41.320  1.00  0.00     0.174 C 
ATOM     13  O   UNL     1     -21.948  54.232  42.308  1.00  0.00    -0.344 OA
ATOM     14  C   UNL     1     -24.346  54.844  41.100  1.00  0.00     0.179 C 
ATOM     15  C   UNL     1     -23.647  53.580  40.567  1.00  0.00     0.202 C 
BRANCH  12  16
ATOM     16  O   UNL     1     -23.656  56.707  42.472  1.00  0.00    -0.388 OA
ATOM     17  H   UNL     1     -23.258  56.203  43.257  1.00  0.00     0.211 HD
ENDBRANCH  12  16
BRANCH  14  18
ATOM     18  O   UNL     1     -25.324  55.305  40.164  1.00  0.00    -0.387 OA
ATOM     19  H   UNL     1     -26.149  54.747  40.199  1.00  0.00     0.211 HD
ENDBRANCH  14  18
BRANCH  15  20
ATOM     20  O   UNL     1     -24.520  52.511  40.360  1.00  0.00    -0.385 OA
ATOM     21  H   UNL     1     -24.791  52.520  39.411  1.00  0.00     0.211 HD
ENDBRANCH  15  20
ENDBRANCH   8   9
ENDBRANCH   7   8
ENDBRANCH   1   7
BRANCH   2  22
ATOM     22  O   UNL     1     -23.053  50.050  41.703  1.00  0.00    -0.387 OA
ATOM     23  H   UNL     1     -23.248  50.963  41.280  1.00  0.00     0.211 HD
ENDBRANCH   2  22
BRANCH   3  24
ATOM     24  O   UNL     1     -20.741  47.195  41.790  1.00  0.00    -0.387 OA
ATOM     25  H   UNL     1     -20.336  47.426  40.835  1.00  0.00     0.211 HD
ENDBRANCH   3  24
BRANCH   5  26
ATOM     26  O   UNL     1     -23.929  49.175  44.960  1.00  0.00    -0.454 OA
BRANCH  26  27
ATOM     27  C   UNL     1     -25.057  49.460  44.173  1.00  0.00     0.214 A 
ATOM     28  C   UNL     1     -25.273  50.713  43.552  1.00  0.00     0.180 A 
ATOM     29  C   UNL     1     -25.984  48.432  43.778  1.00  0.00     0.239 A 
ATOM     30  O   UNL     1     -25.746  50.770  42.303  1.00  0.00    -0.452 OA
ATOM     31  C   UNL     1     -26.677  48.565  42.539  1.00  0.00     0.111 A 
ATOM     32  O   UNL     1     -26.245  47.511  44.611  1.00  0.00    -0.285 OA
ATOM     33  C   UNL     1     -26.406  49.756  41.765  1.00  0.00     0.146 A 
ATOM     34  C   UNL     1     -27.528  47.590  41.959  1.00  0.00     0.134 A 
ATOM     35  C   UNL     1     -26.904  49.897  40.471  1.00  0.00     0.094 A 
ATOM     36  C   UNL     1     -28.023  47.772  40.688  1.00  0.00     0.093 A 
ATOM     37  C   UNL     1     -27.707  48.919  39.924  1.00  0.00     0.123 A 
BRANCH  28  38
ATOM     38  C   UNL     1     -25.494  51.943  44.366  1.00  0.00     0.025 A 
ATOM     39  C   UNL     1     -24.427  52.871  44.558  1.00  0.00     0.062 A 
ATOM     40  C   UNL     1     -26.783  52.403  44.528  1.00  0.00     0.016 A 
ATOM     41  C   UNL     1     -24.687  54.218  44.785  1.00  0.00     0.158 A 
ATOM     42  C   UNL     1     -27.063  53.723  44.820  1.00  0.00     0.051 A 
ATOM     43  C   UNL     1     -26.024  54.658  44.971  1.00  0.00     0.157 A 
BRANCH  41  44
ATOM     44  O   UNL     1     -23.637  55.143  44.834  1.00  0.00    -0.504 OA
ATOM     45  H   UNL     1     -23.735  56.162  45.170  1.00  0.00     0.293 HD
ENDBRANCH  41  44
BRANCH  43  46
ATOM     46  O   UNL     1     -26.301  56.000  45.314  1.00  0.00    -0.504 OA
ATOM     47  H   UNL     1     -27.249  56.317  45.357  1.00  0.00     0.293 HD
ENDBRANCH  43  46
ENDBRANCH  28  38
BRANCH  34  48
ATOM     48  O   UNL     1     -27.764  46.328  42.562  1.00  0.00    -0.507 OA
ATOM     49  H   UNL     1     -28.669  45.849  42.597  1.00  0.00     0.293 HD
ENDBRANCH  34  48
BRANCH  37  50
ATOM     50  O   UNL     1     -28.297  49.131  38.672  1.00  0.00    -0.508 OA
ATOM     51  H   UNL     1     -28.532  48.370  38.000  1.00  0.00     0.293 HD
ENDBRANCH  37  50
ENDBRANCH  26  27
ENDBRANCH   5  26
BRANCH   4  52
ATOM     52  O   UNL     1     -22.449  46.700  43.992  1.00  0.00    -0.384 OA
ATOM     53  H   UNL     1     -22.360  46.886  44.997  1.00  0.00     0.211 HD
ENDBRANCH   4  52
TORSDOF 16
ENDMDL
