MODEL 1
REMARK VINA RESULT:    -4.875      0.000      0.000
REMARK INTER + INTRA:          -4.875
REMARK INTER:                  -4.875
REMARK INTRA:                   0.000
REMARK UNBOUND:                 0.000
REMARK SMILES CC1=CC(=O)[C@H]2C[C@@H]1C2(C)C
REMARK SMILES IDX 1 1 2 2 3 3 4 4 5 5 6 6 7 7 8 8 9 9 10 10 11 11
REMARK H PARENT
REMARK Flexibility Score: inf
ROOT
ATOM      1  C   UNL     1       9.949  17.645  60.706  1.00  0.00     0.040 C 
ATOM      2  C   UNL     1      11.026  17.998  59.730  1.00  0.00    -0.066 C 
ATOM      3  C   UNL     1      12.335  18.046  60.105  1.00  0.00     0.047 C 
ATOM      4  C   UNL     1      13.315  18.441  59.043  1.00  0.00     0.159 C 
ATOM      5  O   UNL     1      14.546  18.560  59.275  1.00  0.00    -0.295 OA
ATOM      6  C   UNL     1      12.715  18.692  57.659  1.00  0.00     0.067 C 
ATOM      7  C   UNL     1      11.757  17.501  57.441  1.00  0.00     0.021 C 
ATOM      8  C   UNL     1      10.713  18.305  58.250  1.00  0.00     0.022 C 
ATOM      9  C   UNL     1      11.462  19.600  57.820  1.00  0.00    -0.019 C 
ATOM     10  C   UNL     1      10.956  20.151  56.463  1.00  0.00     0.012 C 
ATOM     11  C   UNL     1      11.530  20.779  58.831  1.00  0.00     0.012 C 
ENDROOT
TORSDOF 0
ENDMDL
MODEL 2
REMARK VINA RESULT:    -4.865      1.728      3.600
REMARK INTER + INTRA:          -4.865
REMARK INTER:                  -4.865
REMARK INTRA:                   0.000
REMARK UNBOUND:                 0.000
REMARK SMILES CC1=CC(=O)[C@H]2C[C@@H]1C2(C)C
REMARK SMILES IDX 1 1 2 2 3 3 4 4 5 5 6 6 7 7 8 8 9 9 10 10 11 11
REMARK H PARENT
REMARK Flexibility Score: inf
ROOT
ATOM      1  C   UNL     1      10.258  21.293  58.381  1.00  0.00     0.040 C 
ATOM      2  C   UNL     1      10.396  20.018  59.151  1.00  0.00    -0.066 C 
ATOM      3  C   UNL     1      11.554  19.301  59.135  1.00  0.00     0.047 C 
ATOM      4  C   UNL     1      11.555  18.026  59.923  1.00  0.00     0.159 C 
ATOM      5  O   UNL     1      12.551  17.257  59.954  1.00  0.00    -0.295 OA
ATOM      6  C   UNL     1      10.263  17.725  60.683  1.00  0.00     0.067 C 
ATOM      7  C   UNL     1       9.900  19.066  61.358  1.00  0.00     0.021 C 
ATOM      8  C   UNL     1       9.243  19.462  60.016  1.00  0.00     0.022 C 
ATOM      9  C   UNL     1       9.061  17.945  59.722  1.00  0.00    -0.019 C 
ATOM     10  C   UNL     1       7.734  17.388  60.300  1.00  0.00     0.012 C 
ATOM     11  C   UNL     1       9.192  17.461  58.251  1.00  0.00     0.012 C 
ENDROOT
TORSDOF 0
ENDMDL
MODEL 3
REMARK VINA RESULT:    -4.863      7.294      8.956
REMARK INTER + INTRA:          -4.863
REMARK INTER:                  -4.863
REMARK INTRA:                   0.000
REMARK UNBOUND:                 0.000
REMARK SMILES CC1=CC(=O)[C@H]2C[C@@H]1C2(C)C
REMARK SMILES IDX 1 1 2 2 3 3 4 4 5 5 6 6 7 7 8 8 9 9 10 10 11 11
REMARK H PARENT
REMARK Flexibility Score: inf
ROOT
ATOM      1  C   UNL     1       4.362  25.980  58.230  1.00  0.00     0.040 C 
ATOM      2  C   UNL     1       5.283  25.412  57.197  1.00  0.00    -0.066 C 
ATOM      3  C   UNL     1       4.895  25.277  55.898  1.00  0.00     0.047 C 
ATOM      4  C   UNL     1       5.898  24.666  54.967  1.00  0.00     0.159 C 
ATOM      5  O   UNL     1       5.644  24.453  53.753  1.00  0.00    -0.295 OA
ATOM      6  C   UNL     1       7.248  24.320  55.594  1.00  0.00     0.067 C 
ATOM      7  C   UNL     1       7.608  25.567  56.430  1.00  0.00     0.021 C 
ATOM      8  C   UNL     1       6.721  24.969  57.545  1.00  0.00     0.022 C 
ATOM      9  C   UNL     1       6.993  23.566  56.931  1.00  0.00    -0.019 C 
ATOM     10  C   UNL     1       8.282  22.915  57.495  1.00  0.00     0.012 C 
ATOM     11  C   UNL     1       5.854  22.509  56.977  1.00  0.00     0.012 C 
ENDROOT
TORSDOF 0
ENDMDL
MODEL 4
REMARK VINA RESULT:    -4.758     11.544     12.878
REMARK INTER + INTRA:          -4.758
REMARK INTER:                  -4.758
REMARK INTRA:                   0.000
REMARK UNBOUND:                 0.000
REMARK SMILES CC1=CC(=O)[C@H]2C[C@@H]1C2(C)C
REMARK SMILES IDX 1 1 2 2 3 3 4 4 5 5 6 6 7 7 8 8 9 9 10 10 11 11
REMARK H PARENT
REMARK Flexibility Score: inf
ROOT
ATOM      1  C   UNL     1      23.125  11.016  52.544  1.00  0.00     0.040 C 
ATOM      2  C   UNL     1      21.673  11.205  52.850  1.00  0.00    -0.066 C 
ATOM      3  C   UNL     1      20.956  10.251  53.507  1.00  0.00     0.047 C 
ATOM      4  C   UNL     1      19.504  10.546  53.726  1.00  0.00     0.159 C 
ATOM      5  O   UNL     1      18.728   9.726  54.284  1.00  0.00    -0.295 OA
ATOM      6  C   UNL     1      19.030  11.909  53.223  1.00  0.00     0.067 C 
ATOM      7  C   UNL     1      20.115  12.892  53.715  1.00  0.00     0.021 C 
ATOM      8  C   UNL     1      20.920  12.494  52.457  1.00  0.00     0.022 C 
ATOM      9  C   UNL     1      19.571  12.120  51.780  1.00  0.00    -0.019 C 
ATOM     10  C   UNL     1      18.909  13.331  51.074  1.00  0.00     0.012 C 
ATOM     11  C   UNL     1      19.550  10.913  50.800  1.00  0.00     0.012 C 
ENDROOT
TORSDOF 0
ENDMDL
MODEL 5
REMARK VINA RESULT:    -4.692      2.267      3.230
REMARK INTER + INTRA:          -4.692
REMARK INTER:                  -4.692
REMARK INTRA:                   0.000
REMARK UNBOUND:                 0.000
REMARK SMILES CC1=CC(=O)[C@H]2C[C@@H]1C2(C)C
REMARK SMILES IDX 1 1 2 2 3 3 4 4 5 5 6 6 7 7 8 8 9 9 10 10 11 11
REMARK H PARENT
REMARK Flexibility Score: inf
ROOT
ATOM      1  C   UNL     1       9.979  19.362  62.400  1.00  0.00     0.040 C 
ATOM      2  C   UNL     1      10.027  19.115  60.925  1.00  0.00    -0.066 C 
ATOM      3  C   UNL     1       9.264  18.150  60.342  1.00  0.00     0.047 C 
ATOM      4  C   UNL     1       9.425  17.979  58.862  1.00  0.00     0.159 C 
ATOM      5  O   UNL     1       8.805  17.095  58.216  1.00  0.00    -0.295 OA
ATOM      6  C   UNL     1      10.396  18.953  58.194  1.00  0.00     0.067 C 
ATOM      7  C   UNL     1      10.025  20.327  58.792  1.00  0.00     0.021 C 
ATOM      8  C   UNL     1      10.927  19.952  59.989  1.00  0.00     0.022 C 
ATOM      9  C   UNL     1      11.704  19.002  59.033  1.00  0.00    -0.019 C 
ATOM     10  C   UNL     1      12.855  19.727  58.290  1.00  0.00     0.012 C 
ATOM     11  C   UNL     1      12.261  17.671  59.612  1.00  0.00     0.012 C 
ENDROOT
TORSDOF 0
ENDMDL
MODEL 6
REMARK VINA RESULT:    -4.626      2.082      3.458
REMARK INTER + INTRA:          -4.626
REMARK INTER:                  -4.626
REMARK INTRA:                   0.000
REMARK UNBOUND:                 0.000
REMARK SMILES CC1=CC(=O)[C@H]2C[C@@H]1C2(C)C
REMARK SMILES IDX 1 1 2 2 3 3 4 4 5 5 6 6 7 7 8 8 9 9 10 10 11 11
REMARK H PARENT
REMARK Flexibility Score: inf
ROOT
ATOM      1  C   UNL     1      13.439  18.322  59.397  1.00  0.00     0.040 C 
ATOM      2  C   UNL     1      12.051  18.802  59.117  1.00  0.00    -0.066 C 
ATOM      3  C   UNL     1      11.813  20.074  58.690  1.00  0.00     0.047 C 
ATOM      4  C   UNL     1      10.376  20.443  58.475  1.00  0.00     0.159 C 
ATOM      5  O   UNL     1      10.026  21.598  58.119  1.00  0.00    -0.295 OA
ATOM      6  C   UNL     1       9.368  19.320  58.719  1.00  0.00     0.067 C 
ATOM      7  C   UNL     1       9.982  18.098  58.002  1.00  0.00     0.021 C 
ATOM      8  C   UNL     1      10.823  17.880  59.280  1.00  0.00     0.022 C 
ATOM      9  C   UNL     1       9.713  18.631  60.070  1.00  0.00    -0.019 C 
ATOM     10  C   UNL     1       8.586  17.681  60.551  1.00  0.00     0.012 C 
ATOM     11  C   UNL     1      10.140  19.525  61.268  1.00  0.00     0.012 C 
ENDROOT
TORSDOF 0
ENDMDL
MODEL 7
REMARK VINA RESULT:    -4.622      1.873      2.987
REMARK INTER + INTRA:          -4.622
REMARK INTER:                  -4.622
REMARK INTRA:                   0.000
REMARK UNBOUND:                 0.000
REMARK SMILES CC1=CC(=O)[C@H]2C[C@@H]1C2(C)C
REMARK SMILES IDX 1 1 2 2 3 3 4 4 5 5 6 6 7 7 8 8 9 9 10 10 11 11
REMARK H PARENT
REMARK Flexibility Score: inf
ROOT
ATOM      1  C   UNL     1      14.000  17.867  60.066  1.00  0.00     0.040 C 
ATOM      2  C   UNL     1      12.663  18.251  59.516  1.00  0.00    -0.066 C 
ATOM      3  C   UNL     1      11.515  17.678  59.975  1.00  0.00     0.047 C 
ATOM      4  C   UNL     1      10.243  18.125  59.322  1.00  0.00     0.159 C 
ATOM      5  O   UNL     1       9.123  17.641  59.630  1.00  0.00    -0.295 OA
ATOM      6  C   UNL     1      10.401  19.208  58.254  1.00  0.00     0.067 C 
ATOM      7  C   UNL     1      11.359  20.235  58.897  1.00  0.00     0.021 C 
ATOM      8  C   UNL     1      12.514  19.326  58.418  1.00  0.00     0.022 C 
ATOM      9  C   UNL     1      11.563  18.801  57.304  1.00  0.00    -0.019 C 
ATOM     10  C   UNL     1      11.613  19.676  56.025  1.00  0.00     0.012 C 
ATOM     11  C   UNL     1      11.682  17.310  56.880  1.00  0.00     0.012 C 
ENDROOT
TORSDOF 0
ENDMDL
MODEL 8
REMARK VINA RESULT:    -4.542      2.069      2.934
REMARK INTER + INTRA:          -4.542
REMARK INTER:                  -4.542
REMARK INTRA:                   0.000
REMARK UNBOUND:                 0.000
REMARK SMILES CC1=CC(=O)[C@H]2C[C@@H]1C2(C)C
REMARK SMILES IDX 1 1 2 2 3 3 4 4 5 5 6 6 7 7 8 8 9 9 10 10 11 11
REMARK H PARENT
REMARK Flexibility Score: inf
ROOT
ATOM      1  C   UNL     1       8.936  17.468  56.873  1.00  0.00     0.040 C 
ATOM      2  C   UNL     1       9.727  17.817  58.093  1.00  0.00    -0.066 C 
ATOM      3  C   UNL     1       9.160  17.815  59.331  1.00  0.00     0.047 C 
ATOM      4  C   UNL     1      10.050  18.213  60.469  1.00  0.00     0.159 C 
ATOM      5  O   UNL     1       9.633  18.288  61.654  1.00  0.00    -0.295 OA
ATOM      6  C   UNL     1      11.499  18.523  60.090  1.00  0.00     0.067 C 
ATOM      7  C   UNL     1      11.898  17.368  59.146  1.00  0.00     0.021 C 
ATOM      8  C   UNL     1      11.227  18.178  58.014  1.00  0.00     0.022 C 
ATOM      9  C   UNL     1      11.495  19.462  58.850  1.00  0.00    -0.019 C 
ATOM     10  C   UNL     1      12.894  20.069  58.567  1.00  0.00     0.012 C 
ATOM     11  C   UNL     1      10.447  20.608  58.794  1.00  0.00     0.012 C 
ENDROOT
TORSDOF 0
ENDMDL
MODEL 9
REMARK VINA RESULT:    -4.528      2.070      3.107
REMARK INTER + INTRA:          -4.528
REMARK INTER:                  -4.528
REMARK INTRA:                   0.000
REMARK UNBOUND:                 0.000
REMARK SMILES CC1=CC(=O)[C@H]2C[C@@H]1C2(C)C
REMARK SMILES IDX 1 1 2 2 3 3 4 4 5 5 6 6 7 7 8 8 9 9 10 10 11 11
REMARK H PARENT
REMARK Flexibility Score: inf
ROOT
ATOM      1  C   UNL     1      11.488  17.348  57.027  1.00  0.00     0.040 C 
ATOM      2  C   UNL     1      11.105  18.372  58.047  1.00  0.00    -0.066 C 
ATOM      3  C   UNL     1      10.837  18.023  59.337  1.00  0.00     0.047 C 
ATOM      4  C   UNL     1      10.434  19.137  60.255  1.00  0.00     0.159 C 
ATOM      5  O   UNL     1      10.124  18.936  61.458  1.00  0.00    -0.295 OA
ATOM      6  C   UNL     1      10.425  20.531  59.629  1.00  0.00     0.067 C 
ATOM      7  C   UNL     1      11.752  20.601  58.843  1.00  0.00     0.021 C 
ATOM      8  C   UNL     1      11.012  19.873  57.698  1.00  0.00     0.022 C 
ATOM      9  C   UNL     1       9.684  20.455  58.263  1.00  0.00    -0.019 C 
ATOM     10  C   UNL     1       9.363  21.858  57.688  1.00  0.00     0.012 C 
ATOM     11  C   UNL     1       8.400  19.584  58.167  1.00  0.00     0.012 C 
ENDROOT
TORSDOF 0
ENDMDL
