MODEL 1
REMARK VINA RESULT:    -5.614      0.000      0.000
REMARK INTER + INTRA:         -10.475
REMARK INTER:                  -9.553
REMARK INTRA:                  -0.923
REMARK UNBOUND:                -0.923
REMARK SMILES CCCCCCCCCCCCCC(=O)[O-]
REMARK SMILES IDX 8 1 9 2 10 3 11 4 12 5 13 6 14 7 15 8 16 9 7 10 6 11 5 12
REMARK SMILES IDX 4 13 3 14 2 15 1 16
REMARK H PARENT
REMARK Flexibility Score: inf
ROOT
ATOM      1  C   UNL     1       6.818 -30.264  25.471  1.00  0.00     0.000 C 
ENDROOT
BRANCH   1   2
ATOM      2  C   UNL     1       7.068 -31.360  24.415  1.00  0.00     0.000 C 
BRANCH   2   3
ATOM      3  C   UNL     1       6.607 -31.005  22.987  1.00  0.00     0.000 C 
BRANCH   3   4
ATOM      4  C   UNL     1       7.098 -31.966  21.885  1.00  0.00     0.000 C 
BRANCH   4   5
ATOM      5  C   UNL     1       8.576 -31.798  21.488  1.00  0.00     0.006 C 
BRANCH   5   6
ATOM      6  C   UNL     1       8.979 -30.330  21.302  1.00  0.00     0.053 C 
BRANCH   6   7
ATOM      7  C   UNL     1      10.187 -30.011  22.125  1.00  0.00     0.041 C 
ATOM      8  O   UNL     1      11.095 -29.273  21.659  1.00  0.00    -0.550 OA
ATOM      9  O   UNL     1      10.287 -30.489  23.425  1.00  0.00    -0.550 OA
ENDBRANCH   6   7
ENDBRANCH   5   6
ENDBRANCH   4   5
ENDBRANCH   3   4
ENDBRANCH   2   3
ENDBRANCH   1   2
BRANCH   1  10
ATOM     10  C   UNL     1       5.677 -29.288  25.136  1.00  0.00     0.000 C 
BRANCH  10  11
ATOM     11  C   UNL     1       4.505 -29.378  26.125  1.00  0.00    -0.000 C 
BRANCH  11  12
ATOM     12  C   UNL     1       3.204 -28.876  25.481  1.00  0.00    -0.000 C 
BRANCH  12  13
ATOM     13  C   UNL     1       2.998 -29.411  24.052  1.00  0.00    -0.000 C 
BRANCH  13  14
ATOM     14  C   UNL     1       2.046 -28.575  23.173  1.00  0.00    -0.000 C 
BRANCH  14  15
ATOM     15  C   UNL     1       0.673 -29.218  22.910  1.00  0.00    -0.003 C 
ATOM     16  C   UNL     1       0.582 -30.657  23.416  1.00  0.00     0.004 C 
ENDBRANCH  14  15
ENDBRANCH  13  14
ENDBRANCH  12  13
ENDBRANCH  11  12
ENDBRANCH  10  11
ENDBRANCH   1  10
TORSDOF 12
ENDMDL
MODEL 2
REMARK VINA RESULT:    -5.456      3.577      5.458
REMARK INTER + INTRA:         -10.205
REMARK INTER:                  -8.090
REMARK INTRA:                  -2.115
REMARK UNBOUND:                -0.923
REMARK SMILES CCCCCCCCCCCCCC(=O)[O-]
REMARK SMILES IDX 8 1 9 2 10 3 11 4 12 5 13 6 14 7 15 8 16 9 7 10 6 11 5 12
REMARK SMILES IDX 4 13 3 14 2 15 1 16
REMARK H PARENT
REMARK Flexibility Score: inf
ROOT
ATOM      1  C   UNL     1       7.686 -29.137  24.987  1.00  0.00     0.000 C 
ENDROOT
BRANCH   1   2
ATOM      2  C   UNL     1       8.280 -30.231  25.896  1.00  0.00     0.000 C 
BRANCH   2   3
ATOM      3  C   UNL     1       8.364 -31.633  25.258  1.00  0.00     0.000 C 
BRANCH   3   4
ATOM      4  C   UNL     1       9.713 -31.966  24.590  1.00  0.00     0.000 C 
BRANCH   4   5
ATOM      5  C   UNL     1      10.840 -30.954  24.860  1.00  0.00     0.006 C 
BRANCH   5   6
ATOM      6  C   UNL     1      11.332 -30.257  23.586  1.00  0.00     0.053 C 
BRANCH   6   7
ATOM      7  C   UNL     1      12.821 -30.358  23.477  1.00  0.00     0.041 C 
ATOM      8  O   UNL     1      13.370 -31.479  23.306  1.00  0.00    -0.550 OA
ATOM      9  O   UNL     1      13.600 -29.209  23.516  1.00  0.00    -0.550 OA
ENDBRANCH   6   7
ENDBRANCH   5   6
ENDBRANCH   4   5
ENDBRANCH   3   4
ENDBRANCH   2   3
ENDBRANCH   1   2
BRANCH   1  10
ATOM     10  C   UNL     1       7.234 -29.621  23.598  1.00  0.00     0.000 C 
BRANCH  10  11
ATOM     11  C   UNL     1       8.043 -28.992  22.454  1.00  0.00    -0.000 C 
BRANCH  11  12
ATOM     12  C   UNL     1       8.111 -29.938  21.246  1.00  0.00    -0.000 C 
BRANCH  12  13
ATOM     13  C   UNL     1       7.589 -31.352  21.562  1.00  0.00    -0.000 C 
BRANCH  13  14
ATOM     14  C   UNL     1       8.489 -32.504  21.072  1.00  0.00    -0.000 C 
BRANCH  14  15
ATOM     15  C   UNL     1       9.931 -32.098  20.720  1.00  0.00    -0.003 C 
ATOM     16  C   UNL     1      10.966 -33.133  21.159  1.00  0.00     0.004 C 
ENDBRANCH  14  15
ENDBRANCH  13  14
ENDBRANCH  12  13
ENDBRANCH  11  12
ENDBRANCH  10  11
ENDBRANCH   1  10
TORSDOF 12
ENDMDL
MODEL 3
REMARK VINA RESULT:    -5.447      1.666      2.001
REMARK INTER + INTRA:         -10.191
REMARK INTER:                  -9.624
REMARK INTRA:                  -0.567
REMARK UNBOUND:                -0.923
REMARK SMILES CCCCCCCCCCCCCC(=O)[O-]
REMARK SMILES IDX 8 1 9 2 10 3 11 4 12 5 13 6 14 7 15 8 16 9 7 10 6 11 5 12
REMARK SMILES IDX 4 13 3 14 2 15 1 16
REMARK H PARENT
REMARK Flexibility Score: inf
ROOT
ATOM      1  C   UNL     1       6.346 -30.842  23.698  1.00  0.00     0.000 C 
ENDROOT
BRANCH   1   2
ATOM      2  C   UNL     1       7.497 -31.007  22.686  1.00  0.00     0.000 C 
BRANCH   2   3
ATOM      3  C   UNL     1       7.253 -32.061  21.587  1.00  0.00     0.000 C 
BRANCH   3   4
ATOM      4  C   UNL     1       8.499 -32.449  20.766  1.00  0.00     0.000 C 
BRANCH   4   5
ATOM      5  C   UNL     1       9.738 -31.568  21.009  1.00  0.00     0.006 C 
BRANCH   5   6
ATOM      6  C   UNL     1      11.056 -32.327  20.810  1.00  0.00     0.053 C 
BRANCH   6   7
ATOM      7  C   UNL     1      11.798 -32.433  22.105  1.00  0.00     0.041 C 
ATOM      8  O   UNL     1      13.053 -32.539  22.109  1.00  0.00    -0.550 OA
ATOM      9  O   UNL     1      11.109 -32.363  23.308  1.00  0.00    -0.550 OA
ENDBRANCH   6   7
ENDBRANCH   5   6
ENDBRANCH   4   5
ENDBRANCH   3   4
ENDBRANCH   2   3
ENDBRANCH   1   2
BRANCH   1  10
ATOM     10  C   UNL     1       6.600 -29.808  24.808  1.00  0.00     0.000 C 
BRANCH  10  11
ATOM     11  C   UNL     1       5.328 -29.439  25.585  1.00  0.00    -0.000 C 
BRANCH  11  12
ATOM     12  C   UNL     1       4.103 -29.432  24.658  1.00  0.00    -0.000 C 
BRANCH  12  13
ATOM     13  C   UNL     1       2.854 -28.821  25.321  1.00  0.00    -0.000 C 
BRANCH  13  14
ATOM     14  C   UNL     1       1.514 -29.450  24.892  1.00  0.00    -0.000 C 
BRANCH  14  15
ATOM     15  C   UNL     1       1.566 -30.264  23.587  1.00  0.00    -0.003 C 
ATOM     16  C   UNL     1       0.183 -30.685  23.092  1.00  0.00     0.004 C 
ENDBRANCH  14  15
ENDBRANCH  13  14
ENDBRANCH  12  13
ENDBRANCH  11  12
ENDBRANCH  10  11
ENDBRANCH   1  10
TORSDOF 12
ENDMDL
MODEL 4
REMARK VINA RESULT:    -5.422      1.212      2.476
REMARK INTER + INTRA:         -10.148
REMARK INTER:                  -9.482
REMARK INTRA:                  -0.666
REMARK UNBOUND:                -0.923
REMARK SMILES CCCCCCCCCCCCCC(=O)[O-]
REMARK SMILES IDX 8 1 9 2 10 3 11 4 12 5 13 6 14 7 15 8 16 9 7 10 6 11 5 12
REMARK SMILES IDX 4 13 3 14 2 15 1 16
REMARK H PARENT
REMARK Flexibility Score: inf
ROOT
ATOM      1  C   UNL     1       6.804 -30.851  22.798  1.00  0.00     0.000 C 
ENDROOT
BRANCH   1   2
ATOM      2  C   UNL     1       7.141 -32.005  21.832  1.00  0.00     0.000 C 
BRANCH   2   3
ATOM      3  C   UNL     1       8.612 -32.060  21.371  1.00  0.00     0.000 C 
BRANCH   3   4
ATOM      4  C   UNL     1       9.328 -30.695  21.308  1.00  0.00     0.000 C 
BRANCH   4   5
ATOM      5  C   UNL     1      10.863 -30.762  21.386  1.00  0.00     0.006 C 
BRANCH   5   6
ATOM      6  C   UNL     1      11.487 -29.473  21.937  1.00  0.00     0.053 C 
BRANCH   6   7
ATOM      7  C   UNL     1      12.199 -29.747  23.224  1.00  0.00     0.041 C 
ATOM      8  O   UNL     1      11.725 -30.573  24.048  1.00  0.00    -0.550 OA
ATOM      9  O   UNL     1      13.412 -29.126  23.493  1.00  0.00    -0.550 OA
ENDBRANCH   6   7
ENDBRANCH   5   6
ENDBRANCH   4   5
ENDBRANCH   3   4
ENDBRANCH   2   3
ENDBRANCH   1   2
BRANCH   1  10
ATOM     10  C   UNL     1       7.213 -31.090  24.262  1.00  0.00     0.000 C 
BRANCH  10  11
ATOM     11  C   UNL     1       6.457 -30.187  25.248  1.00  0.00    -0.000 C 
BRANCH  11  12
ATOM     12  C   UNL     1       5.136 -29.694  24.638  1.00  0.00    -0.000 C 
BRANCH  12  13
ATOM     13  C   UNL     1       4.192 -29.069  25.682  1.00  0.00    -0.000 C 
BRANCH  13  14
ATOM     14  C   UNL     1       2.748 -28.834  25.197  1.00  0.00    -0.000 C 
BRANCH  14  15
ATOM     15  C   UNL     1       2.489 -29.203  23.725  1.00  0.00    -0.003 C 
ATOM     16  C   UNL     1       1.393 -30.254  23.558  1.00  0.00     0.004 C 
ENDBRANCH  14  15
ENDBRANCH  13  14
ENDBRANCH  12  13
ENDBRANCH  11  12
ENDBRANCH  10  11
ENDBRANCH   1  10
TORSDOF 12
ENDMDL
MODEL 5
REMARK VINA RESULT:    -5.383      3.724      7.352
REMARK INTER + INTRA:         -10.082
REMARK INTER:                  -9.168
REMARK INTRA:                  -0.914
REMARK UNBOUND:                -0.923
REMARK SMILES CCCCCCCCCCCCCC(=O)[O-]
REMARK SMILES IDX 8 1 9 2 10 3 11 4 12 5 13 6 14 7 15 8 16 9 7 10 6 11 5 12
REMARK SMILES IDX 4 13 3 14 2 15 1 16
REMARK H PARENT
REMARK Flexibility Score: inf
ROOT
ATOM      1  C   UNL     1       7.655 -29.489  24.872  1.00  0.00     0.000 C 
ENDROOT
BRANCH   1   2
ATOM      2  C   UNL     1       6.408 -30.390  24.972  1.00  0.00     0.000 C 
BRANCH   2   3
ATOM      3  C   UNL     1       5.098 -29.747  24.472  1.00  0.00     0.000 C 
BRANCH   3   4
ATOM      4  C   UNL     1       4.223 -29.110  25.570  1.00  0.00     0.000 C 
BRANCH   4   5
ATOM      5  C   UNL     1       2.836 -28.634  25.102  1.00  0.00     0.006 C 
BRANCH   5   6
ATOM      6  C   UNL     1       2.416 -29.252  23.763  1.00  0.00     0.053 C 
BRANCH   6   7
ATOM      7  C   UNL     1       1.167 -30.059  23.928  1.00  0.00     0.041 C 
ATOM      8  O   UNL     1       0.831 -30.894  23.047  1.00  0.00    -0.550 OA
ATOM      9  O   UNL     1       0.401 -29.925  25.079  1.00  0.00    -0.550 OA
ENDBRANCH   6   7
ENDBRANCH   5   6
ENDBRANCH   4   5
ENDBRANCH   3   4
ENDBRANCH   2   3
ENDBRANCH   1   2
BRANCH   1  10
ATOM     10  C   UNL     1       8.565 -29.771  23.664  1.00  0.00     0.000 C 
BRANCH  10  11
ATOM     11  C   UNL     1       8.219 -28.910  22.441  1.00  0.00    -0.000 C 
BRANCH  11  12
ATOM     12  C   UNL     1       7.820 -29.790  21.246  1.00  0.00    -0.000 C 
BRANCH  12  13
ATOM     13  C   UNL     1       8.194 -31.271  21.441  1.00  0.00    -0.000 C 
BRANCH  13  14
ATOM     14  C   UNL     1       9.315 -31.788  20.518  1.00  0.00    -0.000 C 
BRANCH  14  15
ATOM     15  C   UNL     1      10.740 -31.637  21.079  1.00  0.00    -0.003 C 
ATOM     16  C   UNL     1      11.424 -32.978  21.337  1.00  0.00     0.004 C 
ENDBRANCH  14  15
ENDBRANCH  13  14
ENDBRANCH  12  13
ENDBRANCH  11  12
ENDBRANCH  10  11
ENDBRANCH   1  10
TORSDOF 12
ENDMDL
MODEL 6
REMARK VINA RESULT:    -5.369      3.739      6.410
REMARK INTER + INTRA:         -10.058
REMARK INTER:                  -8.544
REMARK INTRA:                  -1.514
REMARK UNBOUND:                -0.923
REMARK SMILES CCCCCCCCCCCCCC(=O)[O-]
REMARK SMILES IDX 8 1 9 2 10 3 11 4 12 5 13 6 14 7 15 8 16 9 7 10 6 11 5 12
REMARK SMILES IDX 4 13 3 14 2 15 1 16
REMARK H PARENT
REMARK Flexibility Score: inf
ROOT
ATOM      1  C   UNL     1       7.403 -29.673  23.841  1.00  0.00     0.000 C 
ENDROOT
BRANCH   1   2
ATOM      2  C   UNL     1       8.096 -29.102  22.587  1.00  0.00     0.000 C 
BRANCH   2   3
ATOM      3  C   UNL     1       7.993 -29.984  21.327  1.00  0.00     0.000 C 
BRANCH   3   4
ATOM      4  C   UNL     1       7.811 -31.491  21.598  1.00  0.00     0.000 C 
BRANCH   4   5
ATOM      5  C   UNL     1       8.892 -32.398  20.985  1.00  0.00     0.006 C 
BRANCH   5   6
ATOM      6  C   UNL     1      10.270 -31.726  20.927  1.00  0.00     0.053 C 
BRANCH   6   7
ATOM      7  C   UNL     1      11.325 -32.654  21.439  1.00  0.00     0.041 C 
ATOM      8  O   UNL     1      12.537 -32.448  21.166  1.00  0.00    -0.550 OA
ATOM      9  O   UNL     1      10.976 -33.718  22.259  1.00  0.00    -0.550 OA
ENDBRANCH   6   7
ENDBRANCH   5   6
ENDBRANCH   4   5
ENDBRANCH   3   4
ENDBRANCH   2   3
ENDBRANCH   1   2
BRANCH   1  10
ATOM     10  C   UNL     1       8.340 -29.955  25.029  1.00  0.00     0.000 C 
BRANCH  10  11
ATOM     11  C   UNL     1       8.537 -31.455  25.291  1.00  0.00    -0.000 C 
BRANCH  11  12
ATOM     12  C   UNL     1      10.013 -31.849  25.138  1.00  0.00    -0.000 C 
BRANCH  12  13
ATOM     13  C   UNL     1      10.847 -30.779  24.410  1.00  0.00    -0.000 C 
BRANCH  13  14
ATOM     14  C   UNL     1      12.320 -30.684  24.855  1.00  0.00    -0.000 C 
BRANCH  14  15
ATOM     15  C   UNL     1      13.104 -29.501  24.260  1.00  0.00    -0.003 C 
ATOM     16  C   UNL     1      13.836 -28.679  25.320  1.00  0.00     0.004 C 
ENDBRANCH  14  15
ENDBRANCH  13  14
ENDBRANCH  12  13
ENDBRANCH  11  12
ENDBRANCH  10  11
ENDBRANCH   1  10
TORSDOF 12
ENDMDL
MODEL 7
REMARK VINA RESULT:    -5.230      3.886      7.081
REMARK INTER + INTRA:          -9.821
REMARK INTER:                  -8.802
REMARK INTRA:                  -1.019
REMARK UNBOUND:                -0.923
REMARK SMILES CCCCCCCCCCCCCC(=O)[O-]
REMARK SMILES IDX 8 1 9 2 10 3 11 4 12 5 13 6 14 7 15 8 16 9 7 10 6 11 5 12
REMARK SMILES IDX 4 13 3 14 2 15 1 16
REMARK H PARENT
REMARK Flexibility Score: inf
ROOT
ATOM      1  C   UNL     1       6.662 -30.609  25.415  1.00  0.00     0.000 C 
ENDROOT
BRANCH   1   2
ATOM      2  C   UNL     1       5.564 -29.743  24.767  1.00  0.00     0.000 C 
BRANCH   2   3
ATOM      3  C   UNL     1       4.588 -29.079  25.759  1.00  0.00     0.000 C 
BRANCH   3   4
ATOM      4  C   UNL     1       3.117 -29.035  25.298  1.00  0.00     0.000 C 
BRANCH   4   5
ATOM      5  C   UNL     1       2.881 -29.459  23.837  1.00  0.00     0.006 C 
BRANCH   5   6
ATOM      6  C   UNL     1       1.471 -29.117  23.339  1.00  0.00     0.053 C 
BRANCH   6   7
ATOM      7  C   UNL     1       0.515 -30.214  23.685  1.00  0.00     0.041 C 
ATOM      8  O   UNL     1      -0.028 -30.246  24.821  1.00  0.00    -0.550 OA
ATOM      9  O   UNL     1       0.185 -31.172  22.736  1.00  0.00    -0.550 OA
ENDBRANCH   6   7
ENDBRANCH   5   6
ENDBRANCH   4   5
ENDBRANCH   3   4
ENDBRANCH   2   3
ENDBRANCH   1   2
BRANCH   1  10
ATOM     10  C   UNL     1       7.941 -29.850  25.808  1.00  0.00     0.000 C 
BRANCH  10  11
ATOM     11  C   UNL     1       9.222 -30.554  25.338  1.00  0.00    -0.000 C 
BRANCH  11  12
ATOM     12  C   UNL     1       8.911 -31.588  24.246  1.00  0.00    -0.000 C 
BRANCH  12  13
ATOM     13  C   UNL     1       9.997 -31.653  23.156  1.00  0.00    -0.000 C 
BRANCH  13  14
ATOM     14  C   UNL     1       9.565 -31.129  21.772  1.00  0.00    -0.000 C 
BRANCH  14  15
ATOM     15  C   UNL     1       8.062 -30.829  21.631  1.00  0.00    -0.003 C 
ATOM     16  C   UNL     1       7.748 -29.334  21.648  1.00  0.00     0.004 C 
ENDBRANCH  14  15
ENDBRANCH  13  14
ENDBRANCH  12  13
ENDBRANCH  11  12
ENDBRANCH  10  11
ENDBRANCH   1  10
TORSDOF 12
ENDMDL
MODEL 8
REMARK VINA RESULT:    -5.219      1.690      2.203
REMARK INTER + INTRA:          -9.802
REMARK INTER:                  -9.026
REMARK INTRA:                  -0.777
REMARK UNBOUND:                -0.923
REMARK SMILES CCCCCCCCCCCCCC(=O)[O-]
REMARK SMILES IDX 8 1 9 2 10 3 11 4 12 5 13 6 14 7 15 8 16 9 7 10 6 11 5 12
REMARK SMILES IDX 4 13 3 14 2 15 1 16
REMARK H PARENT
REMARK Flexibility Score: inf
ROOT
ATOM      1  C   UNL     1       6.850 -29.884  25.033  1.00  0.00     0.000 C 
ENDROOT
BRANCH   1   2
ATOM      2  C   UNL     1       7.269 -31.292  25.502  1.00  0.00     0.000 C 
BRANCH   2   3
ATOM      3  C   UNL     1       8.774 -31.460  25.794  1.00  0.00     0.000 C 
BRANCH   3   4
ATOM      4  C   UNL     1       9.636 -31.845  24.575  1.00  0.00     0.000 C 
BRANCH   4   5
ATOM      5  C   UNL     1       9.750 -30.760  23.490  1.00  0.00     0.006 C 
BRANCH   5   6
ATOM      6  C   UNL     1       9.398 -31.279  22.090  1.00  0.00     0.053 C 
BRANCH   6   7
ATOM      7  C   UNL     1       8.012 -30.861  21.712  1.00  0.00     0.041 C 
ATOM      8  O   UNL     1       7.045 -31.652  21.877  1.00  0.00    -0.550 OA
ATOM      9  O   UNL     1       7.780 -29.582  21.225  1.00  0.00    -0.550 OA
ENDBRANCH   6   7
ENDBRANCH   5   6
ENDBRANCH   4   5
ENDBRANCH   3   4
ENDBRANCH   2   3
ENDBRANCH   1   2
BRANCH   1  10
ATOM     10  C   UNL     1       5.367 -29.743  24.648  1.00  0.00     0.000 C 
BRANCH  10  11
ATOM     11  C   UNL     1       4.520 -29.104  25.759  1.00  0.00    -0.000 C 
BRANCH  11  12
ATOM     12  C   UNL     1       3.108 -28.774  25.251  1.00  0.00    -0.000 C 
BRANCH  12  13
ATOM     13  C   UNL     1       2.825 -29.349  23.852  1.00  0.00    -0.000 C 
BRANCH  13  14
ATOM     14  C   UNL     1       1.649 -28.693  23.102  1.00  0.00    -0.000 C 
BRANCH  14  15
ATOM     15  C   UNL     1       0.270 -29.315  23.385  1.00  0.00    -0.003 C 
ATOM     16  C   UNL     1       0.210 -30.805  23.055  1.00  0.00     0.004 C 
ENDBRANCH  14  15
ENDBRANCH  13  14
ENDBRANCH  12  13
ENDBRANCH  11  12
ENDBRANCH  10  11
ENDBRANCH   1  10
TORSDOF 12
ENDMDL
MODEL 9
REMARK VINA RESULT:    -5.174      3.787      6.107
REMARK INTER + INTRA:          -9.727
REMARK INTER:                  -7.830
REMARK INTRA:                  -1.897
REMARK UNBOUND:                -0.923
REMARK SMILES CCCCCCCCCCCCCC(=O)[O-]
REMARK SMILES IDX 8 1 9 2 10 3 11 4 12 5 13 6 14 7 15 8 16 9 7 10 6 11 5 12
REMARK SMILES IDX 4 13 3 14 2 15 1 16
REMARK H PARENT
REMARK Flexibility Score: inf
ROOT
ATOM      1  C   UNL     1       8.515 -30.083  25.341  1.00  0.00     0.000 C 
ENDROOT
BRANCH   1   2
ATOM      2  C   UNL     1       8.683 -31.590  25.065  1.00  0.00     0.000 C 
BRANCH   2   3
ATOM      3  C   UNL     1      10.142 -32.065  24.909  1.00  0.00     0.000 C 
BRANCH   3   4
ATOM      4  C   UNL     1      11.160 -30.952  24.591  1.00  0.00     0.000 C 
BRANCH   4   5
ATOM      5  C   UNL     1      12.632 -31.328  24.836  1.00  0.00     0.006 C 
BRANCH   5   6
ATOM      6  C   UNL     1      12.792 -32.684  25.533  1.00  0.00     0.053 C 
BRANCH   6   7
ATOM      7  C   UNL     1      13.589 -33.620  24.680  1.00  0.00     0.041 C 
ATOM      8  O   UNL     1      13.503 -33.561  23.424  1.00  0.00    -0.550 OA
ATOM      9  O   UNL     1      14.463 -34.523  25.268  1.00  0.00    -0.550 OA
ENDBRANCH   6   7
ENDBRANCH   5   6
ENDBRANCH   4   5
ENDBRANCH   3   4
ENDBRANCH   2   3
ENDBRANCH   1   2
BRANCH   1  10
ATOM     10  C   UNL     1       7.449 -29.380  24.481  1.00  0.00     0.000 C 
BRANCH  10  11
ATOM     11  C   UNL     1       7.231 -30.063  23.124  1.00  0.00    -0.000 C 
BRANCH  11  12
ATOM     12  C   UNL     1       8.061 -29.380  22.026  1.00  0.00    -0.000 C 
BRANCH  12  13
ATOM     13  C   UNL     1       9.183 -30.280  21.477  1.00  0.00    -0.000 C 
BRANCH  13  14
ATOM     14  C   UNL     1       8.815 -31.770  21.334  1.00  0.00    -0.000 C 
BRANCH  14  15
ATOM     15  C   UNL     1      10.014 -32.728  21.224  1.00  0.00    -0.003 C 
ATOM     16  C   UNL     1      11.338 -32.002  20.997  1.00  0.00     0.004 C 
ENDBRANCH  14  15
ENDBRANCH  13  14
ENDBRANCH  12  13
ENDBRANCH  11  12
ENDBRANCH  10  11
ENDBRANCH   1  10
TORSDOF 12
ENDMDL
