MODEL 1
REMARK VINA RESULT:    -7.540      0.000      0.000
REMARK INTER + INTRA:          -7.720
REMARK INTER:                  -8.201
REMARK INTRA:                   0.481
REMARK UNBOUND:                 0.481
REMARK SMILES C[C@@H]1[C@H](C)CC[C@@]2(C(=O)[O-])CC[C@]3(C)C(=CC[C@@H]4[C@]5(C)CC[C@H](O)C(C)(C)[C@H]5CC[C@@]43C)[C@H]12
REMARK SMILES IDX 7 1 6 2 11 3 33 4 5 5 12 6 15 7 2 8 3 9 13 10 16 11 1 12
REMARK SMILES IDX 4 13 14 14 31 15 17 16 18 17 30 18 32 19 19 20 29 21 28 22
REMARK SMILES IDX 21 23 20 24 25 25 22 26 23 27 26 28 27 29 8 30 9 31 10 32
REMARK SMILES IDX 24 33
REMARK H PARENT 24 34
REMARK Flexibility Score: inf
ROOT
ATOM      1  C   UNL     1       1.581  14.640  36.977  1.00  0.00     0.017 C 
ATOM      2  C   UNL     1       1.780  15.932  37.818  1.00  0.00     0.014 C 
ATOM      3  C   UNL     1       2.938  14.241  36.384  1.00  0.00     0.014 C 
ATOM      4  C   UNL     1       1.153  13.481  37.931  1.00  0.00     0.030 C 
ATOM      5  C   UNL     1       0.506  16.321  38.575  1.00  0.00     0.004 C 
ATOM      6  C   UNL     1       2.836  13.015  35.475  1.00  0.00     0.013 C 
ATOM      7  C   UNL     1       1.242  12.063  37.306  1.00  0.00    -0.063 C 
ATOM      8  C   UNL     1      -0.097  13.833  38.826  1.00  0.00    -0.003 C 
ATOM      9  C   UNL     1       0.095  15.203  39.545  1.00  0.00    -0.011 C 
ATOM     10  C   UNL     1       2.112  11.728  36.068  1.00  0.00    -0.006 C 
ATOM     11  C   UNL     1       0.748  11.036  38.022  1.00  0.00    -0.027 C 
ATOM     12  C   UNL     1      -1.450  13.703  38.104  1.00  0.00     0.008 C 
ATOM     13  C   UNL     1      -1.125  15.625  40.378  1.00  0.00     0.008 C 
ATOM     14  C   UNL     1       1.125  11.215  34.970  1.00  0.00     0.017 C 
ATOM     15  C   UNL     1       3.161  10.555  36.414  1.00  0.00    -0.020 C 
ATOM     16  C   UNL     1       1.248   9.627  37.974  1.00  0.00     0.032 C 
ATOM     17  C   UNL     1       2.414   9.268  36.995  1.00  0.00     0.006 C 
ATOM     18  C   UNL     1       4.183  11.072  37.476  1.00  0.00     0.008 C 
ATOM     19  C   UNL     1       3.931  10.156  35.097  1.00  0.00     0.012 C 
ATOM     20  C   UNL     1       3.383   8.135  37.603  1.00  0.00    -0.025 C 
ATOM     21  C   UNL     1       5.115   9.999  38.064  1.00  0.00     0.005 C 
ATOM     22  C   UNL     1       4.324   8.814  38.672  1.00  0.00     0.003 C 
ATOM     23  C   UNL     1       2.556   6.986  38.289  1.00  0.00     0.010 C 
ATOM     24  C   UNL     1       4.169   7.441  36.438  1.00  0.00     0.012 C 
ATOM     25  C   UNL     1       5.184   7.833  39.567  1.00  0.00    -0.006 C 
ATOM     26  C   UNL     1       3.411   6.009  39.117  1.00  0.00     0.033 C 
ATOM     27  C   UNL     1       4.252   6.732  40.177  1.00  0.00     0.120 C 
ATOM     28  C   UNL     1       5.824   8.616  40.749  1.00  0.00     0.014 C 
ATOM     29  C   UNL     1       6.362   7.171  38.804  1.00  0.00     0.014 C 
ENDROOT
BRANCH   1  30
ATOM     30  C   UNL     1       0.609  14.945  35.837  1.00  0.00     0.048 C 
ATOM     31  O   UNL     1       0.787  15.964  35.118  1.00  0.00    -0.550 OA
ATOM     32  O   UNL     1      -0.429  14.087  35.512  1.00  0.00    -0.550 OA
ENDBRANCH   1  30
BRANCH  27  33
ATOM     33  O   UNL     1       3.375   7.294  41.125  1.00  0.00    -0.393 OA
ATOM     34  H   UNL     1       3.209   8.236  40.859  1.00  0.00     0.210 HD
ENDBRANCH  27  33
TORSDOF 2
ENDMDL
MODEL 2
REMARK VINA RESULT:    -7.314     14.408     16.597
REMARK INTER + INTRA:          -7.475
REMARK INTER:                  -7.962
REMARK INTRA:                   0.488
REMARK UNBOUND:                 0.481
REMARK SMILES C[C@@H]1[C@H](C)CC[C@@]2(C(=O)[O-])CC[C@]3(C)C(=CC[C@@H]4[C@]5(C)CC[C@H](O)C(C)(C)[C@H]5CC[C@@]43C)[C@H]12
REMARK SMILES IDX 7 1 6 2 11 3 33 4 5 5 12 6 15 7 2 8 3 9 13 10 16 11 1 12
REMARK SMILES IDX 4 13 14 14 31 15 17 16 18 17 30 18 32 19 19 20 29 21 28 22
REMARK SMILES IDX 21 23 20 24 25 25 22 26 23 27 26 28 27 29 8 30 9 31 10 32
REMARK SMILES IDX 24 33
REMARK H PARENT 24 34
REMARK Flexibility Score: inf
ROOT
ATOM      1  C   UNL     1      13.564  18.168  24.916  1.00  0.00     0.017 C 
ATOM      2  C   UNL     1      13.748  19.334  25.926  1.00  0.00     0.014 C 
ATOM      3  C   UNL     1      14.840  17.317  24.929  1.00  0.00     0.014 C 
ATOM      4  C   UNL     1      12.408  17.246  25.419  1.00  0.00     0.030 C 
ATOM      5  C   UNL     1      12.463  20.152  26.094  1.00  0.00     0.004 C 
ATOM      6  C   UNL     1      14.788  16.177  23.910  1.00  0.00     0.013 C 
ATOM      7  C   UNL     1      12.324  15.868  24.709  1.00  0.00    -0.063 C 
ATOM      8  C   UNL     1      11.068  18.024  25.714  1.00  0.00    -0.003 C 
ATOM      9  C   UNL     1      11.327  19.263  26.623  1.00  0.00    -0.011 C 
ATOM     10  C   UNL     1      13.511  15.228  23.945  1.00  0.00    -0.006 C 
ATOM     11  C   UNL     1      11.264  15.088  24.989  1.00  0.00    -0.027 C 
ATOM     12  C   UNL     1      10.232  18.345  24.461  1.00  0.00     0.008 C 
ATOM     13  C   UNL     1      10.062  20.095  26.886  1.00  0.00     0.008 C 
ATOM     14  C   UNL     1      13.032  15.055  22.467  1.00  0.00     0.017 C 
ATOM     15  C   UNL     1      13.859  13.777  24.552  1.00  0.00    -0.020 C 
ATOM     16  C   UNL     1      11.262  13.593  24.973  1.00  0.00     0.032 C 
ATOM     17  C   UNL     1      12.568  12.835  24.566  1.00  0.00     0.006 C 
ATOM     18  C   UNL     1      14.384  13.941  26.014  1.00  0.00     0.008 C 
ATOM     19  C   UNL     1      14.977  13.108  23.665  1.00  0.00     0.012 C 
ATOM     20  C   UNL     1      12.741  11.455  25.376  1.00  0.00    -0.025 C 
ATOM     21  C   UNL     1      14.554  12.628  26.798  1.00  0.00     0.005 C 
ATOM     22  C   UNL     1      13.246  11.798  26.830  1.00  0.00     0.003 C 
ATOM     23  C   UNL     1      11.380  10.672  25.467  1.00  0.00     0.010 C 
ATOM     24  C   UNL     1      13.712  10.507  24.591  1.00  0.00     0.012 C 
ATOM     25  C   UNL     1      13.245  10.604  27.870  1.00  0.00    -0.006 C 
ATOM     26  C   UNL     1      11.405   9.482  26.444  1.00  0.00     0.033 C 
ATOM     27  C   UNL     1      11.846   9.901  27.853  1.00  0.00     0.120 C 
ATOM     28  C   UNL     1      13.481  11.151  29.307  1.00  0.00     0.014 C 
ATOM     29  C   UNL     1      14.368   9.563  27.617  1.00  0.00     0.014 C 
ENDROOT
BRANCH   1  30
ATOM     30  C   UNL     1      13.373  18.758  23.519  1.00  0.00     0.048 C 
ATOM     31  O   UNL     1      14.133  19.680  23.119  1.00  0.00    -0.550 OA
ATOM     32  O   UNL     1      12.432  18.255  22.635  1.00  0.00    -0.550 OA
ENDBRANCH   1  30
BRANCH  27  33
ATOM     33  O   UNL     1      10.857  10.751  28.387  1.00  0.00    -0.393 OA
ATOM     34  H   UNL     1      11.239  11.184  29.196  1.00  0.00     0.210 HD
ENDBRANCH  27  33
TORSDOF 2
ENDMDL
MODEL 3
REMARK VINA RESULT:    -7.236      4.622      8.919
REMARK INTER + INTRA:          -7.390
REMARK INTER:                  -7.886
REMARK INTRA:                   0.496
REMARK UNBOUND:                 0.481
REMARK SMILES C[C@@H]1[C@H](C)CC[C@@]2(C(=O)[O-])CC[C@]3(C)C(=CC[C@@H]4[C@]5(C)CC[C@H](O)C(C)(C)[C@H]5CC[C@@]43C)[C@H]12
REMARK SMILES IDX 7 1 6 2 11 3 33 4 5 5 12 6 15 7 2 8 3 9 13 10 16 11 1 12
REMARK SMILES IDX 4 13 14 14 31 15 17 16 18 17 30 18 32 19 19 20 29 21 28 22
REMARK SMILES IDX 21 23 20 24 25 25 22 26 23 27 26 28 27 29 8 30 9 31 10 32
REMARK SMILES IDX 24 33
REMARK H PARENT 24 34
REMARK Flexibility Score: inf
ROOT
ATOM      1  C   UNL     1      10.124   8.823  36.166  1.00  0.00     0.017 C 
ATOM      2  C   UNL     1      10.493   9.360  34.756  1.00  0.00     0.014 C 
ATOM      3  C   UNL     1       9.401   9.940  36.930  1.00  0.00     0.014 C 
ATOM      4  C   UNL     1       9.099   7.656  36.006  1.00  0.00     0.030 C 
ATOM      5  C   UNL     1      11.085   8.263  33.864  1.00  0.00     0.004 C 
ATOM      6  C   UNL     1       9.056   9.533  38.364  1.00  0.00     0.013 C 
ATOM      7  C   UNL     1       8.382   7.241  37.318  1.00  0.00    -0.063 C 
ATOM      8  C   UNL     1       9.585   6.523  35.022  1.00  0.00    -0.003 C 
ATOM      9  C   UNL     1      10.071   7.126  33.669  1.00  0.00    -0.011 C 
ATOM     10  C   UNL     1       8.280   8.158  38.563  1.00  0.00    -0.006 C 
ATOM     11  C   UNL     1       7.599   6.147  37.279  1.00  0.00    -0.027 C 
ATOM     12  C   UNL     1      10.581   5.528  35.645  1.00  0.00     0.008 C 
ATOM     13  C   UNL     1      10.619   6.068  32.699  1.00  0.00     0.008 C 
ATOM     14  C   UNL     1       8.996   7.396  39.724  1.00  0.00     0.017 C 
ATOM     15  C   UNL     1       6.738   8.394  38.969  1.00  0.00    -0.020 C 
ATOM     16  C   UNL     1       6.385   5.921  38.124  1.00  0.00     0.032 C 
ATOM     17  C   UNL     1       5.980   7.003  39.177  1.00  0.00     0.006 C 
ATOM     18  C   UNL     1       6.023   9.197  37.836  1.00  0.00     0.008 C 
ATOM     19  C   UNL     1       6.685   9.219  40.311  1.00  0.00     0.012 C 
ATOM     20  C   UNL     1       4.383   7.116  39.340  1.00  0.00    -0.025 C 
ATOM     21  C   UNL     1       4.496   9.313  37.982  1.00  0.00     0.005 C 
ATOM     22  C   UNL     1       3.818   7.926  38.110  1.00  0.00     0.003 C 
ATOM     23  C   UNL     1       3.711   5.695  39.383  1.00  0.00     0.010 C 
ATOM     24  C   UNL     1       4.045   7.775  40.722  1.00  0.00     0.012 C 
ATOM     25  C   UNL     1       2.244   7.940  37.946  1.00  0.00    -0.006 C 
ATOM     26  C   UNL     1       2.175   5.724  39.272  1.00  0.00     0.033 C 
ATOM     27  C   UNL     1       1.700   6.473  38.020  1.00  0.00     0.120 C 
ATOM     28  C   UNL     1       1.861   8.515  36.552  1.00  0.00     0.014 C 
ATOM     29  C   UNL     1       1.521   8.830  38.991  1.00  0.00     0.014 C 
ENDROOT
BRANCH   1  30
ATOM     30  C   UNL     1      11.413   8.467  36.906  1.00  0.00     0.048 C 
ATOM     31  O   UNL     1      12.348   9.310  36.977  1.00  0.00    -0.550 OA
ATOM     32  O   UNL     1      11.563   7.265  37.578  1.00  0.00    -0.550 OA
ENDBRANCH   1  30
BRANCH  27  33
ATOM     33  O   UNL     1       2.103   5.737  36.889  1.00  0.00    -0.393 OA
ATOM     34  H   UNL     1       1.381   5.811  36.210  1.00  0.00     0.210 HD
ENDBRANCH  27  33
TORSDOF 2
ENDMDL
MODEL 4
REMARK VINA RESULT:    -7.236     15.393     17.962
REMARK INTER + INTRA:          -7.390
REMARK INTER:                  -7.890
REMARK INTRA:                   0.500
REMARK UNBOUND:                 0.481
REMARK SMILES C[C@@H]1[C@H](C)CC[C@@]2(C(=O)[O-])CC[C@]3(C)C(=CC[C@@H]4[C@]5(C)CC[C@H](O)C(C)(C)[C@H]5CC[C@@]43C)[C@H]12
REMARK SMILES IDX 7 1 6 2 11 3 33 4 5 5 12 6 15 7 2 8 3 9 13 10 16 11 1 12
REMARK SMILES IDX 4 13 14 14 31 15 17 16 18 17 30 18 32 19 19 20 29 21 28 22
REMARK SMILES IDX 21 23 20 24 25 25 22 26 23 27 26 28 27 29 8 30 9 31 10 32
REMARK SMILES IDX 24 33
REMARK H PARENT 24 34
REMARK Flexibility Score: inf
ROOT
ATOM      1  C   UNL     1      12.939  19.107  25.274  1.00  0.00     0.017 C 
ATOM      2  C   UNL     1      12.064  20.085  26.106  1.00  0.00     0.014 C 
ATOM      3  C   UNL     1      13.437  17.997  26.209  1.00  0.00     0.014 C 
ATOM      4  C   UNL     1      12.038  18.416  24.202  1.00  0.00     0.030 C 
ATOM      5  C   UNL     1      11.396  21.145  25.223  1.00  0.00     0.004 C 
ATOM      6  C   UNL     1      14.371  17.016  25.497  1.00  0.00     0.013 C 
ATOM      7  C   UNL     1      12.678  17.178  23.520  1.00  0.00    -0.063 C 
ATOM      8  C   UNL     1      11.232  19.435  23.308  1.00  0.00    -0.003 C 
ATOM      9  C   UNL     1      10.478  20.479  24.188  1.00  0.00    -0.011 C 
ATOM     10  C   UNL     1      13.854  16.377  24.135  1.00  0.00    -0.006 C 
ATOM     11  C   UNL     1      12.017  16.627  22.485  1.00  0.00    -0.027 C 
ATOM     12  C   UNL     1      12.054  20.069  22.171  1.00  0.00     0.008 C 
ATOM     13  C   UNL     1       9.730  21.537  23.362  1.00  0.00     0.008 C 
ATOM     14  C   UNL     1      15.031  16.478  23.110  1.00  0.00     0.017 C 
ATOM     15  C   UNL     1      13.452  14.827  24.315  1.00  0.00    -0.020 C 
ATOM     16  C   UNL     1      12.053  15.180  22.107  1.00  0.00     0.032 C 
ATOM     17  C   UNL     1      12.949  14.200  22.934  1.00  0.00     0.006 C 
ATOM     18  C   UNL     1      12.309  14.709  25.372  1.00  0.00     0.008 C 
ATOM     19  C   UNL     1      14.715  14.027  24.815  1.00  0.00     0.012 C 
ATOM     20  C   UNL     1      12.290  12.736  23.050  1.00  0.00    -0.025 C 
ATOM     21  C   UNL     1      11.672  13.314  25.494  1.00  0.00     0.005 C 
ATOM     22  C   UNL     1      11.144  12.797  24.132  1.00  0.00     0.003 C 
ATOM     23  C   UNL     1      11.686  12.271  21.675  1.00  0.00     0.010 C 
ATOM     24  C   UNL     1      13.406  11.688  23.389  1.00  0.00     0.012 C 
ATOM     25  C   UNL     1      10.204  11.527  24.226  1.00  0.00    -0.006 C 
ATOM     26  C   UNL     1      10.814  11.005  21.770  1.00  0.00     0.033 C 
ATOM     27  C   UNL     1       9.683  11.158  22.796  1.00  0.00     0.120 C 
ATOM     28  C   UNL     1       8.965  11.847  25.111  1.00  0.00     0.014 C 
ATOM     29  C   UNL     1      10.890  10.296  24.876  1.00  0.00     0.014 C 
ENDROOT
BRANCH   1  30
ATOM     30  C   UNL     1      14.142  19.874  24.725  1.00  0.00     0.048 C 
ATOM     31  O   UNL     1      14.859  20.555  25.506  1.00  0.00    -0.550 OA
ATOM     32  O   UNL     1      14.523  19.782  23.397  1.00  0.00    -0.550 OA
ENDBRANCH   1  30
BRANCH  27  33
ATOM     33  O   UNL     1       8.793  12.143  22.323  1.00  0.00    -0.393 OA
ATOM     34  H   UNL     1       8.043  12.205  22.971  1.00  0.00     0.210 HD
ENDBRANCH  27  33
TORSDOF 2
ENDMDL
MODEL 5
REMARK VINA RESULT:    -7.065      5.001      7.790
REMARK INTER + INTRA:          -7.204
REMARK INTER:                  -7.697
REMARK INTRA:                   0.493
REMARK UNBOUND:                 0.481
REMARK SMILES C[C@@H]1[C@H](C)CC[C@@]2(C(=O)[O-])CC[C@]3(C)C(=CC[C@@H]4[C@]5(C)CC[C@H](O)C(C)(C)[C@H]5CC[C@@]43C)[C@H]12
REMARK SMILES IDX 7 1 6 2 11 3 33 4 5 5 12 6 15 7 2 8 3 9 13 10 16 11 1 12
REMARK SMILES IDX 4 13 14 14 31 15 17 16 18 17 30 18 32 19 19 20 29 21 28 22
REMARK SMILES IDX 21 23 20 24 25 25 22 26 23 27 26 28 27 29 8 30 9 31 10 32
REMARK SMILES IDX 24 33
REMARK H PARENT 24 34
REMARK Flexibility Score: inf
ROOT
ATOM      1  C   UNL     1       7.274   9.633  37.791  1.00  0.00     0.017 C 
ATOM      2  C   UNL     1       8.130  10.362  36.719  1.00  0.00     0.014 C 
ATOM      3  C   UNL     1       5.854  10.210  37.743  1.00  0.00     0.014 C 
ATOM      4  C   UNL     1       7.157   8.126  37.400  1.00  0.00     0.030 C 
ATOM      5  C   UNL     1       9.527   9.746  36.588  1.00  0.00     0.004 C 
ATOM      6  C   UNL     1       4.946   9.605  38.816  1.00  0.00     0.013 C 
ATOM      7  C   UNL     1       6.068   7.339  38.177  1.00  0.00    -0.063 C 
ATOM      8  C   UNL     1       8.550   7.433  37.147  1.00  0.00    -0.003 C 
ATOM      9  C   UNL     1       9.426   8.272  36.167  1.00  0.00    -0.011 C 
ATOM     10  C   UNL     1       4.877   8.018  38.900  1.00  0.00    -0.006 C 
ATOM     11  C   UNL     1       6.015   6.007  37.995  1.00  0.00    -0.027 C 
ATOM     12  C   UNL     1       9.293   7.015  38.430  1.00  0.00     0.008 C 
ATOM     13  C   UNL     1      10.822   7.673  35.940  1.00  0.00     0.008 C 
ATOM     14  C   UNL     1       5.011   7.636  40.410  1.00  0.00     0.017 C 
ATOM     15  C   UNL     1       3.476   7.449  38.342  1.00  0.00    -0.020 C 
ATOM     16  C   UNL     1       4.779   5.170  38.082  1.00  0.00     0.032 C 
ATOM     17  C   UNL     1       3.421   5.855  38.447  1.00  0.00     0.006 C 
ATOM     18  C   UNL     1       3.308   7.865  36.846  1.00  0.00     0.008 C 
ATOM     19  C   UNL     1       2.300   8.064  39.193  1.00  0.00     0.012 C 
ATOM     20  C   UNL     1       2.177   5.166  37.694  1.00  0.00    -0.025 C 
ATOM     21  C   UNL     1       2.122   7.213  36.115  1.00  0.00     0.005 C 
ATOM     22  C   UNL     1       2.168   5.667  36.198  1.00  0.00     0.003 C 
ATOM     23  C   UNL     1       2.292   3.597  37.719  1.00  0.00     0.010 C 
ATOM     24  C   UNL     1       0.852   5.496  38.465  1.00  0.00     0.012 C 
ATOM     25  C   UNL     1       1.174   4.921  35.218  1.00  0.00    -0.006 C 
ATOM     26  C   UNL     1       1.287   2.881  36.798  1.00  0.00     0.033 C 
ATOM     27  C   UNL     1       1.377   3.374  35.348  1.00  0.00     0.120 C 
ATOM     28  C   UNL     1       1.485   5.315  33.745  1.00  0.00     0.014 C 
ATOM     29  C   UNL     1      -0.316   5.285  35.453  1.00  0.00     0.014 C 
ENDROOT
BRANCH   1  30
ATOM     30  C   UNL     1       7.878   9.909  39.168  1.00  0.00     0.048 C 
ATOM     31  O   UNL     1       8.230  11.080  39.475  1.00  0.00    -0.550 OA
ATOM     32  O   UNL     1       7.982   8.921  40.132  1.00  0.00    -0.550 OA
ENDBRANCH   1  30
BRANCH  27  33
ATOM     33  O   UNL     1       2.632   2.993  34.833  1.00  0.00    -0.393 OA
ATOM     34  H   UNL     1       2.478   2.264  34.177  1.00  0.00     0.210 HD
ENDBRANCH  27  33
TORSDOF 2
ENDMDL
MODEL 6
REMARK VINA RESULT:    -7.002      4.298      7.485
REMARK INTER + INTRA:          -7.135
REMARK INTER:                  -7.642
REMARK INTRA:                   0.507
REMARK UNBOUND:                 0.481
REMARK SMILES C[C@@H]1[C@H](C)CC[C@@]2(C(=O)[O-])CC[C@]3(C)C(=CC[C@@H]4[C@]5(C)CC[C@H](O)C(C)(C)[C@H]5CC[C@@]43C)[C@H]12
REMARK SMILES IDX 7 1 6 2 11 3 33 4 5 5 12 6 15 7 2 8 3 9 13 10 16 11 1 12
REMARK SMILES IDX 4 13 14 14 31 15 17 16 18 17 30 18 32 19 19 20 29 21 28 22
REMARK SMILES IDX 21 23 20 24 25 25 22 26 23 27 26 28 27 29 8 30 9 31 10 32
REMARK SMILES IDX 24 33
REMARK H PARENT 24 34
REMARK Flexibility Score: inf
ROOT
ATOM      1  C   UNL     1       3.169   7.057  39.009  1.00  0.00     0.017 C 
ATOM      2  C   UNL     1       2.582   5.693  39.465  1.00  0.00     0.014 C 
ATOM      3  C   UNL     1       4.276   7.455  39.993  1.00  0.00     0.014 C 
ATOM      4  C   UNL     1       3.855   6.868  37.619  1.00  0.00     0.030 C 
ATOM      5  C   UNL     1       1.571   5.141  38.455  1.00  0.00     0.004 C 
ATOM      6  C   UNL     1       4.873   8.827  39.671  1.00  0.00     0.013 C 
ATOM      7  C   UNL     1       4.772   8.043  37.185  1.00  0.00    -0.063 C 
ATOM      8  C   UNL     1       2.914   6.210  36.538  1.00  0.00    -0.003 C 
ATOM      9  C   UNL     1       2.244   4.916  37.092  1.00  0.00    -0.011 C 
ATOM     10  C   UNL     1       5.370   9.071  38.179  1.00  0.00    -0.006 C 
ATOM     11  C   UNL     1       5.274   8.012  35.937  1.00  0.00    -0.027 C 
ATOM     12  C   UNL     1       1.918   7.186  35.885  1.00  0.00     0.008 C 
ATOM     13  C   UNL     1       1.263   4.271  36.100  1.00  0.00     0.008 C 
ATOM     14  C   UNL     1       4.821  10.468  37.741  1.00  0.00     0.017 C 
ATOM     15  C   UNL     1       6.978   9.089  38.078  1.00  0.00    -0.020 C 
ATOM     16  C   UNL     1       6.585   8.597  35.516  1.00  0.00     0.032 C 
ATOM     17  C   UNL     1       7.456   9.349  36.575  1.00  0.00     0.006 C 
ATOM     18  C   UNL     1       7.541   7.714  38.559  1.00  0.00     0.008 C 
ATOM     19  C   UNL     1       7.534  10.237  39.004  1.00  0.00     0.012 C 
ATOM     20  C   UNL     1       9.031   9.141  36.317  1.00  0.00    -0.025 C 
ATOM     21  C   UNL     1       9.046   7.503  38.317  1.00  0.00     0.005 C 
ATOM     22  C   UNL     1       9.428   7.703  36.829  1.00  0.00     0.003 C 
ATOM     23  C   UNL     1       9.379   9.265  34.787  1.00  0.00     0.010 C 
ATOM     24  C   UNL     1       9.832  10.292  37.018  1.00  0.00     0.012 C 
ATOM     25  C   UNL     1      10.879   7.201  36.445  1.00  0.00    -0.006 C 
ATOM     26  C   UNL     1      10.810   8.820  34.433  1.00  0.00     0.033 C 
ATOM     27  C   UNL     1      11.106   7.391  34.907  1.00  0.00     0.120 C 
ATOM     28  C   UNL     1      11.016   5.683  36.758  1.00  0.00     0.014 C 
ATOM     29  C   UNL     1      12.009   7.906  37.241  1.00  0.00     0.014 C 
ENDROOT
BRANCH   1  30
ATOM     30  C   UNL     1       2.059   8.107  39.056  1.00  0.00     0.048 C 
ATOM     31  O   UNL     1       1.261   8.132  40.031  1.00  0.00    -0.550 OA
ATOM     32  O   UNL     1       1.946   9.095  38.092  1.00  0.00    -0.550 OA
ENDBRANCH   1  30
BRANCH  27  33
ATOM     33  O   UNL     1      10.290   6.508  34.173  1.00  0.00    -0.393 OA
ATOM     34  H   UNL     1       9.969   5.807  34.798  1.00  0.00     0.210 HD
ENDBRANCH  27  33
TORSDOF 2
ENDMDL
MODEL 7
REMARK VINA RESULT:    -6.975      1.745      7.522
REMARK INTER + INTRA:          -7.106
REMARK INTER:                  -7.593
REMARK INTRA:                   0.487
REMARK UNBOUND:                 0.481
REMARK SMILES C[C@@H]1[C@H](C)CC[C@@]2(C(=O)[O-])CC[C@]3(C)C(=CC[C@@H]4[C@]5(C)CC[C@H](O)C(C)(C)[C@H]5CC[C@@]43C)[C@H]12
REMARK SMILES IDX 7 1 6 2 11 3 33 4 5 5 12 6 15 7 2 8 3 9 13 10 16 11 1 12
REMARK SMILES IDX 4 13 14 14 31 15 17 16 18 17 30 18 32 19 19 20 29 21 28 22
REMARK SMILES IDX 21 23 20 24 25 25 22 26 23 27 26 28 27 29 8 30 9 31 10 32
REMARK SMILES IDX 24 33
REMARK H PARENT 24 34
REMARK Flexibility Score: inf
ROOT
ATOM      1  C   UNL     1       3.134   7.706  37.995  1.00  0.00     0.017 C 
ATOM      2  C   UNL     1       3.066   6.815  39.266  1.00  0.00     0.014 C 
ATOM      3  C   UNL     1       1.703   7.923  37.485  1.00  0.00     0.014 C 
ATOM      4  C   UNL     1       3.682   9.111  38.396  1.00  0.00     0.030 C 
ATOM      5  C   UNL     1       4.437   6.669  39.935  1.00  0.00     0.004 C 
ATOM      6  C   UNL     1       1.666   8.733  36.188  1.00  0.00     0.013 C 
ATOM      7  C   UNL     1       3.495  10.211  37.316  1.00  0.00    -0.063 C 
ATOM      8  C   UNL     1       5.048   9.052  39.181  1.00  0.00    -0.003 C 
ATOM      9  C   UNL     1       4.971   8.043  40.367  1.00  0.00    -0.011 C 
ATOM     10  C   UNL     1       2.456  10.114  36.170  1.00  0.00    -0.006 C 
ATOM     11  C   UNL     1       4.076  11.404  37.538  1.00  0.00    -0.027 C 
ATOM     12  C   UNL     1       6.286   8.853  38.286  1.00  0.00     0.008 C 
ATOM     13  C   UNL     1       6.300   7.897  41.125  1.00  0.00     0.008 C 
ATOM     14  C   UNL     1       3.274  10.153  34.839  1.00  0.00     0.017 C 
ATOM     15  C   UNL     1       1.456  11.377  36.204  1.00  0.00    -0.020 C 
ATOM     16  C   UNL     1       3.563  12.721  37.048  1.00  0.00     0.032 C 
ATOM     17  C   UNL     1       2.268  12.754  36.172  1.00  0.00     0.006 C 
ATOM     18  C   UNL     1       0.599  11.323  37.508  1.00  0.00     0.008 C 
ATOM     19  C   UNL     1       0.506  11.308  34.948  1.00  0.00     0.012 C 
ATOM     20  C   UNL     1       1.385  14.070  36.450  1.00  0.00    -0.025 C 
ATOM     21  C   UNL     1      -0.249  12.576  37.785  1.00  0.00     0.005 C 
ATOM     22  C   UNL     1       0.610  13.865  37.809  1.00  0.00     0.003 C 
ATOM     23  C   UNL     1       2.291  15.353  36.555  1.00  0.00     0.010 C 
ATOM     24  C   UNL     1       0.437  14.331  35.230  1.00  0.00     0.012 C 
ATOM     25  C   UNL     1      -0.124  15.140  38.393  1.00  0.00    -0.006 C 
ATOM     26  C   UNL     1       1.554  16.599  37.078  1.00  0.00     0.033 C 
ATOM     27  C   UNL     1       0.876  16.345  38.431  1.00  0.00     0.120 C 
ATOM     28  C   UNL     1      -0.585  14.864  39.854  1.00  0.00     0.014 C 
ATOM     29  C   UNL     1      -1.403  15.533  37.607  1.00  0.00     0.014 C 
ENDROOT
BRANCH   1  30
ATOM     30  C   UNL     1       3.938   6.968  36.924  1.00  0.00     0.048 C 
ATOM     31  O   UNL     1       3.690   5.757  36.678  1.00  0.00    -0.550 OA
ATOM     32  O   UNL     1       4.888   7.613  36.150  1.00  0.00    -0.550 OA
ENDBRANCH   1  30
BRANCH  27  33
ATOM     33  O   UNL     1       1.883  16.124  39.391  1.00  0.00    -0.393 OA
ATOM     34  H   UNL     1       1.796  16.831  40.083  1.00  0.00     0.210 HD
ENDBRANCH  27  33
TORSDOF 2
ENDMDL
MODEL 8
REMARK VINA RESULT:    -6.920      4.912      7.754
REMARK INTER + INTRA:          -7.046
REMARK INTER:                  -7.610
REMARK INTRA:                   0.564
REMARK UNBOUND:                 0.481
REMARK SMILES C[C@@H]1[C@H](C)CC[C@@]2(C(=O)[O-])CC[C@]3(C)C(=CC[C@@H]4[C@]5(C)CC[C@H](O)C(C)(C)[C@H]5CC[C@@]43C)[C@H]12
REMARK SMILES IDX 7 1 6 2 11 3 33 4 5 5 12 6 15 7 2 8 3 9 13 10 16 11 1 12
REMARK SMILES IDX 4 13 14 14 31 15 17 16 18 17 30 18 32 19 19 20 29 21 28 22
REMARK SMILES IDX 21 23 20 24 25 25 22 26 23 27 26 28 27 29 8 30 9 31 10 32
REMARK SMILES IDX 24 33
REMARK H PARENT 24 34
REMARK Flexibility Score: inf
ROOT
ATOM      1  C   UNL     1       2.413   4.882  37.093  1.00  0.00     0.017 C 
ATOM      2  C   UNL     1       2.261   3.721  36.071  1.00  0.00     0.014 C 
ATOM      3  C   UNL     1       3.520   4.505  38.084  1.00  0.00     0.014 C 
ATOM      4  C   UNL     1       2.907   6.155  36.335  1.00  0.00     0.030 C 
ATOM      5  C   UNL     1       1.280   4.075  34.948  1.00  0.00     0.004 C 
ATOM      6  C   UNL     1       3.700   5.557  39.181  1.00  0.00     0.013 C 
ATOM      7  C   UNL     1       3.425   7.294  37.255  1.00  0.00    -0.063 C 
ATOM      8  C   UNL     1       2.009   6.538  35.097  1.00  0.00    -0.003 C 
ATOM      9  C   UNL     1       1.774   5.305  34.172  1.00  0.00    -0.011 C 
ATOM     10  C   UNL     1       3.889   7.067  38.716  1.00  0.00    -0.006 C 
ATOM     11  C   UNL     1       3.725   8.471  36.676  1.00  0.00    -0.027 C 
ATOM     12  C   UNL     1       0.713   7.287  35.460  1.00  0.00     0.008 C 
ATOM     13  C   UNL     1       0.848   5.608  32.983  1.00  0.00     0.008 C 
ATOM     14  C   UNL     1       2.949   7.939  39.610  1.00  0.00     0.017 C 
ATOM     15  C   UNL     1       5.407   7.569  38.913  1.00  0.00    -0.020 C 
ATOM     16  C   UNL     1       4.768   9.430  37.156  1.00  0.00     0.032 C 
ATOM     17  C   UNL     1       5.574   9.091  38.453  1.00  0.00     0.006 C 
ATOM     18  C   UNL     1       6.362   6.674  38.060  1.00  0.00     0.008 C 
ATOM     19  C   UNL     1       5.792   7.444  40.436  1.00  0.00     0.012 C 
ATOM     20  C   UNL     1       7.093   9.616  38.374  1.00  0.00    -0.025 C 
ATOM     21  C   UNL     1       7.818   7.166  37.977  1.00  0.00     0.005 C 
ATOM     22  C   UNL     1       7.909   8.623  37.460  1.00  0.00     0.003 C 
ATOM     23  C   UNL     1       7.165  11.065  37.765  1.00  0.00     0.010 C 
ATOM     24  C   UNL     1       7.677   9.745  39.823  1.00  0.00     0.012 C 
ATOM     25  C   UNL     1       9.365   9.089  37.049  1.00  0.00    -0.006 C 
ATOM     26  C   UNL     1       8.591  11.527  37.415  1.00  0.00     0.033 C 
ATOM     27  C   UNL     1       9.303  10.545  36.475  1.00  0.00     0.120 C 
ATOM     28  C   UNL     1       9.922   8.165  35.928  1.00  0.00     0.014 C 
ATOM     29  C   UNL     1      10.389   9.019  38.212  1.00  0.00     0.014 C 
ENDROOT
BRANCH   1  30
ATOM     30  C   UNL     1       1.096   5.039  37.852  1.00  0.00     0.048 C 
ATOM     31  O   UNL     1       0.421   4.019  38.154  1.00  0.00    -0.550 OA
ATOM     32  O   UNL     1       0.650   6.274  38.296  1.00  0.00    -0.550 OA
ENDBRANCH   1  30
BRANCH  27  33
ATOM     33  O   UNL     1       8.632  10.562  35.236  1.00  0.00    -0.393 OA
ATOM     34  H   UNL     1       9.306  10.758  34.533  1.00  0.00     0.210 HD
ENDBRANCH  27  33
TORSDOF 2
ENDMDL
MODEL 9
REMARK VINA RESULT:    -6.809      4.964      9.138
REMARK INTER + INTRA:          -6.925
REMARK INTER:                  -7.413
REMARK INTRA:                   0.488
REMARK UNBOUND:                 0.481
REMARK SMILES C[C@@H]1[C@H](C)CC[C@@]2(C(=O)[O-])CC[C@]3(C)C(=CC[C@@H]4[C@]5(C)CC[C@H](O)C(C)(C)[C@H]5CC[C@@]43C)[C@H]12
REMARK SMILES IDX 7 1 6 2 11 3 33 4 5 5 12 6 15 7 2 8 3 9 13 10 16 11 1 12
REMARK SMILES IDX 4 13 14 14 31 15 17 16 18 17 30 18 32 19 19 20 29 21 28 22
REMARK SMILES IDX 21 23 20 24 25 25 22 26 23 27 26 28 27 29 8 30 9 31 10 32
REMARK SMILES IDX 24 33
REMARK H PARENT 24 34
REMARK Flexibility Score: inf
ROOT
ATOM      1  C   UNL     1      10.020   7.395  34.600  1.00  0.00     0.017 C 
ATOM      2  C   UNL     1      10.532   6.235  33.700  1.00  0.00     0.014 C 
ATOM      3  C   UNL     1       8.741   7.961  33.971  1.00  0.00     0.014 C 
ATOM      4  C   UNL     1       9.613   6.809  35.989  1.00  0.00     0.030 C 
ATOM      5  C   UNL     1      11.723   5.507  34.331  1.00  0.00     0.004 C 
ATOM      6  C   UNL     1       8.195   9.161  34.746  1.00  0.00     0.013 C 
ATOM      7  C   UNL     1       8.777   7.771  36.875  1.00  0.00    -0.063 C 
ATOM      8  C   UNL     1      10.751   5.957  36.670  1.00  0.00    -0.003 C 
ATOM      9  C   UNL     1      11.324   4.895  35.682  1.00  0.00    -0.011 C 
ATOM     10  C   UNL     1       7.986   8.980  36.314  1.00  0.00    -0.006 C 
ATOM     11  C   UNL     1       8.521   7.387  38.139  1.00  0.00    -0.027 C 
ATOM     12  C   UNL     1      11.838   6.794  37.370  1.00  0.00     0.008 C 
ATOM     13  C   UNL     1      12.485   4.081  36.276  1.00  0.00     0.008 C 
ATOM     14  C   UNL     1       8.587  10.249  37.002  1.00  0.00     0.017 C 
ATOM     15  C   UNL     1       6.427   8.867  36.701  1.00  0.00    -0.020 C 
ATOM     16  C   UNL     1       7.305   7.758  38.927  1.00  0.00     0.032 C 
ATOM     17  C   UNL     1       6.237   8.700  38.279  1.00  0.00     0.006 C 
ATOM     18  C   UNL     1       5.803   7.629  35.981  1.00  0.00     0.008 C 
ATOM     19  C   UNL     1       5.688  10.177  36.228  1.00  0.00     0.012 C 
ATOM     20  C   UNL     1       4.744   8.331  38.750  1.00  0.00    -0.025 C 
ATOM     21  C   UNL     1       4.375   7.267  36.423  1.00  0.00     0.005 C 
ATOM     22  C   UNL     1       4.278   7.052  37.954  1.00  0.00     0.003 C 
ATOM     23  C   UNL     1       4.689   8.034  40.294  1.00  0.00     0.010 C 
ATOM     24  C   UNL     1       3.807   9.569  38.534  1.00  0.00     0.012 C 
ATOM     25  C   UNL     1       2.934   6.375  38.444  1.00  0.00    -0.006 C 
ATOM     26  C   UNL     1       3.358   7.421  40.768  1.00  0.00     0.033 C 
ATOM     27  C   UNL     1       2.999   6.147  39.992  1.00  0.00     0.120 C 
ATOM     28  C   UNL     1       2.763   4.983  37.769  1.00  0.00     0.014 C 
ATOM     29  C   UNL     1       1.663   7.187  38.078  1.00  0.00     0.014 C 
ENDROOT
BRANCH   1  30
ATOM     30  C   UNL     1      11.085   8.490  34.635  1.00  0.00     0.048 C 
ATOM     31  O   UNL     1      11.636   8.864  33.565  1.00  0.00    -0.550 OA
ATOM     32  O   UNL     1      11.415   9.152  35.807  1.00  0.00    -0.550 OA
ENDBRANCH   1  30
BRANCH  27  33
ATOM     33  O   UNL     1       3.953   5.159  40.307  1.00  0.00    -0.393 OA
ATOM     34  H   UNL     1       4.773   5.623  40.620  1.00  0.00     0.210 HD
ENDBRANCH  27  33
TORSDOF 2
ENDMDL
